MODEL 1
REMARK VINA RESULT:     -12.5      0.000      0.000
REMARK SMILES O=C(CC1(NC(=O)C2(c3ccccc3)CC2)CCC1)NCCCCNC(=O)c1ccc(-c2c3nc(c(-c4ccc(S(=O)(=O)[O-])cc4)c4ccc([nH]4)c(-c4ccc(S(=O)(=O)[O-])cc4)c4nc(c(-c5ccc(S(=O)(=O)[O-])cc5)c5ccc2[nH]5)C=C4)C=C3)cc1
REMARK SMILES IDX 22 1 21 2 20 3 1 4 2 5 3 7 4 8 17 9 19 10 18 11 5 12 6 13
REMARK SMILES IDX 7 15 8 16 15 17 16 18 9 19 10 20 14 21 11 22 13 23 12 24
REMARK SMILES IDX 23 25 24 26 25 27 26 28 27 30 28 31 29 32 87 33 30 34 86 35
REMARK SMILES IDX 31 36 32 37 33 38 80 39 34 40 85 41 79 42 81 43 35 44 84 45
REMARK SMILES IDX 78 46 77 47 36 49 66 50 47 51 65 52 48 53 51 54 64 55 82 56
REMARK SMILES IDX 49 57 50 58 63 60 83 61 52 62 37 63 38 64 46 65 39 66 45 67
REMARK SMILES IDX 40 68 41 69 42 70 43 71 44 72 67 73 68 74 76 75 69 76 75 77
REMARK SMILES IDX 70 78 71 79 72 80 73 81 74 82 53 83 54 84 62 85 55 86 61 87
REMARK SMILES IDX 56 88 57 89 58 90 59 91 60 92
REMARK H PARENT 20 6 5 14 25 29 81 48 51 59
REMARK Flexibility Score: inf
ROOT
ATOM      1  C   UNL A   1      39.640  22.258  26.139  1.00  0.00     0.023 C 
ENDROOT
BRANCH   1   2
ATOM      2  C   UNL A   1      38.308  23.012  26.150  1.00  0.00     0.116 C 
BRANCH   2   3
ATOM      3  N   UNL A   1      37.139  22.151  26.120  1.00  0.00    -0.356 N 
ATOM      4  O   UNL A   1      37.013  22.100  23.838  1.00  0.00    -0.275 OA
ATOM      5  C   UNL A   1      36.753  21.564  24.919  1.00  0.00     0.222 C 
ATOM      6  H   UNL A   1      36.624  21.985  26.943  1.00  0.00     0.163 HD
BRANCH   5   7
ATOM      7  C   UNL A   1      35.916  20.068  25.000  1.00  0.00     0.128 C 
BRANCH   7   8
ATOM      8  C   UNL A   1      33.815  19.565  24.729  1.00  0.00     0.049 C 
ATOM      9  C   UNL A   1      32.931  18.447  23.549  1.00  0.00     0.029 C 
ATOM     10  C   UNL A   1      32.644  18.531  25.764  1.00  0.00     0.029 C 
ATOM     11  C   UNL A   1      32.534  17.481  24.668  1.00  0.00     0.005 C 
BRANCH   8  12
ATOM     12  N   UNL A   1      32.449  20.816  24.591  1.00  0.00    -0.349 N 
ATOM     13  C   UNL A   1      32.080  21.863  25.435  1.00  0.00     0.231 C 
ATOM     14  H   UNL A   1      31.890  20.724  23.786  1.00  0.00     0.164 HD
ATOM     15  O   UNL A   1      30.999  22.429  25.409  1.00  0.00    -0.274 OA
BRANCH  13  16
ATOM     16  C   UNL A   1      33.196  22.266  26.284  1.00  0.00     0.074 C 
ATOM     17  C   UNL A   1      32.976  22.343  27.780  1.00  0.00     0.023 C 
ATOM     18  C   UNL A   1      34.036  21.446  27.208  1.00  0.00     0.023 C 
BRANCH  16  19
ATOM     19  C   UNL A   1      33.707  23.407  25.539  1.00  0.00    -0.032 A 
ATOM     20  C   UNL A   1      33.301  25.030  26.259  1.00  0.00     0.005 A 
ATOM     21  C   UNL A   1      33.948  23.267  23.750  1.00  0.00     0.005 A 
ATOM     22  C   UNL A   1      33.298  26.472  25.246  1.00  0.00     0.000 A 
ATOM     23  C   UNL A   1      33.984  24.771  22.743  1.00  0.00     0.000 A 
ATOM     24  C   UNL A   1      33.642  26.349  23.489  1.00  0.00     0.000 A 
ENDBRANCH  16  19
ENDBRANCH  13  16
ENDBRANCH   8  12
ENDBRANCH   7   8
ENDBRANCH   5   7
ENDBRANCH   2   3
ENDBRANCH   1   2
BRANCH   1  25
ATOM     25  C   UNL A   1      40.431  22.231  27.460  1.00  0.00     0.023 C 
BRANCH  25  26
ATOM     26  C   UNL A   1      41.789  22.946  27.479  1.00  0.00     0.116 C 
BRANCH  26  27
ATOM     27  N   UNL A   1      42.030  23.756  26.295  1.00  0.00    -0.352 N 
ATOM     28  C   UNL A   1      41.954  25.113  26.081  1.00  0.00     0.251 C 
ATOM     29  H   UNL A   1      42.298  23.239  25.501  1.00  0.00     0.163 HD
ATOM     30  O   UNL A   1      42.067  25.532  24.931  1.00  0.00    -0.269 OA
BRANCH  28  31
ATOM     31  C   UNL A   1      41.727  26.080  27.185  1.00  0.00     0.039 A 
ATOM     32  C   UNL A   1      40.646  25.864  28.048  1.00  0.00     0.014 A 
ATOM     33  C   UNL A   1      42.506  27.228  27.341  1.00  0.00     0.014 A 
ATOM     34  C   UNL A   1      40.391  26.753  29.099  1.00  0.00     0.010 A 
ATOM     35  C   UNL A   1      42.289  28.081  28.429  1.00  0.00     0.010 A 
ATOM     36  C   UNL A   1      41.233  27.852  29.326  1.00  0.00    -0.014 A 
BRANCH  36  37
ATOM     37  C   UNL A   1      41.041  28.743  30.505  1.00  0.00     0.031 A 
ATOM     38  C   UNL A   1      41.892  28.587  31.741  1.00  0.00     0.074 A 
ATOM     39  C   UNL A   1      40.055  29.665  30.490  1.00  0.00     0.049 A 
ATOM     40  N   UNL A   1      41.828  29.240  32.875  1.00  0.00    -0.248 NA
ATOM     41  C   UNL A   1      42.938  27.553  31.704  1.00  0.00     0.031 C 
ATOM     42  C   UNL A   1      39.141  29.906  29.372  1.00  0.00     0.029 A 
ATOM     43  N   UNL A   1      39.651  30.567  31.445  1.00  0.00    -0.354 N 
ATOM     44  C   UNL A   1      42.810  28.685  33.691  1.00  0.00     0.074 A 
ATOM     45  C   UNL A   1      43.426  27.615  32.935  1.00  0.00     0.031 C 
ATOM     46  C   UNL A   1      38.305  30.905  29.693  1.00  0.00     0.029 A 
ATOM     47  C   UNL A   1      38.584  31.345  31.056  1.00  0.00     0.049 A 
ATOM     48  H   UNL A   1      40.084  30.649  32.326  1.00  0.00     0.167 HD
ATOM     49  C   UNL A   1      43.173  29.041  34.948  1.00  0.00     0.031 A 
ATOM     50  C   UNL A   1      37.898  32.297  31.719  1.00  0.00     0.031 A 
ATOM     51  C   UNL A   1      42.559  30.107  35.699  1.00  0.00     0.049 A 
ATOM     52  C   UNL A   1      38.299  32.649  33.126  1.00  0.00     0.074 A 
ATOM     53  C   UNL A   1      42.898  30.576  36.957  1.00  0.00     0.029 A 
ATOM     54  N   UNL A   1      41.478  30.863  35.270  1.00  0.00    -0.354 N 
ATOM     55  N   UNL A   1      39.276  32.159  33.853  1.00  0.00    -0.248 NA
ATOM     56  C   UNL A   1      37.513  33.694  33.799  1.00  0.00     0.031 C 
ATOM     57  C   UNL A   1      41.979  31.567  37.317  1.00  0.00     0.029 A 
ATOM     58  C   UNL A   1      41.115  31.769  36.253  1.00  0.00     0.049 A 
ATOM     59  H   UNL A   1      41.034  30.767  34.397  1.00  0.00     0.167 HD
ATOM     60  C   UNL A   1      39.240  32.857  35.055  1.00  0.00     0.074 A 
ATOM     61  C   UNL A   1      38.157  33.814  34.952  1.00  0.00     0.031 C 
ATOM     62  C   UNL A   1      40.036  32.720  36.145  1.00  0.00     0.031 A 
BRANCH  49  63
ATOM     63  C   UNL A   1      44.282  28.256  35.606  1.00  0.00    -0.014 A 
ATOM     64  C   UNL A   1      44.013  27.101  36.363  1.00  0.00     0.010 A 
ATOM     65  C   UNL A   1      45.621  28.650  35.419  1.00  0.00     0.010 A 
ATOM     66  C   UNL A   1      45.055  26.382  36.955  1.00  0.00     0.020 A 
ATOM     67  C   UNL A   1      46.668  27.915  35.982  1.00  0.00     0.020 A 
ATOM     68  C   UNL A   1      46.377  26.794  36.763  1.00  0.00     0.054 A 
BRANCH  68  69
ATOM     69  S   UNL A   1      47.708  25.829  37.527  1.00  0.00     0.124 S 
ATOM     70  O   UNL A   1      47.162  25.561  38.855  1.00  0.00    -0.237 OA
ATOM     71  O   UNL A   1      47.809  24.669  36.645  1.00  0.00    -0.237 OA
ATOM     72  O   UNL A   1      48.855  26.733  37.499  1.00  0.00    -0.744 OA
ENDBRANCH  68  69
ENDBRANCH  49  63
BRANCH  50  73
ATOM     73  C   UNL A   1      36.759  32.994  31.057  1.00  0.00    -0.014 A 
ATOM     74  C   UNL A   1      35.446  32.832  31.535  1.00  0.00     0.010 A 
ATOM     75  C   UNL A   1      36.981  33.828  29.945  1.00  0.00     0.010 A 
ATOM     76  C   UNL A   1      34.376  33.474  30.903  1.00  0.00     0.020 A 
ATOM     77  C   UNL A   1      35.917  34.497  29.331  1.00  0.00     0.020 A 
ATOM     78  C   UNL A   1      34.619  34.306  29.807  1.00  0.00     0.054 A 
BRANCH  78  79
ATOM     79  S   UNL A   1      33.221  35.165  29.036  1.00  0.00     0.124 S 
ATOM     80  O   UNL A   1      32.759  34.182  28.062  1.00  0.00    -0.237 OA
ATOM     81  O   UNL A   1      32.331  35.399  30.171  1.00  0.00    -0.237 OA
ATOM     82  O   UNL A   1      33.827  36.369  28.470  1.00  0.00    -0.744 OA
ENDBRANCH  78  79
ENDBRANCH  50  73
BRANCH  62  83
ATOM     83  C   UNL A   1      39.798  33.653  37.305  1.00  0.00    -0.014 A 
ATOM     84  C   UNL A   1      40.429  34.907  37.382  1.00  0.00     0.010 A 
ATOM     85  C   UNL A   1      38.883  33.286  38.311  1.00  0.00     0.010 A 
ATOM     86  C   UNL A   1      40.175  35.762  38.459  1.00  0.00     0.020 A 
ATOM     87  C   UNL A   1      38.601  34.152  39.370  1.00  0.00     0.020 A 
ATOM     88  C   UNL A   1      39.261  35.380  39.445  1.00  0.00     0.054 A 
BRANCH  88  89
ATOM     89  S   UNL A   1      38.914  36.527  40.806  1.00  0.00     0.124 S 
ATOM     90  O   UNL A   1      40.232  36.682  41.416  1.00  0.00    -0.237 OA
ATOM     91  O   UNL A   1      38.402  37.705  40.109  1.00  0.00    -0.237 OA
ATOM     92  O   UNL A   1      37.932  35.815  41.620  1.00  0.00    -0.744 OA
ENDBRANCH  88  89
ENDBRANCH  62  83
ENDBRANCH  36  37
ENDBRANCH  28  31
ENDBRANCH  26  27
ENDBRANCH  25  26
ENDBRANCH   1  25
TORSDOF 18
ENDMDL
MODEL 2
REMARK VINA RESULT:     -12.5      1.098      2.023
REMARK SMILES O=C(CC1(NC(=O)C2(c3ccccc3)CC2)CCC1)NCCCCNC(=O)c1ccc(-c2c3nc(c(-c4ccc(S(=O)(=O)[O-])cc4)c4ccc([nH]4)c(-c4ccc(S(=O)(=O)[O-])cc4)c4nc(c(-c5ccc(S(=O)(=O)[O-])cc5)c5ccc2[nH]5)C=C4)C=C3)cc1
REMARK SMILES IDX 22 1 21 2 20 3 1 4 2 5 3 7 4 8 17 9 19 10 18 11 5 12 6 13
REMARK SMILES IDX 7 15 8 16 15 17 16 18 9 19 10 20 14 21 11 22 13 23 12 24
REMARK SMILES IDX 23 25 24 26 25 27 26 28 27 30 28 31 29 32 87 33 30 34 86 35
REMARK SMILES IDX 31 36 32 37 33 38 80 39 34 40 85 41 79 42 81 43 35 44 84 45
REMARK SMILES IDX 78 46 77 47 36 49 66 50 47 51 65 52 48 53 51 54 64 55 82 56
REMARK SMILES IDX 49 57 50 58 63 60 83 61 52 62 37 63 38 64 46 65 39 66 45 67
REMARK SMILES IDX 40 68 41 69 42 70 43 71 44 72 67 73 68 74 76 75 69 76 75 77
REMARK SMILES IDX 70 78 71 79 72 80 73 81 74 82 53 83 54 84 62 85 55 86 61 87
REMARK SMILES IDX 56 88 57 89 58 90 59 91 60 92
REMARK H PARENT 20 6 5 14 25 29 81 48 51 59
REMARK Flexibility Score: inf
ROOT
ATOM      1  C   UNL A   1      40.284  21.455  26.153  1.00  0.00     0.023 C 
ENDROOT
BRANCH   1   2
ATOM      2  C   UNL A   1      38.756  21.549  26.131  1.00  0.00     0.116 C 
BRANCH   2   3
ATOM      3  N   UNL A   1      38.227  22.370  25.056  1.00  0.00    -0.356 N 
ATOM      4  O   UNL A   1      36.522  20.932  24.555  1.00  0.00    -0.275 OA
ATOM      5  C   UNL A   1      36.972  22.081  24.529  1.00  0.00     0.222 C 
ATOM      6  H   UNL A   1      38.753  23.125  24.703  1.00  0.00     0.163 HD
BRANCH   5   7
ATOM      7  C   UNL A   1      36.075  23.380  23.857  1.00  0.00     0.128 C 
BRANCH   7   8
ATOM      8  C   UNL A   1      34.018  23.513  23.153  1.00  0.00     0.049 C 
ATOM      9  C   UNL A   1      32.923  24.942  22.731  1.00  0.00     0.029 C 
ATOM     10  C   UNL A   1      33.247  23.110  21.494  1.00  0.00     0.029 C 
ATOM     11  C   UNL A   1      32.912  24.573  21.246  1.00  0.00     0.005 C 
BRANCH   8  12
ATOM     12  N   UNL A   1      32.586  22.625  23.936  1.00  0.00    -0.349 N 
ATOM     13  C   UNL A   1      32.365  22.232  25.255  1.00  0.00     0.231 C 
ATOM     14  H   UNL A   1      31.860  22.394  23.313  1.00  0.00     0.164 HD
ATOM     15  O   UNL A   1      31.543  21.400  25.604  1.00  0.00    -0.274 OA
BRANCH  13  16
ATOM     16  C   UNL A   1      33.174  23.022  26.177  1.00  0.00     0.074 C 
ATOM     17  C   UNL A   1      33.281  22.568  27.617  1.00  0.00     0.023 C 
ATOM     18  C   UNL A   1      34.512  22.724  26.770  1.00  0.00     0.023 C 
BRANCH  16  19
ATOM     19  C   UNL A   1      32.729  24.368  25.844  1.00  0.00    -0.032 A 
ATOM     20  C   UNL A   1      34.039  25.634  25.882  1.00  0.00     0.005 A 
ATOM     21  C   UNL A   1      31.019  24.852  26.187  1.00  0.00     0.005 A 
ATOM     22  C   UNL A   1      33.622  27.332  26.097  1.00  0.00     0.000 A 
ATOM     23  C   UNL A   1      30.616  26.608  26.360  1.00  0.00     0.000 A 
ATOM     24  C   UNL A   1      31.913  27.825  26.332  1.00  0.00     0.000 A 
ENDBRANCH  16  19
ENDBRANCH  13  16
ENDBRANCH   8  12
ENDBRANCH   7   8
ENDBRANCH   5   7
ENDBRANCH   2   3
ENDBRANCH   1   2
BRANCH   1  25
ATOM     25  C   UNL A   1      40.985  21.887  27.453  1.00  0.00     0.023 C 
BRANCH  25  26
ATOM     26  C   UNL A   1      42.022  23.014  27.350  1.00  0.00     0.116 C 
BRANCH  26  27
ATOM     27  N   UNL A   1      41.806  23.893  26.210  1.00  0.00    -0.352 N 
ATOM     28  C   UNL A   1      41.411  25.208  26.129  1.00  0.00     0.251 C 
ATOM     29  H   UNL A   1      41.974  23.469  25.338  1.00  0.00     0.163 HD
ATOM     30  O   UNL A   1      41.160  25.677  25.021  1.00  0.00    -0.269 OA
BRANCH  28  31
ATOM     31  C   UNL A   1      41.265  26.069  27.329  1.00  0.00     0.039 A 
ATOM     32  C   UNL A   1      42.242  27.042  27.576  1.00  0.00     0.014 A 
ATOM     33  C   UNL A   1      40.232  25.891  28.253  1.00  0.00     0.014 A 
ATOM     34  C   UNL A   1      42.146  27.873  28.698  1.00  0.00     0.010 A 
ATOM     35  C   UNL A   1      40.103  26.763  29.339  1.00  0.00     0.010 A 
ATOM     36  C   UNL A   1      41.054  27.769  29.574  1.00  0.00    -0.014 A 
BRANCH  36  37
ATOM     37  C   UNL A   1      40.880  28.719  30.709  1.00  0.00     0.031 A 
ATOM     38  C   UNL A   1      41.736  28.612  31.946  1.00  0.00     0.074 A 
ATOM     39  C   UNL A   1      39.907  29.652  30.654  1.00  0.00     0.049 A 
ATOM     40  N   UNL A   1      41.688  29.319  33.048  1.00  0.00    -0.248 NA
ATOM     41  C   UNL A   1      42.769  27.563  31.954  1.00  0.00     0.031 C 
ATOM     42  C   UNL A   1      38.989  29.851  29.530  1.00  0.00     0.029 A 
ATOM     43  N   UNL A   1      39.519  30.604  31.567  1.00  0.00    -0.354 N 
ATOM     44  C   UNL A   1      42.667  28.792  33.885  1.00  0.00     0.074 A 
ATOM     45  C   UNL A   1      43.264  27.678  33.178  1.00  0.00     0.031 C 
ATOM     46  C   UNL A   1      38.168  30.875  29.807  1.00  0.00     0.029 A 
ATOM     47  C   UNL A   1      38.461  31.377  31.146  1.00  0.00     0.049 A 
ATOM     48  H   UNL A   1      39.958  30.723  32.440  1.00  0.00     0.167 HD
ATOM     49  C   UNL A   1      43.042  29.203  35.121  1.00  0.00     0.031 A 
ATOM     50  C   UNL A   1      37.790  32.369  31.766  1.00  0.00     0.031 A 
ATOM     51  C   UNL A   1      42.446  30.312  35.823  1.00  0.00     0.049 A 
ATOM     52  C   UNL A   1      38.205  32.783  33.151  1.00  0.00     0.074 A 
ATOM     53  C   UNL A   1      42.798  30.837  37.055  1.00  0.00     0.029 A 
ATOM     54  N   UNL A   1      41.372  31.060  35.364  1.00  0.00    -0.354 N 
ATOM     55  N   UNL A   1      39.179  32.316  33.896  1.00  0.00    -0.248 NA
ATOM     56  C   UNL A   1      37.436  33.869  33.778  1.00  0.00     0.031 C 
ATOM     57  C   UNL A   1      41.894  31.856  37.372  1.00  0.00     0.029 A 
ATOM     58  C   UNL A   1      41.027  32.018  36.303  1.00  0.00     0.049 A 
ATOM     59  H   UNL A   1      40.922  30.929  34.498  1.00  0.00     0.167 HD
ATOM     60  C   UNL A   1      39.159  33.071  35.064  1.00  0.00     0.074 A 
ATOM     61  C   UNL A   1      38.088  34.037  34.920  1.00  0.00     0.031 C 
ATOM     62  C   UNL A   1      39.959  32.976  36.155  1.00  0.00     0.031 A 
BRANCH  49  63
ATOM     63  C   UNL A   1      44.144  28.436  35.811  1.00  0.00    -0.014 A 
ATOM     64  C   UNL A   1      45.497  28.779  35.636  1.00  0.00     0.010 A 
ATOM     65  C   UNL A   1      43.817  27.389  36.695  1.00  0.00     0.010 A 
ATOM     66  C   UNL A   1      46.502  28.063  36.293  1.00  0.00     0.020 A 
ATOM     67  C   UNL A   1      44.816  26.693  37.380  1.00  0.00     0.020 A 
ATOM     68  C   UNL A   1      46.155  27.023  37.160  1.00  0.00     0.054 A 
BRANCH  68  69
ATOM     69  S   UNL A   1      47.481  26.126  38.014  1.00  0.00     0.124 S 
ATOM     70  O   UNL A   1      48.675  26.775  37.481  1.00  0.00    -0.237 OA
ATOM     71  O   UNL A   1      47.194  26.396  39.420  1.00  0.00    -0.237 OA
ATOM     72  O   UNL A   1      47.289  24.739  37.596  1.00  0.00    -0.744 OA
ENDBRANCH  68  69
ENDBRANCH  49  63
BRANCH  50  73
ATOM     73  C   UNL A   1      36.657  33.048  31.076  1.00  0.00    -0.014 A 
ATOM     74  C   UNL A   1      35.377  33.073  31.659  1.00  0.00     0.010 A 
ATOM     75  C   UNL A   1      36.852  33.679  29.833  1.00  0.00     0.010 A 
ATOM     76  C   UNL A   1      34.311  33.696  31.004  1.00  0.00     0.020 A 
ATOM     77  C   UNL A   1      35.795  34.332  29.191  1.00  0.00     0.020 A 
ATOM     78  C   UNL A   1      34.528  34.326  29.775  1.00  0.00     0.054 A 
BRANCH  78  79
ATOM     79  S   UNL A   1      33.139  35.170  28.969  1.00  0.00     0.124 S 
ATOM     80  O   UNL A   1      32.707  34.178  27.990  1.00  0.00    -0.237 OA
ATOM     81  O   UNL A   1      32.223  35.401  30.084  1.00  0.00    -0.237 OA
ATOM     82  O   UNL A   1      33.748  36.376  28.412  1.00  0.00    -0.744 OA
ENDBRANCH  78  79
ENDBRANCH  50  73
BRANCH  62  83
ATOM     83  C   UNL A   1      39.741  33.967  37.269  1.00  0.00    -0.014 A 
ATOM     84  C   UNL A   1      38.970  33.645  38.400  1.00  0.00     0.010 A 
ATOM     85  C   UNL A   1      40.366  35.228  37.206  1.00  0.00     0.010 A 
ATOM     86  C   UNL A   1      38.801  34.576  39.430  1.00  0.00     0.020 A 
ATOM     87  C   UNL A   1      40.228  36.148  38.248  1.00  0.00     0.020 A 
ATOM     88  C   UNL A   1      39.433  35.821  39.348  1.00  0.00     0.054 A 
BRANCH  88  89
ATOM     89  S   UNL A   1      39.236  36.992  40.719  1.00  0.00     0.124 S 
ATOM     90  O   UNL A   1      40.618  37.376  40.992  1.00  0.00    -0.237 OA
ATOM     91  O   UNL A   1      38.398  38.035  40.131  1.00  0.00    -0.237 OA
ATOM     92  O   UNL A   1      38.592  36.200  41.764  1.00  0.00    -0.744 OA
ENDBRANCH  88  89
ENDBRANCH  62  83
ENDBRANCH  36  37
ENDBRANCH  28  31
ENDBRANCH  26  27
ENDBRANCH  25  26
ENDBRANCH   1  25
TORSDOF 18
ENDMDL
MODEL 3
REMARK VINA RESULT:     -12.4      4.246      7.998
REMARK SMILES O=C(CC1(NC(=O)C2(c3ccccc3)CC2)CCC1)NCCCCNC(=O)c1ccc(-c2c3nc(c(-c4ccc(S(=O)(=O)[O-])cc4)c4ccc([nH]4)c(-c4ccc(S(=O)(=O)[O-])cc4)c4nc(c(-c5ccc(S(=O)(=O)[O-])cc5)c5ccc2[nH]5)C=C4)C=C3)cc1
REMARK SMILES IDX 22 1 21 2 20 3 1 4 2 5 3 7 4 8 17 9 19 10 18 11 5 12 6 13
REMARK SMILES IDX 7 15 8 16 15 17 16 18 9 19 10 20 14 21 11 22 13 23 12 24
REMARK SMILES IDX 23 25 24 26 25 27 26 28 27 30 28 31 29 32 87 33 30 34 86 35
REMARK SMILES IDX 31 36 32 37 33 38 80 39 34 40 85 41 79 42 81 43 35 44 84 45
REMARK SMILES IDX 78 46 77 47 36 49 66 50 47 51 65 52 48 53 51 54 64 55 82 56
REMARK SMILES IDX 49 57 50 58 63 60 83 61 52 62 37 63 38 64 46 65 39 66 45 67
REMARK SMILES IDX 40 68 41 69 42 70 43 71 44 72 67 73 68 74 76 75 69 76 75 77
REMARK SMILES IDX 70 78 71 79 72 80 73 81 74 82 53 83 54 84 62 85 55 86 61 87
REMARK SMILES IDX 56 88 57 89 58 90 59 91 60 92
REMARK H PARENT 20 6 5 14 25 29 81 48 51 59
REMARK Flexibility Score: inf
ROOT
ATOM      1  C   UNL A   1      42.432  22.652  25.382  1.00  0.00     0.023 C 
ENDROOT
BRANCH   1   2
ATOM      2  C   UNL A   1      43.899  22.763  24.962  1.00  0.00     0.116 C 
BRANCH   2   3
ATOM      3  N   UNL A   1      44.797  23.152  26.036  1.00  0.00    -0.356 N 
ATOM      4  O   UNL A   1      46.697  22.616  24.884  1.00  0.00    -0.275 OA
ATOM      5  C   UNL A   1      46.158  23.275  25.777  1.00  0.00     0.222 C 
ATOM      6  H   UNL A   1      44.443  23.327  26.939  1.00  0.00     0.163 HD
BRANCH   5   7
ATOM      7  C   UNL A   1      47.051  24.380  26.739  1.00  0.00     0.128 C 
BRANCH   7   8
ATOM      8  C   UNL A   1      48.393  26.011  26.208  1.00  0.00     0.049 C 
ATOM      9  C   UNL A   1      49.510  27.097  27.206  1.00  0.00     0.029 C 
ATOM     10  C   UNL A   1      50.044  26.019  25.322  1.00  0.00     0.029 C 
ATOM     11  C   UNL A   1      50.765  26.484  26.579  1.00  0.00     0.005 C 
BRANCH   8  12
ATOM     12  N   UNL A   1      47.914  27.455  25.143  1.00  0.00    -0.349 N 
ATOM     13  C   UNL A   1      46.724  28.177  25.063  1.00  0.00     0.231 C 
ATOM     14  H   UNL A   1      48.620  27.763  24.530  1.00  0.00     0.164 HD
ATOM     15  O   UNL A   1      46.411  28.902  24.133  1.00  0.00    -0.274 OA
BRANCH  13  16
ATOM     16  C   UNL A   1      45.945  28.035  26.289  1.00  0.00     0.074 C 
ATOM     17  C   UNL A   1      44.724  27.141  26.272  1.00  0.00     0.023 C 
ATOM     18  C   UNL A   1      45.850  26.879  27.231  1.00  0.00     0.023 C 
BRANCH  16  19
ATOM     19  C   UNL A   1      45.856  29.424  26.716  1.00  0.00    -0.032 A 
ATOM     20  C   UNL A   1      47.305  30.032  27.639  1.00  0.00     0.005 A 
ATOM     21  C   UNL A   1      44.232  30.154  27.039  1.00  0.00     0.005 A 
ATOM     22  C   UNL A   1      47.151  31.418  28.715  1.00  0.00     0.000 A 
ATOM     23  C   UNL A   1      44.113  31.605  28.116  1.00  0.00     0.000 A 
ATOM     24  C   UNL A   1      45.559  32.210  28.955  1.00  0.00     0.000 A 
ENDBRANCH  16  19
ENDBRANCH  13  16
ENDBRANCH   8  12
ENDBRANCH   7   8
ENDBRANCH   5   7
ENDBRANCH   2   3
ENDBRANCH   1   2
BRANCH   1  25
ATOM     25  C   UNL A   1      42.029  21.389  26.163  1.00  0.00     0.023 C 
BRANCH  25  26
ATOM     26  C   UNL A   1      40.741  21.459  26.995  1.00  0.00     0.116 C 
BRANCH  26  27
ATOM     27  N   UNL A   1      39.565  21.803  26.210  1.00  0.00    -0.352 N 
ATOM     28  C   UNL A   1      38.828  22.960  26.122  1.00  0.00     0.251 C 
ATOM     29  H   UNL A   1      39.238  21.073  25.635  1.00  0.00     0.163 HD
ATOM     30  O   UNL A   1      37.777  22.939  25.484  1.00  0.00    -0.269 OA
BRANCH  28  31
ATOM     31  C   UNL A   1      39.248  24.222  26.781  1.00  0.00     0.039 A 
ATOM     32  C   UNL A   1      38.822  24.463  28.093  1.00  0.00     0.014 A 
ATOM     33  C   UNL A   1      39.986  25.202  26.113  1.00  0.00     0.014 A 
ATOM     34  C   UNL A   1      39.191  25.642  28.753  1.00  0.00     0.010 A 
ATOM     35  C   UNL A   1      40.407  26.350  26.793  1.00  0.00     0.010 A 
ATOM     36  C   UNL A   1      40.020  26.583  28.123  1.00  0.00    -0.014 A 
BRANCH  36  37
ATOM     37  C   UNL A   1      40.512  27.789  28.849  1.00  0.00     0.031 A 
ATOM     38  C   UNL A   1      41.887  27.814  29.466  1.00  0.00     0.074 A 
ATOM     39  C   UNL A   1      39.695  28.851  29.005  1.00  0.00     0.049 A 
ATOM     40  N   UNL A   1      42.457  28.756  30.176  1.00  0.00    -0.248 NA
ATOM     41  C   UNL A   1      42.725  26.618  29.277  1.00  0.00     0.031 C 
ATOM     42  C   UNL A   1      38.330  28.953  28.483  1.00  0.00     0.029 A 
ATOM     43  N   UNL A   1      39.887  30.048  29.655  1.00  0.00    -0.354 N 
ATOM     44  C   UNL A   1      43.709  28.263  30.532  1.00  0.00     0.074 A 
ATOM     45  C   UNL A   1      43.797  26.921  29.996  1.00  0.00     0.031 C 
ATOM     46  C   UNL A   1      37.821  30.151  28.807  1.00  0.00     0.029 A 
ATOM     47  C   UNL A   1      38.798  30.888  29.603  1.00  0.00     0.049 A 
ATOM     48  H   UNL A   1      40.726  30.283  30.113  1.00  0.00     0.167 HD
ATOM     49  C   UNL A   1      44.698  28.874  31.231  1.00  0.00     0.031 A 
ATOM     50  C   UNL A   1      38.597  32.107  30.141  1.00  0.00     0.031 A 
ATOM     51  C   UNL A   1      44.608  30.210  31.764  1.00  0.00     0.049 A 
ATOM     52  C   UNL A   1      39.698  32.749  30.941  1.00  0.00     0.074 A 
ATOM     53  C   UNL A   1      45.579  30.932  32.436  1.00  0.00     0.029 A 
ATOM     54  N   UNL A   1      43.485  31.021  31.696  1.00  0.00    -0.354 N 
ATOM     55  N   UNL A   1      40.899  32.292  31.207  1.00  0.00    -0.248 NA
ATOM     56  C   UNL A   1      39.421  34.079  31.505  1.00  0.00     0.031 C 
ATOM     57  C   UNL A   1      45.021  32.152  32.835  1.00  0.00     0.029 A 
ATOM     58  C   UNL A   1      43.727  32.220  32.344  1.00  0.00     0.049 A 
ATOM     59  H   UNL A   1      42.640  30.778  31.252  1.00  0.00     0.167 HD
ATOM     60  C   UNL A   1      41.531  33.290  31.941  1.00  0.00     0.074 A 
ATOM     61  C   UNL A   1      40.585  34.382  32.063  1.00  0.00     0.031 C 
ATOM     62  C   UNL A   1      42.782  33.304  32.463  1.00  0.00     0.031 A 
BRANCH  49  63
ATOM     63  C   UNL A   1      45.966  28.094  31.479  1.00  0.00    -0.014 A 
ATOM     64  C   UNL A   1      46.115  27.278  32.615  1.00  0.00     0.010 A 
ATOM     65  C   UNL A   1      47.006  28.136  30.531  1.00  0.00     0.010 A 
ATOM     66  C   UNL A   1      47.294  26.556  32.821  1.00  0.00     0.020 A 
ATOM     67  C   UNL A   1      48.173  27.388  30.716  1.00  0.00     0.020 A 
ATOM     68  C   UNL A   1      48.317  26.617  31.870  1.00  0.00     0.054 A 
BRANCH  68  69
ATOM     69  S   UNL A   1      49.826  25.651  32.155  1.00  0.00     0.124 S 
ATOM     70  O   UNL A   1      50.742  26.668  32.666  1.00  0.00    -0.237 OA
ATOM     71  O   UNL A   1      49.389  24.655  33.130  1.00  0.00    -0.237 OA
ATOM     72  O   UNL A   1      50.158  25.124  30.834  1.00  0.00    -0.744 OA
ENDBRANCH  68  69
ENDBRANCH  49  63
BRANCH  50  73
ATOM     73  C   UNL A   1      37.299  32.810  29.935  1.00  0.00    -0.014 A 
ATOM     74  C   UNL A   1      37.056  33.531  28.752  1.00  0.00     0.010 A 
ATOM     75  C   UNL A   1      36.294  32.757  30.919  1.00  0.00     0.010 A 
ATOM     76  C   UNL A   1      35.844  34.203  28.566  1.00  0.00     0.020 A 
ATOM     77  C   UNL A   1      35.068  33.400  30.721  1.00  0.00     0.020 A 
ATOM     78  C   UNL A   1      34.855  34.129  29.551  1.00  0.00     0.054 A 
BRANCH  78  79
ATOM     79  S   UNL A   1      33.273  34.968  29.264  1.00  0.00     0.124 S 
ATOM     80  O   UNL A   1      32.646  34.102  28.270  1.00  0.00    -0.237 OA
ATOM     81  O   UNL A   1      32.664  34.953  30.592  1.00  0.00    -0.237 OA
ATOM     82  O   UNL A   1      33.668  36.290  28.782  1.00  0.00    -0.744 OA
ENDBRANCH  78  79
ENDBRANCH  50  73
BRANCH  62  83
ATOM     83  C   UNL A   1      43.226  34.552  33.181  1.00  0.00    -0.014 A 
ATOM     84  C   UNL A   1      43.764  35.650  32.486  1.00  0.00     0.010 A 
ATOM     85  C   UNL A   1      43.051  34.647  34.575  1.00  0.00     0.010 A 
ATOM     86  C   UNL A   1      44.149  36.804  33.175  1.00  0.00     0.020 A 
ATOM     87  C   UNL A   1      43.403  35.811  35.263  1.00  0.00     0.020 A 
ATOM     88  C   UNL A   1      43.963  36.878  34.559  1.00  0.00     0.054 A 
BRANCH  88  89
ATOM     89  S   UNL A   1      44.428  38.404  35.422  1.00  0.00     0.124 S 
ATOM     90  O   UNL A   1      43.777  38.231  36.718  1.00  0.00    -0.237 OA
ATOM     91  O   UNL A   1      45.887  38.332  35.436  1.00  0.00    -0.237 OA
ATOM     92  O   UNL A   1      43.870  39.462  34.583  1.00  0.00    -0.744 OA
ENDBRANCH  88  89
ENDBRANCH  62  83
ENDBRANCH  36  37
ENDBRANCH  28  31
ENDBRANCH  26  27
ENDBRANCH  25  26
ENDBRANCH   1  25
TORSDOF 18
ENDMDL
