MODEL 1
REMARK VINA RESULT:     -10.8      0.000      0.000
REMARK SMILES COCC[C@@]1(C(=O)NCCCCNC(=O)c2ccc(-c3c4nc(c(-c5ccc(S(=O)(=O)[O-])cc5)c5ccc([nH]5)c(-c5ccc(S(=O)(=O)[O-])cc5)c5nc(c(-c6ccc(S(=O)(=O)[O-])cc6)c6ccc3[nH]6)C=C5)C=C4)cc2)CCCN(C(=O)c2scc3c2OCCO3)C1
REMARK SMILES IDX 10 1 9 2 8 3 6 4 7 5 5 7 76 8 91 9 77 10 79 11 78 12 4 13
REMARK SMILES IDX 3 14 2 15 1 16 80 17 81 18 82 19 83 20 86 21 84 22 85 23
REMARK SMILES IDX 87 24 90 25 88 26 89 27 11 28 12 29 13 30 14 31 15 33 16 34
REMARK SMILES IDX 17 35 75 36 18 37 74 38 19 39 20 40 21 41 68 42 22 43 73 44
REMARK SMILES IDX 67 45 69 46 23 47 72 48 66 49 65 50 24 52 54 53 35 54 53 55
REMARK SMILES IDX 36 56 39 57 52 58 70 59 37 60 38 61 51 63 71 64 40 65 25 66
REMARK SMILES IDX 26 67 34 68 27 69 33 70 28 71 29 72 30 73 31 74 32 75 55 76
REMARK SMILES IDX 56 77 64 78 57 79 63 80 58 81 59 82 60 83 61 84 62 85 41 86
REMARK SMILES IDX 42 87 50 88 43 89 49 90 44 91 45 92 46 93 47 94 48 95
REMARK H PARENT 8 6 13 32 69 51 39 62
REMARK Flexibility Score: inf
ROOT
ATOM      1  C   UNL A   1      31.614  29.250  26.838  1.00  0.00     0.023 C 
ENDROOT
BRANCH   1   2
ATOM      2  C   UNL A   1      31.433  30.056  25.554  1.00  0.00     0.116 C 
BRANCH   2   3
ATOM      3  N   UNL A   1      32.352  29.628  24.525  1.00  0.00    -0.356 N 
ATOM      4  C   UNL A   1      32.228  28.867  23.413  1.00  0.00     0.228 C 
ATOM      5  O   UNL A   1      33.268  28.775  22.754  1.00  0.00    -0.274 OA
ATOM      6  H   UNL A   1      33.268  29.963  24.662  1.00  0.00     0.163 HD
BRANCH   4   7
ATOM      7  C   UNL A   1      30.893  28.307  22.869  1.00  0.00     0.069 C 
ATOM      8  C   UNL A   1      29.868  27.776  23.910  1.00  0.00     0.021 C 
ATOM      9  C   UNL A   1      31.215  27.116  21.925  1.00  0.00     0.136 C 
ATOM     10  C   UNL A   1      30.283  26.460  24.579  1.00  0.00     0.023 C 
ATOM     11  N   UNL A   1      31.541  25.858  22.608  1.00  0.00    -0.337 N 
ATOM     12  C   UNL A   1      30.547  25.369  23.547  1.00  0.00     0.120 C 
BRANCH   7  13
ATOM     13  C   UNL A   1      30.211  29.469  22.069  1.00  0.00     0.047 C 
BRANCH  13  14
ATOM     14  C   UNL A   1      28.674  29.519  22.097  1.00  0.00     0.161 C 
BRANCH  14  15
ATOM     15  O   UNL A   1      28.191  30.844  22.341  1.00  0.00    -0.385 OA
ATOM     16  C   UNL A   1      28.792  31.477  23.461  1.00  0.00     0.194 C 
ENDBRANCH  14  15
ENDBRANCH  13  14
ENDBRANCH   7  13
BRANCH  11  17
ATOM     17  C   UNL A   1      32.773  25.246  22.349  1.00  0.00     0.267 C 
ATOM     18  O   UNL A   1      33.304  25.347  21.245  1.00  0.00    -0.268 OA
BRANCH  17  19
ATOM     19  C   UNL A   1      33.313  24.307  23.312  1.00  0.00     0.138 A 
ATOM     20  S   UNL A   1      34.372  24.981  24.501  1.00  0.00    -0.131 S 
ATOM     21  C   UNL A   1      32.987  23.008  23.637  1.00  0.00     0.185 A 
ATOM     22  C   UNL A   1      34.133  23.659  25.560  1.00  0.00     0.116 A 
ATOM     23  C   UNL A   1      33.391  22.674  24.962  1.00  0.00     0.172 A 
ATOM     24  O   UNL A   1      32.291  22.155  22.845  1.00  0.00    -0.484 OA
ATOM     25  O   UNL A   1      33.104  21.515  25.602  1.00  0.00    -0.485 OA
ATOM     26  C   UNL A   1      32.491  20.803  23.317  1.00  0.00     0.271 C 
ATOM     27  C   UNL A   1      32.227  20.681  24.822  1.00  0.00     0.271 C 
ENDBRANCH  17  19
ENDBRANCH  11  17
ENDBRANCH   4   7
ENDBRANCH   2   3
ENDBRANCH   1   2
BRANCH   1  28
ATOM     28  C   UNL A   1      32.763  28.241  26.799  1.00  0.00     0.023 C 
BRANCH  28  29
ATOM     29  C   UNL A   1      34.091  28.782  27.305  1.00  0.00     0.116 C 
BRANCH  29  30
ATOM     30  N   UNL A   1      33.970  30.127  27.851  1.00  0.00    -0.352 N 
ATOM     31  C   UNL A   1      34.881  30.837  28.589  1.00  0.00     0.251 C 
ATOM     32  H   UNL A   1      33.119  30.588  27.664  1.00  0.00     0.163 HD
ATOM     33  O   UNL A   1      34.561  31.900  29.112  1.00  0.00    -0.269 OA
BRANCH  31  34
ATOM     34  C   UNL A   1      36.239  30.289  28.765  1.00  0.00     0.039 A 
ATOM     35  C   UNL A   1      37.158  30.409  27.723  1.00  0.00     0.014 A 
ATOM     36  C   UNL A   1      36.607  29.699  29.977  1.00  0.00     0.014 A 
ATOM     37  C   UNL A   1      38.472  29.987  27.918  1.00  0.00     0.010 A 
ATOM     38  C   UNL A   1      37.934  29.353  30.196  1.00  0.00     0.010 A 
ATOM     39  C   UNL A   1      38.878  29.487  29.168  1.00  0.00    -0.014 A 
BRANCH  39  40
ATOM     40  C   UNL A   1      40.287  29.099  29.418  1.00  0.00     0.031 A 
ATOM     41  C   UNL A   1      41.251  30.102  29.990  1.00  0.00     0.074 A 
ATOM     42  C   UNL A   1      40.710  27.868  29.064  1.00  0.00     0.049 A 
ATOM     43  N   UNL A   1      42.530  29.969  30.227  1.00  0.00    -0.248 NA
ATOM     44  C   UNL A   1      40.718  31.437  30.311  1.00  0.00     0.031 C 
ATOM     45  C   UNL A   1      39.879  26.830  28.448  1.00  0.00     0.029 A 
ATOM     46  N   UNL A   1      41.949  27.286  29.161  1.00  0.00    -0.354 N 
ATOM     47  C   UNL A   1      42.958  31.205  30.698  1.00  0.00     0.074 A 
ATOM     48  C   UNL A   1      41.814  32.088  30.674  1.00  0.00     0.031 C 
ATOM     49  C   UNL A   1      40.625  25.734  28.241  1.00  0.00     0.029 A 
ATOM     50  C   UNL A   1      41.995  26.001  28.669  1.00  0.00     0.049 A 
ATOM     51  H   UNL A   1      42.730  27.743  29.545  1.00  0.00     0.167 HD
ATOM     52  C   UNL A   1      44.190  31.566  31.126  1.00  0.00     0.031 A 
ATOM     53  C   UNL A   1      43.026  25.142  28.561  1.00  0.00     0.031 A 
ATOM     54  C   UNL A   1      45.317  30.673  31.170  1.00  0.00     0.049 A 
ATOM     55  C   UNL A   1      44.382  25.564  29.062  1.00  0.00     0.074 A 
ATOM     56  C   UNL A   1      46.585  30.918  31.667  1.00  0.00     0.029 A 
ATOM     57  N   UNL A   1      45.316  29.371  30.695  1.00  0.00    -0.354 N 
ATOM     58  N   UNL A   1      44.742  26.707  29.596  1.00  0.00    -0.248 NA
ATOM     59  C   UNL A   1      45.466  24.577  28.959  1.00  0.00     0.031 C 
ATOM     60  C   UNL A   1      47.369  29.784  31.435  1.00  0.00     0.029 A 
ATOM     61  C   UNL A   1      46.570  28.810  30.857  1.00  0.00     0.049 A 
ATOM     62  H   UNL A   1      44.538  28.913  30.301  1.00  0.00     0.167 HD
ATOM     63  C   UNL A   1      46.088  26.566  29.917  1.00  0.00     0.074 A 
ATOM     64  C   UNL A   1      46.470  25.222  29.536  1.00  0.00     0.031 C 
ATOM     65  C   UNL A   1      46.932  27.468  30.476  1.00  0.00     0.031 A 
BRANCH  52  66
ATOM     66  C   UNL A   1      44.392  32.988  31.579  1.00  0.00    -0.014 A 
ATOM     67  C   UNL A   1      44.703  34.010  30.663  1.00  0.00     0.010 A 
ATOM     68  C   UNL A   1      44.194  33.319  32.932  1.00  0.00     0.010 A 
ATOM     69  C   UNL A   1      44.838  35.330  31.098  1.00  0.00     0.020 A 
ATOM     70  C   UNL A   1      44.300  34.644  33.365  1.00  0.00     0.020 A 
ATOM     71  C   UNL A   1      44.631  35.640  32.445  1.00  0.00     0.054 A 
BRANCH  71  72
ATOM     72  S   UNL A   1      44.760  37.372  32.968  1.00  0.00     0.124 S 
ATOM     73  O   UNL A   1      43.929  37.386  34.170  1.00  0.00    -0.237 OA
ATOM     74  O   UNL A   1      46.193  37.532  33.193  1.00  0.00    -0.237 OA
ATOM     75  O   UNL A   1      44.222  38.119  31.833  1.00  0.00    -0.744 OA
ENDBRANCH  71  72
ENDBRANCH  52  66
BRANCH  53  76
ATOM     76  C   UNL A   1      42.820  23.798  27.952  1.00  0.00    -0.014 A 
ATOM     77  C   UNL A   1      43.049  23.584  26.582  1.00  0.00     0.010 A 
ATOM     78  C   UNL A   1      42.384  22.721  28.747  1.00  0.00     0.010 A 
ATOM     79  C   UNL A   1      42.817  22.328  26.011  1.00  0.00     0.020 A 
ATOM     80  C   UNL A   1      42.182  21.457  28.187  1.00  0.00     0.020 A 
ATOM     81  C   UNL A   1      42.383  21.272  26.818  1.00  0.00     0.054 A 
BRANCH  81  82
ATOM     82  S   UNL A   1      42.120  19.644  26.064  1.00  0.00     0.124 S 
ATOM     83  O   UNL A   1      43.026  19.688  24.921  1.00  0.00    -0.237 OA
ATOM     84  O   UNL A   1      42.499  18.731  27.140  1.00  0.00    -0.237 OA
ATOM     85  O   UNL A   1      40.695  19.647  25.734  1.00  0.00    -0.744 OA
ENDBRANCH  81  82
ENDBRANCH  53  76
BRANCH  65  86
ATOM     86  C   UNL A   1      48.345  27.023  30.749  1.00  0.00    -0.014 A 
ATOM     87  C   UNL A   1      49.362  27.192  29.794  1.00  0.00     0.010 A 
ATOM     88  C   UNL A   1      48.668  26.485  32.009  1.00  0.00     0.010 A 
ATOM     89  C   UNL A   1      50.671  26.798  30.082  1.00  0.00     0.020 A 
ATOM     90  C   UNL A   1      49.981  26.121  32.312  1.00  0.00     0.020 A 
ATOM     91  C   UNL A   1      50.973  26.267  31.340  1.00  0.00     0.054 A 
BRANCH  91  92
ATOM     92  S   UNL A   1      52.688  25.807  31.705  1.00  0.00     0.124 S 
ATOM     93  O   UNL A   1      52.546  24.418  32.133  1.00  0.00    -0.237 OA
ATOM     94  O   UNL A   1      53.352  26.003  30.420  1.00  0.00    -0.237 OA
ATOM     95  O   UNL A   1      53.083  26.744  32.754  1.00  0.00    -0.744 OA
ENDBRANCH  91  92
ENDBRANCH  65  86
ENDBRANCH  39  40
ENDBRANCH  31  34
ENDBRANCH  29  30
ENDBRANCH  28  29
ENDBRANCH   1  28
TORSDOF 19
ENDMDL
MODEL 2
REMARK VINA RESULT:     -10.7      3.332      9.472
REMARK SMILES COCC[C@@]1(C(=O)NCCCCNC(=O)c2ccc(-c3c4nc(c(-c5ccc(S(=O)(=O)[O-])cc5)c5ccc([nH]5)c(-c5ccc(S(=O)(=O)[O-])cc5)c5nc(c(-c6ccc(S(=O)(=O)[O-])cc6)c6ccc3[nH]6)C=C5)C=C4)cc2)CCCN(C(=O)c2scc3c2OCCO3)C1
REMARK SMILES IDX 10 1 9 2 8 3 6 4 7 5 5 7 76 8 91 9 77 10 79 11 78 12 4 13
REMARK SMILES IDX 3 14 2 15 1 16 80 17 81 18 82 19 83 20 86 21 84 22 85 23
REMARK SMILES IDX 87 24 90 25 88 26 89 27 11 28 12 29 13 30 14 31 15 33 16 34
REMARK SMILES IDX 17 35 75 36 18 37 74 38 19 39 20 40 21 41 68 42 22 43 73 44
REMARK SMILES IDX 67 45 69 46 23 47 72 48 66 49 65 50 24 52 54 53 35 54 53 55
REMARK SMILES IDX 36 56 39 57 52 58 70 59 37 60 38 61 51 63 71 64 40 65 25 66
REMARK SMILES IDX 26 67 34 68 27 69 33 70 28 71 29 72 30 73 31 74 32 75 55 76
REMARK SMILES IDX 56 77 64 78 57 79 63 80 58 81 59 82 60 83 61 84 62 85 41 86
REMARK SMILES IDX 42 87 50 88 43 89 49 90 44 91 45 92 46 93 47 94 48 95
REMARK H PARENT 8 6 13 32 69 51 39 62
REMARK Flexibility Score: inf
ROOT
ATOM      1  C   UNL A   1      36.944  20.294  25.136  1.00  0.00     0.023 C 
ENDROOT
BRANCH   1   2
ATOM      2  C   UNL A   1      36.737  21.768  25.477  1.00  0.00     0.116 C 
BRANCH   2   3
ATOM      3  N   UNL A   1      35.610  21.955  26.360  1.00  0.00    -0.356 N 
ATOM      4  C   UNL A   1      34.281  22.120  26.163  1.00  0.00     0.228 C 
ATOM      5  O   UNL A   1      33.629  22.202  27.208  1.00  0.00    -0.274 OA
ATOM      6  H   UNL A   1      35.862  21.965  27.311  1.00  0.00     0.163 HD
BRANCH   4   7
ATOM      7  C   UNL A   1      33.572  22.025  24.792  1.00  0.00     0.069 C 
ATOM      8  C   UNL A   1      34.291  22.669  23.574  1.00  0.00     0.021 C 
ATOM      9  C   UNL A   1      32.193  22.731  24.910  1.00  0.00     0.136 C 
ATOM     10  C   UNL A   1      34.302  24.202  23.594  1.00  0.00     0.023 C 
ATOM     11  N   UNL A   1      32.243  24.197  24.856  1.00  0.00    -0.337 N 
ATOM     12  C   UNL A   1      32.889  24.769  23.688  1.00  0.00     0.120 C 
BRANCH   7  13
ATOM     13  C   UNL A   1      33.380  20.500  24.489  1.00  0.00     0.047 C 
BRANCH  13  14
ATOM     14  C   UNL A   1      32.958  19.609  25.670  1.00  0.00     0.161 C 
BRANCH  14  15
ATOM     15  O   UNL A   1      32.003  18.619  25.272  1.00  0.00    -0.385 OA
ATOM     16  C   UNL A   1      32.581  17.365  24.939  1.00  0.00     0.194 C 
ENDBRANCH  14  15
ENDBRANCH  13  14
ENDBRANCH   7  13
BRANCH  11  17
ATOM     17  C   UNL A   1      31.717  24.932  25.925  1.00  0.00     0.267 C 
ATOM     18  O   UNL A   1      31.386  24.373  26.968  1.00  0.00    -0.268 OA
BRANCH  17  19
ATOM     19  C   UNL A   1      31.353  26.320  25.718  1.00  0.00     0.138 A 
ATOM     20  S   UNL A   1      32.302  27.479  26.582  1.00  0.00    -0.131 S 
ATOM     21  C   UNL A   1      30.549  26.949  24.793  1.00  0.00     0.185 A 
ATOM     22  C   UNL A   1      31.856  28.739  25.515  1.00  0.00     0.116 A 
ATOM     23  C   UNL A   1      30.902  28.319  24.625  1.00  0.00     0.172 A 
ATOM     24  O   UNL A   1      29.586  26.344  24.053  1.00  0.00    -0.484 OA
ATOM     25  O   UNL A   1      30.372  29.160  23.704  1.00  0.00    -0.485 OA
ATOM     26  C   UNL A   1      28.699  27.351  23.516  1.00  0.00     0.271 C 
ATOM     27  C   UNL A   1      29.473  28.474  22.814  1.00  0.00     0.271 C 
ENDBRANCH  17  19
ENDBRANCH  11  17
ENDBRANCH   4   7
ENDBRANCH   2   3
ENDBRANCH   1   2
BRANCH   1  28
ATOM     28  C   UNL A   1      38.403  19.894  24.909  1.00  0.00     0.023 C 
BRANCH  28  29
ATOM     29  C   UNL A   1      39.338  20.252  26.053  1.00  0.00     0.116 C 
BRANCH  29  30
ATOM     30  N   UNL A   1      40.505  19.383  26.109  1.00  0.00    -0.352 N 
ATOM     31  C   UNL A   1      41.826  19.730  26.233  1.00  0.00     0.251 C 
ATOM     32  H   UNL A   1      40.321  18.417  26.049  1.00  0.00     0.163 HD
ATOM     33  O   UNL A   1      42.704  18.882  26.100  1.00  0.00    -0.269 OA
BRANCH  31  34
ATOM     34  C   UNL A   1      42.172  21.139  26.499  1.00  0.00     0.039 A 
ATOM     35  C   UNL A   1      42.453  21.531  27.808  1.00  0.00     0.014 A 
ATOM     36  C   UNL A   1      42.259  22.053  25.446  1.00  0.00     0.014 A 
ATOM     37  C   UNL A   1      42.881  22.835  28.053  1.00  0.00     0.010 A 
ATOM     38  C   UNL A   1      42.761  23.326  25.682  1.00  0.00     0.010 A 
ATOM     39  C   UNL A   1      43.071  23.731  26.988  1.00  0.00    -0.014 A 
BRANCH  39  40
ATOM     40  C   UNL A   1      43.592  25.099  27.221  1.00  0.00     0.031 A 
ATOM     41  C   UNL A   1      45.038  25.409  26.941  1.00  0.00     0.074 A 
ATOM     42  C   UNL A   1      42.782  26.040  27.748  1.00  0.00     0.049 A 
ATOM     43  N   UNL A   1      45.691  26.525  27.132  1.00  0.00    -0.248 NA
ATOM     44  C   UNL A   1      45.866  24.315  26.404  1.00  0.00     0.031 C 
ATOM     45  C   UNL A   1      41.377  25.839  28.113  1.00  0.00     0.029 A 
ATOM     46  N   UNL A   1      43.026  27.348  28.080  1.00  0.00    -0.354 N 
ATOM     47  C   UNL A   1      47.006  26.262  26.767  1.00  0.00     0.074 A 
ATOM     48  C   UNL A   1      47.069  24.870  26.381  1.00  0.00     0.031 C 
ATOM     49  C   UNL A   1      40.880  26.988  28.599  1.00  0.00     0.029 A 
ATOM     50  C   UNL A   1      41.938  27.994  28.620  1.00  0.00     0.049 A 
ATOM     51  H   UNL A   1      43.898  27.784  27.945  1.00  0.00     0.167 HD
ATOM     52  C   UNL A   1      48.061  27.109  26.738  1.00  0.00     0.031 A 
ATOM     53  C   UNL A   1      41.809  29.249  29.092  1.00  0.00     0.031 A 
ATOM     54  C   UNL A   1      47.983  28.499  27.100  1.00  0.00     0.049 A 
ATOM     55  C   UNL A   1      42.996  30.174  29.032  1.00  0.00     0.074 A 
ATOM     56  C   UNL A   1      48.975  29.461  27.023  1.00  0.00     0.029 A 
ATOM     57  N   UNL A   1      46.856  29.123  27.609  1.00  0.00    -0.354 N 
ATOM     58  N   UNL A   1      44.206  29.932  28.589  1.00  0.00    -0.248 NA
ATOM     59  C   UNL A   1      42.794  31.545  29.522  1.00  0.00     0.031 C 
ATOM     60  C   UNL A   1      48.466  30.652  27.547  1.00  0.00     0.029 A 
ATOM     61  C   UNL A   1      47.137  30.451  27.883  1.00  0.00     0.049 A 
ATOM     62  H   UNL A   1      45.985  28.688  27.755  1.00  0.00     0.167 HD
ATOM     63  C   UNL A   1      44.904  31.128  28.723  1.00  0.00     0.074 A 
ATOM     64  C   UNL A   1      43.973  32.095  29.268  1.00  0.00     0.031 C 
ATOM     65  C   UNL A   1      46.197  31.401  28.422  1.00  0.00     0.031 A 
BRANCH  52  66
ATOM     66  C   UNL A   1      49.396  26.560  26.309  1.00  0.00    -0.014 A 
ATOM     67  C   UNL A   1      49.931  26.847  25.040  1.00  0.00     0.010 A 
ATOM     68  C   UNL A   1      50.160  25.804  27.219  1.00  0.00     0.010 A 
ATOM     69  C   UNL A   1      51.193  26.365  24.680  1.00  0.00     0.020 A 
ATOM     70  C   UNL A   1      51.434  25.347  26.872  1.00  0.00     0.020 A 
ATOM     71  C   UNL A   1      51.938  25.622  25.601  1.00  0.00     0.054 A 
BRANCH  71  72
ATOM     72  S   UNL A   1      53.595  25.060  25.124  1.00  0.00     0.124 S 
ATOM     73  O   UNL A   1      53.670  25.491  23.729  1.00  0.00    -0.237 OA
ATOM     74  O   UNL A   1      54.457  25.786  26.052  1.00  0.00    -0.237 OA
ATOM     75  O   UNL A   1      53.543  23.614  25.325  1.00  0.00    -0.744 OA
ENDBRANCH  71  72
ENDBRANCH  52  66
BRANCH  53  76
ATOM     76  C   UNL A   1      40.512  29.704  29.665  1.00  0.00    -0.014 A 
ATOM     77  C   UNL A   1      39.524  30.280  28.848  1.00  0.00     0.010 A 
ATOM     78  C   UNL A   1      40.262  29.566  31.044  1.00  0.00     0.010 A 
ATOM     79  C   UNL A   1      38.324  30.739  29.401  1.00  0.00     0.020 A 
ATOM     80  C   UNL A   1      39.051  29.993  31.595  1.00  0.00     0.020 A 
ATOM     81  C   UNL A   1      38.096  30.593  30.773  1.00  0.00     0.054 A 
BRANCH  81  82
ATOM     82  S   UNL A   1      36.519  31.165  31.464  1.00  0.00     0.124 S 
ATOM     83  O   UNL A   1      36.903  32.423  32.094  1.00  0.00    -0.237 OA
ATOM     84  O   UNL A   1      35.676  31.280  30.277  1.00  0.00    -0.237 OA
ATOM     85  O   UNL A   1      36.141  30.093  32.384  1.00  0.00    -0.744 OA
ENDBRANCH  81  82
ENDBRANCH  53  76
BRANCH  65  86
ATOM     86  C   UNL A   1      46.678  32.812  28.637  1.00  0.00    -0.014 A 
ATOM     87  C   UNL A   1      47.286  33.202  29.843  1.00  0.00     0.010 A 
ATOM     88  C   UNL A   1      46.575  33.744  27.587  1.00  0.00     0.010 A 
ATOM     89  C   UNL A   1      47.751  34.509  30.007  1.00  0.00     0.020 A 
ATOM     90  C   UNL A   1      47.069  35.041  27.736  1.00  0.00     0.020 A 
ATOM     91  C   UNL A   1      47.642  35.420  28.951  1.00  0.00     0.054 A 
BRANCH  91  92
ATOM     92  S   UNL A   1      48.295  37.096  29.173  1.00  0.00     0.124 S 
ATOM     93  O   UNL A   1      47.361  37.894  28.383  1.00  0.00    -0.237 OA
ATOM     94  O   UNL A   1      48.214  37.282  30.619  1.00  0.00    -0.237 OA
ATOM     95  O   UNL A   1      49.652  37.014  28.636  1.00  0.00    -0.744 OA
ENDBRANCH  91  92
ENDBRANCH  65  86
ENDBRANCH  39  40
ENDBRANCH  31  34
ENDBRANCH  29  30
ENDBRANCH  28  29
ENDBRANCH   1  28
TORSDOF 19
ENDMDL
MODEL 3
REMARK VINA RESULT:     -10.7      2.709      3.317
REMARK SMILES COCC[C@@]1(C(=O)NCCCCNC(=O)c2ccc(-c3c4nc(c(-c5ccc(S(=O)(=O)[O-])cc5)c5ccc([nH]5)c(-c5ccc(S(=O)(=O)[O-])cc5)c5nc(c(-c6ccc(S(=O)(=O)[O-])cc6)c6ccc3[nH]6)C=C5)C=C4)cc2)CCCN(C(=O)c2scc3c2OCCO3)C1
REMARK SMILES IDX 10 1 9 2 8 3 6 4 7 5 5 7 76 8 91 9 77 10 79 11 78 12 4 13
REMARK SMILES IDX 3 14 2 15 1 16 80 17 81 18 82 19 83 20 86 21 84 22 85 23
REMARK SMILES IDX 87 24 90 25 88 26 89 27 11 28 12 29 13 30 14 31 15 33 16 34
REMARK SMILES IDX 17 35 75 36 18 37 74 38 19 39 20 40 21 41 68 42 22 43 73 44
REMARK SMILES IDX 67 45 69 46 23 47 72 48 66 49 65 50 24 52 54 53 35 54 53 55
REMARK SMILES IDX 36 56 39 57 52 58 70 59 37 60 38 61 51 63 71 64 40 65 25 66
REMARK SMILES IDX 26 67 34 68 27 69 33 70 28 71 29 72 30 73 31 74 32 75 55 76
REMARK SMILES IDX 56 77 64 78 57 79 63 80 58 81 59 82 60 83 61 84 62 85 41 86
REMARK SMILES IDX 42 87 50 88 43 89 49 90 44 91 45 92 46 93 47 94 48 95
REMARK H PARENT 8 6 13 32 69 51 39 62
REMARK Flexibility Score: inf
ROOT
ATOM      1  C   UNL A   1      33.922  30.029  27.346  1.00  0.00     0.023 C 
ENDROOT
BRANCH   1   2
ATOM      2  C   UNL A   1      32.954  29.982  26.166  1.00  0.00     0.116 C 
BRANCH   2   3
ATOM      3  N   UNL A   1      33.600  29.496  24.969  1.00  0.00    -0.356 N 
ATOM      4  C   UNL A   1      33.200  28.715  23.939  1.00  0.00     0.228 C 
ATOM      5  O   UNL A   1      34.059  28.568  23.064  1.00  0.00    -0.274 OA
ATOM      6  H   UNL A   1      34.533  29.799  24.884  1.00  0.00     0.163 HD
BRANCH   4   7
ATOM      7  C   UNL A   1      31.759  28.194  23.731  1.00  0.00     0.069 C 
ATOM      8  C   UNL A   1      30.996  27.695  24.989  1.00  0.00     0.021 C 
ATOM      9  C   UNL A   1      31.815  26.993  22.747  1.00  0.00     0.136 C 
ATOM     10  C   UNL A   1      31.520  26.368  25.552  1.00  0.00     0.023 C 
ATOM     11  N   UNL A   1      32.258  25.726  23.343  1.00  0.00    -0.337 N 
ATOM     12  C   UNL A   1      31.501  25.268  24.495  1.00  0.00     0.120 C 
BRANCH   7  13
ATOM     13  C   UNL A   1      30.941  29.374  23.106  1.00  0.00     0.047 C 
BRANCH  13  14
ATOM     14  C   UNL A   1      29.568  29.023  22.509  1.00  0.00     0.161 C 
BRANCH  14  15
ATOM     15  O   UNL A   1      29.288  29.790  21.333  1.00  0.00    -0.385 OA
ATOM     16  C   UNL A   1      28.048  30.481  21.379  1.00  0.00     0.194 C 
ENDBRANCH  14  15
ENDBRANCH  13  14
ENDBRANCH   7  13
BRANCH  11  17
ATOM     17  C   UNL A   1      33.375  25.078  22.805  1.00  0.00     0.267 C 
ATOM     18  O   UNL A   1      33.825  25.409  21.709  1.00  0.00    -0.268 OA
BRANCH  17  19
ATOM     19  C   UNL A   1      33.865  23.869  23.437  1.00  0.00     0.138 A 
ATOM     20  S   UNL A   1      35.247  24.065  24.457  1.00  0.00    -0.131 S 
ATOM     21  C   UNL A   1      33.328  22.609  23.589  1.00  0.00     0.185 A 
ATOM     22  C   UNL A   1      34.924  22.605  25.288  1.00  0.00     0.116 A 
ATOM     23  C   UNL A   1      33.886  21.925  24.707  1.00  0.00     0.172 A 
ATOM     24  O   UNL A   1      32.328  22.089  22.835  1.00  0.00    -0.484 OA
ATOM     25  O   UNL A   1      33.476  20.722  25.177  1.00  0.00    -0.485 OA
ATOM     26  C   UNL A   1      32.310  20.652  22.999  1.00  0.00     0.271 C 
ATOM     27  C   UNL A   1      32.309  20.250  24.479  1.00  0.00     0.271 C 
ENDBRANCH  17  19
ENDBRANCH  11  17
ENDBRANCH   4   7
ENDBRANCH   2   3
ENDBRANCH   1   2
BRANCH   1  28
ATOM     28  C   UNL A   1      34.499  31.416  27.640  1.00  0.00     0.023 C 
BRANCH  28  29
ATOM     29  C   UNL A   1      35.799  31.400  28.429  1.00  0.00     0.116 C 
BRANCH  29  30
ATOM     30  N   UNL A   1      35.598  31.024  29.822  1.00  0.00    -0.352 N 
ATOM     31  C   UNL A   1      36.464  30.383  30.670  1.00  0.00     0.251 C 
ATOM     32  H   UNL A   1      34.722  31.262  30.206  1.00  0.00     0.163 HD
ATOM     33  O   UNL A   1      36.080  29.993  31.768  1.00  0.00    -0.269 OA
BRANCH  31  34
ATOM     34  C   UNL A   1      37.850  30.145  30.227  1.00  0.00     0.039 A 
ATOM     35  C   UNL A   1      38.845  29.961  31.188  1.00  0.00     0.014 A 
ATOM     36  C   UNL A   1      38.150  30.061  28.865  1.00  0.00     0.014 A 
ATOM     37  C   UNL A   1      40.137  29.633  30.779  1.00  0.00     0.010 A 
ATOM     38  C   UNL A   1      39.416  29.657  28.464  1.00  0.00     0.010 A 
ATOM     39  C   UNL A   1      40.424  29.445  29.416  1.00  0.00    -0.014 A 
BRANCH  39  40
ATOM     40  C   UNL A   1      41.773  29.028  28.967  1.00  0.00     0.031 A 
ATOM     41  C   UNL A   1      42.875  30.047  28.856  1.00  0.00     0.074 A 
ATOM     42  C   UNL A   1      41.985  27.749  28.594  1.00  0.00     0.049 A 
ATOM     43  N   UNL A   1      44.102  29.888  28.432  1.00  0.00    -0.248 NA
ATOM     44  C   UNL A   1      42.551  31.430  29.246  1.00  0.00     0.031 C 
ATOM     45  C   UNL A   1      40.977  26.686  28.603  1.00  0.00     0.029 A 
ATOM     46  N   UNL A   1      43.115  27.130  28.121  1.00  0.00    -0.354 N 
ATOM     47  C   UNL A   1      44.684  31.149  28.477  1.00  0.00     0.074 A 
ATOM     48  C   UNL A   1      43.667  32.071  28.931  1.00  0.00     0.031 C 
ATOM     49  C   UNL A   1      41.538  25.543  28.177  1.00  0.00     0.029 A 
ATOM     50  C   UNL A   1      42.931  25.799  27.825  1.00  0.00     0.049 A 
ATOM     51  H   UNL A   1      43.974  27.594  28.005  1.00  0.00     0.167 HD
ATOM     52  C   UNL A   1      45.957  31.503  28.184  1.00  0.00     0.031 A 
ATOM     53  C   UNL A   1      43.784  24.890  27.313  1.00  0.00     0.031 A 
ATOM     54  C   UNL A   1      46.969  30.574  27.757  1.00  0.00     0.049 A 
ATOM     55  C   UNL A   1      45.199  25.309  27.012  1.00  0.00     0.074 A 
ATOM     56  C   UNL A   1      48.310  30.819  27.518  1.00  0.00     0.029 A 
ATOM     57  N   UNL A   1      46.754  29.230  27.502  1.00  0.00    -0.354 N 
ATOM     58  N   UNL A   1      45.757  26.487  27.156  1.00  0.00    -0.248 NA
ATOM     59  C   UNL A   1      46.102  24.272  26.493  1.00  0.00     0.031 C 
ATOM     60  C   UNL A   1      48.892  29.635  27.056  1.00  0.00     0.029 A 
ATOM     61  C   UNL A   1      47.930  28.638  27.074  1.00  0.00     0.049 A 
ATOM     62  H   UNL A   1      45.893  28.764  27.608  1.00  0.00     0.167 HD
ATOM     63  C   UNL A   1      47.084  26.327  26.771  1.00  0.00     0.074 A 
ATOM     64  C   UNL A   1      47.247  24.934  26.407  1.00  0.00     0.031 C 
ATOM     65  C   UNL A   1      48.076  27.248  26.721  1.00  0.00     0.031 A 
BRANCH  52  66
ATOM     66  C   UNL A   1      46.331  32.957  28.305  1.00  0.00    -0.014 A 
ATOM     67  C   UNL A   1      47.052  33.436  29.414  1.00  0.00     0.010 A 
ATOM     68  C   UNL A   1      46.020  33.842  27.257  1.00  0.00     0.010 A 
ATOM     69  C   UNL A   1      47.430  34.779  29.484  1.00  0.00     0.020 A 
ATOM     70  C   UNL A   1      46.422  35.180  27.310  1.00  0.00     0.020 A 
ATOM     71  C   UNL A   1      47.116  35.642  28.429  1.00  0.00     0.054 A 
BRANCH  71  72
ATOM     72  S   UNL A   1      47.670  37.366  28.523  1.00  0.00     0.124 S 
ATOM     73  O   UNL A   1      46.415  38.072  28.775  1.00  0.00    -0.237 OA
ATOM     74  O   UNL A   1      48.610  37.339  29.640  1.00  0.00    -0.237 OA
ATOM     75  O   UNL A   1      48.269  37.612  27.214  1.00  0.00    -0.744 OA
ENDBRANCH  71  72
ENDBRANCH  52  66
BRANCH  53  76
ATOM     76  C   UNL A   1      43.325  23.498  27.050  1.00  0.00    -0.014 A 
ATOM     77  C   UNL A   1      43.159  22.581  28.102  1.00  0.00     0.010 A 
ATOM     78  C   UNL A   1      43.057  23.080  25.733  1.00  0.00     0.010 A 
ATOM     79  C   UNL A   1      42.764  21.265  27.842  1.00  0.00     0.020 A 
ATOM     80  C   UNL A   1      42.631  21.775  25.471  1.00  0.00     0.020 A 
ATOM     81  C   UNL A   1      42.503  20.870  26.526  1.00  0.00     0.054 A 
BRANCH  81  82
ATOM     82  S   UNL A   1      41.961  19.168  26.214  1.00  0.00     0.124 S 
ATOM     83  O   UNL A   1      42.867  18.751  25.149  1.00  0.00    -0.237 OA
ATOM     84  O   UNL A   1      42.167  18.527  27.510  1.00  0.00    -0.237 OA
ATOM     85  O   UNL A   1      40.561  19.322  25.821  1.00  0.00    -0.744 OA
ENDBRANCH  81  82
ENDBRANCH  53  76
BRANCH  65  86
ATOM     86  C   UNL A   1      49.443  26.778  26.296  1.00  0.00    -0.014 A 
ATOM     87  C   UNL A   1      50.242  25.992  27.145  1.00  0.00     0.010 A 
ATOM     88  C   UNL A   1      49.904  27.078  25.001  1.00  0.00     0.010 A 
ATOM     89  C   UNL A   1      51.493  25.543  26.716  1.00  0.00     0.020 A 
ATOM     90  C   UNL A   1      51.140  26.603  24.558  1.00  0.00     0.020 A 
ATOM     91  C   UNL A   1      51.933  25.849  25.425  1.00  0.00     0.054 A 
BRANCH  91  92
ATOM     92  S   UNL A   1      53.542  25.215  24.877  1.00  0.00     0.124 S 
ATOM     93  O   UNL A   1      53.472  23.815  25.285  1.00  0.00    -0.237 OA
ATOM     94  O   UNL A   1      53.505  25.453  23.436  1.00  0.00    -0.237 OA
ATOM     95  O   UNL A   1      54.505  26.030  25.613  1.00  0.00    -0.744 OA
ENDBRANCH  91  92
ENDBRANCH  65  86
ENDBRANCH  39  40
ENDBRANCH  31  34
ENDBRANCH  29  30
ENDBRANCH  28  29
ENDBRANCH   1  28
TORSDOF 19
ENDMDL
