MODEL 1
REMARK VINA RESULT:     -14.8      0.000      0.000
REMARK SMILES O=C1C[C@H](c2cn[nH]c2C(=O)NCCCCNC(=O)c2ccc(-c3c4nc(c(-c5ccc(S(=O)(=O)[O-])cc5)c5ccc([nH]5)c(-c5ccc(S(=O)(=O)[O-])cc5)c5nc(c(-c6ccc(S(=O)(=O)[O-])cc6)c6ccc3[nH]6)C=C5)C=C4)cc2)c2c(-c3cccs3)n[nH]c2N1
REMARK SMILES IDX 15 1 14 2 13 3 12 4 10 5 11 6 9 8 5 9 6 10 7 11 8 12 4 14
REMARK SMILES IDX 1 15 2 16 3 17 90 18 89 19 80 21 88 22 81 23 87 24 82 26
REMARK SMILES IDX 83 27 86 28 84 29 85 30 16 31 17 32 18 33 19 35 20 36 21 37
REMARK SMILES IDX 79 38 22 39 78 40 23 41 24 42 25 43 72 44 26 45 77 46 71 47
REMARK SMILES IDX 73 48 27 49 76 50 70 51 69 52 28 54 58 55 39 56 57 57 40 58
REMARK SMILES IDX 43 59 56 60 74 61 41 62 42 63 55 65 75 66 44 67 29 68 30 69
REMARK SMILES IDX 38 70 31 71 37 72 32 73 33 74 34 75 35 76 36 77 59 78 60 79
REMARK SMILES IDX 68 80 61 81 67 82 62 83 63 84 64 85 65 86 66 87 45 88 46 89
REMARK SMILES IDX 54 90 47 91 53 92 48 93 49 94 50 95 51 96 52 97
REMARK H PARENT 12 7 8 13 90 20 88 25 17 34 73 53 43 64
REMARK Flexibility Score: inf
ROOT
ATOM      1  C   UNL A   1      36.954  21.980  25.391  1.00  0.00     0.023 C 
ENDROOT
BRANCH   1   2
ATOM      2  C   UNL A   1      35.947  22.889  26.100  1.00  0.00     0.023 C 
BRANCH   2   3
ATOM      3  C   UNL A   1      34.634  22.113  27.012  1.00  0.00     0.116 C 
BRANCH   3   4
ATOM      4  N   UNL A   1      32.522  22.033  26.475  1.00  0.00    -0.351 N 
ATOM      5  C   UNL A   1      31.221  22.527  26.221  1.00  0.00     0.269 C 
ATOM      6  O   UNL A   1      30.369  21.674  25.956  1.00  0.00    -0.268 OA
ATOM      7  H   UNL A   1      32.401  21.071  26.308  1.00  0.00     0.163 HD
BRANCH   5   8
ATOM      8  C   UNL A   1      30.873  23.929  26.204  1.00  0.00     0.126 A 
ATOM      9  C   UNL A   1      31.501  25.036  25.654  1.00  0.00     0.011 A 
ATOM     10  C   UNL A   1      30.620  26.107  25.891  1.00  0.00     0.140 A 
ATOM     11  N   UNL A   1      29.539  25.734  26.577  1.00  0.00    -0.183 NA
ATOM     12  N   UNL A   1      29.703  24.406  26.729  1.00  0.00    -0.273 N 
ATOM     13  H   UNL A   1      29.042  23.830  27.178  1.00  0.00     0.190 HD
BRANCH   9  14
ATOM     14  C   UNL A   1      32.806  25.005  24.948  1.00  0.00     0.069 C 
ATOM     15  O   UNL A   1      32.564  22.476  22.091  1.00  0.00    -0.275 OA
ATOM     16  C   UNL A   1      32.374  23.531  22.708  1.00  0.00     0.226 C 
ATOM     17  C   UNL A   1      32.999  23.709  24.123  1.00  0.00     0.114 C 
ATOM     18  N   UNL A   1      31.684  24.530  22.066  1.00  0.00    -0.311 N 
ATOM     19  C   UNL A   1      31.883  25.802  22.508  1.00  0.00     0.132 A 
ATOM     20  H   UNL A   1      31.071  24.335  21.321  1.00  0.00     0.171 HD
ATOM     21  C   UNL A   1      32.747  26.125  24.011  1.00  0.00     0.031 A 
ATOM     22  N   UNL A   1      31.528  27.431  21.692  1.00  0.00    -0.262 N 
ATOM     23  C   UNL A   1      32.940  28.058  24.185  1.00  0.00     0.108 A 
ATOM     24  N   UNL A   1      32.206  28.825  22.771  1.00  0.00    -0.173 NA
ATOM     25  H   UNL A   1      31.061  27.549  20.834  1.00  0.00     0.192 HD
BRANCH  23  26
ATOM     26  C   UNL A   1      33.206  28.691  25.510  1.00  0.00     0.055 A 
ATOM     27  C   UNL A   1      34.284  28.379  26.307  1.00  0.00     0.022 A 
ATOM     28  S   UNL A   1      32.313  30.013  26.105  1.00  0.00    -0.142 S 
ATOM     29  C   UNL A   1      34.403  29.287  27.405  1.00  0.00     0.012 A 
ATOM     30  C   UNL A   1      33.360  30.187  27.449  1.00  0.00     0.065 A 
ENDBRANCH  23  26
ENDBRANCH   9  14
ENDBRANCH   5   8
ENDBRANCH   3   4
ENDBRANCH   2   3
ENDBRANCH   1   2
BRANCH   1  31
ATOM     31  C   UNL A   1      38.382  22.453  25.479  1.00  0.00     0.116 C 
BRANCH  31  32
ATOM     32  N   UNL A   1      39.113  21.701  26.494  1.00  0.00    -0.352 N 
ATOM     33  C   UNL A   1      40.232  22.155  27.158  1.00  0.00     0.251 C 
ATOM     34  H   UNL A   1      38.783  20.802  26.721  1.00  0.00     0.163 HD
ATOM     35  O   UNL A   1      41.100  21.390  27.552  1.00  0.00    -0.269 OA
BRANCH  33  36
ATOM     36  C   UNL A   1      40.251  23.594  27.469  1.00  0.00     0.039 A 
ATOM     37  C   UNL A   1      39.162  24.444  27.290  1.00  0.00     0.014 A 
ATOM     38  C   UNL A   1      41.422  24.050  28.069  1.00  0.00     0.014 A 
ATOM     39  C   UNL A   1      39.316  25.792  27.643  1.00  0.00     0.010 A 
ATOM     40  C   UNL A   1      41.430  25.280  28.661  1.00  0.00     0.010 A 
ATOM     41  C   UNL A   1      40.501  26.225  28.280  1.00  0.00    -0.014 A 
BRANCH  41  42
ATOM     42  C   UNL A   1      40.671  27.524  28.943  1.00  0.00     0.031 A 
ATOM     43  C   UNL A   1      41.745  28.262  28.208  1.00  0.00     0.074 A 
ATOM     44  C   UNL A   1      39.864  28.016  29.935  1.00  0.00     0.049 A 
ATOM     45  N   UNL A   1      42.991  28.234  28.545  1.00  0.00    -0.248 NA
ATOM     46  C   UNL A   1      41.561  28.744  26.816  1.00  0.00     0.031 C 
ATOM     47  C   UNL A   1      38.713  27.394  30.616  1.00  0.00     0.029 A 
ATOM     48  N   UNL A   1      39.895  29.244  30.569  1.00  0.00    -0.354 N 
ATOM     49  C   UNL A   1      43.635  29.074  27.653  1.00  0.00     0.074 A 
ATOM     50  C   UNL A   1      42.808  29.102  26.482  1.00  0.00     0.031 C 
ATOM     51  C   UNL A   1      38.034  28.311  31.363  1.00  0.00     0.029 A 
ATOM     52  C   UNL A   1      38.751  29.574  31.348  1.00  0.00     0.049 A 
ATOM     53  H   UNL A   1      40.663  29.853  30.486  1.00  0.00     0.167 HD
ATOM     54  C   UNL A   1      44.551  29.959  28.134  1.00  0.00     0.031 A 
ATOM     55  C   UNL A   1      38.474  30.763  31.998  1.00  0.00     0.031 A 
ATOM     56  C   UNL A   1      44.863  29.637  29.508  1.00  0.00     0.049 A 
ATOM     57  C   UNL A   1      39.782  31.443  32.195  1.00  0.00     0.074 A 
ATOM     58  C   UNL A   1      45.360  28.523  30.154  1.00  0.00     0.029 A 
ATOM     59  N   UNL A   1      44.163  30.365  30.440  1.00  0.00    -0.354 N 
ATOM     60  N   UNL A   1      40.682  30.959  33.006  1.00  0.00    -0.248 NA
ATOM     61  C   UNL A   1      40.281  32.211  31.064  1.00  0.00     0.031 C 
ATOM     62  C   UNL A   1      44.577  28.408  31.337  1.00  0.00     0.029 A 
ATOM     63  C   UNL A   1      43.778  29.545  31.465  1.00  0.00     0.049 A 
ATOM     64  H   UNL A   1      43.968  31.328  30.380  1.00  0.00     0.167 HD
ATOM     65  C   UNL A   1      41.825  30.894  32.225  1.00  0.00     0.074 A 
ATOM     66  C   UNL A   1      41.523  31.712  31.039  1.00  0.00     0.031 C 
ATOM     67  C   UNL A   1      42.748  29.901  32.412  1.00  0.00     0.031 A 
BRANCH  54  68
ATOM     68  C   UNL A   1      44.756  31.361  27.612  1.00  0.00    -0.014 A 
ATOM     69  C   UNL A   1      46.035  31.676  27.107  1.00  0.00     0.010 A 
ATOM     70  C   UNL A   1      43.874  32.435  27.846  1.00  0.00     0.010 A 
ATOM     71  C   UNL A   1      46.430  32.997  26.885  1.00  0.00     0.020 A 
ATOM     72  C   UNL A   1      44.248  33.761  27.592  1.00  0.00     0.020 A 
ATOM     73  C   UNL A   1      45.529  34.033  27.121  1.00  0.00     0.054 A 
BRANCH  73  74
ATOM     74  S   UNL A   1      46.060  35.729  26.783  1.00  0.00     0.124 S 
ATOM     75  O   UNL A   1      46.785  35.581  25.524  1.00  0.00    -0.237 OA
ATOM     76  O   UNL A   1      44.783  36.433  26.699  1.00  0.00    -0.237 OA
ATOM     77  O   UNL A   1      46.878  36.069  27.944  1.00  0.00    -0.744 OA
ENDBRANCH  73  74
ENDBRANCH  54  68
BRANCH  55  78
ATOM     78  C   UNL A   1      37.182  31.535  32.170  1.00  0.00    -0.014 A 
ATOM     79  C   UNL A   1      36.749  32.121  33.396  1.00  0.00     0.010 A 
ATOM     80  C   UNL A   1      36.523  31.981  31.013  1.00  0.00     0.010 A 
ATOM     81  C   UNL A   1      35.763  33.148  33.436  1.00  0.00     0.020 A 
ATOM     82  C   UNL A   1      35.556  33.002  31.043  1.00  0.00     0.020 A 
ATOM     83  C   UNL A   1      35.195  33.606  32.245  1.00  0.00     0.054 A 
BRANCH  83  84
ATOM     84  S   UNL A   1      34.098  35.072  32.216  1.00  0.00     0.124 S 
ATOM     85  O   UNL A   1      34.012  35.384  30.793  1.00  0.00    -0.237 OA
ATOM     86  O   UNL A   1      32.870  34.574  32.829  1.00  0.00    -0.237 OA
ATOM     87  O   UNL A   1      34.826  36.057  33.018  1.00  0.00    -0.744 OA
ENDBRANCH  83  84
ENDBRANCH  55  78
BRANCH  67  88
ATOM     88  C   UNL A   1      42.657  29.027  33.643  1.00  0.00    -0.014 A 
ATOM     89  C   UNL A   1      43.149  29.347  34.926  1.00  0.00     0.010 A 
ATOM     90  C   UNL A   1      41.879  27.868  33.498  1.00  0.00     0.010 A 
ATOM     91  C   UNL A   1      42.914  28.483  36.014  1.00  0.00     0.020 A 
ATOM     92  C   UNL A   1      41.621  27.024  34.573  1.00  0.00     0.020 A 
ATOM     93  C   UNL A   1      42.167  27.316  35.821  1.00  0.00     0.054 A 
BRANCH  93  94
ATOM     94  S   UNL A   1      41.919  26.152  37.190  1.00  0.00     0.124 S 
ATOM     95  O   UNL A   1      40.571  26.483  37.643  1.00  0.00    -0.237 OA
ATOM     96  O   UNL A   1      42.067  24.850  36.544  1.00  0.00    -0.237 OA
ATOM     97  O   UNL A   1      42.986  26.492  38.132  1.00  0.00    -0.744 OA
ENDBRANCH  93  94
ENDBRANCH  67  88
ENDBRANCH  41  42
ENDBRANCH  33  36
ENDBRANCH  31  32
ENDBRANCH   1  31
TORSDOF 16
ENDMDL
MODEL 2
REMARK VINA RESULT:     -14.6      1.494      2.566
REMARK SMILES O=C1C[C@H](c2cn[nH]c2C(=O)NCCCCNC(=O)c2ccc(-c3c4nc(c(-c5ccc(S(=O)(=O)[O-])cc5)c5ccc([nH]5)c(-c5ccc(S(=O)(=O)[O-])cc5)c5nc(c(-c6ccc(S(=O)(=O)[O-])cc6)c6ccc3[nH]6)C=C5)C=C4)cc2)c2c(-c3cccs3)n[nH]c2N1
REMARK SMILES IDX 15 1 14 2 13 3 12 4 10 5 11 6 9 8 5 9 6 10 7 11 8 12 4 14
REMARK SMILES IDX 1 15 2 16 3 17 90 18 89 19 80 21 88 22 81 23 87 24 82 26
REMARK SMILES IDX 83 27 86 28 84 29 85 30 16 31 17 32 18 33 19 35 20 36 21 37
REMARK SMILES IDX 79 38 22 39 78 40 23 41 24 42 25 43 72 44 26 45 77 46 71 47
REMARK SMILES IDX 73 48 27 49 76 50 70 51 69 52 28 54 58 55 39 56 57 57 40 58
REMARK SMILES IDX 43 59 56 60 74 61 41 62 42 63 55 65 75 66 44 67 29 68 30 69
REMARK SMILES IDX 38 70 31 71 37 72 32 73 33 74 34 75 35 76 36 77 59 78 60 79
REMARK SMILES IDX 68 80 61 81 67 82 62 83 63 84 64 85 65 86 66 87 45 88 46 89
REMARK SMILES IDX 54 90 47 91 53 92 48 93 49 94 50 95 51 96 52 97
REMARK H PARENT 12 7 8 13 90 20 88 25 17 34 73 53 43 64
REMARK Flexibility Score: inf
ROOT
ATOM      1  C   UNL A   1      36.782  21.955  25.908  1.00  0.00     0.023 C 
ENDROOT
BRANCH   1   2
ATOM      2  C   UNL A   1      35.839  22.900  26.657  1.00  0.00     0.023 C 
BRANCH   2   3
ATOM      3  C   UNL A   1      34.316  22.227  27.277  1.00  0.00     0.116 C 
BRANCH   3   4
ATOM      4  N   UNL A   1      32.292  22.771  26.676  1.00  0.00    -0.351 N 
ATOM      5  C   UNL A   1      31.214  23.625  26.347  1.00  0.00     0.269 C 
ATOM      6  O   UNL A   1      30.140  23.063  26.110  1.00  0.00    -0.268 OA
ATOM      7  H   UNL A   1      31.877  21.884  26.568  1.00  0.00     0.163 HD
BRANCH   5   8
ATOM      8  C   UNL A   1      31.322  25.061  26.227  1.00  0.00     0.126 A 
ATOM      9  C   UNL A   1      30.788  25.960  25.318  1.00  0.00     0.011 A 
ATOM     10  C   UNL A   1      31.178  27.227  25.788  1.00  0.00     0.140 A 
ATOM     11  N   UNL A   1      31.940  27.151  26.880  1.00  0.00    -0.183 NA
ATOM     12  N   UNL A   1      31.989  25.831  27.140  1.00  0.00    -0.273 N 
ATOM     13  H   UNL A   1      32.461  25.453  27.918  1.00  0.00     0.190 HD
BRANCH   9  14
ATOM     14  C   UNL A   1      29.957  25.586  24.145  1.00  0.00     0.069 C 
ATOM     15  O   UNL A   1      28.047  28.690  22.991  1.00  0.00    -0.275 OA
ATOM     16  C   UNL A   1      29.010  27.934  23.160  1.00  0.00     0.226 C 
ATOM     17  C   UNL A   1      28.797  26.583  23.903  1.00  0.00     0.114 C 
ATOM     18  N   UNL A   1      30.212  28.296  22.602  1.00  0.00    -0.311 N 
ATOM     19  C   UNL A   1      31.109  27.300  22.362  1.00  0.00     0.132 A 
ATOM     20  H   UNL A   1      30.417  29.234  22.386  1.00  0.00     0.171 HD
ATOM     21  C   UNL A   1      30.866  25.675  23.004  1.00  0.00     0.031 A 
ATOM     22  N   UNL A   1      32.603  27.263  21.263  1.00  0.00    -0.262 N 
ATOM     23  C   UNL A   1      32.286  24.538  22.301  1.00  0.00     0.108 A 
ATOM     24  N   UNL A   1      33.317  25.515  21.246  1.00  0.00    -0.173 NA
ATOM     25  H   UNL A   1      32.966  28.032  20.767  1.00  0.00     0.192 HD
BRANCH  23  26
ATOM     26  C   UNL A   1      32.650  23.256  22.971  1.00  0.00     0.055 A 
ATOM     27  C   UNL A   1      31.800  22.179  23.083  1.00  0.00     0.022 A 
ATOM     28  S   UNL A   1      34.228  22.901  23.507  1.00  0.00    -0.142 S 
ATOM     29  C   UNL A   1      32.481  21.022  23.573  1.00  0.00     0.012 A 
ATOM     30  C   UNL A   1      33.791  21.293  23.902  1.00  0.00     0.065 A 
ENDBRANCH  23  26
ENDBRANCH   9  14
ENDBRANCH   5   8
ENDBRANCH   3   4
ENDBRANCH   2   3
ENDBRANCH   1   2
BRANCH   1  31
ATOM     31  C   UNL A   1      38.178  22.491  25.726  1.00  0.00     0.116 C 
BRANCH  31  32
ATOM     32  N   UNL A   1      39.125  21.765  26.566  1.00  0.00    -0.352 N 
ATOM     33  C   UNL A   1      40.310  22.279  27.044  1.00  0.00     0.251 C 
ATOM     34  H   UNL A   1      38.899  20.838  26.809  1.00  0.00     0.163 HD
ATOM     35  O   UNL A   1      41.282  21.566  27.250  1.00  0.00    -0.269 OA
BRANCH  33  36
ATOM     36  C   UNL A   1      40.290  23.705  27.406  1.00  0.00     0.039 A 
ATOM     37  C   UNL A   1      39.162  24.517  27.309  1.00  0.00     0.014 A 
ATOM     38  C   UNL A   1      41.470  24.186  27.968  1.00  0.00     0.014 A 
ATOM     39  C   UNL A   1      39.282  25.858  27.703  1.00  0.00     0.010 A 
ATOM     40  C   UNL A   1      41.460  25.394  28.603  1.00  0.00     0.010 A 
ATOM     41  C   UNL A   1      40.478  26.314  28.300  1.00  0.00    -0.014 A 
BRANCH  41  42
ATOM     42  C   UNL A   1      40.630  27.595  29.002  1.00  0.00     0.031 A 
ATOM     43  C   UNL A   1      41.681  28.377  28.279  1.00  0.00     0.074 A 
ATOM     44  C   UNL A   1      39.824  28.041  30.016  1.00  0.00     0.049 A 
ATOM     45  N   UNL A   1      42.932  28.363  28.602  1.00  0.00    -0.248 NA
ATOM     46  C   UNL A   1      41.473  28.898  26.905  1.00  0.00     0.031 C 
ATOM     47  C   UNL A   1      38.693  27.375  30.690  1.00  0.00     0.029 A 
ATOM     48  N   UNL A   1      39.838  29.248  30.688  1.00  0.00    -0.354 N 
ATOM     49  C   UNL A   1      43.549  29.243  27.730  1.00  0.00     0.074 A 
ATOM     50  C   UNL A   1      42.709  29.291  26.569  1.00  0.00     0.031 C 
ATOM     51  C   UNL A   1      38.005  28.254  31.472  1.00  0.00     0.029 A 
ATOM     52  C   UNL A   1      38.697  29.532  31.489  1.00  0.00     0.049 A 
ATOM     53  H   UNL A   1      40.594  29.875  30.616  1.00  0.00     0.167 HD
ATOM     54  C   UNL A   1      44.453  30.131  28.229  1.00  0.00     0.031 A 
ATOM     55  C   UNL A   1      38.404  30.694  32.178  1.00  0.00     0.031 A 
ATOM     56  C   UNL A   1      44.786  29.773  29.589  1.00  0.00     0.049 A 
ATOM     57  C   UNL A   1      39.700  31.393  32.383  1.00  0.00     0.074 A 
ATOM     58  C   UNL A   1      45.312  28.649  30.194  1.00  0.00     0.029 A 
ATOM     59  N   UNL A   1      44.082  30.458  30.551  1.00  0.00    -0.354 N 
ATOM     60  N   UNL A   1      40.618  30.903  33.169  1.00  0.00    -0.248 NA
ATOM     61  C   UNL A   1      40.172  32.206  31.272  1.00  0.00     0.031 C 
ATOM     62  C   UNL A   1      44.544  28.482  31.382  1.00  0.00     0.029 A 
ATOM     63  C   UNL A   1      43.725  29.599  31.553  1.00  0.00     0.049 A 
ATOM     64  H   UNL A   1      43.868  31.418  30.523  1.00  0.00     0.167 HD
ATOM     65  C   UNL A   1      41.754  30.884  32.375  1.00  0.00     0.074 A 
ATOM     66  C   UNL A   1      41.423  31.733  31.218  1.00  0.00     0.031 C 
ATOM     67  C   UNL A   1      42.698  29.904  32.522  1.00  0.00     0.031 A 
BRANCH  54  68
ATOM     68  C   UNL A   1      44.624  31.552  27.749  1.00  0.00    -0.014 A 
ATOM     69  C   UNL A   1      45.823  31.859  27.072  1.00  0.00     0.010 A 
ATOM     70  C   UNL A   1      43.825  32.635  28.163  1.00  0.00     0.010 A 
ATOM     71  C   UNL A   1      46.225  33.178  26.855  1.00  0.00     0.020 A 
ATOM     72  C   UNL A   1      44.201  33.963  27.919  1.00  0.00     0.020 A 
ATOM     73  C   UNL A   1      45.406  34.225  27.273  1.00  0.00     0.054 A 
BRANCH  73  74
ATOM     74  S   UNL A   1      45.937  35.921  26.939  1.00  0.00     0.124 S 
ATOM     75  O   UNL A   1      44.665  36.620  26.787  1.00  0.00    -0.237 OA
ATOM     76  O   UNL A   1      46.695  36.242  28.147  1.00  0.00    -0.237 OA
ATOM     77  O   UNL A   1      46.737  35.796  25.723  1.00  0.00    -0.744 OA
ENDBRANCH  73  74
ENDBRANCH  54  68
BRANCH  55  78
ATOM     78  C   UNL A   1      37.099  31.435  32.387  1.00  0.00    -0.014 A 
ATOM     79  C   UNL A   1      36.842  32.325  33.471  1.00  0.00     0.010 A 
ATOM     80  C   UNL A   1      36.206  31.512  31.307  1.00  0.00     0.010 A 
ATOM     81  C   UNL A   1      35.789  33.285  33.427  1.00  0.00     0.020 A 
ATOM     82  C   UNL A   1      35.171  32.463  31.252  1.00  0.00     0.020 A 
ATOM     83  C   UNL A   1      34.978  33.368  32.294  1.00  0.00     0.054 A 
BRANCH  83  84
ATOM     84  S   UNL A   1      33.765  34.725  32.088  1.00  0.00     0.124 S 
ATOM     85  O   UNL A   1      34.505  35.894  32.552  1.00  0.00    -0.237 OA
ATOM     86  O   UNL A   1      33.474  34.688  30.658  1.00  0.00    -0.237 OA
ATOM     87  O   UNL A   1      32.653  34.319  32.949  1.00  0.00    -0.744 OA
ENDBRANCH  83  84
ENDBRANCH  55  78
BRANCH  67  88
ATOM     88  C   UNL A   1      42.638  28.991  33.725  1.00  0.00    -0.014 A 
ATOM     89  C   UNL A   1      43.215  29.243  34.988  1.00  0.00     0.010 A 
ATOM     90  C   UNL A   1      41.801  27.873  33.587  1.00  0.00     0.010 A 
ATOM     91  C   UNL A   1      43.004  28.351  36.057  1.00  0.00     0.020 A 
ATOM     92  C   UNL A   1      41.567  27.003  34.646  1.00  0.00     0.020 A 
ATOM     93  C   UNL A   1      42.195  27.225  35.869  1.00  0.00     0.054 A 
BRANCH  93  94
ATOM     94  S   UNL A   1      41.973  26.024  37.211  1.00  0.00     0.124 S 
ATOM     95  O   UNL A   1      42.977  26.449  38.182  1.00  0.00    -0.237 OA
ATOM     96  O   UNL A   1      40.582  26.231  37.608  1.00  0.00    -0.237 OA
ATOM     97  O   UNL A   1      42.240  24.736  36.571  1.00  0.00    -0.744 OA
ENDBRANCH  93  94
ENDBRANCH  67  88
ENDBRANCH  41  42
ENDBRANCH  33  36
ENDBRANCH  31  32
ENDBRANCH   1  31
TORSDOF 16
ENDMDL
MODEL 3
REMARK VINA RESULT:     -14.5      2.913      9.470
REMARK SMILES O=C1C[C@H](c2cn[nH]c2C(=O)NCCCCNC(=O)c2ccc(-c3c4nc(c(-c5ccc(S(=O)(=O)[O-])cc5)c5ccc([nH]5)c(-c5ccc(S(=O)(=O)[O-])cc5)c5nc(c(-c6ccc(S(=O)(=O)[O-])cc6)c6ccc3[nH]6)C=C5)C=C4)cc2)c2c(-c3cccs3)n[nH]c2N1
REMARK SMILES IDX 15 1 14 2 13 3 12 4 10 5 11 6 9 8 5 9 6 10 7 11 8 12 4 14
REMARK SMILES IDX 1 15 2 16 3 17 90 18 89 19 80 21 88 22 81 23 87 24 82 26
REMARK SMILES IDX 83 27 86 28 84 29 85 30 16 31 17 32 18 33 19 35 20 36 21 37
REMARK SMILES IDX 79 38 22 39 78 40 23 41 24 42 25 43 72 44 26 45 77 46 71 47
REMARK SMILES IDX 73 48 27 49 76 50 70 51 69 52 28 54 58 55 39 56 57 57 40 58
REMARK SMILES IDX 43 59 56 60 74 61 41 62 42 63 55 65 75 66 44 67 29 68 30 69
REMARK SMILES IDX 38 70 31 71 37 72 32 73 33 74 34 75 35 76 36 77 59 78 60 79
REMARK SMILES IDX 68 80 61 81 67 82 62 83 63 84 64 85 65 86 66 87 45 88 46 89
REMARK SMILES IDX 54 90 47 91 53 92 48 93 49 94 50 95 51 96 52 97
REMARK H PARENT 12 7 8 13 90 20 88 25 17 34 73 53 43 64
REMARK Flexibility Score: inf
ROOT
ATOM      1  C   UNL A   1      33.723  30.293  27.613  1.00  0.00     0.023 C 
ENDROOT
BRANCH   1   2
ATOM      2  C   UNL A   1      32.419  30.832  27.018  1.00  0.00     0.023 C 
BRANCH   2   3
ATOM      3  C   UNL A   1      31.986  30.313  25.374  1.00  0.00     0.116 C 
BRANCH   3   4
ATOM      4  N   UNL A   1      33.281  29.345  23.912  1.00  0.00    -0.351 N 
ATOM      5  C   UNL A   1      33.782  28.297  23.105  1.00  0.00     0.269 C 
ATOM      6  O   UNL A   1      34.780  28.572  22.431  1.00  0.00    -0.268 OA
ATOM      7  H   UNL A   1      33.878  30.087  23.660  1.00  0.00     0.163 HD
BRANCH   5   8
ATOM      8  C   UNL A   1      33.172  26.992  22.996  1.00  0.00     0.126 A 
ATOM      9  C   UNL A   1      33.010  25.963  23.910  1.00  0.00     0.011 A 
ATOM     10  C   UNL A   1      32.254  24.990  23.231  1.00  0.00     0.140 A 
ATOM     11  N   UNL A   1      31.993  25.339  21.971  1.00  0.00    -0.183 NA
ATOM     12  N   UNL A   1      32.535  26.566  21.863  1.00  0.00    -0.273 N 
ATOM     13  H   UNL A   1      32.479  27.109  21.042  1.00  0.00     0.190 HD
BRANCH   9  14
ATOM     14  C   UNL A   1      33.522  25.980  25.304  1.00  0.00     0.069 C 
ATOM     15  O   UNL A   1      30.949  27.757  27.504  1.00  0.00    -0.275 OA
ATOM     16  C   UNL A   1      31.444  26.854  26.820  1.00  0.00     0.226 C 
ATOM     17  C   UNL A   1      32.841  27.070  26.168  1.00  0.00     0.114 C 
ATOM     18  N   UNL A   1      30.761  25.665  26.741  1.00  0.00    -0.311 N 
ATOM     19  C   UNL A   1      31.483  24.555  26.424  1.00  0.00     0.132 A 
ATOM     20  H   UNL A   1      29.791  25.617  26.905  1.00  0.00     0.171 HD
ATOM     21  C   UNL A   1      33.146  24.678  25.852  1.00  0.00     0.031 A 
ATOM     22  N   UNL A   1      31.083  22.756  26.637  1.00  0.00    -0.262 N 
ATOM     23  C   UNL A   1      33.849  22.869  25.667  1.00  0.00     0.108 A 
ATOM     24  N   UNL A   1      32.590  21.725  26.154  1.00  0.00    -0.173 NA
ATOM     25  H   UNL A   1      30.223  22.396  26.952  1.00  0.00     0.192 HD
BRANCH  23  26
ATOM     26  C   UNL A   1      35.030  22.584  24.800  1.00  0.00     0.055 A 
ATOM     27  C   UNL A   1      35.286  23.233  23.614  1.00  0.00     0.022 A 
ATOM     28  S   UNL A   1      36.304  21.557  25.272  1.00  0.00    -0.142 S 
ATOM     29  C   UNL A   1      36.586  22.914  23.112  1.00  0.00     0.012 A 
ATOM     30  C   UNL A   1      37.221  21.966  23.884  1.00  0.00     0.065 A 
ENDBRANCH  23  26
ENDBRANCH   9  14
ENDBRANCH   5   8
ENDBRANCH   3   4
ENDBRANCH   2   3
ENDBRANCH   1   2
BRANCH   1  31
ATOM     31  C   UNL A   1      34.854  31.288  27.628  1.00  0.00     0.116 C 
BRANCH  31  32
ATOM     32  N   UNL A   1      34.709  32.218  28.743  1.00  0.00    -0.352 N 
ATOM     33  C   UNL A   1      35.078  31.954  30.043  1.00  0.00     0.251 C 
ATOM     34  H   UNL A   1      34.317  33.101  28.551  1.00  0.00     0.163 HD
ATOM     35  O   UNL A   1      34.494  32.457  30.992  1.00  0.00    -0.269 OA
BRANCH  33  36
ATOM     36  C   UNL A   1      36.290  31.135  30.211  1.00  0.00     0.039 A 
ATOM     37  C   UNL A   1      36.304  29.744  30.150  1.00  0.00     0.014 A 
ATOM     38  C   UNL A   1      37.474  31.857  30.334  1.00  0.00     0.014 A 
ATOM     39  C   UNL A   1      37.534  29.091  30.313  1.00  0.00     0.010 A 
ATOM     40  C   UNL A   1      38.666  31.206  30.195  1.00  0.00     0.010 A 
ATOM     41  C   UNL A   1      38.726  29.844  30.403  1.00  0.00    -0.014 A 
BRANCH  41  42
ATOM     42  C   UNL A   1      40.081  29.287  30.293  1.00  0.00     0.031 A 
ATOM     43  C   UNL A   1      40.605  29.113  31.684  1.00  0.00     0.074 A 
ATOM     44  C   UNL A   1      40.664  28.851  29.132  1.00  0.00     0.049 A 
ATOM     45  N   UNL A   1      41.314  30.001  32.297  1.00  0.00    -0.248 NA
ATOM     46  C   UNL A   1      40.031  28.120  32.626  1.00  0.00     0.031 C 
ATOM     47  C   UNL A   1      40.154  28.877  27.748  1.00  0.00     0.029 A 
ATOM     48  N   UNL A   1      41.893  28.251  28.934  1.00  0.00    -0.354 N 
ATOM     49  C   UNL A   1      41.633  29.440  33.521  1.00  0.00     0.074 A 
ATOM     50  C   UNL A   1      40.606  28.473  33.783  1.00  0.00     0.031 C 
ATOM     51  C   UNL A   1      40.937  28.121  26.927  1.00  0.00     0.029 A 
ATOM     52  C   UNL A   1      42.096  27.647  27.662  1.00  0.00     0.049 A 
ATOM     53  H   UNL A   1      42.587  28.242  29.633  1.00  0.00     0.167 HD
ATOM     54  C   UNL A   1      42.912  29.544  33.975  1.00  0.00     0.031 A 
ATOM     55  C   UNL A   1      43.178  26.898  27.235  1.00  0.00     0.031 A 
ATOM     56  C   UNL A   1      43.639  30.493  33.163  1.00  0.00     0.049 A 
ATOM     57  C   UNL A   1      44.314  27.268  28.120  1.00  0.00     0.074 A 
ATOM     58  C   UNL A   1      43.471  31.826  32.845  1.00  0.00     0.029 A 
ATOM     59  N   UNL A   1      44.394  29.931  32.162  1.00  0.00    -0.354 N 
ATOM     60  N   UNL A   1      44.847  28.459  28.077  1.00  0.00    -0.248 NA
ATOM     61  C   UNL A   1      44.381  26.579  29.399  1.00  0.00     0.031 C 
ATOM     62  C   UNL A   1      43.763  31.908  31.453  1.00  0.00     0.029 A 
ATOM     63  C   UNL A   1      44.278  30.683  31.025  1.00  0.00     0.049 A 
ATOM     64  H   UNL A   1      44.934  29.113  32.248  1.00  0.00     0.167 HD
ATOM     65  C   UNL A   1      44.823  28.875  29.399  1.00  0.00     0.074 A 
ATOM     66  C   UNL A   1      44.551  27.655  30.178  1.00  0.00     0.031 C 
ATOM     67  C   UNL A   1      44.646  30.194  29.717  1.00  0.00     0.031 A 
BRANCH  54  68
ATOM     68  C   UNL A   1      43.648  28.472  34.742  1.00  0.00    -0.014 A 
ATOM     69  C   UNL A   1      43.989  27.299  34.036  1.00  0.00     0.010 A 
ATOM     70  C   UNL A   1      43.767  28.436  36.145  1.00  0.00     0.010 A 
ATOM     71  C   UNL A   1      44.388  26.136  34.697  1.00  0.00     0.020 A 
ATOM     72  C   UNL A   1      44.201  27.285  36.816  1.00  0.00     0.020 A 
ATOM     73  C   UNL A   1      44.501  26.138  36.086  1.00  0.00     0.054 A 
BRANCH  73  74
ATOM     74  S   UNL A   1      45.061  24.627  36.907  1.00  0.00     0.124 S 
ATOM     75  O   UNL A   1      44.385  24.708  38.198  1.00  0.00    -0.237 OA
ATOM     76  O   UNL A   1      44.570  23.592  36.000  1.00  0.00    -0.237 OA
ATOM     77  O   UNL A   1      46.513  24.777  36.946  1.00  0.00    -0.744 OA
ENDBRANCH  73  74
ENDBRANCH  54  68
BRANCH  55  78
ATOM     78  C   UNL A   1      43.260  25.658  26.370  1.00  0.00    -0.014 A 
ATOM     79  C   UNL A   1      44.228  25.453  25.343  1.00  0.00     0.010 A 
ATOM     80  C   UNL A   1      42.567  24.513  26.794  1.00  0.00     0.010 A 
ATOM     81  C   UNL A   1      44.526  24.156  24.833  1.00  0.00     0.020 A 
ATOM     82  C   UNL A   1      42.863  23.228  26.304  1.00  0.00     0.020 A 
ATOM     83  C   UNL A   1      43.859  23.043  25.347  1.00  0.00     0.054 A 
BRANCH  83  84
ATOM     84  S   UNL A   1      44.360  21.340  24.895  1.00  0.00     0.124 S 
ATOM     85  O   UNL A   1      45.592  21.153  25.655  1.00  0.00    -0.237 OA
ATOM     86  O   UNL A   1      43.221  20.538  25.330  1.00  0.00    -0.237 OA
ATOM     87  O   UNL A   1      44.538  21.412  23.444  1.00  0.00    -0.744 OA
ENDBRANCH  83  84
ENDBRANCH  55  78
BRANCH  67  88
ATOM     88  C   UNL A   1      44.740  31.238  28.628  1.00  0.00    -0.014 A 
ATOM     89  C   UNL A   1      45.796  32.157  28.449  1.00  0.00     0.010 A 
ATOM     90  C   UNL A   1      43.749  31.162  27.638  1.00  0.00     0.010 A 
ATOM     91  C   UNL A   1      45.808  33.018  27.333  1.00  0.00     0.020 A 
ATOM     92  C   UNL A   1      43.768  31.991  26.521  1.00  0.00     0.020 A 
ATOM     93  C   UNL A   1      44.779  32.939  26.388  1.00  0.00     0.054 A 
BRANCH  93  94
ATOM     94  S   UNL A   1      44.735  34.090  24.986  1.00  0.00     0.124 S 
ATOM     95  O   UNL A   1      46.101  34.605  24.961  1.00  0.00    -0.237 OA
ATOM     96  O   UNL A   1      44.365  33.228  23.867  1.00  0.00    -0.237 OA
ATOM     97  O   UNL A   1      43.715  35.065  25.370  1.00  0.00    -0.744 OA
ENDBRANCH  93  94
ENDBRANCH  67  88
ENDBRANCH  41  42
ENDBRANCH  33  36
ENDBRANCH  31  32
ENDBRANCH   1  31
TORSDOF 16
ENDMDL
