MODEL 1
REMARK VINA RESULT:      -9.7      0.000      0.000
REMARK SMILES CC(C)(C)c1ccc(OCc2nnc(SCC(=O)NCCCCNC(=O)c3ccc(-c4c5nc(c(-c6ccc(S(=O)(=O)[O-])cc6)c6ccc([nH]6)c(-c6ccc(S(=O)(=O)[O-])cc6)c6nc(c(-c7ccc(S(=O)(=O)[O-])cc7)c7ccc4[nH]7)C=C6)C=C5)cc3)o2)cc1
REMARK SMILES IDX 20 1 19 2 17 3 18 4 16 6 15 7 14 8 11 9 12 10 87 11 13 12
REMARK SMILES IDX 10 13 9 14 8 15 5 16 6 17 89 18 7 19 88 20 2 21 1 22 3 23
REMARK SMILES IDX 4 24 21 25 22 26 23 27 24 28 25 29 26 31 27 32 28 33 86 34
REMARK SMILES IDX 29 35 85 36 30 37 31 38 32 39 79 40 33 41 84 42 78 43 80 44
REMARK SMILES IDX 34 45 83 46 77 47 76 48 35 50 65 51 46 52 64 53 47 54 50 55
REMARK SMILES IDX 63 56 81 57 48 58 49 59 62 61 82 62 51 63 36 64 37 65 45 66
REMARK SMILES IDX 38 67 44 68 39 69 40 70 41 71 42 72 43 73 66 74 67 75 75 76
REMARK SMILES IDX 68 77 74 78 69 79 70 80 71 81 72 82 73 83 52 84 53 85 61 86
REMARK SMILES IDX 54 87 60 88 55 89 56 90 57 91 58 92 59 93
REMARK H PARENT 19 5 24 30 80 49 50 60
REMARK Flexibility Score: inf
ROOT
ATOM      1  C   UNL A   1      45.875  21.361  24.729  1.00  0.00     0.116 C 
ENDROOT
BRANCH   1   2
ATOM      2  N   UNL A   1      46.193  19.979  25.038  1.00  0.00    -0.355 N 
ATOM      3  C   UNL A   1      45.371  18.898  25.155  1.00  0.00     0.230 C 
ATOM      4  O   UNL A   1      45.887  17.794  25.345  1.00  0.00    -0.274 OA
ATOM      5  H   UNL A   1      47.148  19.794  25.185  1.00  0.00     0.163 HD
BRANCH   3   6
ATOM      6  C   UNL A   1      43.875  19.006  24.945  1.00  0.00     0.179 C 
BRANCH   6   7
ATOM      7  S   UNL A   1      42.864  18.521  26.355  1.00  0.00    -0.055 SA
BRANCH   7   8
ATOM      8  C   UNL A   1      41.849  19.899  26.628  1.00  0.00     0.277 A 
ATOM      9  C   UNL A   1      40.293  21.354  26.535  1.00  0.00     0.254 A 
ATOM     10  N   UNL A   1      41.139  21.774  27.451  1.00  0.00    -0.108 NA
ATOM     11  O   UNL A   1      40.699  20.182  25.941  1.00  0.00    -0.412 OA
ATOM     12  N   UNL A   1      42.142  20.831  27.512  1.00  0.00    -0.101 NA
BRANCH   9  13
ATOM     13  C   UNL A   1      39.030  21.968  26.049  1.00  0.00     0.328 C 
BRANCH  13  14
ATOM     14  O   UNL A   1      38.321  21.069  25.185  1.00  0.00    -0.484 OA
BRANCH  14  15
ATOM     15  C   UNL A   1      37.052  21.400  24.799  1.00  0.00     0.120 A 
ATOM     16  C   UNL A   1      34.522  22.408  23.981  1.00  0.00    -0.042 A 
ATOM     17  C   UNL A   1      35.717  22.878  23.411  1.00  0.00     0.008 A 
ATOM     18  C   UNL A   1      34.632  21.357  24.900  1.00  0.00     0.008 A 
ATOM     19  C   UNL A   1      36.964  22.386  23.820  1.00  0.00     0.047 A 
ATOM     20  C   UNL A   1      35.878  20.854  25.297  1.00  0.00     0.047 A 
BRANCH  16  21
ATOM     21  C   UNL A   1      33.163  23.010  23.588  1.00  0.00    -0.013 C 
ATOM     22  C   UNL A   1      32.227  23.257  24.796  1.00  0.00     0.016 C 
ATOM     23  C   UNL A   1      32.448  22.044  22.626  1.00  0.00     0.016 C 
ATOM     24  C   UNL A   1      33.353  24.379  22.896  1.00  0.00     0.016 C 
ENDBRANCH  16  21
ENDBRANCH  14  15
ENDBRANCH  13  14
ENDBRANCH   9  13
ENDBRANCH   7   8
ENDBRANCH   6   7
ENDBRANCH   3   6
ENDBRANCH   1   2
BRANCH   1  25
ATOM     25  C   UNL A   1      44.971  21.992  25.788  1.00  0.00     0.023 C 
BRANCH  25  26
ATOM     26  C   UNL A   1      45.646  23.041  26.679  1.00  0.00     0.023 C 
BRANCH  26  27
ATOM     27  C   UNL A   1      45.008  23.256  28.049  1.00  0.00     0.116 C 
BRANCH  27  28
ATOM     28  N   UNL A   1      43.624  23.697  27.966  1.00  0.00    -0.352 N 
ATOM     29  C   UNL A   1      43.116  24.960  27.792  1.00  0.00     0.251 C 
ATOM     30  H   UNL A   1      42.952  22.982  28.048  1.00  0.00     0.163 HD
ATOM     31  O   UNL A   1      41.902  25.140  27.894  1.00  0.00    -0.269 OA
BRANCH  29  32
ATOM     32  C   UNL A   1      44.010  26.105  27.511  1.00  0.00     0.039 A 
ATOM     33  C   UNL A   1      44.619  26.762  28.584  1.00  0.00     0.014 A 
ATOM     34  C   UNL A   1      44.235  26.551  26.205  1.00  0.00     0.014 A 
ATOM     35  C   UNL A   1      45.491  27.827  28.345  1.00  0.00     0.010 A 
ATOM     36  C   UNL A   1      45.160  27.565  25.965  1.00  0.00     0.010 A 
ATOM     37  C   UNL A   1      45.794  28.220  27.031  1.00  0.00    -0.014 A 
BRANCH  37  38
ATOM     38  C   UNL A   1      46.771  29.309  26.762  1.00  0.00     0.031 A 
ATOM     39  C   UNL A   1      48.223  28.990  26.518  1.00  0.00     0.074 A 
ATOM     40  C   UNL A   1      46.362  30.592  26.793  1.00  0.00     0.049 A 
ATOM     41  N   UNL A   1      49.220  29.809  26.296  1.00  0.00    -0.248 NA
ATOM     42  C   UNL A   1      48.610  27.571  26.553  1.00  0.00     0.031 C 
ATOM     43  C   UNL A   1      44.994  31.039  27.068  1.00  0.00     0.029 A 
ATOM     44  N   UNL A   1      47.058  31.761  26.598  1.00  0.00    -0.354 N 
ATOM     45  C   UNL A   1      50.352  29.008  26.187  1.00  0.00     0.074 A 
ATOM     46  C   UNL A   1      49.925  27.645  26.415  1.00  0.00     0.031 C 
ATOM     47  C   UNL A   1      44.948  32.379  27.001  1.00  0.00     0.029 A 
ATOM     48  C   UNL A   1      46.285  32.891  26.720  1.00  0.00     0.049 A 
ATOM     49  H   UNL A   1      48.021  31.786  26.391  1.00  0.00     0.167 HD
ATOM     50  C   UNL A   1      51.627  29.371  25.904  1.00  0.00     0.031 A 
ATOM     51  C   UNL A   1      46.612  34.195  26.627  1.00  0.00     0.031 A 
ATOM     52  C   UNL A   1      52.048  30.729  25.672  1.00  0.00     0.049 A 
ATOM     53  C   UNL A   1      48.032  34.575  26.308  1.00  0.00     0.074 A 
ATOM     54  C   UNL A   1      53.302  31.192  25.313  1.00  0.00     0.029 A 
ATOM     55  N   UNL A   1      51.230  31.843  25.786  1.00  0.00    -0.354 N 
ATOM     56  N   UNL A   1      49.071  33.797  26.123  1.00  0.00    -0.248 NA
ATOM     57  C   UNL A   1      48.319  36.010  26.168  1.00  0.00     0.031 C 
ATOM     58  C   UNL A   1      53.257  32.589  25.273  1.00  0.00     0.029 A 
ATOM     59  C   UNL A   1      51.959  32.994  25.536  1.00  0.00     0.049 A 
ATOM     60  H   UNL A   1      50.271  31.820  26.011  1.00  0.00     0.167 HD
ATOM     61  C   UNL A   1      50.131  34.645  25.821  1.00  0.00     0.074 A 
ATOM     62  C   UNL A   1      49.601  35.994  25.829  1.00  0.00     0.031 C 
ATOM     63  C   UNL A   1      51.425  34.334  25.556  1.00  0.00     0.031 A 
BRANCH  50  64
ATOM     64  C   UNL A   1      52.667  28.279  25.851  1.00  0.00    -0.014 A 
ATOM     65  C   UNL A   1      53.105  27.742  24.626  1.00  0.00     0.010 A 
ATOM     66  C   UNL A   1      53.237  27.802  27.045  1.00  0.00     0.010 A 
ATOM     67  C   UNL A   1      54.048  26.712  24.600  1.00  0.00     0.020 A 
ATOM     68  C   UNL A   1      54.205  26.794  27.022  1.00  0.00     0.020 A 
ATOM     69  C   UNL A   1      54.589  26.240  25.799  1.00  0.00     0.054 A 
BRANCH  69  70
ATOM     70  S   UNL A   1      55.813  24.904  25.735  1.00  0.00     0.124 S 
ATOM     71  O   UNL A   1      56.641  25.309  24.602  1.00  0.00    -0.237 OA
ATOM     72  O   UNL A   1      56.454  24.994  27.044  1.00  0.00    -0.237 OA
ATOM     73  O   UNL A   1      55.008  23.704  25.520  1.00  0.00    -0.744 OA
ENDBRANCH  69  70
ENDBRANCH  50  64
BRANCH  51  74
ATOM     74  C   UNL A   1      45.565  35.234  26.833  1.00  0.00    -0.014 A 
ATOM     75  C   UNL A   1      45.771  36.296  27.730  1.00  0.00     0.010 A 
ATOM     76  C   UNL A   1      44.363  35.179  26.103  1.00  0.00     0.010 A 
ATOM     77  C   UNL A   1      44.789  37.278  27.901  1.00  0.00     0.020 A 
ATOM     78  C   UNL A   1      43.393  36.175  26.248  1.00  0.00     0.020 A 
ATOM     79  C   UNL A   1      43.609  37.214  27.155  1.00  0.00     0.054 A 
BRANCH  79  80
ATOM     80  S   UNL A   1      42.380  38.536  27.345  1.00  0.00     0.124 S 
ATOM     81  O   UNL A   1      42.135  38.518  28.783  1.00  0.00    -0.237 OA
ATOM     82  O   UNL A   1      43.095  39.704  26.837  1.00  0.00    -0.237 OA
ATOM     83  O   UNL A   1      41.265  38.087  26.514  1.00  0.00    -0.744 OA
ENDBRANCH  79  80
ENDBRANCH  51  74
BRANCH  63  84
ATOM     84  C   UNL A   1      52.358  35.469  25.224  1.00  0.00    -0.014 A 
ATOM     85  C   UNL A   1      52.433  36.002  23.924  1.00  0.00     0.010 A 
ATOM     86  C   UNL A   1      53.139  36.044  26.244  1.00  0.00     0.010 A 
ATOM     87  C   UNL A   1      53.300  37.062  23.644  1.00  0.00     0.020 A 
ATOM     88  C   UNL A   1      53.982  37.126  25.974  1.00  0.00     0.020 A 
ATOM     89  C   UNL A   1      54.069  37.617  24.670  1.00  0.00     0.054 A 
BRANCH  89  90
ATOM     90  S   UNL A   1      55.161  39.014  24.287  1.00  0.00     0.124 S 
ATOM     91  O   UNL A   1      54.208  40.108  24.123  1.00  0.00    -0.237 OA
ATOM     92  O   UNL A   1      56.010  39.092  25.473  1.00  0.00    -0.237 OA
ATOM     93  O   UNL A   1      55.844  38.596  23.065  1.00  0.00    -0.744 OA
ENDBRANCH  89  90
ENDBRANCH  63  84
ENDBRANCH  37  38
ENDBRANCH  29  32
ENDBRANCH  27  28
ENDBRANCH  26  27
ENDBRANCH  25  26
ENDBRANCH   1  25
TORSDOF 20
ENDMDL
MODEL 2
REMARK VINA RESULT:      -9.7      4.133      6.569
REMARK SMILES CC(C)(C)c1ccc(OCc2nnc(SCC(=O)NCCCCNC(=O)c3ccc(-c4c5nc(c(-c6ccc(S(=O)(=O)[O-])cc6)c6ccc([nH]6)c(-c6ccc(S(=O)(=O)[O-])cc6)c6nc(c(-c7ccc(S(=O)(=O)[O-])cc7)c7ccc4[nH]7)C=C6)C=C5)cc3)o2)cc1
REMARK SMILES IDX 20 1 19 2 17 3 18 4 16 6 15 7 14 8 11 9 12 10 87 11 13 12
REMARK SMILES IDX 10 13 9 14 8 15 5 16 6 17 89 18 7 19 88 20 2 21 1 22 3 23
REMARK SMILES IDX 4 24 21 25 22 26 23 27 24 28 25 29 26 31 27 32 28 33 86 34
REMARK SMILES IDX 29 35 85 36 30 37 31 38 32 39 79 40 33 41 84 42 78 43 80 44
REMARK SMILES IDX 34 45 83 46 77 47 76 48 35 50 65 51 46 52 64 53 47 54 50 55
REMARK SMILES IDX 63 56 81 57 48 58 49 59 62 61 82 62 51 63 36 64 37 65 45 66
REMARK SMILES IDX 38 67 44 68 39 69 40 70 41 71 42 72 43 73 66 74 67 75 75 76
REMARK SMILES IDX 68 77 74 78 69 79 70 80 71 81 72 82 73 83 52 84 53 85 61 86
REMARK SMILES IDX 54 87 60 88 55 89 56 90 57 91 58 92 59 93
REMARK H PARENT 19 5 24 30 80 49 50 60
REMARK Flexibility Score: inf
ROOT
ATOM      1  C   UNL A   1      45.231  22.578  23.927  1.00  0.00     0.116 C 
ENDROOT
BRANCH   1   2
ATOM      2  N   UNL A   1      46.307  21.657  24.246  1.00  0.00    -0.355 N 
ATOM      3  C   UNL A   1      46.281  20.303  24.399  1.00  0.00     0.230 C 
ATOM      4  O   UNL A   1      47.351  19.720  24.590  1.00  0.00    -0.274 OA
ATOM      5  H   UNL A   1      47.190  22.073  24.370  1.00  0.00     0.163 HD
BRANCH   3   6
ATOM      6  C   UNL A   1      45.006  19.505  24.227  1.00  0.00     0.179 C 
BRANCH   6   7
ATOM      7  S   UNL A   1      44.469  18.590  25.683  1.00  0.00    -0.055 SA
BRANCH   7   8
ATOM      8  C   UNL A   1      42.858  19.166  25.962  1.00  0.00     0.277 A 
ATOM      9  C   UNL A   1      41.162  20.322  26.537  1.00  0.00     0.254 A 
ATOM     10  N   UNL A   1      40.692  19.206  26.023  1.00  0.00    -0.108 NA
ATOM     11  O   UNL A   1      42.536  20.352  26.565  1.00  0.00    -0.412 OA
ATOM     12  N   UNL A   1      41.790  18.461  25.649  1.00  0.00    -0.101 NA
BRANCH   9  13
ATOM     13  C   UNL A   1      40.438  21.491  27.104  1.00  0.00     0.328 C 
BRANCH  13  14
ATOM     14  O   UNL A   1      40.906  22.715  26.522  1.00  0.00    -0.484 OA
BRANCH  14  15
ATOM     15  C   UNL A   1      40.822  23.862  27.260  1.00  0.00     0.120 A 
ATOM     16  C   UNL A   1      40.417  26.353  28.572  1.00  0.00    -0.042 A 
ATOM     17  C   UNL A   1      39.340  25.613  28.054  1.00  0.00     0.008 A 
ATOM     18  C   UNL A   1      41.684  25.762  28.494  1.00  0.00     0.008 A 
ATOM     19  C   UNL A   1      39.541  24.390  27.401  1.00  0.00     0.047 A 
ATOM     20  C   UNL A   1      41.883  24.531  27.855  1.00  0.00     0.047 A 
BRANCH  16  21
ATOM     21  C   UNL A   1      40.198  27.733  29.213  1.00  0.00    -0.013 C 
ATOM     22  C   UNL A   1      40.127  28.886  28.182  1.00  0.00     0.016 C 
ATOM     23  C   UNL A   1      41.365  28.028  30.173  1.00  0.00     0.016 C 
ATOM     24  C   UNL A   1      38.865  27.765  29.996  1.00  0.00     0.016 C 
ENDBRANCH  16  21
ENDBRANCH  14  15
ENDBRANCH  13  14
ENDBRANCH   9  13
ENDBRANCH   7   8
ENDBRANCH   6   7
ENDBRANCH   3   6
ENDBRANCH   1   2
BRANCH   1  25
ATOM     25  C   UNL A   1      45.277  23.835  24.797  1.00  0.00     0.023 C 
BRANCH  25  26
ATOM     26  C   UNL A   1      46.652  24.502  24.907  1.00  0.00     0.023 C 
BRANCH  26  27
ATOM     27  C   UNL A   1      47.262  24.536  26.306  1.00  0.00     0.116 C 
BRANCH  27  28
ATOM     28  N   UNL A   1      46.327  24.125  27.341  1.00  0.00    -0.352 N 
ATOM     29  C   UNL A   1      45.672  24.882  28.281  1.00  0.00     0.251 C 
ATOM     30  H   UNL A   1      46.136  23.160  27.374  1.00  0.00     0.163 HD
ATOM     31  O   UNL A   1      45.028  24.318  29.166  1.00  0.00    -0.269 OA
BRANCH  29  32
ATOM     32  C   UNL A   1      45.752  26.359  28.255  1.00  0.00     0.039 A 
ATOM     33  C   UNL A   1      45.110  27.049  27.223  1.00  0.00     0.014 A 
ATOM     34  C   UNL A   1      46.472  27.067  29.221  1.00  0.00     0.014 A 
ATOM     35  C   UNL A   1      45.145  28.445  27.190  1.00  0.00     0.010 A 
ATOM     36  C   UNL A   1      46.446  28.460  29.228  1.00  0.00     0.010 A 
ATOM     37  C   UNL A   1      45.788  29.167  28.210  1.00  0.00    -0.014 A 
BRANCH  37  38
ATOM     38  C   UNL A   1      45.775  30.654  28.222  1.00  0.00     0.031 A 
ATOM     39  C   UNL A   1      46.974  31.433  27.746  1.00  0.00     0.074 A 
ATOM     40  C   UNL A   1      44.704  31.307  28.714  1.00  0.00     0.049 A 
ATOM     41  N   UNL A   1      47.153  32.729  27.710  1.00  0.00    -0.248 NA
ATOM     42  C   UNL A   1      48.129  30.655  27.273  1.00  0.00     0.031 C 
ATOM     43  C   UNL A   1      43.499  30.671  29.253  1.00  0.00     0.029 A 
ATOM     44  N   UNL A   1      44.457  32.651  28.850  1.00  0.00    -0.354 N 
ATOM     45  C   UNL A   1      48.445  32.920  27.233  1.00  0.00     0.074 A 
ATOM     46  C   UNL A   1      49.020  31.608  27.038  1.00  0.00     0.031 C 
ATOM     47  C   UNL A   1      42.634  31.623  29.638  1.00  0.00     0.029 A 
ATOM     48  C   UNL A   1      43.234  32.934  29.413  1.00  0.00     0.049 A 
ATOM     49  H   UNL A   1      45.095  33.347  28.569  1.00  0.00     0.167 HD
ATOM     50  C   UNL A   1      49.088  34.083  26.962  1.00  0.00     0.031 A 
ATOM     51  C   UNL A   1      42.661  34.113  29.724  1.00  0.00     0.031 A 
ATOM     52  C   UNL A   1      48.512  35.389  27.152  1.00  0.00     0.049 A 
ATOM     53  C   UNL A   1      43.390  35.390  29.411  1.00  0.00     0.074 A 
ATOM     54  C   UNL A   1      49.057  36.623  26.845  1.00  0.00     0.029 A 
ATOM     55  N   UNL A   1      47.264  35.631  27.707  1.00  0.00    -0.354 N 
ATOM     56  N   UNL A   1      44.579  35.551  28.879  1.00  0.00    -0.248 NA
ATOM     57  C   UNL A   1      42.695  36.646  29.725  1.00  0.00     0.031 C 
ATOM     58  C   UNL A   1      48.167  37.613  27.273  1.00  0.00     0.029 A 
ATOM     59  C   UNL A   1      47.035  36.995  27.781  1.00  0.00     0.049 A 
ATOM     60  H   UNL A   1      46.632  34.936  28.004  1.00  0.00     0.167 HD
ATOM     61  C   UNL A   1      44.763  36.925  28.772  1.00  0.00     0.074 A 
ATOM     62  C   UNL A   1      43.557  37.549  29.277  1.00  0.00     0.031 C 
ATOM     63  C   UNL A   1      45.834  37.608  28.295  1.00  0.00     0.031 A 
BRANCH  50  64
ATOM     64  C   UNL A   1      50.505  33.991  26.450  1.00  0.00    -0.014 A 
ATOM     65  C   UNL A   1      50.790  34.017  25.073  1.00  0.00     0.010 A 
ATOM     66  C   UNL A   1      51.572  33.909  27.364  1.00  0.00     0.010 A 
ATOM     67  C   UNL A   1      52.106  33.904  24.618  1.00  0.00     0.020 A 
ATOM     68  C   UNL A   1      52.893  33.829  26.915  1.00  0.00     0.020 A 
ATOM     69  C   UNL A   1      53.150  33.804  25.542  1.00  0.00     0.054 A 
BRANCH  69  70
ATOM     70  S   UNL A   1      54.849  33.661  24.925  1.00  0.00     0.124 S 
ATOM     71  O   UNL A   1      55.028  34.938  24.239  1.00  0.00    -0.237 OA
ATOM     72  O   UNL A   1      55.622  33.494  26.152  1.00  0.00    -0.237 OA
ATOM     73  O   UNL A   1      54.805  32.488  24.054  1.00  0.00    -0.744 OA
ENDBRANCH  69  70
ENDBRANCH  50  64
BRANCH  51  74
ATOM     74  C   UNL A   1      41.315  34.132  30.363  1.00  0.00    -0.014 A 
ATOM     75  C   UNL A   1      40.155  34.321  29.592  1.00  0.00     0.010 A 
ATOM     76  C   UNL A   1      41.189  33.928  31.749  1.00  0.00     0.010 A 
ATOM     77  C   UNL A   1      38.895  34.317  30.198  1.00  0.00     0.020 A 
ATOM     78  C   UNL A   1      39.930  33.891  32.354  1.00  0.00     0.020 A 
ATOM     79  C   UNL A   1      38.789  34.096  31.574  1.00  0.00     0.054 A 
BRANCH  79  80
ATOM     80  S   UNL A   1      37.140  34.028  32.327  1.00  0.00     0.124 S 
ATOM     81  O   UNL A   1      37.145  35.215  33.176  1.00  0.00    -0.237 OA
ATOM     82  O   UNL A   1      36.261  34.085  31.163  1.00  0.00    -0.237 OA
ATOM     83  O   UNL A   1      37.140  32.750  33.036  1.00  0.00    -0.744 OA
ENDBRANCH  79  80
ENDBRANCH  51  74
BRANCH  63  84
ATOM     84  C   UNL A   1      45.743  39.112  28.267  1.00  0.00    -0.014 A 
ATOM     85  C   UNL A   1      46.278  39.900  29.302  1.00  0.00     0.010 A 
ATOM     86  C   UNL A   1      45.152  39.748  27.160  1.00  0.00     0.010 A 
ATOM     87  C   UNL A   1      46.189  41.293  29.247  1.00  0.00     0.020 A 
ATOM     88  C   UNL A   1      45.090  41.142  27.086  1.00  0.00     0.020 A 
ATOM     89  C   UNL A   1      45.595  41.906  28.140  1.00  0.00     0.054 A 
BRANCH  89  90
ATOM     90  S   UNL A   1      45.523  43.717  28.077  1.00  0.00     0.124 S 
ATOM     91  O   UNL A   1      44.635  44.025  29.196  1.00  0.00    -0.237 OA
ATOM     92  O   UNL A   1      46.920  44.100  28.259  1.00  0.00    -0.237 OA
ATOM     93  O   UNL A   1      44.973  43.997  26.752  1.00  0.00    -0.744 OA
ENDBRANCH  89  90
ENDBRANCH  63  84
ENDBRANCH  37  38
ENDBRANCH  29  32
ENDBRANCH  27  28
ENDBRANCH  26  27
ENDBRANCH  25  26
ENDBRANCH   1  25
TORSDOF 20
ENDMDL
MODEL 3
REMARK VINA RESULT:      -9.6      6.167     17.076
REMARK SMILES CC(C)(C)c1ccc(OCc2nnc(SCC(=O)NCCCCNC(=O)c3ccc(-c4c5nc(c(-c6ccc(S(=O)(=O)[O-])cc6)c6ccc([nH]6)c(-c6ccc(S(=O)(=O)[O-])cc6)c6nc(c(-c7ccc(S(=O)(=O)[O-])cc7)c7ccc4[nH]7)C=C6)C=C5)cc3)o2)cc1
REMARK SMILES IDX 20 1 19 2 17 3 18 4 16 6 15 7 14 8 11 9 12 10 87 11 13 12
REMARK SMILES IDX 10 13 9 14 8 15 5 16 6 17 89 18 7 19 88 20 2 21 1 22 3 23
REMARK SMILES IDX 4 24 21 25 22 26 23 27 24 28 25 29 26 31 27 32 28 33 86 34
REMARK SMILES IDX 29 35 85 36 30 37 31 38 32 39 79 40 33 41 84 42 78 43 80 44
REMARK SMILES IDX 34 45 83 46 77 47 76 48 35 50 65 51 46 52 64 53 47 54 50 55
REMARK SMILES IDX 63 56 81 57 48 58 49 59 62 61 82 62 51 63 36 64 37 65 45 66
REMARK SMILES IDX 38 67 44 68 39 69 40 70 41 71 42 72 43 73 66 74 67 75 75 76
REMARK SMILES IDX 68 77 74 78 69 79 70 80 71 81 72 82 73 83 52 84 53 85 61 86
REMARK SMILES IDX 54 87 60 88 55 89 56 90 57 91 58 92 59 93
REMARK H PARENT 19 5 24 30 80 49 50 60
REMARK Flexibility Score: inf
ROOT
ATOM      1  C   UNL A   1      45.352  41.202  28.608  1.00  0.00     0.116 C 
ENDROOT
BRANCH   1   2
ATOM      2  N   UNL A   1      46.010  40.822  27.372  1.00  0.00    -0.355 N 
ATOM      3  C   UNL A   1      45.835  41.297  26.106  1.00  0.00     0.230 C 
ATOM      4  O   UNL A   1      46.578  40.871  25.219  1.00  0.00    -0.274 OA
ATOM      5  H   UNL A   1      46.687  40.112  27.460  1.00  0.00     0.163 HD
BRANCH   3   6
ATOM      6  C   UNL A   1      44.845  42.400  25.798  1.00  0.00     0.179 C 
BRANCH   6   7
ATOM      7  S   UNL A   1      45.126  43.275  24.249  1.00  0.00    -0.055 SA
BRANCH   7   8
ATOM      8  C   UNL A   1      43.768  42.828  23.270  1.00  0.00     0.277 A 
ATOM      9  C   UNL A   1      42.310  42.692  21.720  1.00  0.00     0.254 A 
ATOM     10  N   UNL A   1      41.945  41.833  22.647  1.00  0.00    -0.108 NA
ATOM     11  O   UNL A   1      43.444  43.390  22.064  1.00  0.00    -0.412 OA
ATOM     12  N   UNL A   1      42.891  41.920  23.647  1.00  0.00    -0.101 NA
BRANCH   9  13
ATOM     13  C   UNL A   1      41.668  43.023  20.420  1.00  0.00     0.328 C 
BRANCH  13  14
ATOM     14  O   UNL A   1      42.653  43.228  19.399  1.00  0.00    -0.484 OA
BRANCH  14  15
ATOM     15  C   UNL A   1      42.915  44.507  18.992  1.00  0.00     0.120 A 
ATOM     16  C   UNL A   1      43.294  47.089  17.863  1.00  0.00    -0.042 A 
ATOM     17  C   UNL A   1      42.065  46.415  17.757  1.00  0.00     0.008 A 
ATOM     18  C   UNL A   1      44.289  46.469  18.629  1.00  0.00     0.008 A 
ATOM     19  C   UNL A   1      41.882  45.140  18.306  1.00  0.00     0.047 A 
ATOM     20  C   UNL A   1      44.100  45.201  19.192  1.00  0.00     0.047 A 
BRANCH  16  21
ATOM     21  C   UNL A   1      43.514  48.452  17.186  1.00  0.00    -0.013 C 
ATOM     22  C   UNL A   1      43.401  49.649  18.162  1.00  0.00     0.016 C 
ATOM     23  C   UNL A   1      42.456  48.638  16.084  1.00  0.00     0.016 C 
ATOM     24  C   UNL A   1      44.926  48.530  16.563  1.00  0.00     0.016 C 
ENDBRANCH  16  21
ENDBRANCH  14  15
ENDBRANCH  13  14
ENDBRANCH   9  13
ENDBRANCH   7   8
ENDBRANCH   6   7
ENDBRANCH   3   6
ENDBRANCH   1   2
BRANCH   1  25
ATOM     25  C   UNL A   1      44.318  40.167  29.050  1.00  0.00     0.023 C 
BRANCH  25  26
ATOM     26  C   UNL A   1      44.794  39.192  30.133  1.00  0.00     0.023 C 
BRANCH  26  27
ATOM     27  C   UNL A   1      45.526  37.950  29.631  1.00  0.00     0.116 C 
BRANCH  27  28
ATOM     28  N   UNL A   1      46.971  38.053  29.764  1.00  0.00    -0.352 N 
ATOM     29  C   UNL A   1      47.930  37.073  29.692  1.00  0.00     0.251 C 
ATOM     30  H   UNL A   1      47.313  38.961  29.930  1.00  0.00     0.163 HD
ATOM     31  O   UNL A   1      49.096  37.349  29.977  1.00  0.00    -0.269 OA
BRANCH  29  32
ATOM     32  C   UNL A   1      47.573  35.691  29.304  1.00  0.00     0.039 A 
ATOM     33  C   UNL A   1      47.258  35.428  27.967  1.00  0.00     0.014 A 
ATOM     34  C   UNL A   1      47.522  34.658  30.245  1.00  0.00     0.014 A 
ATOM     35  C   UNL A   1      46.946  34.127  27.567  1.00  0.00     0.010 A 
ATOM     36  C   UNL A   1      47.282  33.349  29.832  1.00  0.00     0.010 A 
ATOM     37  C   UNL A   1      46.985  33.068  28.490  1.00  0.00    -0.014 A 
BRANCH  37  38
ATOM     38  C   UNL A   1      46.720  31.668  28.062  1.00  0.00     0.031 A 
ATOM     39  C   UNL A   1      45.341  31.075  28.197  1.00  0.00     0.074 A 
ATOM     40  C   UNL A   1      47.733  30.909  27.603  1.00  0.00     0.049 A 
ATOM     41  N   UNL A   1      44.931  29.867  27.905  1.00  0.00    -0.248 NA
ATOM     42  C   UNL A   1      44.294  31.943  28.758  1.00  0.00     0.031 C 
ATOM     43  C   UNL A   1      49.126  31.346  27.469  1.00  0.00     0.029 A 
ATOM     44  N   UNL A   1      47.754  29.606  27.168  1.00  0.00    -0.354 N 
ATOM     45  C   UNL A   1      43.589  29.824  28.264  1.00  0.00     0.074 A 
ATOM     46  C   UNL A   1      43.267  31.111  28.840  1.00  0.00     0.031 C 
ATOM     47  C   UNL A   1      49.856  30.339  26.966  1.00  0.00     0.029 A 
ATOM     48  C   UNL A   1      48.999  29.173  26.778  1.00  0.00     0.049 A 
ATOM     49  H   UNL A   1      46.951  29.036  27.139  1.00  0.00     0.167 HD
ATOM     50  C   UNL A   1      42.699  28.812  28.111  1.00  0.00     0.031 A 
ATOM     51  C   UNL A   1      49.412  27.972  26.328  1.00  0.00     0.031 A 
ATOM     52  C   UNL A   1      43.022  27.534  27.532  1.00  0.00     0.049 A 
ATOM     53  C   UNL A   1      48.407  26.865  26.161  1.00  0.00     0.074 A 
ATOM     54  C   UNL A   1      42.176  26.469  27.272  1.00  0.00     0.029 A 
ATOM     55  N   UNL A   1      44.290  27.142  27.131  1.00  0.00    -0.354 N 
ATOM     56  N   UNL A   1      47.123  26.872  26.427  1.00  0.00    -0.248 NA
ATOM     57  C   UNL A   1      48.904  25.593  25.619  1.00  0.00     0.031 C 
ATOM     58  C   UNL A   1      42.945  25.412  26.775  1.00  0.00     0.029 A 
ATOM     59  C   UNL A   1      44.257  25.841  26.656  1.00  0.00     0.049 A 
ATOM     60  H   UNL A   1      45.097  27.705  27.177  1.00  0.00     0.167 HD
ATOM     61  C   UNL A   1      46.653  25.615  26.061  1.00  0.00     0.074 A 
ATOM     62  C   UNL A   1      47.788  24.881  25.538  1.00  0.00     0.031 C 
ATOM     63  C   UNL A   1      45.395  25.115  26.147  1.00  0.00     0.031 A 
BRANCH  50  64
ATOM     64  C   UNL A   1      41.291  29.044  28.600  1.00  0.00    -0.014 A 
ATOM     65  C   UNL A   1      40.973  28.992  29.970  1.00  0.00     0.010 A 
ATOM     66  C   UNL A   1      40.274  29.349  27.677  1.00  0.00     0.010 A 
ATOM     67  C   UNL A   1      39.658  29.183  30.401  1.00  0.00     0.020 A 
ATOM     68  C   UNL A   1      38.962  29.573  28.106  1.00  0.00     0.020 A 
ATOM     69  C   UNL A   1      38.659  29.467  29.465  1.00  0.00     0.054 A 
BRANCH  69  70
ATOM     70  S   UNL A   1      36.961  29.712  30.052  1.00  0.00     0.124 S 
ATOM     71  O   UNL A   1      36.179  29.318  28.883  1.00  0.00    -0.237 OA
ATOM     72  O   UNL A   1      36.882  28.805  31.193  1.00  0.00    -0.237 OA
ATOM     73  O   UNL A   1      36.909  31.134  30.384  1.00  0.00    -0.744 OA
ENDBRANCH  69  70
ENDBRANCH  50  64
BRANCH  51  74
ATOM     74  C   UNL A   1      50.849  27.763  25.996  1.00  0.00    -0.014 A 
ATOM     75  C   UNL A   1      51.382  28.225  24.781  1.00  0.00     0.010 A 
ATOM     76  C   UNL A   1      51.700  27.124  26.917  1.00  0.00     0.010 A 
ATOM     77  C   UNL A   1      52.737  28.042  24.487  1.00  0.00     0.020 A 
ATOM     78  C   UNL A   1      53.061  26.968  26.641  1.00  0.00     0.020 A 
ATOM     79  C   UNL A   1      53.569  27.420  25.422  1.00  0.00     0.054 A 
BRANCH  79  80
ATOM     80  S   UNL A   1      55.337  27.254  25.047  1.00  0.00     0.124 S 
ATOM     81  O   UNL A   1      55.911  27.057  26.374  1.00  0.00    -0.237 OA
ATOM     82  O   UNL A   1      55.363  26.091  24.165  1.00  0.00    -0.237 OA
ATOM     83  O   UNL A   1      55.670  28.523  24.403  1.00  0.00    -0.744 OA
ENDBRANCH  79  80
ENDBRANCH  51  74
BRANCH  63  84
ATOM     84  C   UNL A   1      45.167  23.716  25.637  1.00  0.00    -0.014 A 
ATOM     85  C   UNL A   1      44.554  23.477  24.393  1.00  0.00     0.010 A 
ATOM     86  C   UNL A   1      45.617  22.621  26.398  1.00  0.00     0.010 A 
ATOM     87  C   UNL A   1      44.364  22.170  23.939  1.00  0.00     0.020 A 
ATOM     88  C   UNL A   1      45.457  21.313  25.931  1.00  0.00     0.020 A 
ATOM     89  C   UNL A   1      44.816  21.096  24.710  1.00  0.00     0.054 A 
BRANCH  89  90
ATOM     90  S   UNL A   1      44.586  19.410  24.082  1.00  0.00     0.124 S 
ATOM     91  O   UNL A   1      45.725  18.709  24.669  1.00  0.00    -0.237 OA
ATOM     92  O   UNL A   1      43.278  19.043  24.618  1.00  0.00    -0.237 OA
ATOM     93  O   UNL A   1      44.636  19.570  22.630  1.00  0.00    -0.744 OA
ENDBRANCH  89  90
ENDBRANCH  63  84
ENDBRANCH  37  38
ENDBRANCH  29  32
ENDBRANCH  27  28
ENDBRANCH  26  27
ENDBRANCH  25  26
ENDBRANCH   1  25
TORSDOF 20
ENDMDL
