MODEL 1
REMARK VINA RESULT:     -13.2      0.000      0.000
REMARK SMILES Cc1cccc(N2C(=O)/C(=C/c3ccc(C(=O)NCCCCNC(=O)c4ccc(-c5c6nc(c(-c7ccc(S(=O)(=O)[O-])cc7)c7ccc([nH]7)c(-c7ccc(S(=O)(=O)[O-])cc7)c7nc(c(-c8ccc(S(=O)(=O)[O-])cc8)c8ccc5[nH]8)C=C7)C=C6)cc4)cc3)c3ccccc3C2=O)c1
REMARK SMILES IDX 21 1 20 2 19 3 18 4 16 5 17 6 15 8 12 9 13 10 87 11 14 12
REMARK SMILES IDX 86 13 11 14 7 15 8 16 94 17 9 18 10 19 93 20 95 21 88 22
REMARK SMILES IDX 92 23 89 24 91 25 90 26 6 27 1 28 2 29 3 30 96 31 4 32 5 33
REMARK SMILES IDX 22 34 23 35 24 36 25 38 26 39 27 40 85 41 28 42 84 43 29 44
REMARK SMILES IDX 30 45 31 46 78 47 32 48 83 49 77 50 79 51 33 52 82 53 76 54
REMARK SMILES IDX 75 55 34 57 64 58 45 59 63 60 46 61 49 62 62 63 80 64 47 65
REMARK SMILES IDX 48 66 61 68 81 69 50 70 35 71 36 72 44 73 37 74 43 75 38 76
REMARK SMILES IDX 39 77 40 78 41 79 42 80 65 81 66 82 74 83 67 84 73 85 68 86
REMARK SMILES IDX 69 87 70 88 71 89 72 90 51 91 52 92 60 93 53 94 59 95 54 96
REMARK SMILES IDX 55 97 56 98 57 99 58 100
REMARK H PARENT 18 7 23 37 79 56 49 67
REMARK Flexibility Score: inf
ROOT
ATOM      1  C   UNL A   1      35.122  33.643  28.613  1.00  0.00     0.023 C 
ENDROOT
BRANCH   1   2
ATOM      2  C   UNL A   1      33.846  33.772  27.783  1.00  0.00     0.023 C 
BRANCH   2   3
ATOM      3  C   UNL A   1      32.793  32.676  27.996  1.00  0.00     0.116 C 
BRANCH   3   4
ATOM      4  N   UNL A   1      31.798  32.599  26.930  1.00  0.00    -0.352 N 
ATOM      5  C   UNL A   1      31.403  31.552  26.132  1.00  0.00     0.251 C 
ATOM      6  O   UNL A   1      30.601  31.739  25.220  1.00  0.00    -0.269 OA
ATOM      7  H   UNL A   1      31.327  33.446  26.752  1.00  0.00     0.163 HD
BRANCH   5   8
ATOM      8  C   UNL A   1      31.989  30.206  26.307  1.00  0.00     0.039 A 
ATOM      9  C   UNL A   1      32.799  27.540  26.482  1.00  0.00    -0.025 A 
ATOM     10  C   UNL A   1      31.841  28.038  27.371  1.00  0.00     0.009 A 
ATOM     11  C   UNL A   1      33.459  28.421  25.614  1.00  0.00     0.009 A 
ATOM     12  C   UNL A   1      31.437  29.372  27.286  1.00  0.00     0.014 A 
ATOM     13  C   UNL A   1      33.057  29.756  25.529  1.00  0.00     0.014 A 
BRANCH   9  14
ATOM     14  C   UNL A   1      33.043  26.093  26.441  1.00  0.00     0.022 C 
ATOM     15  N   UNL A   1      33.721  23.170  24.454  1.00  0.00    -0.242 N 
ATOM     16  C   UNL A   1      33.265  23.837  25.609  1.00  0.00     0.265 C 
ATOM     17  C   UNL A   1      33.771  23.818  23.199  1.00  0.00     0.265 C 
ATOM     18  O   UNL A   1      33.266  23.397  26.759  1.00  0.00    -0.268 OA
ATOM     19  C   UNL A   1      32.818  25.260  25.397  1.00  0.00     0.049 C 
ATOM     20  C   UNL A   1      32.854  24.965  22.985  1.00  0.00     0.048 A 
ATOM     21  O   UNL A   1      34.467  23.513  22.233  1.00  0.00    -0.268 OA
ATOM     22  C   UNL A   1      32.305  25.630  24.076  1.00  0.00    -0.000 A 
ATOM     23  C   UNL A   1      32.517  25.346  21.676  1.00  0.00     0.014 A 
ATOM     24  C   UNL A   1      31.319  26.602  23.843  1.00  0.00     0.010 A 
ATOM     25  C   UNL A   1      31.592  26.365  21.455  1.00  0.00     0.001 A 
ATOM     26  C   UNL A   1      30.977  26.978  22.541  1.00  0.00     0.001 A 
BRANCH  15  27
ATOM     27  C   UNL A   1      34.245  21.808  24.586  1.00  0.00     0.053 A 
ATOM     28  C   UNL A   1      32.950  18.190  24.482  1.00  0.00     0.044 C 
ATOM     29  C   UNL A   1      33.882  19.361  24.592  1.00  0.00    -0.049 A 
ATOM     30  C   UNL A   1      35.240  19.146  24.816  1.00  0.00     0.003 A 
ATOM     31  C   UNL A   1      33.407  20.680  24.458  1.00  0.00     0.030 A 
ATOM     32  C   UNL A   1      36.098  20.231  24.923  1.00  0.00     0.002 A 
ATOM     33  C   UNL A   1      35.605  21.538  24.816  1.00  0.00     0.027 A 
ENDBRANCH  15  27
ENDBRANCH   9  14
ENDBRANCH   5   8
ENDBRANCH   3   4
ENDBRANCH   2   3
ENDBRANCH   1   2
BRANCH   1  34
ATOM     34  C   UNL A   1      35.038  32.636  29.755  1.00  0.00     0.116 C 
BRANCH  34  35
ATOM     35  N   UNL A   1      34.750  31.276  29.332  1.00  0.00    -0.352 N 
ATOM     36  C   UNL A   1      35.673  30.292  29.002  1.00  0.00     0.251 C 
ATOM     37  H   UNL A   1      33.799  31.025  29.272  1.00  0.00     0.163 HD
ATOM     38  O   UNL A   1      35.394  29.327  28.314  1.00  0.00    -0.269 OA
BRANCH  36  39
ATOM     39  C   UNL A   1      36.989  30.378  29.672  1.00  0.00     0.039 A 
ATOM     40  C   UNL A   1      38.018  31.023  28.974  1.00  0.00     0.014 A 
ATOM     41  C   UNL A   1      37.260  29.598  30.791  1.00  0.00     0.014 A 
ATOM     42  C   UNL A   1      39.342  30.728  29.282  1.00  0.00     0.010 A 
ATOM     43  C   UNL A   1      38.566  29.226  31.025  1.00  0.00     0.010 A 
ATOM     44  C   UNL A   1      39.601  29.751  30.240  1.00  0.00    -0.014 A 
BRANCH  44  45
ATOM     45  C   UNL A   1      40.914  29.167  30.477  1.00  0.00     0.031 A 
ATOM     46  C   UNL A   1      41.257  27.878  29.837  1.00  0.00     0.074 A 
ATOM     47  C   UNL A   1      41.847  29.867  31.161  1.00  0.00     0.049 A 
ATOM     48  N   UNL A   1      42.243  27.122  30.186  1.00  0.00    -0.248 NA
ATOM     49  C   UNL A   1      40.442  27.297  28.773  1.00  0.00     0.031 C 
ATOM     50  C   UNL A   1      43.284  29.612  31.196  1.00  0.00     0.029 A 
ATOM     51  N   UNL A   1      41.654  30.831  32.154  1.00  0.00    -0.354 N 
ATOM     52  C   UNL A   1      42.388  26.161  29.209  1.00  0.00     0.074 A 
ATOM     53  C   UNL A   1      41.173  26.233  28.435  1.00  0.00     0.031 C 
ATOM     54  C   UNL A   1      43.785  30.137  32.325  1.00  0.00     0.029 A 
ATOM     55  C   UNL A   1      42.654  30.598  33.114  1.00  0.00     0.049 A 
ATOM     56  H   UNL A   1      40.960  31.529  32.177  1.00  0.00     0.167 HD
ATOM     57  C   UNL A   1      43.588  25.527  29.072  1.00  0.00     0.031 A 
ATOM     58  C   UNL A   1      42.397  30.223  34.402  1.00  0.00     0.031 A 
ATOM     59  C   UNL A   1      44.471  25.819  30.201  1.00  0.00     0.049 A 
ATOM     60  C   UNL A   1      43.039  28.900  34.767  1.00  0.00     0.074 A 
ATOM     61  C   UNL A   1      45.564  26.654  30.362  1.00  0.00     0.029 A 
ATOM     62  N   UNL A   1      44.083  25.427  31.479  1.00  0.00    -0.354 N 
ATOM     63  N   UNL A   1      43.486  28.042  33.891  1.00  0.00    -0.248 NA
ATOM     64  C   UNL A   1      43.202  28.425  36.139  1.00  0.00     0.031 C 
ATOM     65  C   UNL A   1      45.754  26.856  31.757  1.00  0.00     0.029 A 
ATOM     66  C   UNL A   1      44.808  26.108  32.437  1.00  0.00     0.049 A 
ATOM     67  H   UNL A   1      43.389  24.757  31.673  1.00  0.00     0.167 HD
ATOM     68  C   UNL A   1      43.996  26.944  34.533  1.00  0.00     0.074 A 
ATOM     69  C   UNL A   1      43.798  27.234  35.943  1.00  0.00     0.031 C 
ATOM     70  C   UNL A   1      44.537  25.890  33.853  1.00  0.00     0.031 A 
BRANCH  57  71
ATOM     71  C   UNL A   1      44.063  24.868  27.787  1.00  0.00    -0.014 A 
ATOM     72  C   UNL A   1      43.704  23.529  27.517  1.00  0.00     0.010 A 
ATOM     73  C   UNL A   1      44.942  25.457  26.858  1.00  0.00     0.010 A 
ATOM     74  C   UNL A   1      44.244  22.809  26.434  1.00  0.00     0.020 A 
ATOM     75  C   UNL A   1      45.494  24.754  25.776  1.00  0.00     0.020 A 
ATOM     76  C   UNL A   1      45.155  23.423  25.579  1.00  0.00     0.054 A 
BRANCH  76  77
ATOM     77  S   UNL A   1      45.904  22.479  24.227  1.00  0.00     0.124 S 
ATOM     78  O   UNL A   1      44.757  22.208  23.363  1.00  0.00    -0.237 OA
ATOM     79  O   UNL A   1      46.890  23.414  23.696  1.00  0.00    -0.237 OA
ATOM     80  O   UNL A   1      46.463  21.303  24.893  1.00  0.00    -0.744 OA
ENDBRANCH  76  77
ENDBRANCH  57  71
BRANCH  58  81
ATOM     81  C   UNL A   1      41.106  30.736  34.943  1.00  0.00    -0.014 A 
ATOM     82  C   UNL A   1      41.057  32.101  35.300  1.00  0.00     0.010 A 
ATOM     83  C   UNL A   1      39.902  30.060  34.676  1.00  0.00     0.010 A 
ATOM     84  C   UNL A   1      39.864  32.819  35.198  1.00  0.00     0.020 A 
ATOM     85  C   UNL A   1      38.701  30.779  34.583  1.00  0.00     0.020 A 
ATOM     86  C   UNL A   1      38.709  32.165  34.770  1.00  0.00     0.054 A 
BRANCH  86  87
ATOM     87  S   UNL A   1      37.294  33.191  34.262  1.00  0.00     0.124 S 
ATOM     88  O   UNL A   1      37.930  34.463  33.936  1.00  0.00    -0.237 OA
ATOM     89  O   UNL A   1      36.772  32.441  33.119  1.00  0.00    -0.237 OA
ATOM     90  O   UNL A   1      36.443  33.195  35.447  1.00  0.00    -0.744 OA
ENDBRANCH  86  87
ENDBRANCH  58  81
BRANCH  70  91
ATOM     91  C   UNL A   1      44.937  24.563  34.456  1.00  0.00    -0.014 A 
ATOM     92  C   UNL A   1      44.106  23.434  34.496  1.00  0.00     0.010 A 
ATOM     93  C   UNL A   1      46.275  24.391  34.890  1.00  0.00     0.010 A 
ATOM     94  C   UNL A   1      44.566  22.209  35.005  1.00  0.00     0.020 A 
ATOM     95  C   UNL A   1      46.757  23.164  35.355  1.00  0.00     0.020 A 
ATOM     96  C   UNL A   1      45.888  22.083  35.434  1.00  0.00     0.054 A 
BRANCH  96  97
ATOM     97  S   UNL A   1      46.492  20.482  36.026  1.00  0.00     0.124 S 
ATOM     98  O   UNL A   1      45.761  20.333  37.283  1.00  0.00    -0.237 OA
ATOM     99  O   UNL A   1      46.095  19.566  34.960  1.00  0.00    -0.237 OA
ATOM    100  O   UNL A   1      47.932  20.687  36.157  1.00  0.00    -0.744 OA
ENDBRANCH  96  97
ENDBRANCH  70  91
ENDBRANCH  44  45
ENDBRANCH  36  39
ENDBRANCH  34  35
ENDBRANCH   1  34
TORSDOF 16
ENDMDL
MODEL 2
REMARK VINA RESULT:     -12.9      4.928     11.365
REMARK SMILES Cc1cccc(N2C(=O)/C(=C/c3ccc(C(=O)NCCCCNC(=O)c4ccc(-c5c6nc(c(-c7ccc(S(=O)(=O)[O-])cc7)c7ccc([nH]7)c(-c7ccc(S(=O)(=O)[O-])cc7)c7nc(c(-c8ccc(S(=O)(=O)[O-])cc8)c8ccc5[nH]8)C=C7)C=C6)cc4)cc3)c3ccccc3C2=O)c1
REMARK SMILES IDX 21 1 20 2 19 3 18 4 16 5 17 6 15 8 12 9 13 10 87 11 14 12
REMARK SMILES IDX 86 13 11 14 7 15 8 16 94 17 9 18 10 19 93 20 95 21 88 22
REMARK SMILES IDX 92 23 89 24 91 25 90 26 6 27 1 28 2 29 3 30 96 31 4 32 5 33
REMARK SMILES IDX 22 34 23 35 24 36 25 38 26 39 27 40 85 41 28 42 84 43 29 44
REMARK SMILES IDX 30 45 31 46 78 47 32 48 83 49 77 50 79 51 33 52 82 53 76 54
REMARK SMILES IDX 75 55 34 57 64 58 45 59 63 60 46 61 49 62 62 63 80 64 47 65
REMARK SMILES IDX 48 66 61 68 81 69 50 70 35 71 36 72 44 73 37 74 43 75 38 76
REMARK SMILES IDX 39 77 40 78 41 79 42 80 65 81 66 82 74 83 67 84 73 85 68 86
REMARK SMILES IDX 69 87 70 88 71 89 72 90 51 91 52 92 60 93 53 94 59 95 54 96
REMARK SMILES IDX 55 97 56 98 57 99 58 100
REMARK H PARENT 18 7 23 37 79 56 49 67
REMARK Flexibility Score: inf
ROOT
ATOM      1  C   UNL A   1      44.915  28.676  28.038  1.00  0.00     0.023 C 
ENDROOT
BRANCH   1   2
ATOM      2  C   UNL A   1      43.860  27.577  27.943  1.00  0.00     0.023 C 
BRANCH   2   3
ATOM      3  C   UNL A   1      43.410  27.198  26.526  1.00  0.00     0.116 C 
BRANCH   3   4
ATOM      4  N   UNL A   1      42.602  25.982  26.468  1.00  0.00    -0.352 N 
ATOM      5  C   UNL A   1      41.323  25.722  26.898  1.00  0.00     0.251 C 
ATOM      6  O   UNL A   1      40.870  24.582  26.831  1.00  0.00    -0.269 OA
ATOM      7  H   UNL A   1      43.054  25.215  26.047  1.00  0.00     0.163 HD
BRANCH   5   8
ATOM      8  C   UNL A   1      40.501  26.785  27.513  1.00  0.00     0.039 A 
ATOM      9  C   UNL A   1      38.712  28.727  28.418  1.00  0.00    -0.025 A 
ATOM     10  C   UNL A   1      39.507  28.980  27.295  1.00  0.00     0.009 A 
ATOM     11  C   UNL A   1      38.932  27.567  29.173  1.00  0.00     0.009 A 
ATOM     12  C   UNL A   1      40.403  28.010  26.843  1.00  0.00     0.014 A 
ATOM     13  C   UNL A   1      39.830  26.597  28.723  1.00  0.00     0.014 A 
BRANCH   9  14
ATOM     14  C   UNL A   1      37.625  29.661  28.741  1.00  0.00     0.022 C 
ATOM     15  N   UNL A   1      36.650  32.984  29.718  1.00  0.00    -0.242 N 
ATOM     16  C   UNL A   1      36.452  31.595  29.585  1.00  0.00     0.265 C 
ATOM     17  C   UNL A   1      37.948  33.544  29.757  1.00  0.00     0.265 C 
ATOM     18  O   UNL A   1      35.373  31.017  29.451  1.00  0.00    -0.268 OA
ATOM     19  C   UNL A   1      37.709  30.768  29.516  1.00  0.00     0.049 C 
ATOM     20  C   UNL A   1      39.056  32.668  30.211  1.00  0.00     0.048 A 
ATOM     21  O   UNL A   1      38.265  34.702  29.495  1.00  0.00    -0.268 OA
ATOM     22  C   UNL A   1      38.909  31.286  30.177  1.00  0.00    -0.000 A 
ATOM     23  C   UNL A   1      40.236  33.247  30.707  1.00  0.00     0.014 A 
ATOM     24  C   UNL A   1      39.908  30.490  30.762  1.00  0.00     0.010 A 
ATOM     25  C   UNL A   1      41.254  32.443  31.217  1.00  0.00     0.001 A 
ATOM     26  C   UNL A   1      41.079  31.064  31.264  1.00  0.00     0.001 A 
BRANCH  15  27
ATOM     27  C   UNL A   1      35.481  33.868  29.716  1.00  0.00     0.053 A 
ATOM     28  C   UNL A   1      33.144  35.575  32.245  1.00  0.00     0.044 C 
ATOM     29  C   UNL A   1      33.761  35.152  30.944  1.00  0.00    -0.049 A 
ATOM     30  C   UNL A   1      33.220  35.605  29.743  1.00  0.00     0.003 A 
ATOM     31  C   UNL A   1      34.892  34.313  30.918  1.00  0.00     0.030 A 
ATOM     32  C   UNL A   1      33.790  35.207  28.541  1.00  0.00     0.002 A 
ATOM     33  C   UNL A   1      34.897  34.349  28.532  1.00  0.00     0.027 A 
ENDBRANCH  15  27
ENDBRANCH   9  14
ENDBRANCH   5   8
ENDBRANCH   3   4
ENDBRANCH   2   3
ENDBRANCH   1   2
BRANCH   1  34
ATOM     34  C   UNL A   1      46.348  28.172  28.170  1.00  0.00     0.116 C 
BRANCH  34  35
ATOM     35  N   UNL A   1      46.705  27.134  27.219  1.00  0.00    -0.352 N 
ATOM     36  C   UNL A   1      47.159  25.854  27.512  1.00  0.00     0.251 C 
ATOM     37  H   UNL A   1      46.617  27.361  26.265  1.00  0.00     0.163 HD
ATOM     38  O   UNL A   1      47.784  25.175  26.718  1.00  0.00    -0.269 OA
BRANCH  36  39
ATOM     39  C   UNL A   1      46.696  25.273  28.792  1.00  0.00     0.039 A 
ATOM     40  C   UNL A   1      45.437  24.659  28.794  1.00  0.00     0.014 A 
ATOM     41  C   UNL A   1      47.341  25.592  29.981  1.00  0.00     0.014 A 
ATOM     42  C   UNL A   1      44.737  24.540  29.990  1.00  0.00     0.010 A 
ATOM     43  C   UNL A   1      46.606  25.571  31.148  1.00  0.00     0.010 A 
ATOM     44  C   UNL A   1      45.289  25.092  31.142  1.00  0.00    -0.014 A 
BRANCH  44  45
ATOM     45  C   UNL A   1      44.565  25.265  32.394  1.00  0.00     0.031 A 
ATOM     46  C   UNL A   1      44.138  26.623  32.801  1.00  0.00     0.074 A 
ATOM     47  C   UNL A   1      44.172  24.180  33.098  1.00  0.00     0.049 A 
ATOM     48  N   UNL A   1      43.761  26.950  33.990  1.00  0.00    -0.248 NA
ATOM     49  C   UNL A   1      44.179  27.757  31.882  1.00  0.00     0.031 C 
ATOM     50  C   UNL A   1      43.165  24.137  34.155  1.00  0.00     0.029 A 
ATOM     51  N   UNL A   1      44.771  22.918  33.155  1.00  0.00    -0.354 N 
ATOM     52  C   UNL A   1      43.208  28.211  33.912  1.00  0.00     0.074 A 
ATOM     53  C   UNL A   1      43.612  28.713  32.621  1.00  0.00     0.031 C 
ATOM     54  C   UNL A   1      43.411  23.075  34.938  1.00  0.00     0.029 A 
ATOM     55  C   UNL A   1      44.675  22.508  34.496  1.00  0.00     0.049 A 
ATOM     56  H   UNL A   1      45.177  22.419  32.409  1.00  0.00     0.167 HD
ATOM     57  C   UNL A   1      42.339  28.618  34.881  1.00  0.00     0.031 A 
ATOM     58  C   UNL A   1      45.757  22.291  35.302  1.00  0.00     0.031 A 
ATOM     59  C   UNL A   1      42.342  27.693  36.014  1.00  0.00     0.049 A 
ATOM     60  C   UNL A   1      45.752  23.167  36.539  1.00  0.00     0.074 A 
ATOM     61  C   UNL A   1      41.472  26.701  36.435  1.00  0.00     0.029 A 
ATOM     62  N   UNL A   1      43.519  27.518  36.737  1.00  0.00    -0.354 N 
ATOM     63  N   UNL A   1      45.018  24.238  36.669  1.00  0.00    -0.248 NA
ATOM     64  C   UNL A   1      46.591  22.925  37.710  1.00  0.00     0.031 C 
ATOM     65  C   UNL A   1      42.181  25.854  37.331  1.00  0.00     0.029 A 
ATOM     66  C   UNL A   1      43.460  26.359  37.487  1.00  0.00     0.049 A 
ATOM     67  H   UNL A   1      44.286  28.134  36.717  1.00  0.00     0.167 HD
ATOM     68  C   UNL A   1      45.248  24.813  37.891  1.00  0.00     0.074 A 
ATOM     69  C   UNL A   1      46.240  23.950  38.509  1.00  0.00     0.031 C 
ATOM     70  C   UNL A   1      44.605  25.949  38.293  1.00  0.00     0.031 A 
BRANCH  57  71
ATOM     71  C   UNL A   1      41.287  29.698  34.685  1.00  0.00    -0.014 A 
ATOM     72  C   UNL A   1      41.595  31.037  35.008  1.00  0.00     0.010 A 
ATOM     73  C   UNL A   1      39.955  29.462  34.293  1.00  0.00     0.010 A 
ATOM     74  C   UNL A   1      40.622  32.054  35.010  1.00  0.00     0.020 A 
ATOM     75  C   UNL A   1      38.971  30.461  34.292  1.00  0.00     0.020 A 
ATOM     76  C   UNL A   1      39.306  31.753  34.670  1.00  0.00     0.054 A 
BRANCH  76  77
ATOM     77  S   UNL A   1      38.038  33.045  34.737  1.00  0.00     0.124 S 
ATOM     78  O   UNL A   1      37.665  33.191  33.332  1.00  0.00    -0.237 OA
ATOM     79  O   UNL A   1      37.025  32.449  35.603  1.00  0.00    -0.237 OA
ATOM     80  O   UNL A   1      38.741  34.193  35.309  1.00  0.00    -0.744 OA
ENDBRANCH  76  77
ENDBRANCH  57  71
BRANCH  58  81
ATOM     81  C   UNL A   1      46.973  21.821  34.580  1.00  0.00    -0.014 A 
ATOM     82  C   UNL A   1      48.075  22.703  34.536  1.00  0.00     0.010 A 
ATOM     83  C   UNL A   1      47.196  20.447  34.377  1.00  0.00     0.010 A 
ATOM     84  C   UNL A   1      49.380  22.210  34.491  1.00  0.00     0.020 A 
ATOM     85  C   UNL A   1      48.508  19.951  34.321  1.00  0.00     0.020 A 
ATOM     86  C   UNL A   1      49.586  20.832  34.456  1.00  0.00     0.054 A 
BRANCH  86  87
ATOM     87  S   UNL A   1      51.263  20.217  34.805  1.00  0.00     0.124 S 
ATOM     88  O   UNL A   1      51.940  20.412  33.528  1.00  0.00    -0.237 OA
ATOM     89  O   UNL A   1      51.693  21.108  35.884  1.00  0.00    -0.237 OA
ATOM     90  O   UNL A   1      51.036  18.829  35.195  1.00  0.00    -0.744 OA
ENDBRANCH  86  87
ENDBRANCH  58  81
BRANCH  70  91
ATOM     91  C   UNL A   1      44.933  26.761  39.524  1.00  0.00    -0.014 A 
ATOM     92  C   UNL A   1      45.658  27.962  39.506  1.00  0.00     0.010 A 
ATOM     93  C   UNL A   1      44.368  26.373  40.764  1.00  0.00     0.010 A 
ATOM     94  C   UNL A   1      45.866  28.706  40.677  1.00  0.00     0.020 A 
ATOM     95  C   UNL A   1      44.529  27.130  41.929  1.00  0.00     0.020 A 
ATOM     96  C   UNL A   1      45.302  28.283  41.882  1.00  0.00     0.054 A 
BRANCH  96  97
ATOM     97  S   UNL A   1      45.519  29.283  43.376  1.00  0.00     0.124 S 
ATOM     98  O   UNL A   1      45.877  30.584  42.816  1.00  0.00    -0.237 OA
ATOM     99  O   UNL A   1      44.204  29.215  44.010  1.00  0.00    -0.237 OA
ATOM    100  O   UNL A   1      46.586  28.594  44.097  1.00  0.00    -0.744 OA
ENDBRANCH  96  97
ENDBRANCH  70  91
ENDBRANCH  44  45
ENDBRANCH  36  39
ENDBRANCH  34  35
ENDBRANCH   1  34
TORSDOF 16
ENDMDL
MODEL 3
REMARK VINA RESULT:     -12.7      2.314      3.874
REMARK SMILES Cc1cccc(N2C(=O)/C(=C/c3ccc(C(=O)NCCCCNC(=O)c4ccc(-c5c6nc(c(-c7ccc(S(=O)(=O)[O-])cc7)c7ccc([nH]7)c(-c7ccc(S(=O)(=O)[O-])cc7)c7nc(c(-c8ccc(S(=O)(=O)[O-])cc8)c8ccc5[nH]8)C=C7)C=C6)cc4)cc3)c3ccccc3C2=O)c1
REMARK SMILES IDX 21 1 20 2 19 3 18 4 16 5 17 6 15 8 12 9 13 10 87 11 14 12
REMARK SMILES IDX 86 13 11 14 7 15 8 16 94 17 9 18 10 19 93 20 95 21 88 22
REMARK SMILES IDX 92 23 89 24 91 25 90 26 6 27 1 28 2 29 3 30 96 31 4 32 5 33
REMARK SMILES IDX 22 34 23 35 24 36 25 38 26 39 27 40 85 41 28 42 84 43 29 44
REMARK SMILES IDX 30 45 31 46 78 47 32 48 83 49 77 50 79 51 33 52 82 53 76 54
REMARK SMILES IDX 75 55 34 57 64 58 45 59 63 60 46 61 49 62 62 63 80 64 47 65
REMARK SMILES IDX 48 66 61 68 81 69 50 70 35 71 36 72 44 73 37 74 43 75 38 76
REMARK SMILES IDX 39 77 40 78 41 79 42 80 65 81 66 82 74 83 67 84 73 85 68 86
REMARK SMILES IDX 69 87 70 88 71 89 72 90 51 91 52 92 60 93 53 94 59 95 54 96
REMARK SMILES IDX 55 97 56 98 57 99 58 100
REMARK H PARENT 18 7 23 37 79 56 49 67
REMARK Flexibility Score: inf
ROOT
ATOM      1  C   UNL A   1      32.036  31.668  26.480  1.00  0.00     0.023 C 
ENDROOT
BRANCH   1   2
ATOM      2  C   UNL A   1      31.095  30.613  25.903  1.00  0.00     0.023 C 
BRANCH   2   3
ATOM      3  C   UNL A   1      31.683  29.717  24.804  1.00  0.00     0.116 C 
BRANCH   3   4
ATOM      4  N   UNL A   1      30.696  28.864  24.148  1.00  0.00    -0.352 N 
ATOM      5  C   UNL A   1      30.706  27.519  23.862  1.00  0.00     0.251 C 
ATOM      6  O   UNL A   1      29.794  27.020  23.208  1.00  0.00    -0.269 OA
ATOM      7  H   UNL A   1      29.880  29.334  23.858  1.00  0.00     0.163 HD
BRANCH   5   8
ATOM      8  C   UNL A   1      31.844  26.669  24.271  1.00  0.00     0.039 A 
ATOM      9  C   UNL A   1      34.172  25.367  25.095  1.00  0.00    -0.025 A 
ATOM     10  C   UNL A   1      34.095  25.910  23.808  1.00  0.00     0.009 A 
ATOM     11  C   UNL A   1      33.027  25.341  25.903  1.00  0.00     0.009 A 
ATOM     12  C   UNL A   1      32.930  26.560  23.395  1.00  0.00     0.014 A 
ATOM     13  C   UNL A   1      31.861  25.989  25.490  1.00  0.00     0.014 A 
BRANCH   9  14
ATOM     14  C   UNL A   1      35.471  24.890  25.586  1.00  0.00     0.022 C 
ATOM     15  N   UNL A   1      37.828  22.183  25.837  1.00  0.00    -0.242 N 
ATOM     16  C   UNL A   1      37.259  23.406  26.244  1.00  0.00     0.265 C 
ATOM     17  C   UNL A   1      37.089  21.235  25.093  1.00  0.00     0.265 C 
ATOM     18  O   UNL A   1      37.838  24.332  26.812  1.00  0.00    -0.268 OA
ATOM     19  C   UNL A   1      35.819  23.609  25.851  1.00  0.00     0.049 C 
ATOM     20  C   UNL A   1      35.611  21.270  25.219  1.00  0.00     0.048 A 
ATOM     21  O   UNL A   1      37.535  20.344  24.373  1.00  0.00    -0.268 OA
ATOM     22  C   UNL A   1      34.979  22.420  25.682  1.00  0.00    -0.000 A 
ATOM     23  C   UNL A   1      34.862  20.125  24.904  1.00  0.00     0.014 A 
ATOM     24  C   UNL A   1      33.600  22.369  25.944  1.00  0.00     0.010 A 
ATOM     25  C   UNL A   1      33.482  20.111  25.097  1.00  0.00     0.001 A 
ATOM     26  C   UNL A   1      32.854  21.228  25.637  1.00  0.00     0.001 A 
BRANCH  15  27
ATOM     27  C   UNL A   1      39.247  21.938  26.112  1.00  0.00     0.053 A 
ATOM     28  C   UNL A   1      41.715  18.992  26.164  1.00  0.00     0.044 C 
ATOM     29  C   UNL A   1      41.165  20.384  26.267  1.00  0.00    -0.049 A 
ATOM     30  C   UNL A   1      42.008  21.436  26.620  1.00  0.00     0.003 A 
ATOM     31  C   UNL A   1      39.809  20.649  25.996  1.00  0.00     0.030 A 
ATOM     32  C   UNL A   1      41.494  22.722  26.719  1.00  0.00     0.002 A 
ATOM     33  C   UNL A   1      40.137  22.964  26.475  1.00  0.00     0.027 A 
ENDBRANCH  15  27
ENDBRANCH   9  14
ENDBRANCH   5   8
ENDBRANCH   3   4
ENDBRANCH   2   3
ENDBRANCH   1   2
BRANCH   1  34
ATOM     34  C   UNL A   1      33.004  31.146  27.537  1.00  0.00     0.116 C 
BRANCH  34  35
ATOM     35  N   UNL A   1      33.085  29.697  27.608  1.00  0.00    -0.352 N 
ATOM     36  C   UNL A   1      34.239  28.924  27.598  1.00  0.00     0.251 C 
ATOM     37  H   UNL A   1      32.231  29.210  27.671  1.00  0.00     0.163 HD
ATOM     38  O   UNL A   1      34.245  27.747  27.287  1.00  0.00    -0.269 OA
BRANCH  36  39
ATOM     39  C   UNL A   1      35.455  29.558  28.153  1.00  0.00     0.039 A 
ATOM     40  C   UNL A   1      36.373  30.086  27.236  1.00  0.00     0.014 A 
ATOM     41  C   UNL A   1      35.803  29.363  29.486  1.00  0.00     0.014 A 
ATOM     42  C   UNL A   1      37.704  30.239  27.612  1.00  0.00     0.010 A 
ATOM     43  C   UNL A   1      37.138  29.415  29.826  1.00  0.00     0.010 A 
ATOM     44  C   UNL A   1      38.093  29.804  28.876  1.00  0.00    -0.014 A 
BRANCH  44  45
ATOM     45  C   UNL A   1      39.479  29.669  29.303  1.00  0.00     0.031 A 
ATOM     46  C   UNL A   1      40.182  28.386  29.078  1.00  0.00     0.074 A 
ATOM     47  C   UNL A   1      40.145  30.747  29.772  1.00  0.00     0.049 A 
ATOM     48  N   UNL A   1      41.283  28.039  29.654  1.00  0.00    -0.248 NA
ATOM     49  C   UNL A   1      39.637  27.343  28.213  1.00  0.00     0.031 C 
ATOM     50  C   UNL A   1      41.592  30.892  29.912  1.00  0.00     0.029 A 
ATOM     51  N   UNL A   1      39.632  31.865  30.434  1.00  0.00    -0.354 N 
ATOM     52  C   UNL A   1      41.749  26.915  29.005  1.00  0.00     0.074 A 
ATOM     53  C   UNL A   1      40.632  26.453  28.218  1.00  0.00     0.031 C 
ATOM     54  C   UNL A   1      41.840  31.822  30.848  1.00  0.00     0.029 A 
ATOM     55  C   UNL A   1      40.562  32.176  31.442  1.00  0.00     0.049 A 
ATOM     56  H   UNL A   1      38.791  32.338  30.236  1.00  0.00     0.167 HD
ATOM     57  C   UNL A   1      43.073  26.601  29.087  1.00  0.00     0.031 A 
ATOM     58  C   UNL A   1      40.279  32.120  32.777  1.00  0.00     0.031 A 
ATOM     59  C   UNL A   1      43.747  27.413  30.100  1.00  0.00     0.049 A 
ATOM     60  C   UNL A   1      41.183  31.163  33.528  1.00  0.00     0.074 A 
ATOM     61  C   UNL A   1      44.586  28.513  30.033  1.00  0.00     0.029 A 
ATOM     62  N   UNL A   1      43.343  27.305  31.428  1.00  0.00    -0.354 N 
ATOM     63  N   UNL A   1      41.906  30.241  32.952  1.00  0.00    -0.248 NA
ATOM     64  C   UNL A   1      41.323  31.147  34.982  1.00  0.00     0.031 C 
ATOM     65  C   UNL A   1      44.587  29.137  31.311  1.00  0.00     0.029 A 
ATOM     66  C   UNL A   1      43.787  28.389  32.160  1.00  0.00     0.049 A 
ATOM     67  H   UNL A   1      42.816  26.560  31.794  1.00  0.00     0.167 HD
ATOM     68  C   UNL A   1      42.600  29.536  33.899  1.00  0.00     0.074 A 
ATOM     69  C   UNL A   1      42.204  30.144  35.157  1.00  0.00     0.031 C 
ATOM     70  C   UNL A   1      43.442  28.511  33.571  1.00  0.00     0.031 A 
BRANCH  57  71
ATOM     71  C   UNL A   1      43.814  25.756  28.062  1.00  0.00    -0.014 A 
ATOM     72  C   UNL A   1      43.864  26.179  26.716  1.00  0.00     0.010 A 
ATOM     73  C   UNL A   1      44.388  24.497  28.322  1.00  0.00     0.010 A 
ATOM     74  C   UNL A   1      44.385  25.367  25.691  1.00  0.00     0.020 A 
ATOM     75  C   UNL A   1      44.908  23.672  27.313  1.00  0.00     0.020 A 
ATOM     76  C   UNL A   1      44.888  24.105  25.996  1.00  0.00     0.054 A 
BRANCH  76  77
ATOM     77  S   UNL A   1      45.496  23.031  24.670  1.00  0.00     0.124 S 
ATOM     78  O   UNL A   1      46.239  22.013  25.408  1.00  0.00    -0.237 OA
ATOM     79  O   UNL A   1      44.260  22.580  24.037  1.00  0.00    -0.237 OA
ATOM     80  O   UNL A   1      46.319  23.921  23.852  1.00  0.00    -0.744 OA
ENDBRANCH  76  77
ENDBRANCH  57  71
BRANCH  58  81
ATOM     81  C   UNL A   1      38.858  32.411  33.116  1.00  0.00    -0.014 A 
ATOM     82  C   UNL A   1      38.451  33.762  33.072  1.00  0.00     0.010 A 
ATOM     83  C   UNL A   1      37.880  31.405  33.016  1.00  0.00     0.010 A 
ATOM     84  C   UNL A   1      37.138  34.099  32.739  1.00  0.00     0.020 A 
ATOM     85  C   UNL A   1      36.557  31.742  32.691  1.00  0.00     0.020 A 
ATOM     86  C   UNL A   1      36.219  33.083  32.480  1.00  0.00     0.054 A 
BRANCH  86  87
ATOM     87  S   UNL A   1      34.657  33.540  31.664  1.00  0.00     0.124 S 
ATOM     88  O   UNL A   1      34.510  32.493  30.659  1.00  0.00    -0.237 OA
ATOM     89  O   UNL A   1      33.707  33.480  32.775  1.00  0.00    -0.237 OA
ATOM     90  O   UNL A   1      34.930  34.878  31.148  1.00  0.00    -0.744 OA
ENDBRANCH  86  87
ENDBRANCH  58  81
BRANCH  70  91
ATOM     91  C   UNL A   1      44.091  27.555  34.545  1.00  0.00    -0.014 A 
ATOM     92  C   UNL A   1      43.443  27.010  35.663  1.00  0.00     0.010 A 
ATOM     93  C   UNL A   1      45.387  27.064  34.253  1.00  0.00     0.010 A 
ATOM     94  C   UNL A   1      44.079  26.069  36.487  1.00  0.00     0.020 A 
ATOM     95  C   UNL A   1      46.013  26.092  35.040  1.00  0.00     0.020 A 
ATOM     96  C   UNL A   1      45.362  25.619  36.172  1.00  0.00     0.054 A 
BRANCH  96  97
ATOM     97  S   UNL A   1      46.150  24.356  37.203  1.00  0.00     0.124 S 
ATOM     98  O   UNL A   1      45.051  23.420  37.423  1.00  0.00    -0.237 OA
ATOM     99  O   UNL A   1      47.230  23.863  36.350  1.00  0.00    -0.237 OA
ATOM    100  O   UNL A   1      46.589  25.101  38.381  1.00  0.00    -0.744 OA
ENDBRANCH  96  97
ENDBRANCH  70  91
ENDBRANCH  44  45
ENDBRANCH  36  39
ENDBRANCH  34  35
ENDBRANCH   1  34
TORSDOF 16
ENDMDL
