MODEL 1
REMARK VINA RESULT:     -14.2      0.000      0.000
REMARK SMILES Cc1cc(C(=O)NCCCCNC(=O)c2ccc(-c3c4nc(c(-c5ccc(S(=O)(=O)[O-])cc5)c5ccc([nH]5)c(-c5ccc(S(=O)(=O)[O-])cc5)c5nc(c(-c6ccc(S(=O)(=O)[O-])cc6)c6ccc3[nH]6)C=C5)C=C4)cc2)ccc1NC(=O)N1C[C@@H](C)[C@H](C)C1
REMARK SMILES IDX 10 1 9 2 8 3 7 4 5 5 6 6 4 8 1 9 2 10 3 11 77 12 76 13 75 14
REMARK SMILES IDX 78 15 79 16 80 18 81 19 82 20 87 21 83 22 85 23 84 24 86 25
REMARK SMILES IDX 11 26 12 27 13 28 14 30 15 31 16 32 74 33 17 34 73 35 18 36
REMARK SMILES IDX 19 37 20 38 67 39 21 40 72 41 66 42 68 43 22 44 71 45 65 46
REMARK SMILES IDX 64 47 23 49 53 50 34 51 52 52 35 53 38 54 51 55 69 56 36 57
REMARK SMILES IDX 37 58 50 60 70 61 39 62 24 63 25 64 33 65 26 66 32 67 27 68
REMARK SMILES IDX 28 69 29 70 30 71 31 72 54 73 55 74 63 75 56 76 62 77 57 78
REMARK SMILES IDX 58 79 59 80 60 81 61 82 40 83 41 84 49 85 42 86 48 87 43 88
REMARK SMILES IDX 44 89 45 90 46 91 47 92
REMARK H PARENT 7 7 78 17 12 29 68 48 38 59
REMARK Flexibility Score: inf
ROOT
ATOM      1  C   UNL A   1      37.718  22.220  25.248  1.00  0.00     0.023 C 
ENDROOT
BRANCH   1   2
ATOM      2  C   UNL A   1      36.212  22.229  24.997  1.00  0.00     0.023 C 
BRANCH   2   3
ATOM      3  C   UNL A   1      35.370  21.450  26.023  1.00  0.00     0.116 C 
BRANCH   3   4
ATOM      4  N   UNL A   1      34.630  20.324  25.450  1.00  0.00    -0.352 N 
ATOM      5  C   UNL A   1      33.510  20.277  24.650  1.00  0.00     0.251 C 
ATOM      6  O   UNL A   1      33.193  19.216  24.114  1.00  0.00    -0.269 OA
ATOM      7  H   UNL A   1      35.001  19.440  25.676  1.00  0.00     0.163 HD
BRANCH   5   8
ATOM      8  C   UNL A   1      32.683  21.484  24.395  1.00  0.00     0.040 A 
ATOM      9  C   UNL A   1      30.462  23.829  26.393  1.00  0.00     0.046 C 
ATOM     10  C   UNL A   1      31.092  23.171  25.197  1.00  0.00    -0.027 A 
ATOM     11  C   UNL A   1      31.951  22.072  25.435  1.00  0.00     0.019 A 
ATOM     12  C   UNL A   1      30.927  23.621  23.875  1.00  0.00     0.045 A 
ATOM     13  C   UNL A   1      31.796  23.140  22.892  1.00  0.00     0.027 A 
ATOM     14  C   UNL A   1      32.680  22.105  23.159  1.00  0.00     0.016 A 
BRANCH  12  15
ATOM     15  N   UNL A   1      29.946  24.572  23.528  1.00  0.00    -0.308 N 
ATOM     16  C   UNL A   1      29.882  25.890  23.899  1.00  0.00     0.321 C 
ATOM     17  H   UNL A   1      29.217  24.251  22.949  1.00  0.00     0.171 HD
ATOM     18  O   UNL A   1      28.781  26.404  24.097  1.00  0.00    -0.248 OA
ATOM     19  N   UNL A   1      31.054  26.597  24.015  1.00  0.00    -0.324 N 
ATOM     20  C   UNL A   1      31.172  27.740  24.902  1.00  0.00     0.125 C 
ATOM     21  C   UNL A   1      32.166  26.547  23.068  1.00  0.00     0.125 C 
ATOM     22  C   UNL A   1      32.327  28.571  24.345  1.00  0.00     0.010 C 
ATOM     23  C   UNL A   1      33.201  27.527  23.626  1.00  0.00     0.010 C 
ATOM     24  C   UNL A   1      33.076  29.340  25.422  1.00  0.00     0.010 C 
ATOM     25  C   UNL A   1      34.098  28.135  22.552  1.00  0.00     0.010 C 
ENDBRANCH  12  15
ENDBRANCH   5   8
ENDBRANCH   3   4
ENDBRANCH   2   3
ENDBRANCH   1   2
BRANCH   1  26
ATOM     26  C   UNL A   1      38.167  23.366  26.141  1.00  0.00     0.116 C 
BRANCH  26  27
ATOM     27  N   UNL A   1      39.328  23.048  26.960  1.00  0.00    -0.352 N 
ATOM     28  C   UNL A   1      40.164  23.929  27.641  1.00  0.00     0.251 C 
ATOM     29  H   UNL A   1      39.551  22.092  27.042  1.00  0.00     0.163 HD
ATOM     30  O   UNL A   1      41.216  23.590  28.114  1.00  0.00    -0.269 OA
BRANCH  28  31
ATOM     31  C   UNL A   1      39.632  25.298  27.856  1.00  0.00     0.039 A 
ATOM     32  C   UNL A   1      40.071  26.294  26.976  1.00  0.00     0.014 A 
ATOM     33  C   UNL A   1      39.001  25.618  29.052  1.00  0.00     0.014 A 
ATOM     34  C   UNL A   1      40.062  27.621  27.394  1.00  0.00     0.010 A 
ATOM     35  C   UNL A   1      39.100  26.915  29.510  1.00  0.00     0.010 A 
ATOM     36  C   UNL A   1      39.678  27.908  28.703  1.00  0.00    -0.014 A 
BRANCH  36  37
ATOM     37  C   UNL A   1      39.920  29.188  29.360  1.00  0.00     0.031 A 
ATOM     38  C   UNL A   1      38.922  30.277  29.243  1.00  0.00     0.074 A 
ATOM     39  C   UNL A   1      40.980  29.333  30.190  1.00  0.00     0.049 A 
ATOM     40  N   UNL A   1      39.152  31.521  29.505  1.00  0.00    -0.248 NA
ATOM     41  C   UNL A   1      37.571  30.042  28.741  1.00  0.00     0.031 C 
ATOM     42  C   UNL A   1      41.159  30.371  31.200  1.00  0.00     0.029 A 
ATOM     43  N   UNL A   1      42.221  28.692  30.145  1.00  0.00    -0.354 N 
ATOM     44  C   UNL A   1      37.934  32.164  29.541  1.00  0.00     0.074 A 
ATOM     45  C   UNL A   1      37.008  31.235  28.940  1.00  0.00     0.031 C 
ATOM     46  C   UNL A   1      42.471  30.505  31.450  1.00  0.00     0.029 A 
ATOM     47  C   UNL A   1      43.174  29.663  30.497  1.00  0.00     0.049 A 
ATOM     48  H   UNL A   1      42.393  27.751  29.915  1.00  0.00     0.167 HD
ATOM     49  C   UNL A   1      37.812  33.336  30.228  1.00  0.00     0.031 A 
ATOM     50  C   UNL A   1      44.185  30.081  29.679  1.00  0.00     0.031 A 
ATOM     51  C   UNL A   1      39.117  33.849  30.651  1.00  0.00     0.049 A 
ATOM     52  C   UNL A   1      44.155  31.570  29.411  1.00  0.00     0.074 A 
ATOM     53  C   UNL A   1      39.780  33.871  31.867  1.00  0.00     0.029 A 
ATOM     54  N   UNL A   1      40.056  34.194  29.685  1.00  0.00    -0.354 N 
ATOM     55  N   UNL A   1      43.133  32.333  29.679  1.00  0.00    -0.248 NA
ATOM     56  C   UNL A   1      45.244  32.312  28.777  1.00  0.00     0.031 C 
ATOM     57  C   UNL A   1      41.153  34.132  31.612  1.00  0.00     0.029 A 
ATOM     58  C   UNL A   1      41.313  34.305  30.248  1.00  0.00     0.049 A 
ATOM     59  H   UNL A   1      39.854  34.339  28.732  1.00  0.00     0.167 HD
ATOM     60  C   UNL A   1      43.387  33.614  29.272  1.00  0.00     0.074 A 
ATOM     61  C   UNL A   1      44.730  33.554  28.723  1.00  0.00     0.031 C 
ATOM     62  C   UNL A   1      42.467  34.612  29.413  1.00  0.00     0.031 A 
BRANCH  49  63
ATOM     63  C   UNL A   1      36.492  33.851  30.782  1.00  0.00    -0.014 A 
ATOM     64  C   UNL A   1      35.401  34.054  29.909  1.00  0.00     0.010 A 
ATOM     65  C   UNL A   1      36.282  34.247  32.116  1.00  0.00     0.010 A 
ATOM     66  C   UNL A   1      34.225  34.707  30.316  1.00  0.00     0.020 A 
ATOM     67  C   UNL A   1      35.125  34.920  32.535  1.00  0.00     0.020 A 
ATOM     68  C   UNL A   1      34.107  35.165  31.626  1.00  0.00     0.054 A 
BRANCH  68  69
ATOM     69  S   UNL A   1      32.631  36.088  32.123  1.00  0.00     0.124 S 
ATOM     70  O   UNL A   1      33.135  36.928  33.207  1.00  0.00    -0.237 OA
ATOM     71  O   UNL A   1      32.271  36.791  30.895  1.00  0.00    -0.237 OA
ATOM     72  O   UNL A   1      31.693  35.046  32.538  1.00  0.00    -0.744 OA
ENDBRANCH  68  69
ENDBRANCH  49  63
BRANCH  50  73
ATOM     73  C   UNL A   1      44.676  29.047  28.729  1.00  0.00    -0.014 A 
ATOM     74  C   UNL A   1      44.013  28.957  27.487  1.00  0.00     0.010 A 
ATOM     75  C   UNL A   1      45.980  28.536  28.847  1.00  0.00     0.010 A 
ATOM     76  C   UNL A   1      44.704  28.552  26.345  1.00  0.00     0.020 A 
ATOM     77  C   UNL A   1      46.673  28.122  27.700  1.00  0.00     0.020 A 
ATOM     78  C   UNL A   1      46.051  28.208  26.452  1.00  0.00     0.054 A 
BRANCH  78  79
ATOM     79  S   UNL A   1      47.020  28.098  24.917  1.00  0.00     0.124 S 
ATOM     80  O   UNL A   1      46.589  26.819  24.364  1.00  0.00    -0.237 OA
ATOM     81  O   UNL A   1      46.560  29.285  24.196  1.00  0.00    -0.237 OA
ATOM     82  O   UNL A   1      48.400  28.149  25.389  1.00  0.00    -0.744 OA
ENDBRANCH  78  79
ENDBRANCH  50  73
BRANCH  62  83
ATOM     83  C   UNL A   1      42.583  36.002  28.839  1.00  0.00    -0.014 A 
ATOM     84  C   UNL A   1      43.283  37.051  29.455  1.00  0.00     0.010 A 
ATOM     85  C   UNL A   1      42.073  36.243  27.540  1.00  0.00     0.010 A 
ATOM     86  C   UNL A   1      43.418  38.299  28.829  1.00  0.00     0.020 A 
ATOM     87  C   UNL A   1      42.239  37.468  26.891  1.00  0.00     0.020 A 
ATOM     88  C   UNL A   1      42.893  38.500  27.552  1.00  0.00     0.054 A 
BRANCH  88  89
ATOM     89  S   UNL A   1      43.130  40.092  26.719  1.00  0.00     0.124 S 
ATOM     90  O   UNL A   1      44.289  39.817  25.875  1.00  0.00    -0.237 OA
ATOM     91  O   UNL A   1      41.869  40.283  26.007  1.00  0.00    -0.237 OA
ATOM     92  O   UNL A   1      43.361  41.021  27.823  1.00  0.00    -0.744 OA
ENDBRANCH  88  89
ENDBRANCH  62  83
ENDBRANCH  36  37
ENDBRANCH  28  31
ENDBRANCH  26  27
ENDBRANCH   1  26
TORSDOF 15
ENDMDL
MODEL 2
REMARK VINA RESULT:     -14.1      4.676     11.307
REMARK SMILES Cc1cc(C(=O)NCCCCNC(=O)c2ccc(-c3c4nc(c(-c5ccc(S(=O)(=O)[O-])cc5)c5ccc([nH]5)c(-c5ccc(S(=O)(=O)[O-])cc5)c5nc(c(-c6ccc(S(=O)(=O)[O-])cc6)c6ccc3[nH]6)C=C5)C=C4)cc2)ccc1NC(=O)N1C[C@@H](C)[C@H](C)C1
REMARK SMILES IDX 10 1 9 2 8 3 7 4 5 5 6 6 4 8 1 9 2 10 3 11 77 12 76 13 75 14
REMARK SMILES IDX 78 15 79 16 80 18 81 19 82 20 87 21 83 22 85 23 84 24 86 25
REMARK SMILES IDX 11 26 12 27 13 28 14 30 15 31 16 32 74 33 17 34 73 35 18 36
REMARK SMILES IDX 19 37 20 38 67 39 21 40 72 41 66 42 68 43 22 44 71 45 65 46
REMARK SMILES IDX 64 47 23 49 53 50 34 51 52 52 35 53 38 54 51 55 69 56 36 57
REMARK SMILES IDX 37 58 50 60 70 61 39 62 24 63 25 64 33 65 26 66 32 67 27 68
REMARK SMILES IDX 28 69 29 70 30 71 31 72 54 73 55 74 63 75 56 76 62 77 57 78
REMARK SMILES IDX 58 79 59 80 60 81 61 82 40 83 41 84 49 85 42 86 48 87 43 88
REMARK SMILES IDX 44 89 45 90 46 91 47 92
REMARK H PARENT 7 7 78 17 12 29 68 48 38 59
REMARK Flexibility Score: inf
ROOT
ATOM      1  C   UNL A   1      33.056  29.893  27.431  1.00  0.00     0.023 C 
ENDROOT
BRANCH   1   2
ATOM      2  C   UNL A   1      32.244  29.140  26.382  1.00  0.00     0.023 C 
BRANCH   2   3
ATOM      3  C   UNL A   1      32.414  29.640  24.936  1.00  0.00     0.116 C 
BRANCH   3   4
ATOM      4  N   UNL A   1      31.149  29.842  24.226  1.00  0.00    -0.352 N 
ATOM      5  C   UNL A   1      30.248  28.949  23.689  1.00  0.00     0.251 C 
ATOM      6  O   UNL A   1      29.143  29.349  23.325  1.00  0.00    -0.269 OA
ATOM      7  H   UNL A   1      30.896  30.787  24.112  1.00  0.00     0.163 HD
BRANCH   5   8
ATOM      8  C   UNL A   1      30.566  27.505  23.560  1.00  0.00     0.040 A 
ATOM      9  C   UNL A   1      32.712  25.298  21.333  1.00  0.00     0.046 C 
ATOM     10  C   UNL A   1      31.670  25.678  22.350  1.00  0.00    -0.027 A 
ATOM     11  C   UNL A   1      31.420  27.057  22.543  1.00  0.00     0.019 A 
ATOM     12  C   UNL A   1      30.984  24.751  23.153  1.00  0.00     0.045 A 
ATOM     13  C   UNL A   1      30.282  25.222  24.266  1.00  0.00     0.027 A 
ATOM     14  C   UNL A   1      30.102  26.581  24.479  1.00  0.00     0.016 A 
BRANCH  12  15
ATOM     15  N   UNL A   1      31.023  23.365  22.894  1.00  0.00    -0.308 N 
ATOM     16  C   UNL A   1      32.099  22.521  22.988  1.00  0.00     0.321 C 
ATOM     17  H   UNL A   1      30.175  22.954  22.611  1.00  0.00     0.171 HD
ATOM     18  O   UNL A   1      32.200  21.591  22.188  1.00  0.00    -0.248 OA
ATOM     19  N   UNL A   1      33.015  22.734  23.988  1.00  0.00    -0.324 N 
ATOM     20  C   UNL A   1      34.399  22.318  23.857  1.00  0.00     0.125 C 
ATOM     21  C   UNL A   1      32.689  23.050  25.377  1.00  0.00     0.125 C 
ATOM     22  C   UNL A   1      34.920  22.174  25.286  1.00  0.00     0.010 C 
ATOM     23  C   UNL A   1      34.041  23.155  26.084  1.00  0.00     0.010 C 
ATOM     24  C   UNL A   1      36.407  22.465  25.408  1.00  0.00     0.010 C 
ATOM     25  C   UNL A   1      33.974  22.824  27.572  1.00  0.00     0.010 C 
ENDBRANCH  12  15
ENDBRANCH   5   8
ENDBRANCH   3   4
ENDBRANCH   2   3
ENDBRANCH   1   2
BRANCH   1  26
ATOM     26  C   UNL A   1      34.555  29.729  27.239  1.00  0.00     0.116 C 
BRANCH  26  27
ATOM     27  N   UNL A   1      35.322  30.922  27.568  1.00  0.00    -0.352 N 
ATOM     28  C   UNL A   1      36.557  30.997  28.206  1.00  0.00     0.251 C 
ATOM     29  H   UNL A   1      34.917  31.781  27.309  1.00  0.00     0.163 HD
ATOM     30  O   UNL A   1      37.010  32.031  28.623  1.00  0.00    -0.269 OA
BRANCH  28  31
ATOM     31  C   UNL A   1      37.349  29.743  28.245  1.00  0.00     0.039 A 
ATOM     32  C   UNL A   1      37.444  29.091  29.480  1.00  0.00     0.014 A 
ATOM     33  C   UNL A   1      38.203  29.428  27.195  1.00  0.00     0.014 A 
ATOM     34  C   UNL A   1      38.536  28.264  29.729  1.00  0.00     0.010 A 
ATOM     35  C   UNL A   1      39.342  28.704  27.481  1.00  0.00     0.010 A 
ATOM     36  C   UNL A   1      39.535  28.165  28.762  1.00  0.00    -0.014 A 
BRANCH  36  37
ATOM     37  C   UNL A   1      40.857  27.602  29.013  1.00  0.00     0.031 A 
ATOM     38  C   UNL A   1      41.138  26.192  28.650  1.00  0.00     0.074 A 
ATOM     39  C   UNL A   1      41.862  28.399  29.441  1.00  0.00     0.049 A 
ATOM     40  N   UNL A   1      42.136  25.501  29.093  1.00  0.00    -0.248 NA
ATOM     41  C   UNL A   1      40.246  25.419  27.791  1.00  0.00     0.031 C 
ATOM     42  C   UNL A   1      43.292  28.110  29.376  1.00  0.00     0.029 A 
ATOM     43  N   UNL A   1      41.792  29.554  30.225  1.00  0.00    -0.354 N 
ATOM     44  C   UNL A   1      42.208  24.354  28.332  1.00  0.00     0.074 A 
ATOM     45  C   UNL A   1      40.948  24.295  27.632  1.00  0.00     0.031 C 
ATOM     46  C   UNL A   1      43.922  28.843  30.307  1.00  0.00     0.029 A 
ATOM     47  C   UNL A   1      42.895  29.505  31.094  1.00  0.00     0.049 A 
ATOM     48  H   UNL A   1      41.107  30.261  30.177  1.00  0.00     0.167 HD
ATOM     49  C   UNL A   1      43.389  23.676  28.248  1.00  0.00     0.031 A 
ATOM     50  C   UNL A   1      42.801  29.462  32.456  1.00  0.00     0.031 A 
ATOM     51  C   UNL A   1      44.372  24.190  29.205  1.00  0.00     0.049 A 
ATOM     52  C   UNL A   1      43.471  28.245  33.058  1.00  0.00     0.074 A 
ATOM     53  C   UNL A   1      45.489  24.999  29.076  1.00  0.00     0.029 A 
ATOM     54  N   UNL A   1      44.103  24.104  30.567  1.00  0.00    -0.354 N 
ATOM     55  N   UNL A   1      43.844  27.207  32.364  1.00  0.00    -0.248 NA
ATOM     56  C   UNL A   1      43.730  28.075  34.487  1.00  0.00     0.031 C 
ATOM     57  C   UNL A   1      45.828  25.484  30.367  1.00  0.00     0.029 A 
ATOM     58  C   UNL A   1      44.942  24.940  31.280  1.00  0.00     0.049 A 
ATOM     59  H   UNL A   1      43.412  23.529  30.967  1.00  0.00     0.167 HD
ATOM     60  C   UNL A   1      44.364  26.253  33.196  1.00  0.00     0.074 A 
ATOM     61  C   UNL A   1      44.282  26.849  34.518  1.00  0.00     0.031 C 
ATOM     62  C   UNL A   1      44.808  25.051  32.727  1.00  0.00     0.031 A 
BRANCH  49  63
ATOM     63  C   UNL A   1      43.750  22.760  27.090  1.00  0.00    -0.014 A 
ATOM     64  C   UNL A   1      42.909  21.670  26.774  1.00  0.00     0.010 A 
ATOM     65  C   UNL A   1      44.936  22.846  26.338  1.00  0.00     0.010 A 
ATOM     66  C   UNL A   1      43.280  20.678  25.850  1.00  0.00     0.020 A 
ATOM     67  C   UNL A   1      45.334  21.853  25.429  1.00  0.00     0.020 A 
ATOM     68  C   UNL A   1      44.510  20.762  25.204  1.00  0.00     0.054 A 
BRANCH  68  69
ATOM     69  S   UNL A   1      45.027  19.434  24.085  1.00  0.00     0.124 S 
ATOM     70  O   UNL A   1      44.388  18.260  24.673  1.00  0.00    -0.237 OA
ATOM     71  O   UNL A   1      44.483  19.873  22.803  1.00  0.00    -0.237 OA
ATOM     72  O   UNL A   1      46.486  19.451  24.178  1.00  0.00    -0.744 OA
ENDBRANCH  68  69
ENDBRANCH  49  63
BRANCH  50  73
ATOM     73  C   UNL A   1      41.604  30.147  33.013  1.00  0.00    -0.014 A 
ATOM     74  C   UNL A   1      41.673  31.550  33.135  1.00  0.00     0.010 A 
ATOM     75  C   UNL A   1      40.345  29.524  32.970  1.00  0.00     0.010 A 
ATOM     76  C   UNL A   1      40.521  32.327  33.013  1.00  0.00     0.020 A 
ATOM     77  C   UNL A   1      39.185  30.304  32.855  1.00  0.00     0.020 A 
ATOM     78  C   UNL A   1      39.295  31.697  32.800  1.00  0.00     0.054 A 
BRANCH  78  79
ATOM     79  S   UNL A   1      37.905  32.720  32.230  1.00  0.00     0.124 S 
ATOM     80  O   UNL A   1      36.910  31.720  31.858  1.00  0.00    -0.237 OA
ATOM     81  O   UNL A   1      37.601  33.496  33.433  1.00  0.00    -0.237 OA
ATOM     82  O   UNL A   1      38.480  33.480  31.125  1.00  0.00    -0.744 OA
ENDBRANCH  78  79
ENDBRANCH  50  73
BRANCH  62  83
ATOM     83  C   UNL A   1      45.228  23.876  33.575  1.00  0.00    -0.014 A 
ATOM     84  C   UNL A   1      46.513  23.717  34.116  1.00  0.00     0.010 A 
ATOM     85  C   UNL A   1      44.243  22.939  33.968  1.00  0.00     0.010 A 
ATOM     86  C   UNL A   1      46.816  22.640  34.962  1.00  0.00     0.020 A 
ATOM     87  C   UNL A   1      44.523  21.888  34.844  1.00  0.00     0.020 A 
ATOM     88  C   UNL A   1      45.819  21.731  35.318  1.00  0.00     0.054 A 
BRANCH  88  89
ATOM     89  S   UNL A   1      46.198  20.382  36.467  1.00  0.00     0.124 S 
ATOM     90  O   UNL A   1      47.652  20.301  36.366  1.00  0.00    -0.237 OA
ATOM     91  O   UNL A   1      45.686  20.881  37.741  1.00  0.00    -0.237 OA
ATOM     92  O   UNL A   1      45.464  19.247  35.911  1.00  0.00    -0.744 OA
ENDBRANCH  88  89
ENDBRANCH  62  83
ENDBRANCH  36  37
ENDBRANCH  28  31
ENDBRANCH  26  27
ENDBRANCH   1  26
TORSDOF 15
ENDMDL
MODEL 3
REMARK VINA RESULT:     -14.1      4.822     11.342
REMARK SMILES Cc1cc(C(=O)NCCCCNC(=O)c2ccc(-c3c4nc(c(-c5ccc(S(=O)(=O)[O-])cc5)c5ccc([nH]5)c(-c5ccc(S(=O)(=O)[O-])cc5)c5nc(c(-c6ccc(S(=O)(=O)[O-])cc6)c6ccc3[nH]6)C=C5)C=C4)cc2)ccc1NC(=O)N1C[C@@H](C)[C@H](C)C1
REMARK SMILES IDX 10 1 9 2 8 3 7 4 5 5 6 6 4 8 1 9 2 10 3 11 77 12 76 13 75 14
REMARK SMILES IDX 78 15 79 16 80 18 81 19 82 20 87 21 83 22 85 23 84 24 86 25
REMARK SMILES IDX 11 26 12 27 13 28 14 30 15 31 16 32 74 33 17 34 73 35 18 36
REMARK SMILES IDX 19 37 20 38 67 39 21 40 72 41 66 42 68 43 22 44 71 45 65 46
REMARK SMILES IDX 64 47 23 49 53 50 34 51 52 52 35 53 38 54 51 55 69 56 36 57
REMARK SMILES IDX 37 58 50 60 70 61 39 62 24 63 25 64 33 65 26 66 32 67 27 68
REMARK SMILES IDX 28 69 29 70 30 71 31 72 54 73 55 74 63 75 56 76 62 77 57 78
REMARK SMILES IDX 58 79 59 80 60 81 61 82 40 83 41 84 49 85 42 86 48 87 43 88
REMARK SMILES IDX 44 89 45 90 46 91 47 92
REMARK H PARENT 7 7 78 17 12 29 68 48 38 59
REMARK Flexibility Score: inf
ROOT
ATOM      1  C   UNL A   1      34.427  28.963  26.145  1.00  0.00     0.023 C 
ENDROOT
BRANCH   1   2
ATOM      2  C   UNL A   1      33.403  29.355  25.083  1.00  0.00     0.023 C 
BRANCH   2   3
ATOM      3  C   UNL A   1      31.963  29.541  25.596  1.00  0.00     0.116 C 
BRANCH   3   4
ATOM      4  N   UNL A   1      30.994  29.847  24.542  1.00  0.00    -0.352 N 
ATOM      5  C   UNL A   1      30.271  29.032  23.699  1.00  0.00     0.251 C 
ATOM      6  O   UNL A   1      29.353  29.511  23.035  1.00  0.00    -0.269 OA
ATOM      7  H   UNL A   1      30.828  30.809  24.413  1.00  0.00     0.163 HD
BRANCH   5   8
ATOM      8  C   UNL A   1      30.554  27.579  23.588  1.00  0.00     0.040 A 
ATOM      9  C   UNL A   1      32.674  25.298  21.411  1.00  0.00     0.046 C 
ATOM     10  C   UNL A   1      31.628  25.714  22.410  1.00  0.00    -0.027 A 
ATOM     11  C   UNL A   1      31.410  27.100  22.587  1.00  0.00     0.019 A 
ATOM     12  C   UNL A   1      30.908  24.812  23.213  1.00  0.00     0.045 A 
ATOM     13  C   UNL A   1      30.204  25.311  24.312  1.00  0.00     0.027 A 
ATOM     14  C   UNL A   1      30.055  26.676  24.510  1.00  0.00     0.016 A 
BRANCH  12  15
ATOM     15  N   UNL A   1      30.917  23.423  22.967  1.00  0.00    -0.308 N 
ATOM     16  C   UNL A   1      31.975  22.557  23.064  1.00  0.00     0.321 C 
ATOM     17  H   UNL A   1      30.058  23.028  22.693  1.00  0.00     0.171 HD
ATOM     18  O   UNL A   1      32.051  21.617  22.272  1.00  0.00    -0.248 OA
ATOM     19  N   UNL A   1      32.901  22.760  24.056  1.00  0.00    -0.324 N 
ATOM     20  C   UNL A   1      34.276  22.314  23.921  1.00  0.00     0.125 C 
ATOM     21  C   UNL A   1      32.590  23.097  25.444  1.00  0.00     0.125 C 
ATOM     22  C   UNL A   1      34.801  22.172  25.349  1.00  0.00     0.010 C 
ATOM     23  C   UNL A   1      33.949  23.180  26.142  1.00  0.00     0.010 C 
ATOM     24  C   UNL A   1      36.296  22.433  25.459  1.00  0.00     0.010 C 
ATOM     25  C   UNL A   1      33.884  22.865  27.634  1.00  0.00     0.010 C 
ENDBRANCH  12  15
ENDBRANCH   5   8
ENDBRANCH   3   4
ENDBRANCH   2   3
ENDBRANCH   1   2
BRANCH   1  26
ATOM     26  C   UNL A   1      34.213  29.694  27.461  1.00  0.00     0.116 C 
BRANCH  26  27
ATOM     27  N   UNL A   1      34.981  30.926  27.578  1.00  0.00    -0.352 N 
ATOM     28  C   UNL A   1      36.307  31.074  27.974  1.00  0.00     0.251 C 
ATOM     29  H   UNL A   1      34.503  31.756  27.350  1.00  0.00     0.163 HD
ATOM     30  O   UNL A   1      36.787  32.144  28.243  1.00  0.00    -0.269 OA
BRANCH  28  31
ATOM     31  C   UNL A   1      37.140  29.847  27.937  1.00  0.00     0.039 A 
ATOM     32  C   UNL A   1      37.144  29.049  29.086  1.00  0.00     0.014 A 
ATOM     33  C   UNL A   1      38.101  29.690  26.946  1.00  0.00     0.014 A 
ATOM     34  C   UNL A   1      38.239  28.227  29.338  1.00  0.00     0.010 A 
ATOM     35  C   UNL A   1      39.236  28.968  27.251  1.00  0.00     0.010 A 
ATOM     36  C   UNL A   1      39.328  28.278  28.470  1.00  0.00    -0.014 A 
BRANCH  36  37
ATOM     37  C   UNL A   1      40.642  27.724  28.779  1.00  0.00     0.031 A 
ATOM     38  C   UNL A   1      40.932  26.302  28.475  1.00  0.00     0.074 A 
ATOM     39  C   UNL A   1      41.635  28.536  29.208  1.00  0.00     0.049 A 
ATOM     40  N   UNL A   1      41.916  25.628  28.970  1.00  0.00    -0.248 NA
ATOM     41  C   UNL A   1      40.065  25.499  27.617  1.00  0.00     0.031 C 
ATOM     42  C   UNL A   1      43.066  28.244  29.194  1.00  0.00     0.029 A 
ATOM     43  N   UNL A   1      41.543  29.718  29.948  1.00  0.00    -0.354 N 
ATOM     44  C   UNL A   1      42.009  24.454  28.253  1.00  0.00     0.074 A 
ATOM     45  C   UNL A   1      40.770  24.370  27.519  1.00  0.00     0.031 C 
ATOM     46  C   UNL A   1      43.669  29.010  30.117  1.00  0.00     0.029 A 
ATOM     47  C   UNL A   1      42.620  29.700  30.850  1.00  0.00     0.049 A 
ATOM     48  H   UNL A   1      40.861  30.422  29.855  1.00  0.00     0.167 HD
ATOM     49  C   UNL A   1      43.191  23.773  28.227  1.00  0.00     0.031 A 
ATOM     50  C   UNL A   1      42.487  29.704  32.209  1.00  0.00     0.031 A 
ATOM     51  C   UNL A   1      44.146  24.321  29.193  1.00  0.00     0.049 A 
ATOM     52  C   UNL A   1      43.138  28.510  32.874  1.00  0.00     0.074 A 
ATOM     53  C   UNL A   1      45.267  25.125  29.069  1.00  0.00     0.029 A 
ATOM     54  N   UNL A   1      43.838  24.283  30.549  1.00  0.00    -0.354 N 
ATOM     55  N   UNL A   1      43.530  27.448  32.228  1.00  0.00    -0.248 NA
ATOM     56  C   UNL A   1      43.354  28.390  34.314  1.00  0.00     0.031 C 
ATOM     57  C   UNL A   1      45.570  25.655  30.352  1.00  0.00     0.029 A 
ATOM     58  C   UNL A   1      44.656  25.143  31.257  1.00  0.00     0.049 A 
ATOM     59  H   UNL A   1      43.135  23.722  30.950  1.00  0.00     0.167 HD
ATOM     60  C   UNL A   1      44.025  26.524  33.108  1.00  0.00     0.074 A 
ATOM     61  C   UNL A   1      43.904  27.166  34.405  1.00  0.00     0.031 C 
ATOM     62  C   UNL A   1      44.480  25.306  32.694  1.00  0.00     0.031 A 
BRANCH  49  63
ATOM     63  C   UNL A   1      43.585  22.817  27.113  1.00  0.00    -0.014 A 
ATOM     64  C   UNL A   1      42.752  21.717  26.811  1.00  0.00     0.010 A 
ATOM     65  C   UNL A   1      44.793  22.876  26.394  1.00  0.00     0.010 A 
ATOM     66  C   UNL A   1      43.149  20.693  25.934  1.00  0.00     0.020 A 
ATOM     67  C   UNL A   1      45.216  21.852  25.533  1.00  0.00     0.020 A 
ATOM     68  C   UNL A   1      44.398  20.753  25.322  1.00  0.00     0.054 A 
BRANCH  68  69
ATOM     69  S   UNL A   1      44.946  19.387  24.266  1.00  0.00     0.124 S 
ATOM     70  O   UNL A   1      44.518  19.824  22.939  1.00  0.00    -0.237 OA
ATOM     71  O   UNL A   1      46.388  19.375  24.492  1.00  0.00    -0.237 OA
ATOM     72  O   UNL A   1      44.226  18.230  24.794  1.00  0.00    -0.744 OA
ENDBRANCH  68  69
ENDBRANCH  49  63
BRANCH  50  73
ATOM     73  C   UNL A   1      41.275  30.409  32.707  1.00  0.00    -0.014 A 
ATOM     74  C   UNL A   1      40.149  29.611  32.999  1.00  0.00     0.010 A 
ATOM     75  C   UNL A   1      41.385  31.680  33.296  1.00  0.00     0.010 A 
ATOM     76  C   UNL A   1      39.259  29.986  34.006  1.00  0.00     0.020 A 
ATOM     77  C   UNL A   1      40.487  32.061  34.304  1.00  0.00     0.020 A 
ATOM     78  C   UNL A   1      39.480  31.175  34.700  1.00  0.00     0.054 A 
BRANCH  78  79
ATOM     79  S   UNL A   1      38.577  31.426  36.258  1.00  0.00     0.124 S 
ATOM     80  O   UNL A   1      38.218  30.064  36.636  1.00  0.00    -0.237 OA
ATOM     81  O   UNL A   1      39.599  32.064  37.089  1.00  0.00    -0.237 OA
ATOM     82  O   UNL A   1      37.465  32.286  35.865  1.00  0.00    -0.744 OA
ENDBRANCH  78  79
ENDBRANCH  50  73
BRANCH  62  83
ATOM     83  C   UNL A   1      44.875  24.162  33.595  1.00  0.00    -0.014 A 
ATOM     84  C   UNL A   1      44.007  23.129  33.980  1.00  0.00     0.010 A 
ATOM     85  C   UNL A   1      46.233  24.038  33.974  1.00  0.00     0.010 A 
ATOM     86  C   UNL A   1      44.460  22.052  34.756  1.00  0.00     0.020 A 
ATOM     87  C   UNL A   1      46.704  22.948  34.710  1.00  0.00     0.020 A 
ATOM     88  C   UNL A   1      45.806  21.970  35.119  1.00  0.00     0.054 A 
BRANCH  88  89
ATOM     89  S   UNL A   1      46.401  20.542  36.062  1.00  0.00     0.124 S 
ATOM     90  O   UNL A   1      45.964  19.428  35.226  1.00  0.00    -0.237 OA
ATOM     91  O   UNL A   1      47.845  20.759  36.113  1.00  0.00    -0.237 OA
ATOM     92  O   UNL A   1      45.714  20.673  37.345  1.00  0.00    -0.744 OA
ENDBRANCH  88  89
ENDBRANCH  62  83
ENDBRANCH  36  37
ENDBRANCH  28  31
ENDBRANCH  26  27
ENDBRANCH   1  26
TORSDOF 15
ENDMDL
