MODEL 1
REMARK VINA RESULT:     -11.6      0.000      0.000
REMARK SMILES CS(=O)(=O)c1ccc(/C=C(/C(=O)NCCCCNC(=O)c2ccc(-c3c4nc(c(-c5ccc(S(=O)(=O)[O-])cc5)c5ccc([nH]5)c(-c5ccc(S(=O)(=O)[O-])cc5)c5nc(c(-c6ccc(S(=O)(=O)[O-])cc6)c6ccc3[nH]6)C=C5)C=C4)cc2)c2ccc(O)cc2)cc1
REMARK SMILES IDX 16 1 15 2 14 3 13 4 11 5 12 6 10 8 9 9 8 10 5 11 6 12 89 13
REMARK SMILES IDX 7 14 88 15 2 16 1 17 3 18 4 19 81 20 82 21 87 22 83 23 86 24
REMARK SMILES IDX 84 25 85 26 17 28 18 29 19 30 20 32 21 33 22 34 80 35 23 36
REMARK SMILES IDX 79 37 24 38 25 39 26 40 73 41 27 42 78 43 72 44 74 45 28 46
REMARK SMILES IDX 77 47 71 48 70 49 29 51 59 52 40 53 58 54 41 55 44 56 57 57
REMARK SMILES IDX 75 58 42 59 43 60 56 62 76 63 45 64 30 65 31 66 39 67 32 68
REMARK SMILES IDX 38 69 33 70 34 71 35 72 36 73 37 74 60 75 61 76 69 77 62 78
REMARK SMILES IDX 68 79 63 80 64 81 65 82 66 83 67 84 46 85 47 86 55 87 48 88
REMARK SMILES IDX 54 89 49 90 50 91 51 92 52 93 53 94
REMARK H PARENT 13 7 85 27 18 31 74 50 44 61
REMARK Flexibility Score: inf
ROOT
ATOM      1  C   UNL A   1      32.698  27.578  25.908  1.00  0.00     0.023 C 
ENDROOT
BRANCH   1   2
ATOM      2  C   UNL A   1      32.119  26.305  26.540  1.00  0.00     0.023 C 
BRANCH   2   3
ATOM      3  C   UNL A   1      31.208  25.491  25.615  1.00  0.00     0.116 C 
BRANCH   3   4
ATOM      4  N   UNL A   1      31.572  25.704  24.228  1.00  0.00    -0.352 N 
ATOM      5  C   UNL A   1      32.301  24.995  23.326  1.00  0.00     0.251 C 
ATOM      6  O   UNL A   1      32.430  25.509  22.211  1.00  0.00    -0.269 OA
ATOM      7  H   UNL A   1      31.213  26.543  23.860  1.00  0.00     0.163 HD
BRANCH   5   8
ATOM      8  C   UNL A   1      32.875  23.619  23.595  1.00  0.00     0.047 C 
ATOM      9  C   UNL A   1      32.102  22.513  23.680  1.00  0.00     0.022 C 
BRANCH   9  10
ATOM     10  C   UNL A   1      32.488  21.096  23.853  1.00  0.00    -0.025 A 
ATOM     11  C   UNL A   1      33.192  18.384  24.013  1.00  0.00     0.067 A 
ATOM     12  C   UNL A   1      33.493  19.243  25.070  1.00  0.00     0.021 A 
ATOM     13  C   UNL A   1      32.509  18.855  22.892  1.00  0.00     0.021 A 
ATOM     14  C   UNL A   1      33.127  20.591  24.993  1.00  0.00     0.009 A 
ATOM     15  C   UNL A   1      32.158  20.206  22.818  1.00  0.00     0.009 A 
BRANCH  11  16
ATOM     16  S   UNL A   1      33.676  16.676  24.082  1.00  0.00     0.175 S 
ATOM     17  C   UNL A   1      35.141  16.646  25.081  1.00  0.00     0.163 C 
ATOM     18  O   UNL A   1      34.070  16.277  22.746  1.00  0.00    -0.224 OA
ATOM     19  O   UNL A   1      32.627  15.970  24.796  1.00  0.00    -0.224 OA
ENDBRANCH  11  16
ENDBRANCH   9  10
BRANCH   8  20
ATOM     20  C   UNL A   1      34.316  23.547  23.946  1.00  0.00    -0.013 A 
ATOM     21  C   UNL A   1      34.715  23.935  25.238  1.00  0.00     0.013 A 
ATOM     22  C   UNL A   1      35.275  23.022  23.068  1.00  0.00     0.013 A 
ATOM     23  C   UNL A   1      36.031  23.760  25.660  1.00  0.00     0.047 A 
ATOM     24  C   UNL A   1      36.594  22.839  23.495  1.00  0.00     0.047 A 
ATOM     25  C   UNL A   1      36.956  23.196  24.793  1.00  0.00     0.115 A 
BRANCH  25  26
ATOM     26  O   UNL A   1      38.219  22.994  25.263  1.00  0.00    -0.508 OA
ATOM     27  H   UNL A   1      38.658  23.673  25.736  1.00  0.00     0.293 HD
ENDBRANCH  25  26
ENDBRANCH   8  20
ENDBRANCH   5   8
ENDBRANCH   3   4
ENDBRANCH   2   3
ENDBRANCH   1   2
BRANCH   1  28
ATOM     28  C   UNL A   1      33.896  28.181  26.636  1.00  0.00     0.116 C 
BRANCH  28  29
ATOM     29  N   UNL A   1      33.643  29.527  27.121  1.00  0.00    -0.352 N 
ATOM     30  C   UNL A   1      34.467  30.366  27.826  1.00  0.00     0.251 C 
ATOM     31  H   UNL A   1      32.751  29.888  26.914  1.00  0.00     0.163 HD
ATOM     32  O   UNL A   1      34.020  31.429  28.248  1.00  0.00    -0.269 OA
BRANCH  30  33
ATOM     33  C   UNL A   1      35.870  29.987  28.107  1.00  0.00     0.039 A 
ATOM     34  C   UNL A   1      36.182  29.502  29.381  1.00  0.00     0.014 A 
ATOM     35  C   UNL A   1      36.879  30.141  27.152  1.00  0.00     0.014 A 
ATOM     36  C   UNL A   1      37.497  29.142  29.686  1.00  0.00     0.010 A 
ATOM     37  C   UNL A   1      38.178  29.725  27.437  1.00  0.00     0.010 A 
ATOM     38  C   UNL A   1      38.503  29.238  28.712  1.00  0.00    -0.014 A 
BRANCH  38  39
ATOM     39  C   UNL A   1      39.904  28.866  29.033  1.00  0.00     0.031 A 
ATOM     40  C   UNL A   1      40.805  29.846  29.734  1.00  0.00     0.074 A 
ATOM     41  C   UNL A   1      40.371  27.656  28.670  1.00  0.00     0.049 A 
ATOM     42  N   UNL A   1      42.049  29.697  30.113  1.00  0.00    -0.248 NA
ATOM     43  C   UNL A   1      40.244  31.175  30.028  1.00  0.00     0.031 C 
ATOM     44  C   UNL A   1      39.612  26.637  27.941  1.00  0.00     0.029 A 
ATOM     45  N   UNL A   1      41.598  27.076  28.870  1.00  0.00    -0.354 N 
ATOM     46  C   UNL A   1      42.423  30.912  30.673  1.00  0.00     0.074 A 
ATOM     47  C   UNL A   1      41.290  31.803  30.542  1.00  0.00     0.031 C 
ATOM     48  C   UNL A   1      40.381  25.547  27.783  1.00  0.00     0.029 A 
ATOM     49  C   UNL A   1      41.689  25.796  28.380  1.00  0.00     0.049 A 
ATOM     50  H   UNL A   1      42.343  27.535  29.322  1.00  0.00     0.167 HD
ATOM     51  C   UNL A   1      43.594  31.252  31.265  1.00  0.00     0.031 A 
ATOM     52  C   UNL A   1      42.707  24.915  28.420  1.00  0.00     0.031 A 
ATOM     53  C   UNL A   1      44.713  30.360  31.410  1.00  0.00     0.049 A 
ATOM     54  C   UNL A   1      43.981  25.298  29.121  1.00  0.00     0.074 A 
ATOM     55  C   UNL A   1      45.927  30.592  32.032  1.00  0.00     0.029 A 
ATOM     56  N   UNL A   1      44.751  29.058  30.934  1.00  0.00    -0.354 N 
ATOM     57  N   UNL A   1      44.294  26.434  29.699  1.00  0.00    -0.248 NA
ATOM     58  C   UNL A   1      45.028  24.270  29.200  1.00  0.00     0.031 C 
ATOM     59  C   UNL A   1      46.710  29.438  31.908  1.00  0.00     0.029 A 
ATOM     60  C   UNL A   1      45.967  28.475  31.246  1.00  0.00     0.049 A 
ATOM     61  H   UNL A   1      44.019  28.614  30.445  1.00  0.00     0.167 HD
ATOM     62  C   UNL A   1      45.563  26.246  30.236  1.00  0.00     0.074 A 
ATOM     63  C   UNL A   1      45.951  24.884  29.926  1.00  0.00     0.031 C 
ATOM     64  C   UNL A   1      46.335  27.120  30.929  1.00  0.00     0.031 A 
BRANCH  51  65
ATOM     65  C   UNL A   1      43.715  32.655  31.799  1.00  0.00    -0.014 A 
ATOM     66  C   UNL A   1      44.142  33.709  30.971  1.00  0.00     0.010 A 
ATOM     67  C   UNL A   1      43.386  32.927  33.138  1.00  0.00     0.010 A 
ATOM     68  C   UNL A   1      44.287  35.000  31.486  1.00  0.00     0.020 A 
ATOM     69  C   UNL A   1      43.504  34.223  33.651  1.00  0.00     0.020 A 
ATOM     70  C   UNL A   1      43.975  35.246  32.825  1.00  0.00     0.054 A 
BRANCH  70  71
ATOM     71  S   UNL A   1      44.167  36.932  33.471  1.00  0.00     0.124 S 
ATOM     72  O   UNL A   1      45.158  36.736  34.527  1.00  0.00    -0.237 OA
ATOM     73  O   UNL A   1      44.634  37.674  32.303  1.00  0.00    -0.237 OA
ATOM     74  O   UNL A   1      42.826  37.281  33.931  1.00  0.00    -0.744 OA
ENDBRANCH  70  71
ENDBRANCH  51  65
BRANCH  52  75
ATOM     75  C   UNL A   1      42.542  23.564  27.821  1.00  0.00    -0.014 A 
ATOM     76  C   UNL A   1      43.006  23.303  26.519  1.00  0.00     0.010 A 
ATOM     77  C   UNL A   1      41.933  22.530  28.553  1.00  0.00     0.010 A 
ATOM     78  C   UNL A   1      42.846  22.035  25.952  1.00  0.00     0.020 A 
ATOM     79  C   UNL A   1      41.792  21.255  27.997  1.00  0.00     0.020 A 
ATOM     80  C   UNL A   1      42.239  21.019  26.695  1.00  0.00     0.054 A 
BRANCH  80  81
ATOM     81  S   UNL A   1      42.089  19.367  25.960  1.00  0.00     0.124 S 
ATOM     82  O   UNL A   1      42.952  19.476  24.788  1.00  0.00    -0.237 OA
ATOM     83  O   UNL A   1      42.576  18.497  27.028  1.00  0.00    -0.237 OA
ATOM     84  O   UNL A   1      40.659  19.250  25.678  1.00  0.00    -0.744 OA
ENDBRANCH  80  81
ENDBRANCH  52  75
BRANCH  64  85
ATOM     85  C   UNL A   1      47.658  26.611  31.433  1.00  0.00    -0.014 A 
ATOM     86  C   UNL A   1      47.764  25.947  32.667  1.00  0.00     0.010 A 
ATOM     87  C   UNL A   1      48.810  26.785  30.644  1.00  0.00     0.010 A 
ATOM     88  C   UNL A   1      49.009  25.508  33.126  1.00  0.00     0.020 A 
ATOM     89  C   UNL A   1      50.052  26.326  31.088  1.00  0.00     0.020 A 
ATOM     90  C   UNL A   1      50.146  25.708  32.338  1.00  0.00     0.054 A 
BRANCH  90  91
ATOM     91  S   UNL A   1      51.752  25.120  32.945  1.00  0.00     0.124 S 
ATOM     92  O   UNL A   1      51.521  23.684  33.065  1.00  0.00    -0.237 OA
ATOM     93  O   UNL A   1      52.668  25.523  31.881  1.00  0.00    -0.237 OA
ATOM     94  O   UNL A   1      51.923  25.834  34.208  1.00  0.00    -0.744 OA
ENDBRANCH  90  91
ENDBRANCH  64  85
ENDBRANCH  38  39
ENDBRANCH  30  33
ENDBRANCH  28  29
ENDBRANCH   1  28
TORSDOF 18
ENDMDL
MODEL 2
REMARK VINA RESULT:     -11.4      3.497      9.832
REMARK SMILES CS(=O)(=O)c1ccc(/C=C(/C(=O)NCCCCNC(=O)c2ccc(-c3c4nc(c(-c5ccc(S(=O)(=O)[O-])cc5)c5ccc([nH]5)c(-c5ccc(S(=O)(=O)[O-])cc5)c5nc(c(-c6ccc(S(=O)(=O)[O-])cc6)c6ccc3[nH]6)C=C5)C=C4)cc2)c2ccc(O)cc2)cc1
REMARK SMILES IDX 16 1 15 2 14 3 13 4 11 5 12 6 10 8 9 9 8 10 5 11 6 12 89 13
REMARK SMILES IDX 7 14 88 15 2 16 1 17 3 18 4 19 81 20 82 21 87 22 83 23 86 24
REMARK SMILES IDX 84 25 85 26 17 28 18 29 19 30 20 32 21 33 22 34 80 35 23 36
REMARK SMILES IDX 79 37 24 38 25 39 26 40 73 41 27 42 78 43 72 44 74 45 28 46
REMARK SMILES IDX 77 47 71 48 70 49 29 51 59 52 40 53 58 54 41 55 44 56 57 57
REMARK SMILES IDX 75 58 42 59 43 60 56 62 76 63 45 64 30 65 31 66 39 67 32 68
REMARK SMILES IDX 38 69 33 70 34 71 35 72 36 73 37 74 60 75 61 76 69 77 62 78
REMARK SMILES IDX 68 79 63 80 64 81 65 82 66 83 67 84 46 85 47 86 55 87 48 88
REMARK SMILES IDX 54 89 49 90 50 91 51 92 52 93 53 94
REMARK H PARENT 13 7 85 27 18 31 74 50 44 61
REMARK Flexibility Score: inf
ROOT
ATOM      1  C   UNL A   1      35.259  23.337  24.756  1.00  0.00     0.023 C 
ENDROOT
BRANCH   1   2
ATOM      2  C   UNL A   1      34.796  24.241  23.606  1.00  0.00     0.023 C 
BRANCH   2   3
ATOM      3  C   UNL A   1      33.491  23.800  22.933  1.00  0.00     0.116 C 
BRANCH   3   4
ATOM      4  N   UNL A   1      32.532  23.360  23.927  1.00  0.00    -0.352 N 
ATOM      5  C   UNL A   1      31.590  23.995  24.674  1.00  0.00     0.251 C 
ATOM      6  O   UNL A   1      30.955  23.287  25.461  1.00  0.00    -0.269 OA
ATOM      7  H   UNL A   1      32.570  22.391  24.097  1.00  0.00     0.163 HD
BRANCH   5   8
ATOM      8  C   UNL A   1      31.247  25.464  24.532  1.00  0.00     0.047 C 
ATOM      9  C   UNL A   1      30.547  25.949  23.482  1.00  0.00     0.022 C 
BRANCH   9  10
ATOM     10  C   UNL A   1      30.056  27.319  23.219  1.00  0.00    -0.025 A 
ATOM     11  C   UNL A   1      28.976  29.876  22.801  1.00  0.00     0.067 A 
ATOM     12  C   UNL A   1      30.342  29.659  22.612  1.00  0.00     0.021 A 
ATOM     13  C   UNL A   1      28.137  28.822  23.159  1.00  0.00     0.021 A 
ATOM     14  C   UNL A   1      30.873  28.379  22.807  1.00  0.00     0.009 A 
ATOM     15  C   UNL A   1      28.678  27.549  23.364  1.00  0.00     0.009 A 
BRANCH  11  16
ATOM     16  S   UNL A   1      28.291  31.500  22.585  1.00  0.00     0.175 S 
ATOM     17  C   UNL A   1      27.971  31.645  20.848  1.00  0.00     0.163 C 
ATOM     18  O   UNL A   1      29.329  32.460  22.904  1.00  0.00    -0.224 OA
ATOM     19  O   UNL A   1      27.017  31.514  23.283  1.00  0.00    -0.224 OA
ENDBRANCH  11  16
ENDBRANCH   9  10
BRANCH   8  20
ATOM     20  C   UNL A   1      31.865  26.397  25.508  1.00  0.00    -0.013 A 
ATOM     21  C   UNL A   1      33.208  26.771  25.323  1.00  0.00     0.013 A 
ATOM     22  C   UNL A   1      31.132  26.986  26.548  1.00  0.00     0.013 A 
ATOM     23  C   UNL A   1      33.793  27.745  26.130  1.00  0.00     0.047 A 
ATOM     24  C   UNL A   1      31.718  27.968  27.353  1.00  0.00     0.047 A 
ATOM     25  C   UNL A   1      33.039  28.350  27.126  1.00  0.00     0.115 A 
BRANCH  25  26
ATOM     26  O   UNL A   1      33.634  29.335  27.857  1.00  0.00    -0.508 OA
ATOM     27  H   UNL A   1      34.565  29.349  27.954  1.00  0.00     0.293 HD
ENDBRANCH  25  26
ENDBRANCH   8  20
ENDBRANCH   5   8
ENDBRANCH   3   4
ENDBRANCH   2   3
ENDBRANCH   1   2
BRANCH   1  28
ATOM     28  C   UNL A   1      36.488  23.826  25.518  1.00  0.00     0.116 C 
BRANCH  28  29
ATOM     29  N   UNL A   1      37.534  22.823  25.606  1.00  0.00    -0.352 N 
ATOM     30  C   UNL A   1      38.793  22.925  26.139  1.00  0.00     0.251 C 
ATOM     31  H   UNL A   1      37.307  21.943  25.228  1.00  0.00     0.163 HD
ATOM     32  O   UNL A   1      39.576  21.987  26.010  1.00  0.00    -0.269 OA
BRANCH  30  33
ATOM     33  C   UNL A   1      39.221  24.159  26.836  1.00  0.00     0.039 A 
ATOM     34  C   UNL A   1      39.990  25.086  26.126  1.00  0.00     0.014 A 
ATOM     35  C   UNL A   1      38.912  24.390  28.179  1.00  0.00     0.014 A 
ATOM     36  C   UNL A   1      40.420  26.259  26.752  1.00  0.00     0.010 A 
ATOM     37  C   UNL A   1      39.289  25.588  28.785  1.00  0.00     0.010 A 
ATOM     38  C   UNL A   1      40.061  26.525  28.083  1.00  0.00    -0.014 A 
BRANCH  38  39
ATOM     39  C   UNL A   1      40.522  27.765  28.756  1.00  0.00     0.031 A 
ATOM     40  C   UNL A   1      41.925  27.857  29.294  1.00  0.00     0.074 A 
ATOM     41  C   UNL A   1      39.671  28.797  28.906  1.00  0.00     0.049 A 
ATOM     42  N   UNL A   1      42.513  28.859  29.896  1.00  0.00    -0.248 NA
ATOM     43  C   UNL A   1      42.770  26.658  29.160  1.00  0.00     0.031 C 
ATOM     44  C   UNL A   1      38.272  28.813  28.473  1.00  0.00     0.029 A 
ATOM     45  N   UNL A   1      39.861  30.038  29.461  1.00  0.00    -0.354 N 
ATOM     46  C   UNL A   1      43.786  28.410  30.224  1.00  0.00     0.074 A 
ATOM     47  C   UNL A   1      43.869  27.029  29.799  1.00  0.00     0.031 C 
ATOM     48  C   UNL A   1      37.740  30.014  28.751  1.00  0.00     0.029 A 
ATOM     49  C   UNL A   1      38.750  30.845  29.397  1.00  0.00     0.049 A 
ATOM     50  H   UNL A   1      40.712  30.322  29.866  1.00  0.00     0.167 HD
ATOM     51  C   UNL A   1      44.804  29.088  30.807  1.00  0.00     0.031 A 
ATOM     52  C   UNL A   1      38.572  32.118  29.801  1.00  0.00     0.031 A 
ATOM     53  C   UNL A   1      44.727  30.466  31.214  1.00  0.00     0.049 A 
ATOM     54  C   UNL A   1      39.728  32.866  30.403  1.00  0.00     0.074 A 
ATOM     55  C   UNL A   1      45.715  31.258  31.772  1.00  0.00     0.029 A 
ATOM     56  N   UNL A   1      43.596  31.260  31.097  1.00  0.00    -0.354 N 
ATOM     57  N   UNL A   1      40.945  32.441  30.652  1.00  0.00    -0.248 NA
ATOM     58  C   UNL A   1      39.496  34.273  30.754  1.00  0.00     0.031 C 
ATOM     59  C   UNL A   1      45.172  32.525  32.018  1.00  0.00     0.029 A 
ATOM     60  C   UNL A   1      43.860  32.532  31.574  1.00  0.00     0.049 A 
ATOM     61  H   UNL A   1      42.732  30.962  30.729  1.00  0.00     0.167 HD
ATOM     62  C   UNL A   1      41.631  33.538  31.160  1.00  0.00     0.074 A 
ATOM     63  C   UNL A   1      40.697  34.647  31.169  1.00  0.00     0.031 C 
ATOM     64  C   UNL A   1      42.920  33.622  31.575  1.00  0.00     0.031 A 
BRANCH  51  65
ATOM     65  C   UNL A   1      46.091  28.339  31.035  1.00  0.00    -0.014 A 
ATOM     66  C   UNL A   1      46.303  27.613  32.221  1.00  0.00     0.010 A 
ATOM     67  C   UNL A   1      47.093  28.350  30.050  1.00  0.00     0.010 A 
ATOM     68  C   UNL A   1      47.516  26.952  32.439  1.00  0.00     0.020 A 
ATOM     69  C   UNL A   1      48.298  27.668  30.253  1.00  0.00     0.020 A 
ATOM     70  C   UNL A   1      48.508  26.992  31.456  1.00  0.00     0.054 A 
BRANCH  70  71
ATOM     71  S   UNL A   1      50.073  26.123  31.760  1.00  0.00     0.124 S 
ATOM     72  O   UNL A   1      50.401  25.621  30.427  1.00  0.00    -0.237 OA
ATOM     73  O   UNL A   1      50.940  27.186  32.260  1.00  0.00    -0.237 OA
ATOM     74  O   UNL A   1      49.716  25.102  32.741  1.00  0.00    -0.744 OA
ENDBRANCH  70  71
ENDBRANCH  51  65
BRANCH  52  75
ATOM     75  C   UNL A   1      37.256  32.781  29.599  1.00  0.00    -0.014 A 
ATOM     76  C   UNL A   1      36.382  32.971  30.684  1.00  0.00     0.010 A 
ATOM     77  C   UNL A   1      36.877  33.238  28.325  1.00  0.00     0.010 A 
ATOM     78  C   UNL A   1      35.143  33.588  30.496  1.00  0.00     0.020 A 
ATOM     79  C   UNL A   1      35.647  33.876  28.136  1.00  0.00     0.020 A 
ATOM     80  C   UNL A   1      34.783  34.036  29.222  1.00  0.00     0.054 A 
BRANCH  80  81
ATOM     81  S   UNL A   1      33.192  34.882  29.008  1.00  0.00     0.124 S 
ATOM     82  O   UNL A   1      33.610  36.208  28.563  1.00  0.00    -0.237 OA
ATOM     83  O   UNL A   1      32.525  34.058  28.003  1.00  0.00    -0.237 OA
ATOM     84  O   UNL A   1      32.596  34.826  30.342  1.00  0.00    -0.744 OA
ENDBRANCH  80  81
ENDBRANCH  52  75
BRANCH  64  85
ATOM     85  C   UNL A   1      43.402  34.971  32.035  1.00  0.00    -0.014 A 
ATOM     86  C   UNL A   1      43.954  35.897  31.133  1.00  0.00     0.010 A 
ATOM     87  C   UNL A   1      43.280  35.322  33.391  1.00  0.00     0.010 A 
ATOM     88  C   UNL A   1      44.420  37.133  31.588  1.00  0.00     0.020 A 
ATOM     89  C   UNL A   1      43.722  36.567  33.847  1.00  0.00     0.020 A 
ATOM     90  C   UNL A   1      44.309  37.456  32.944  1.00  0.00     0.054 A 
BRANCH  90  91
ATOM     91  S   UNL A   1      44.909  39.071  33.515  1.00  0.00     0.124 S 
ATOM     92  O   UNL A   1      46.096  39.262  32.686  1.00  0.00    -0.237 OA
ATOM     93  O   UNL A   1      43.786  39.957  33.219  1.00  0.00    -0.237 OA
ATOM     94  O   UNL A   1      45.167  38.858  34.937  1.00  0.00    -0.744 OA
ENDBRANCH  90  91
ENDBRANCH  64  85
ENDBRANCH  38  39
ENDBRANCH  30  33
ENDBRANCH  28  29
ENDBRANCH   1  28
TORSDOF 18
ENDMDL
MODEL 3
REMARK VINA RESULT:     -11.3      2.384      2.971
REMARK SMILES CS(=O)(=O)c1ccc(/C=C(/C(=O)NCCCCNC(=O)c2ccc(-c3c4nc(c(-c5ccc(S(=O)(=O)[O-])cc5)c5ccc([nH]5)c(-c5ccc(S(=O)(=O)[O-])cc5)c5nc(c(-c6ccc(S(=O)(=O)[O-])cc6)c6ccc3[nH]6)C=C5)C=C4)cc2)c2ccc(O)cc2)cc1
REMARK SMILES IDX 16 1 15 2 14 3 13 4 11 5 12 6 10 8 9 9 8 10 5 11 6 12 89 13
REMARK SMILES IDX 7 14 88 15 2 16 1 17 3 18 4 19 81 20 82 21 87 22 83 23 86 24
REMARK SMILES IDX 84 25 85 26 17 28 18 29 19 30 20 32 21 33 22 34 80 35 23 36
REMARK SMILES IDX 79 37 24 38 25 39 26 40 73 41 27 42 78 43 72 44 74 45 28 46
REMARK SMILES IDX 77 47 71 48 70 49 29 51 59 52 40 53 58 54 41 55 44 56 57 57
REMARK SMILES IDX 75 58 42 59 43 60 56 62 76 63 45 64 30 65 31 66 39 67 32 68
REMARK SMILES IDX 38 69 33 70 34 71 35 72 36 73 37 74 60 75 61 76 69 77 62 78
REMARK SMILES IDX 68 79 63 80 64 81 65 82 66 83 67 84 46 85 47 86 55 87 48 88
REMARK SMILES IDX 54 89 49 90 50 91 51 92 52 93 53 94
REMARK H PARENT 13 7 85 27 18 31 74 50 44 61
REMARK Flexibility Score: inf
ROOT
ATOM      1  C   UNL A   1      32.987  27.754  25.564  1.00  0.00     0.023 C 
ENDROOT
BRANCH   1   2
ATOM      2  C   UNL A   1      32.123  26.876  26.479  1.00  0.00     0.023 C 
BRANCH   2   3
ATOM      3  C   UNL A   1      31.547  25.626  25.805  1.00  0.00     0.116 C 
BRANCH   3   4
ATOM      4  N   UNL A   1      31.661  25.728  24.363  1.00  0.00    -0.352 N 
ATOM      5  C   UNL A   1      32.238  24.953  23.407  1.00  0.00     0.251 C 
ATOM      6  O   UNL A   1      32.161  25.377  22.250  1.00  0.00    -0.269 OA
ATOM      7  H   UNL A   1      31.226  26.533  23.998  1.00  0.00     0.163 HD
BRANCH   5   8
ATOM      8  C   UNL A   1      32.877  23.608  23.680  1.00  0.00     0.047 C 
ATOM      9  C   UNL A   1      32.156  22.471  23.803  1.00  0.00     0.022 C 
BRANCH   9  10
ATOM     10  C   UNL A   1      32.608  21.075  23.987  1.00  0.00    -0.025 A 
ATOM     11  C   UNL A   1      33.428  18.397  24.166  1.00  0.00     0.067 A 
ATOM     12  C   UNL A   1      33.748  19.292  25.188  1.00  0.00     0.021 A 
ATOM     13  C   UNL A   1      32.670  18.815  23.074  1.00  0.00     0.021 A 
ATOM     14  C   UNL A   1      33.324  20.623  25.102  1.00  0.00     0.009 A 
ATOM     15  C   UNL A   1      32.260  20.148  22.990  1.00  0.00     0.009 A 
BRANCH  11  16
ATOM     16  S   UNL A   1      33.984  16.712  24.247  1.00  0.00     0.175 S 
ATOM     17  C   UNL A   1      32.798  15.878  25.267  1.00  0.00     0.163 C 
ATOM     18  O   UNL A   1      35.241  16.699  24.967  1.00  0.00    -0.224 OA
ATOM     19  O   UNL A   1      33.884  16.171  22.903  1.00  0.00    -0.224 OA
ENDBRANCH  11  16
ENDBRANCH   9  10
BRANCH   8  20
ATOM     20  C   UNL A   1      34.330  23.603  23.988  1.00  0.00    -0.013 A 
ATOM     21  C   UNL A   1      34.750  24.045  25.255  1.00  0.00     0.013 A 
ATOM     22  C   UNL A   1      35.283  23.089  23.098  1.00  0.00     0.013 A 
ATOM     23  C   UNL A   1      36.084  23.935  25.642  1.00  0.00     0.047 A 
ATOM     24  C   UNL A   1      36.621  22.972  23.489  1.00  0.00     0.047 A 
ATOM     25  C   UNL A   1      37.006  23.382  24.765  1.00  0.00     0.115 A 
BRANCH  25  26
ATOM     26  O   UNL A   1      38.289  23.243  25.202  1.00  0.00    -0.508 OA
ATOM     27  H   UNL A   1      38.459  23.061  26.105  1.00  0.00     0.293 HD
ENDBRANCH  25  26
ENDBRANCH   8  20
ENDBRANCH   5   8
ENDBRANCH   3   4
ENDBRANCH   2   3
ENDBRANCH   1   2
BRANCH   1  28
ATOM     28  C   UNL A   1      34.117  28.509  26.259  1.00  0.00     0.116 C 
BRANCH  28  29
ATOM     29  N   UNL A   1      33.756  29.873  26.604  1.00  0.00    -0.352 N 
ATOM     30  C   UNL A   1      34.378  30.747  27.457  1.00  0.00     0.251 C 
ATOM     31  H   UNL A   1      32.948  30.220  26.161  1.00  0.00     0.163 HD
ATOM     32  O   UNL A   1      33.845  31.826  27.703  1.00  0.00    -0.269 OA
BRANCH  30  33
ATOM     33  C   UNL A   1      35.661  30.389  28.102  1.00  0.00     0.039 A 
ATOM     34  C   UNL A   1      35.622  29.631  29.277  1.00  0.00     0.014 A 
ATOM     35  C   UNL A   1      36.888  30.822  27.591  1.00  0.00     0.014 A 
ATOM     36  C   UNL A   1      36.812  29.281  29.919  1.00  0.00     0.010 A 
ATOM     37  C   UNL A   1      38.077  30.421  28.197  1.00  0.00     0.010 A 
ATOM     38  C   UNL A   1      38.050  29.662  29.377  1.00  0.00    -0.014 A 
BRANCH  38  39
ATOM     39  C   UNL A   1      39.318  29.300  30.060  1.00  0.00     0.031 A 
ATOM     40  C   UNL A   1      39.735  30.023  31.312  1.00  0.00     0.074 A 
ATOM     41  C   UNL A   1      40.104  28.340  29.538  1.00  0.00     0.049 A 
ATOM     42  N   UNL A   1      40.795  29.837  32.056  1.00  0.00    -0.248 NA
ATOM     43  C   UNL A   1      38.860  31.113  31.775  1.00  0.00     0.031 C 
ATOM     44  C   UNL A   1      39.835  27.601  28.302  1.00  0.00     0.029 A 
ATOM     45  N   UNL A   1      41.291  27.816  29.986  1.00  0.00    -0.354 N 
ATOM     46  C   UNL A   1      40.723  30.792  33.064  1.00  0.00     0.074 A 
ATOM     47  C   UNL A   1      39.541  31.587  32.808  1.00  0.00     0.031 C 
ATOM     48  C   UNL A   1      40.811  26.699  28.109  1.00  0.00     0.029 A 
ATOM     49  C   UNL A   1      41.783  26.809  29.192  1.00  0.00     0.049 A 
ATOM     50  H   UNL A   1      41.745  28.133  30.800  1.00  0.00     0.167 HD
ATOM     51  C   UNL A   1      41.551  30.979  34.120  1.00  0.00     0.031 A 
ATOM     52  C   UNL A   1      42.886  26.048  29.330  1.00  0.00     0.031 A 
ATOM     53  C   UNL A   1      42.717  30.177  34.383  1.00  0.00     0.049 A 
ATOM     54  C   UNL A   1      43.766  26.243  30.533  1.00  0.00     0.074 A 
ATOM     55  C   UNL A   1      43.596  30.256  35.448  1.00  0.00     0.029 A 
ATOM     56  N   UNL A   1      43.160  29.141  33.575  1.00  0.00    -0.354 N 
ATOM     57  N   UNL A   1      43.648  27.113  31.509  1.00  0.00    -0.248 NA
ATOM     58  C   UNL A   1      44.912  25.333  30.669  1.00  0.00     0.031 C 
ATOM     59  C   UNL A   1      44.588  29.284  35.270  1.00  0.00     0.029 A 
ATOM     60  C   UNL A   1      44.300  28.574  34.116  1.00  0.00     0.049 A 
ATOM     61  H   UNL A   1      42.726  28.852  32.739  1.00  0.00     0.167 HD
ATOM     62  C   UNL A   1      44.688  26.835  32.389  1.00  0.00     0.074 A 
ATOM     63  C   UNL A   1      45.413  25.709  31.837  1.00  0.00     0.031 C 
ATOM     64  C   UNL A   1      45.009  27.454  33.553  1.00  0.00     0.031 A 
BRANCH  51  65
ATOM     65  C   UNL A   1      41.217  32.099  35.068  1.00  0.00    -0.014 A 
ATOM     66  C   UNL A   1      41.735  33.392  34.871  1.00  0.00     0.010 A 
ATOM     67  C   UNL A   1      40.365  31.863  36.161  1.00  0.00     0.010 A 
ATOM     68  C   UNL A   1      41.449  34.417  35.778  1.00  0.00     0.020 A 
ATOM     69  C   UNL A   1      40.055  32.892  37.057  1.00  0.00     0.020 A 
ATOM     70  C   UNL A   1      40.617  34.156  36.870  1.00  0.00     0.054 A 
BRANCH  70  71
ATOM     71  S   UNL A   1      40.257  35.503  38.033  1.00  0.00     0.124 S 
ATOM     72  O   UNL A   1      39.876  36.586  37.129  1.00  0.00    -0.237 OA
ATOM     73  O   UNL A   1      39.172  34.950  38.841  1.00  0.00    -0.237 OA
ATOM     74  O   UNL A   1      41.520  35.695  38.740  1.00  0.00    -0.744 OA
ENDBRANCH  70  71
ENDBRANCH  51  65
BRANCH  52  75
ATOM     75  C   UNL A   1      43.190  24.996  28.324  1.00  0.00    -0.014 A 
ATOM     76  C   UNL A   1      42.671  23.698  28.475  1.00  0.00     0.010 A 
ATOM     77  C   UNL A   1      43.989  25.290  27.205  1.00  0.00     0.010 A 
ATOM     78  C   UNL A   1      42.961  22.706  27.534  1.00  0.00     0.020 A 
ATOM     79  C   UNL A   1      44.262  24.307  26.250  1.00  0.00     0.020 A 
ATOM     80  C   UNL A   1      43.756  23.017  26.427  1.00  0.00     0.054 A 
BRANCH  80  81
ATOM     81  S   UNL A   1      44.077  21.729  25.190  1.00  0.00     0.124 S 
ATOM     82  O   UNL A   1      45.431  21.306  25.536  1.00  0.00    -0.237 OA
ATOM     83  O   UNL A   1      43.021  20.757  25.460  1.00  0.00    -0.237 OA
ATOM     84  O   UNL A   1      43.947  22.440  23.919  1.00  0.00    -0.744 OA
ENDBRANCH  80  81
ENDBRANCH  52  75
BRANCH  64  85
ATOM     85  C   UNL A   1      46.173  26.894  34.325  1.00  0.00    -0.014 A 
ATOM     86  C   UNL A   1      47.481  27.363  34.117  1.00  0.00     0.010 A 
ATOM     87  C   UNL A   1      45.945  25.896  35.290  1.00  0.00     0.010 A 
ATOM     88  C   UNL A   1      48.550  26.808  34.826  1.00  0.00     0.020 A 
ATOM     89  C   UNL A   1      47.008  25.356  36.019  1.00  0.00     0.020 A 
ATOM     90  C   UNL A   1      48.307  25.803  35.766  1.00  0.00     0.054 A 
BRANCH  90  91
ATOM     91  S   UNL A   1      49.706  25.103  36.687  1.00  0.00     0.124 S 
ATOM     92  O   UNL A   1      50.797  25.242  35.728  1.00  0.00    -0.237 OA
ATOM     93  O   UNL A   1      49.786  25.969  37.861  1.00  0.00    -0.237 OA
ATOM     94  O   UNL A   1      49.284  23.731  36.961  1.00  0.00    -0.744 OA
ENDBRANCH  90  91
ENDBRANCH  64  85
ENDBRANCH  38  39
ENDBRANCH  30  33
ENDBRANCH  28  29
ENDBRANCH   1  28
TORSDOF 18
ENDMDL
