MODEL 1
REMARK VINA RESULT:     -12.0      0.000      0.000
REMARK SMILES Cc1ccc(C(=O)Nc2cccc(F)c2C(=O)NCCCCNC(=O)c2ccc(-c3c4nc(c(-c5ccc(S(=O)(=O)[O-])cc5)c5ccc([nH]5)c(-c5ccc(S(=O)(=O)[O-])cc5)c5nc(c(-c6ccc(S(=O)(=O)[O-])cc6)c6ccc3[nH]6)C=C5)C=C4)cc2)c(F)c1
REMARK SMILES IDX 21 1 20 2 19 3 18 4 16 5 17 6 15 8 9 9 10 10 11 11 13 12
REMARK SMILES IDX 12 13 14 14 8 15 6 16 7 17 5 19 1 20 2 21 3 22 88 23 4 24
REMARK SMILES IDX 86 25 87 26 22 27 23 28 24 29 25 31 26 32 27 33 85 34 28 35
REMARK SMILES IDX 84 36 29 37 30 38 31 39 78 40 32 41 83 42 77 43 79 44 33 45
REMARK SMILES IDX 82 46 76 47 75 48 34 50 64 51 45 52 63 53 46 54 49 55 62 56
REMARK SMILES IDX 80 57 47 58 48 59 61 61 81 62 50 63 35 64 36 65 44 66 37 67
REMARK SMILES IDX 43 68 38 69 39 70 40 71 41 72 42 73 65 74 66 75 74 76 67 77
REMARK SMILES IDX 73 78 68 79 69 80 70 81 71 82 72 83 51 84 52 85 60 86 53 87
REMARK SMILES IDX 59 88 54 89 55 90 56 91 57 92 58 93
REMARK H PARENT 18 7 8 18 23 30 79 49 49 60
REMARK Flexibility Score: inf
ROOT
ATOM      1  C   UNL A   1      33.755  28.317  25.671  1.00  0.00     0.023 C 
ENDROOT
BRANCH   1   2
ATOM      2  C   UNL A   1      33.069  29.239  24.671  1.00  0.00     0.023 C 
BRANCH   2   3
ATOM      3  C   UNL A   1      31.764  28.747  24.057  1.00  0.00     0.116 C 
BRANCH   3   4
ATOM      4  N   UNL A   1      31.922  27.784  22.984  1.00  0.00    -0.352 N 
ATOM      5  C   UNL A   1      31.909  26.408  22.975  1.00  0.00     0.256 C 
ATOM      6  O   UNL A   1      32.044  25.860  21.878  1.00  0.00    -0.269 OA
ATOM      7  H   UNL A   1      32.067  28.189  22.098  1.00  0.00     0.163 HD
BRANCH   5   8
ATOM      8  C   UNL A   1      31.843  25.565  24.205  1.00  0.00     0.099 A 
ATOM      9  C   UNL A   1      32.994  24.892  24.674  1.00  0.00     0.057 A 
ATOM     10  C   UNL A   1      32.992  24.282  25.940  1.00  0.00     0.027 A 
ATOM     11  C   UNL A   1      31.815  24.190  26.677  1.00  0.00     0.005 A 
ATOM     12  C   UNL A   1      30.651  25.294  24.877  1.00  0.00     0.138 A 
ATOM     13  C   UNL A   1      30.631  24.642  26.111  1.00  0.00     0.040 A 
ATOM     14  F   UNL A   1      29.461  25.557  24.317  1.00  0.00    -0.206 F 
BRANCH   9  15
ATOM     15  N   UNL A   1      34.108  24.703  23.827  1.00  0.00    -0.321 N 
ATOM     16  C   UNL A   1      34.752  23.517  23.500  1.00  0.00     0.258 C 
ATOM     17  O   UNL A   1      35.799  23.552  22.856  1.00  0.00    -0.269 OA
ATOM     18  H   UNL A   1      34.476  25.518  23.415  1.00  0.00     0.170 HD
BRANCH  16  19
ATOM     19  C   UNL A   1      34.127  22.192  23.794  1.00  0.00     0.075 A 
ATOM     20  C   UNL A   1      32.337  18.318  24.506  1.00  0.00     0.044 C 
ATOM     21  C   UNL A   1      32.948  19.667  24.271  1.00  0.00    -0.048 A 
ATOM     22  C   UNL A   1      34.108  20.044  24.949  1.00  0.00     0.004 A 
ATOM     23  C   UNL A   1      32.335  20.594  23.420  1.00  0.00     0.043 A 
ATOM     24  C   UNL A   1      34.667  21.309  24.742  1.00  0.00     0.017 A 
ATOM     25  C   UNL A   1      32.928  21.837  23.176  1.00  0.00     0.136 A 
ATOM     26  F   UNL A   1      32.314  22.663  22.317  1.00  0.00    -0.206 F 
ENDBRANCH  16  19
ENDBRANCH   9  15
ENDBRANCH   5   8
ENDBRANCH   3   4
ENDBRANCH   2   3
ENDBRANCH   1   2
BRANCH   1  27
ATOM     27  C   UNL A   1      33.451  28.564  27.145  1.00  0.00     0.116 C 
BRANCH  27  28
ATOM     28  N   UNL A   1      33.488  29.967  27.528  1.00  0.00    -0.352 N 
ATOM     29  C   UNL A   1      34.509  30.710  28.083  1.00  0.00     0.251 C 
ATOM     30  H   UNL A   1      32.654  30.464  27.366  1.00  0.00     0.163 HD
ATOM     31  O   UNL A   1      34.315  31.871  28.401  1.00  0.00    -0.269 OA
BRANCH  29  32
ATOM     32  C   UNL A   1      35.828  30.079  28.332  1.00  0.00     0.039 A 
ATOM     33  C   UNL A   1      36.775  30.074  27.303  1.00  0.00     0.014 A 
ATOM     34  C   UNL A   1      36.142  29.527  29.574  1.00  0.00     0.014 A 
ATOM     35  C   UNL A   1      38.068  29.608  27.554  1.00  0.00     0.010 A 
ATOM     36  C   UNL A   1      37.450  29.135  29.844  1.00  0.00     0.010 A 
ATOM     37  C   UNL A   1      38.432  29.184  28.842  1.00  0.00    -0.014 A 
BRANCH  37  38
ATOM     38  C   UNL A   1      39.832  28.809  29.174  1.00  0.00     0.031 A 
ATOM     39  C   UNL A   1      40.763  29.825  29.778  1.00  0.00     0.074 A 
ATOM     40  C   UNL A   1      40.293  27.586  28.841  1.00  0.00     0.049 A 
ATOM     41  N   UNL A   1      42.044  29.726  30.022  1.00  0.00    -0.248 NA
ATOM     42  C   UNL A   1      40.185  31.135  30.127  1.00  0.00     0.031 C 
ATOM     43  C   UNL A   1      39.509  26.524  28.202  1.00  0.00     0.029 A 
ATOM     44  N   UNL A   1      41.544  27.032  28.976  1.00  0.00    -0.354 N 
ATOM     45  C   UNL A   1      42.431  30.965  30.520  1.00  0.00     0.074 A 
ATOM     46  C   UNL A   1      41.257  31.811  30.513  1.00  0.00     0.031 C 
ATOM     47  C   UNL A   1      40.291  25.448  28.015  1.00  0.00     0.029 A 
ATOM     48  C   UNL A   1      41.641  25.752  28.480  1.00  0.00     0.049 A 
ATOM     49  H   UNL A   1      42.300  27.508  29.390  1.00  0.00     0.167 HD
ATOM     50  C   UNL A   1      43.651  31.360  30.957  1.00  0.00     0.031 A 
ATOM     51  C   UNL A   1      42.698  24.922  28.394  1.00  0.00     0.031 A 
ATOM     52  C   UNL A   1      44.809  30.509  30.999  1.00  0.00     0.049 A 
ATOM     53  C   UNL A   1      44.036  25.377  28.912  1.00  0.00     0.074 A 
ATOM     54  C   UNL A   1      46.068  30.796  31.497  1.00  0.00     0.029 A 
ATOM     55  N   UNL A   1      44.850  29.204  30.535  1.00  0.00    -0.354 N 
ATOM     56  N   UNL A   1      44.362  26.530  29.446  1.00  0.00    -0.248 NA
ATOM     57  C   UNL A   1      45.145  24.416  28.828  1.00  0.00     0.031 C 
ATOM     58  C   UNL A   1      46.882  29.677  31.299  1.00  0.00     0.029 A 
ATOM     59  C   UNL A   1      46.116  28.678  30.720  1.00  0.00     0.049 A 
ATOM     60  H   UNL A   1      44.091  28.722  30.132  1.00  0.00     0.167 HD
ATOM     61  C   UNL A   1      45.706  26.421  29.786  1.00  0.00     0.074 A 
ATOM     62  C   UNL A   1      46.128  25.088  29.411  1.00  0.00     0.031 C 
ATOM     63  C   UNL A   1      46.517  27.343  30.358  1.00  0.00     0.031 A 
BRANCH  50  64
ATOM     64  C   UNL A   1      43.800  32.779  31.434  1.00  0.00    -0.014 A 
ATOM     65  C   UNL A   1      44.155  33.808  30.545  1.00  0.00     0.010 A 
ATOM     66  C   UNL A   1      43.510  33.099  32.773  1.00  0.00     0.010 A 
ATOM     67  C   UNL A   1      44.245  35.129  30.991  1.00  0.00     0.020 A 
ATOM     68  C   UNL A   1      43.575  34.422  33.218  1.00  0.00     0.020 A 
ATOM     69  C   UNL A   1      43.954  35.427  32.326  1.00  0.00     0.054 A 
BRANCH  69  70
ATOM     70  S   UNL A   1      44.030  37.157  32.867  1.00  0.00     0.124 S 
ATOM     71  O   UNL A   1      45.394  37.252  33.380  1.00  0.00    -0.237 OA
ATOM     72  O   UNL A   1      43.772  37.891  31.630  1.00  0.00    -0.237 OA
ATOM     73  O   UNL A   1      42.976  37.252  33.875  1.00  0.00    -0.744 OA
ENDBRANCH  69  70
ENDBRANCH  50  64
BRANCH  51  74
ATOM     74  C   UNL A   1      42.543  23.568  27.794  1.00  0.00    -0.014 A 
ATOM     75  C   UNL A   1      41.751  22.593  28.425  1.00  0.00     0.010 A 
ATOM     76  C   UNL A   1      43.206  23.240  26.597  1.00  0.00     0.010 A 
ATOM     77  C   UNL A   1      41.650  21.306  27.889  1.00  0.00     0.020 A 
ATOM     78  C   UNL A   1      43.087  21.961  26.044  1.00  0.00     0.020 A 
ATOM     79  C   UNL A   1      42.324  20.997  26.705  1.00  0.00     0.054 A 
BRANCH  79  80
ATOM     80  S   UNL A   1      42.163  19.327  26.012  1.00  0.00     0.124 S 
ATOM     81  O   UNL A   1      40.727  19.240  25.767  1.00  0.00    -0.237 OA
ATOM     82  O   UNL A   1      43.006  19.392  24.821  1.00  0.00    -0.237 OA
ATOM     83  O   UNL A   1      42.672  18.467  27.078  1.00  0.00    -0.744 OA
ENDBRANCH  79  80
ENDBRANCH  51  74
BRANCH  63  84
ATOM     84  C   UNL A   1      47.932  26.934  30.660  1.00  0.00    -0.014 A 
ATOM     85  C   UNL A   1      48.955  27.093  29.709  1.00  0.00     0.010 A 
ATOM     86  C   UNL A   1      48.253  26.448  31.941  1.00  0.00     0.010 A 
ATOM     87  C   UNL A   1      50.272  26.751  30.027  1.00  0.00     0.020 A 
ATOM     88  C   UNL A   1      49.572  26.129  32.270  1.00  0.00     0.020 A 
ATOM     89  C   UNL A   1      50.571  26.272  31.307  1.00  0.00     0.054 A 
BRANCH  89  90
ATOM     90  S   UNL A   1      52.297  25.890  31.716  1.00  0.00     0.124 S 
ATOM     91  O   UNL A   1      52.215  24.482  32.094  1.00  0.00    -0.237 OA
ATOM     92  O   UNL A   1      52.995  26.165  30.463  1.00  0.00    -0.237 OA
ATOM     93  O   UNL A   1      52.606  26.811  32.809  1.00  0.00    -0.744 OA
ENDBRANCH  89  90
ENDBRANCH  63  84
ENDBRANCH  37  38
ENDBRANCH  29  32
ENDBRANCH  27  28
ENDBRANCH   1  27
TORSDOF 16
ENDMDL
MODEL 2
REMARK VINA RESULT:     -11.7      1.490      2.187
REMARK SMILES Cc1ccc(C(=O)Nc2cccc(F)c2C(=O)NCCCCNC(=O)c2ccc(-c3c4nc(c(-c5ccc(S(=O)(=O)[O-])cc5)c5ccc([nH]5)c(-c5ccc(S(=O)(=O)[O-])cc5)c5nc(c(-c6ccc(S(=O)(=O)[O-])cc6)c6ccc3[nH]6)C=C5)C=C4)cc2)c(F)c1
REMARK SMILES IDX 21 1 20 2 19 3 18 4 16 5 17 6 15 8 9 9 10 10 11 11 13 12
REMARK SMILES IDX 12 13 14 14 8 15 6 16 7 17 5 19 1 20 2 21 3 22 88 23 4 24
REMARK SMILES IDX 86 25 87 26 22 27 23 28 24 29 25 31 26 32 27 33 85 34 28 35
REMARK SMILES IDX 84 36 29 37 30 38 31 39 78 40 32 41 83 42 77 43 79 44 33 45
REMARK SMILES IDX 82 46 76 47 75 48 34 50 64 51 45 52 63 53 46 54 49 55 62 56
REMARK SMILES IDX 80 57 47 58 48 59 61 61 81 62 50 63 35 64 36 65 44 66 37 67
REMARK SMILES IDX 43 68 38 69 39 70 40 71 41 72 42 73 65 74 66 75 74 76 67 77
REMARK SMILES IDX 73 78 68 79 69 80 70 81 71 82 72 83 51 84 52 85 60 86 53 87
REMARK SMILES IDX 59 88 54 89 55 90 56 91 57 92 58 93
REMARK H PARENT 18 7 8 18 23 30 79 49 49 60
REMARK Flexibility Score: inf
ROOT
ATOM      1  C   UNL A   1      33.774  28.303  25.878  1.00  0.00     0.023 C 
ENDROOT
BRANCH   1   2
ATOM      2  C   UNL A   1      32.563  27.903  25.044  1.00  0.00     0.023 C 
BRANCH   2   3
ATOM      3  C   UNL A   1      31.432  27.182  25.768  1.00  0.00     0.116 C 
BRANCH   3   4
ATOM      4  N   UNL A   1      30.235  26.977  24.973  1.00  0.00    -0.352 N 
ATOM      5  C   UNL A   1      29.950  26.101  23.952  1.00  0.00     0.256 C 
ATOM      6  O   UNL A   1      28.809  26.148  23.485  1.00  0.00    -0.269 OA
ATOM      7  H   UNL A   1      29.490  27.577  25.207  1.00  0.00     0.163 HD
BRANCH   5   8
ATOM      8  C   UNL A   1      30.954  25.190  23.328  1.00  0.00     0.099 A 
ATOM      9  C   UNL A   1      31.216  23.920  23.890  1.00  0.00     0.057 A 
ATOM     10  C   UNL A   1      31.990  22.979  23.189  1.00  0.00     0.027 A 
ATOM     11  C   UNL A   1      32.642  23.339  22.014  1.00  0.00     0.005 A 
ATOM     12  C   UNL A   1      31.764  25.572  22.258  1.00  0.00     0.138 A 
ATOM     13  C   UNL A   1      32.579  24.658  21.586  1.00  0.00     0.040 A 
ATOM     14  F   UNL A   1      31.876  26.857  21.893  1.00  0.00    -0.206 F 
BRANCH   9  15
ATOM     15  N   UNL A   1      30.824  23.629  25.215  1.00  0.00    -0.321 N 
ATOM     16  C   UNL A   1      31.613  23.207  26.276  1.00  0.00     0.258 C 
ATOM     17  O   UNL A   1      31.082  22.863  27.330  1.00  0.00    -0.269 OA
ATOM     18  H   UNL A   1      29.865  23.740  25.412  1.00  0.00     0.170 HD
BRANCH  16  19
ATOM     19  C   UNL A   1      33.104  23.294  26.212  1.00  0.00     0.075 A 
ATOM     20  C   UNL A   1      37.416  23.464  25.908  1.00  0.00     0.044 C 
ATOM     21  C   UNL A   1      35.923  23.406  26.029  1.00  0.00    -0.048 A 
ATOM     22  C   UNL A   1      35.161  24.571  25.918  1.00  0.00     0.004 A 
ATOM     23  C   UNL A   1      35.272  22.202  26.318  1.00  0.00     0.043 A 
ATOM     24  C   UNL A   1      33.770  24.519  26.048  1.00  0.00     0.017 A 
ATOM     25  C   UNL A   1      33.876  22.148  26.395  1.00  0.00     0.136 A 
ATOM     26  F   UNL A   1      33.310  20.956  26.631  1.00  0.00    -0.206 F 
ENDBRANCH  16  19
ENDBRANCH   9  15
ENDBRANCH   5   8
ENDBRANCH   3   4
ENDBRANCH   2   3
ENDBRANCH   1   2
BRANCH   1  27
ATOM     27  C   UNL A   1      33.513  28.630  27.344  1.00  0.00     0.116 C 
BRANCH  27  28
ATOM     28  N   UNL A   1      33.588  30.049  27.655  1.00  0.00    -0.352 N 
ATOM     29  C   UNL A   1      34.642  30.798  28.136  1.00  0.00     0.251 C 
ATOM     30  H   UNL A   1      32.758  30.553  27.497  1.00  0.00     0.163 HD
ATOM     31  O   UNL A   1      34.480  31.977  28.404  1.00  0.00    -0.269 OA
BRANCH  29  32
ATOM     32  C   UNL A   1      35.957  30.154  28.371  1.00  0.00     0.039 A 
ATOM     33  C   UNL A   1      36.914  30.193  27.352  1.00  0.00     0.014 A 
ATOM     34  C   UNL A   1      36.258  29.548  29.591  1.00  0.00     0.014 A 
ATOM     35  C   UNL A   1      38.204  29.713  27.595  1.00  0.00     0.010 A 
ATOM     36  C   UNL A   1      37.563  29.141  29.856  1.00  0.00     0.010 A 
ATOM     37  C   UNL A   1      38.555  29.233  28.867  1.00  0.00    -0.014 A 
BRANCH  37  38
ATOM     38  C   UNL A   1      39.951  28.841  29.196  1.00  0.00     0.031 A 
ATOM     39  C   UNL A   1      40.893  29.844  29.805  1.00  0.00     0.074 A 
ATOM     40  C   UNL A   1      40.398  27.614  28.856  1.00  0.00     0.049 A 
ATOM     41  N   UNL A   1      42.174  29.730  30.047  1.00  0.00    -0.248 NA
ATOM     42  C   UNL A   1      40.330  31.157  30.160  1.00  0.00     0.031 C 
ATOM     43  C   UNL A   1      39.603  26.564  28.213  1.00  0.00     0.029 A 
ATOM     44  N   UNL A   1      41.643  27.047  28.988  1.00  0.00    -0.354 N 
ATOM     45  C   UNL A   1      42.574  30.962  30.551  1.00  0.00     0.074 A 
ATOM     46  C   UNL A   1      41.410  31.820  30.549  1.00  0.00     0.031 C 
ATOM     47  C   UNL A   1      40.373  25.481  28.020  1.00  0.00     0.029 A 
ATOM     48  C   UNL A   1      41.726  25.768  28.485  1.00  0.00     0.049 A 
ATOM     49  H   UNL A   1      42.405  27.512  29.403  1.00  0.00     0.167 HD
ATOM     50  C   UNL A   1      43.799  31.341  30.988  1.00  0.00     0.031 A 
ATOM     51  C   UNL A   1      42.774  24.927  28.394  1.00  0.00     0.031 A 
ATOM     52  C   UNL A   1      44.947  30.477  31.026  1.00  0.00     0.049 A 
ATOM     53  C   UNL A   1      44.117  25.365  28.914  1.00  0.00     0.074 A 
ATOM     54  C   UNL A   1      46.210  30.748  31.524  1.00  0.00     0.029 A 
ATOM     55  N   UNL A   1      44.974  29.175  30.555  1.00  0.00    -0.354 N 
ATOM     56  N   UNL A   1      44.456  26.511  29.453  1.00  0.00    -0.248 NA
ATOM     57  C   UNL A   1      45.216  24.392  28.824  1.00  0.00     0.031 C 
ATOM     58  C   UNL A   1      47.012  29.621  31.319  1.00  0.00     0.029 A 
ATOM     59  C   UNL A   1      46.235  28.634  30.737  1.00  0.00     0.049 A 
ATOM     60  H   UNL A   1      44.210  28.703  30.150  1.00  0.00     0.167 HD
ATOM     61  C   UNL A   1      45.799  26.386  29.792  1.00  0.00     0.074 A 
ATOM     62  C   UNL A   1      46.207  25.050  29.409  1.00  0.00     0.031 C 
ATOM     63  C   UNL A   1      46.621  27.296  30.367  1.00  0.00     0.031 A 
BRANCH  50  64
ATOM     64  C   UNL A   1      43.964  32.756  31.472  1.00  0.00    -0.014 A 
ATOM     65  C   UNL A   1      43.817  33.077  32.833  1.00  0.00     0.010 A 
ATOM     66  C   UNL A   1      44.341  33.764  30.566  1.00  0.00     0.010 A 
ATOM     67  C   UNL A   1      44.018  34.387  33.276  1.00  0.00     0.020 A 
ATOM     68  C   UNL A   1      44.568  35.070  31.009  1.00  0.00     0.020 A 
ATOM     69  C   UNL A   1      44.392  35.376  32.360  1.00  0.00     0.054 A 
BRANCH  69  70
ATOM     70  S   UNL A   1      44.696  37.056  32.971  1.00  0.00     0.124 S 
ATOM     71  O   UNL A   1      45.338  36.796  34.258  1.00  0.00    -0.237 OA
ATOM     72  O   UNL A   1      45.564  37.621  31.941  1.00  0.00    -0.237 OA
ATOM     73  O   UNL A   1      43.361  37.645  33.048  1.00  0.00    -0.744 OA
ENDBRANCH  69  70
ENDBRANCH  50  64
BRANCH  51  74
ATOM     74  C   UNL A   1      42.604  23.578  27.788  1.00  0.00    -0.014 A 
ATOM     75  C   UNL A   1      42.168  22.493  28.568  1.00  0.00     0.010 A 
ATOM     76  C   UNL A   1      42.899  23.366  26.428  1.00  0.00     0.010 A 
ATOM     77  C   UNL A   1      42.061  21.215  28.011  1.00  0.00     0.020 A 
ATOM     78  C   UNL A   1      42.768  22.095  25.860  1.00  0.00     0.020 A 
ATOM     79  C   UNL A   1      42.368  21.024  26.661  1.00  0.00     0.054 A 
BRANCH  79  80
ATOM     80  S   UNL A   1      42.201  19.363  25.949  1.00  0.00     0.124 S 
ATOM     81  O   UNL A   1      40.764  19.282  25.705  1.00  0.00    -0.237 OA
ATOM     82  O   UNL A   1      43.042  19.440  24.757  1.00  0.00    -0.237 OA
ATOM     83  O   UNL A   1      42.709  18.489  27.004  1.00  0.00    -0.744 OA
ENDBRANCH  79  80
ENDBRANCH  51  74
BRANCH  63  84
ATOM     84  C   UNL A   1      48.031  26.870  30.666  1.00  0.00    -0.014 A 
ATOM     85  C   UNL A   1      49.092  27.212  29.810  1.00  0.00     0.010 A 
ATOM     86  C   UNL A   1      48.306  26.177  31.860  1.00  0.00     0.010 A 
ATOM     87  C   UNL A   1      50.402  26.848  30.131  1.00  0.00     0.020 A 
ATOM     88  C   UNL A   1      49.617  25.833  32.196  1.00  0.00     0.020 A 
ATOM     89  C   UNL A   1      50.655  26.161  31.323  1.00  0.00     0.054 A 
BRANCH  89  90
ATOM     90  S   UNL A   1      52.371  25.750  31.748  1.00  0.00     0.124 S 
ATOM     91  O   UNL A   1      52.667  26.728  32.792  1.00  0.00    -0.237 OA
ATOM     92  O   UNL A   1      52.270  24.364  32.196  1.00  0.00    -0.237 OA
ATOM     93  O   UNL A   1      53.094  25.941  30.492  1.00  0.00    -0.744 OA
ENDBRANCH  89  90
ENDBRANCH  63  84
ENDBRANCH  37  38
ENDBRANCH  29  32
ENDBRANCH  27  28
ENDBRANCH   1  27
TORSDOF 16
ENDMDL
MODEL 3
REMARK VINA RESULT:     -11.7      4.609     10.338
REMARK SMILES Cc1ccc(C(=O)Nc2cccc(F)c2C(=O)NCCCCNC(=O)c2ccc(-c3c4nc(c(-c5ccc(S(=O)(=O)[O-])cc5)c5ccc([nH]5)c(-c5ccc(S(=O)(=O)[O-])cc5)c5nc(c(-c6ccc(S(=O)(=O)[O-])cc6)c6ccc3[nH]6)C=C5)C=C4)cc2)c(F)c1
REMARK SMILES IDX 21 1 20 2 19 3 18 4 16 5 17 6 15 8 9 9 10 10 11 11 13 12
REMARK SMILES IDX 12 13 14 14 8 15 6 16 7 17 5 19 1 20 2 21 3 22 88 23 4 24
REMARK SMILES IDX 86 25 87 26 22 27 23 28 24 29 25 31 26 32 27 33 85 34 28 35
REMARK SMILES IDX 84 36 29 37 30 38 31 39 78 40 32 41 83 42 77 43 79 44 33 45
REMARK SMILES IDX 82 46 76 47 75 48 34 50 64 51 45 52 63 53 46 54 49 55 62 56
REMARK SMILES IDX 80 57 47 58 48 59 61 61 81 62 50 63 35 64 36 65 44 66 37 67
REMARK SMILES IDX 43 68 38 69 39 70 40 71 41 72 42 73 65 74 66 75 74 76 67 77
REMARK SMILES IDX 73 78 68 79 69 80 70 81 71 82 72 83 51 84 52 85 60 86 53 87
REMARK SMILES IDX 59 88 54 89 55 90 56 91 57 92 58 93
REMARK H PARENT 18 7 8 18 23 30 79 49 49 60
REMARK Flexibility Score: inf
ROOT
ATOM      1  C   UNL A   1      37.430  23.702  25.399  1.00  0.00     0.023 C 
ENDROOT
BRANCH   1   2
ATOM      2  C   UNL A   1      35.951  23.716  25.764  1.00  0.00     0.023 C 
BRANCH   2   3
ATOM      3  C   UNL A   1      35.405  22.491  26.489  1.00  0.00     0.116 C 
BRANCH   3   4
ATOM      4  N   UNL A   1      34.167  22.714  27.212  1.00  0.00    -0.352 N 
ATOM      5  C   UNL A   1      32.849  22.604  26.833  1.00  0.00     0.256 C 
ATOM      6  O   UNL A   1      32.003  22.836  27.700  1.00  0.00    -0.269 OA
ATOM      7  H   UNL A   1      34.293  22.997  28.147  1.00  0.00     0.163 HD
BRANCH   5   8
ATOM      8  C   UNL A   1      32.402  22.324  25.437  1.00  0.00     0.099 A 
ATOM      9  C   UNL A   1      31.430  23.143  24.819  1.00  0.00     0.057 A 
ATOM     10  C   UNL A   1      31.170  23.020  23.443  1.00  0.00     0.027 A 
ATOM     11  C   UNL A   1      31.741  21.986  22.708  1.00  0.00     0.005 A 
ATOM     12  C   UNL A   1      32.807  21.197  24.721  1.00  0.00     0.138 A 
ATOM     13  C   UNL A   1      32.510  21.036  23.367  1.00  0.00     0.040 A 
ATOM     14  F   UNL A   1      33.413  20.166  25.329  1.00  0.00    -0.206 F 
BRANCH   9  15
ATOM     15  N   UNL A   1      30.614  23.995  25.594  1.00  0.00    -0.321 N 
ATOM     16  C   UNL A   1      30.726  25.367  25.775  1.00  0.00     0.258 C 
ATOM     17  O   UNL A   1      30.010  25.931  26.601  1.00  0.00    -0.269 OA
ATOM     18  H   UNL A   1      29.868  23.560  26.067  1.00  0.00     0.170 HD
BRANCH  16  19
ATOM     19  C   UNL A   1      31.600  26.194  24.890  1.00  0.00     0.075 A 
ATOM     20  C   UNL A   1      34.209  28.472  22.296  1.00  0.00     0.044 C 
ATOM     21  C   UNL A   1      33.303  27.696  23.204  1.00  0.00    -0.048 A 
ATOM     22  C   UNL A   1      31.945  27.570  22.905  1.00  0.00     0.004 A 
ATOM     23  C   UNL A   1      33.783  27.140  24.395  1.00  0.00     0.043 A 
ATOM     24  C   UNL A   1      31.097  26.860  23.761  1.00  0.00     0.017 A 
ATOM     25  C   UNL A   1      32.941  26.387  25.220  1.00  0.00     0.136 A 
ATOM     26  F   UNL A   1      33.472  25.844  26.324  1.00  0.00    -0.206 F 
ENDBRANCH  16  19
ENDBRANCH   9  15
ENDBRANCH   5   8
ENDBRANCH   3   4
ENDBRANCH   2   3
ENDBRANCH   1   2
BRANCH   1  27
ATOM     27  C   UNL A   1      38.417  23.872  26.549  1.00  0.00     0.116 C 
BRANCH  27  28
ATOM     28  N   UNL A   1      39.812  23.842  26.140  1.00  0.00    -0.352 N 
ATOM     29  C   UNL A   1      40.850  24.692  26.462  1.00  0.00     0.251 C 
ATOM     30  H   UNL A   1      40.053  23.101  25.539  1.00  0.00     0.163 HD
ATOM     31  O   UNL A   1      41.946  24.536  25.951  1.00  0.00    -0.269 OA
BRANCH  29  32
ATOM     32  C   UNL A   1      40.616  25.820  27.395  1.00  0.00     0.039 A 
ATOM     33  C   UNL A   1      39.673  25.664  28.415  1.00  0.00     0.014 A 
ATOM     34  C   UNL A   1      41.340  27.009  27.288  1.00  0.00     0.014 A 
ATOM     35  C   UNL A   1      39.531  26.659  29.386  1.00  0.00     0.010 A 
ATOM     36  C   UNL A   1      41.252  27.963  28.297  1.00  0.00     0.010 A 
ATOM     37  C   UNL A   1      40.357  27.794  29.366  1.00  0.00    -0.014 A 
BRANCH  37  38
ATOM     38  C   UNL A   1      40.323  28.804  30.456  1.00  0.00     0.031 A 
ATOM     39  C   UNL A   1      41.215  28.647  31.659  1.00  0.00     0.074 A 
ATOM     40  C   UNL A   1      39.422  29.807  30.410  1.00  0.00     0.049 A 
ATOM     41  N   UNL A   1      41.241  29.350  32.761  1.00  0.00    -0.248 NA
ATOM     42  C   UNL A   1      42.181  27.536  31.631  1.00  0.00     0.031 C 
ATOM     43  C   UNL A   1      38.464  30.043  29.326  1.00  0.00     0.029 A 
ATOM     44  N   UNL A   1      39.150  30.808  31.311  1.00  0.00    -0.354 N 
ATOM     45  C   UNL A   1      42.200  28.750  33.569  1.00  0.00     0.074 A 
ATOM     46  C   UNL A   1      42.709  27.606  32.845  1.00  0.00     0.031 C 
ATOM     47  C   UNL A   1      37.722  31.124  29.619  1.00  0.00     0.029 A 
ATOM     48  C   UNL A   1      38.120  31.636  30.926  1.00  0.00     0.049 A 
ATOM     49  H   UNL A   1      39.647  30.923  32.154  1.00  0.00     0.167 HD
ATOM     50  C   UNL A   1      42.628  29.126  34.798  1.00  0.00     0.031 A 
ATOM     51  C   UNL A   1      37.548  32.678  31.559  1.00  0.00     0.031 A 
ATOM     52  C   UNL A   1      42.150  30.284  35.502  1.00  0.00     0.049 A 
ATOM     53  C   UNL A   1      38.063  33.091  32.913  1.00  0.00     0.074 A 
ATOM     54  C   UNL A   1      42.579  30.788  36.717  1.00  0.00     0.029 A 
ATOM     55  N   UNL A   1      41.143  31.123  35.054  1.00  0.00    -0.354 N 
ATOM     56  N   UNL A   1      39.021  32.551  33.627  1.00  0.00    -0.248 NA
ATOM     57  C   UNL A   1      37.428  34.259  33.539  1.00  0.00     0.031 C 
ATOM     58  C   UNL A   1      41.805  31.912  37.023  1.00  0.00     0.029 A 
ATOM     59  C   UNL A   1      40.926  32.133  35.975  1.00  0.00     0.049 A 
ATOM     60  H   UNL A   1      40.653  31.017  34.206  1.00  0.00     0.167 HD
ATOM     61  C   UNL A   1      39.122  33.331  34.773  1.00  0.00     0.074 A 
ATOM     62  C   UNL A   1      38.138  34.386  34.652  1.00  0.00     0.031 C 
ATOM     63  C   UNL A   1      39.955  33.186  35.832  1.00  0.00     0.031 A 
BRANCH  50  64
ATOM     64  C   UNL A   1      43.678  28.278  35.465  1.00  0.00    -0.014 A 
ATOM     65  C   UNL A   1      45.046  28.511  35.242  1.00  0.00     0.010 A 
ATOM     66  C   UNL A   1      43.292  27.283  36.382  1.00  0.00     0.010 A 
ATOM     67  C   UNL A   1      46.011  27.745  35.903  1.00  0.00     0.020 A 
ATOM     68  C   UNL A   1      44.253  26.532  37.064  1.00  0.00     0.020 A 
ATOM     69  C   UNL A   1      45.607  26.761  36.810  1.00  0.00     0.054 A 
BRANCH  69  70
ATOM     70  S   UNL A   1      46.881  25.818  37.692  1.00  0.00     0.124 S 
ATOM     71  O   UNL A   1      46.075  24.967  38.564  1.00  0.00    -0.237 OA
ATOM     72  O   UNL A   1      47.576  25.126  36.609  1.00  0.00    -0.237 OA
ATOM     73  O   UNL A   1      47.664  26.845  38.374  1.00  0.00    -0.744 OA
ENDBRANCH  69  70
ENDBRANCH  50  64
BRANCH  51  74
ATOM     74  C   UNL A   1      36.421  33.416  30.925  1.00  0.00    -0.014 A 
ATOM     75  C   UNL A   1      36.601  34.081  29.700  1.00  0.00     0.010 A 
ATOM     76  C   UNL A   1      35.165  33.475  31.557  1.00  0.00     0.010 A 
ATOM     77  C   UNL A   1      35.558  34.818  29.132  1.00  0.00     0.020 A 
ATOM     78  C   UNL A   1      34.111  34.190  30.980  1.00  0.00     0.020 A 
ATOM     79  C   UNL A   1      34.321  34.872  29.780  1.00  0.00     0.054 A 
BRANCH  79  80
ATOM     80  S   UNL A   1      32.971  35.816  29.017  1.00  0.00     0.124 S 
ATOM     81  O   UNL A   1      32.199  36.234  30.183  1.00  0.00    -0.237 OA
ATOM     82  O   UNL A   1      33.683  36.881  28.313  1.00  0.00    -0.237 OA
ATOM     83  O   UNL A   1      32.319  34.836  28.151  1.00  0.00    -0.744 OA
ENDBRANCH  79  80
ENDBRANCH  51  74
BRANCH  63  84
ATOM     84  C   UNL A   1      39.877  34.216  36.925  1.00  0.00    -0.014 A 
ATOM     85  C   UNL A   1      40.467  35.483  36.776  1.00  0.00     0.010 A 
ATOM     86  C   UNL A   1      39.141  33.932  38.090  1.00  0.00     0.010 A 
ATOM     87  C   UNL A   1      40.341  36.441  37.785  1.00  0.00     0.020 A 
ATOM     88  C   UNL A   1      38.993  34.896  39.090  1.00  0.00     0.020 A 
ATOM     89  C   UNL A   1      39.604  36.141  38.935  1.00  0.00     0.054 A 
BRANCH  89  90
ATOM     90  S   UNL A   1      39.405  37.421  40.206  1.00  0.00     0.124 S 
ATOM     91  O   UNL A   1      40.791  37.782  40.492  1.00  0.00    -0.237 OA
ATOM     92  O   UNL A   1      38.619  38.441  39.517  1.00  0.00    -0.237 OA
ATOM     93  O   UNL A   1      38.706  36.730  41.287  1.00  0.00    -0.744 OA
ENDBRANCH  89  90
ENDBRANCH  63  84
ENDBRANCH  37  38
ENDBRANCH  29  32
ENDBRANCH  27  28
ENDBRANCH   1  27
TORSDOF 16
ENDMDL
