MODEL 1
REMARK VINA RESULT:     -11.7      0.000      0.000
REMARK SMILES CCN(Cc1cn(CC)nc1C)C(=O)c1ccn([C@@H](C)C(=O)NCCCCNC(=O)c2ccc(-c3c4nc(c(-c5ccc(S(=O)(=O)[O-])cc5)c5ccc([nH]5)c(-c5ccc(S(=O)(=O)[O-])cc5)c5nc(c(-c6ccc(S(=O)(=O)[O-])cc6)c6ccc3[nH]6)C=C5)C=C4)cc2)n1
REMARK SMILES IDX 24 1 23 2 21 3 22 4 19 6 20 7 18 8 15 9 16 10 91 11 17 12
REMARK SMILES IDX 13 13 14 14 3 15 2 16 1 17 4 18 5 19 6 20 11 21 7 22 10 23
REMARK SMILES IDX 12 24 8 25 9 26 25 27 26 28 27 29 28 30 29 31 30 33 31 34
REMARK SMILES IDX 32 35 90 36 33 37 89 38 34 39 35 40 36 41 83 42 37 43 88 44
REMARK SMILES IDX 82 45 84 46 38 47 87 48 81 49 80 50 39 52 69 53 50 54 68 55
REMARK SMILES IDX 51 56 54 57 67 58 85 59 52 60 53 61 66 63 86 64 55 65 40 66
REMARK SMILES IDX 41 67 49 68 42 69 48 70 43 71 44 72 45 73 46 74 47 75 70 76
REMARK SMILES IDX 71 77 79 78 72 79 78 80 73 81 74 82 75 83 76 84 77 85 56 86
REMARK SMILES IDX 57 87 65 88 58 89 64 90 59 91 60 92 61 93 62 94 63 95
REMARK H PARENT 23 5 28 32 84 51 54 62
REMARK Flexibility Score: inf
ROOT
ATOM      1  C   UNL A   1      35.266  20.490  24.911  1.00  0.00     0.116 C 
ENDROOT
BRANCH   1   2
ATOM      2  N   UNL A   1      34.332  19.507  25.439  1.00  0.00    -0.354 N 
ATOM      3  C   UNL A   1      33.048  19.148  25.144  1.00  0.00     0.244 C 
ATOM      4  O   UNL A   1      32.577  18.266  25.876  1.00  0.00    -0.273 OA
ATOM      5  H   UNL A   1      34.713  18.979  26.178  1.00  0.00     0.163 HD
BRANCH   3   6
ATOM      6  C   UNL A   1      32.191  19.705  23.991  1.00  0.00     0.193 C 
ATOM      7  C   UNL A   1      32.458  19.047  22.644  1.00  0.00     0.044 C 
BRANCH   6   8
ATOM      8  N   UNL A   1      32.208  21.160  23.948  1.00  0.00    -0.260 N 
ATOM      9  C   UNL A   1      32.590  23.123  24.669  1.00  0.00     0.150 A 
ATOM     10  C   UNL A   1      33.073  23.009  23.352  1.00  0.00     0.056 A 
ATOM     11  N   UNL A   1      32.084  21.930  25.061  1.00  0.00    -0.167 NA
ATOM     12  C   UNL A   1      32.412  21.926  22.846  1.00  0.00     0.110 A 
BRANCH   9  13
ATOM     13  C   UNL A   1      32.612  24.338  25.504  1.00  0.00     0.274 C 
ATOM     14  O   UNL A   1      33.257  24.381  26.553  1.00  0.00    -0.267 OA
BRANCH  13  15
ATOM     15  N   UNL A   1      31.860  25.456  25.062  1.00  0.00    -0.333 N 
BRANCH  15  16
ATOM     16  C   UNL A   1      32.398  26.781  25.354  1.00  0.00     0.117 C 
ATOM     17  C   UNL A   1      33.738  27.022  24.668  1.00  0.00     0.027 C 
ENDBRANCH  15  16
BRANCH  15  18
ATOM     18  C   UNL A   1      30.493  25.399  24.515  1.00  0.00     0.159 C 
BRANCH  18  19
ATOM     19  C   UNL A   1      30.178  26.577  23.635  1.00  0.00     0.012 A 
ATOM     20  C   UNL A   1      29.378  27.680  23.893  1.00  0.00     0.114 A 
ATOM     21  C   UNL A   1      30.782  26.886  22.373  1.00  0.00     0.064 A 
ATOM     22  N   UNL A   1      29.650  28.595  22.912  1.00  0.00    -0.272 N 
ATOM     23  N   UNL A   1      30.432  28.102  21.938  1.00  0.00    -0.178 NA
ATOM     24  C   UNL A   1      31.793  26.118  21.602  1.00  0.00     0.069 C 
BRANCH  22  25
ATOM     25  C   UNL A   1      29.300  30.005  22.904  1.00  0.00     0.141 C 
ATOM     26  C   UNL A   1      29.071  30.555  21.502  1.00  0.00     0.029 C 
ENDBRANCH  22  25
ENDBRANCH  18  19
ENDBRANCH  15  18
ENDBRANCH  13  15
ENDBRANCH   9  13
ENDBRANCH   6   8
ENDBRANCH   3   6
ENDBRANCH   1   2
BRANCH   1  27
ATOM     27  C   UNL A   1      35.720  21.502  25.978  1.00  0.00     0.023 C 
BRANCH  27  28
ATOM     28  C   UNL A   1      36.264  22.837  25.460  1.00  0.00     0.023 C 
BRANCH  28  29
ATOM     29  C   UNL A   1      37.780  22.911  25.362  1.00  0.00     0.116 C 
BRANCH  29  30
ATOM     30  N   UNL A   1      38.461  22.002  26.279  1.00  0.00    -0.352 N 
ATOM     31  C   UNL A   1      39.597  22.269  27.013  1.00  0.00     0.251 C 
ATOM     32  H   UNL A   1      38.068  21.105  26.386  1.00  0.00     0.163 HD
ATOM     33  O   UNL A   1      40.320  21.348  27.404  1.00  0.00    -0.269 OA
BRANCH  31  34
ATOM     34  C   UNL A   1      39.934  23.668  27.328  1.00  0.00     0.039 A 
ATOM     35  C   UNL A   1      38.998  24.690  27.156  1.00  0.00     0.014 A 
ATOM     36  C   UNL A   1      41.208  23.947  27.830  1.00  0.00     0.014 A 
ATOM     37  C   UNL A   1      39.320  25.976  27.586  1.00  0.00     0.010 A 
ATOM     38  C   UNL A   1      41.493  25.197  28.337  1.00  0.00     0.010 A 
ATOM     39  C   UNL A   1      40.558  26.220  28.208  1.00  0.00    -0.014 A 
BRANCH  39  40
ATOM     40  C   UNL A   1      40.780  27.477  28.931  1.00  0.00     0.031 A 
ATOM     41  C   UNL A   1      41.906  28.272  28.364  1.00  0.00     0.074 A 
ATOM     42  C   UNL A   1      39.942  27.987  29.863  1.00  0.00     0.049 A 
ATOM     43  N   UNL A   1      43.084  28.430  28.871  1.00  0.00    -0.248 NA
ATOM     44  C   UNL A   1      41.789  28.780  26.984  1.00  0.00     0.031 C 
ATOM     45  C   UNL A   1      38.646  27.444  30.287  1.00  0.00     0.029 A 
ATOM     46  N   UNL A   1      40.012  29.157  30.564  1.00  0.00    -0.354 N 
ATOM     47  C   UNL A   1      43.753  29.295  28.010  1.00  0.00     0.074 A 
ATOM     48  C   UNL A   1      43.010  29.285  26.779  1.00  0.00     0.031 C 
ATOM     49  C   UNL A   1      37.960  28.380  30.982  1.00  0.00     0.029 A 
ATOM     50  C   UNL A   1      38.823  29.528  31.201  1.00  0.00     0.049 A 
ATOM     51  H   UNL A   1      40.834  29.698  30.618  1.00  0.00     0.167 HD
ATOM     52  C   UNL A   1      44.664  30.186  28.496  1.00  0.00     0.031 A 
ATOM     53  C   UNL A   1      38.565  30.686  31.864  1.00  0.00     0.031 A 
ATOM     54  C   UNL A   1      44.980  29.886  29.869  1.00  0.00     0.049 A 
ATOM     55  C   UNL A   1      39.871  31.254  32.253  1.00  0.00     0.074 A 
ATOM     56  C   UNL A   1      45.639  28.888  30.551  1.00  0.00     0.029 A 
ATOM     57  N   UNL A   1      44.176  30.542  30.768  1.00  0.00    -0.354 N 
ATOM     58  N   UNL A   1      40.657  30.691  33.126  1.00  0.00    -0.248 NA
ATOM     59  C   UNL A   1      40.493  32.264  31.409  1.00  0.00     0.031 C 
ATOM     60  C   UNL A   1      45.000  28.808  31.824  1.00  0.00     0.029 A 
ATOM     61  C   UNL A   1      44.029  29.807  31.909  1.00  0.00     0.049 A 
ATOM     62  H   UNL A   1      43.762  31.421  30.611  1.00  0.00     0.167 HD
ATOM     63  C   UNL A   1      41.927  30.928  32.641  1.00  0.00     0.074 A 
ATOM     64  C   UNL A   1      41.776  32.033  31.699  1.00  0.00     0.031 C 
ATOM     65  C   UNL A   1      42.915  30.002  32.812  1.00  0.00     0.031 A 
BRANCH  52  66
ATOM     66  C   UNL A   1      44.850  31.599  27.966  1.00  0.00    -0.014 A 
ATOM     67  C   UNL A   1      46.129  32.191  28.084  1.00  0.00     0.010 A 
ATOM     68  C   UNL A   1      43.784  32.462  27.645  1.00  0.00     0.010 A 
ATOM     69  C   UNL A   1      46.314  33.575  27.965  1.00  0.00     0.020 A 
ATOM     70  C   UNL A   1      43.963  33.841  27.489  1.00  0.00     0.020 A 
ATOM     71  C   UNL A   1      45.222  34.392  27.678  1.00  0.00     0.054 A 
BRANCH  71  72
ATOM     72  S   UNL A   1      45.455  36.185  27.592  1.00  0.00     0.124 S 
ATOM     73  O   UNL A   1      46.266  36.328  26.388  1.00  0.00    -0.237 OA
ATOM     74  O   UNL A   1      44.081  36.668  27.495  1.00  0.00    -0.237 OA
ATOM     75  O   UNL A   1      46.134  36.500  28.847  1.00  0.00    -0.744 OA
ENDBRANCH  71  72
ENDBRANCH  52  66
BRANCH  53  76
ATOM     76  C   UNL A   1      37.307  31.454  32.059  1.00  0.00    -0.014 A 
ATOM     77  C   UNL A   1      37.104  32.235  33.218  1.00  0.00     0.010 A 
ATOM     78  C   UNL A   1      36.451  31.682  30.965  1.00  0.00     0.010 A 
ATOM     79  C   UNL A   1      36.142  33.262  33.250  1.00  0.00     0.020 A 
ATOM     80  C   UNL A   1      35.488  32.704  30.991  1.00  0.00     0.020 A 
ATOM     81  C   UNL A   1      35.358  33.509  32.122  1.00  0.00     0.054 A 
BRANCH  81  82
ATOM     82  S   UNL A   1      34.269  34.969  32.090  1.00  0.00     0.124 S 
ATOM     83  O   UNL A   1      35.016  35.934  32.891  1.00  0.00    -0.237 OA
ATOM     84  O   UNL A   1      34.177  35.268  30.664  1.00  0.00    -0.237 OA
ATOM     85  O   UNL A   1      33.030  34.486  32.698  1.00  0.00    -0.744 OA
ENDBRANCH  81  82
ENDBRANCH  53  76
BRANCH  65  86
ATOM     86  C   UNL A   1      42.774  29.027  33.949  1.00  0.00    -0.014 A 
ATOM     87  C   UNL A   1      43.197  29.258  35.271  1.00  0.00     0.010 A 
ATOM     88  C   UNL A   1      42.085  27.838  33.658  1.00  0.00     0.010 A 
ATOM     89  C   UNL A   1      42.955  28.301  36.269  1.00  0.00     0.020 A 
ATOM     90  C   UNL A   1      41.822  26.896  34.647  1.00  0.00     0.020 A 
ATOM     91  C   UNL A   1      42.269  27.125  35.947  1.00  0.00     0.054 A 
BRANCH  91  92
ATOM     92  S   UNL A   1      41.934  25.894  37.237  1.00  0.00     0.124 S 
ATOM     93  O   UNL A   1      42.883  26.265  38.282  1.00  0.00    -0.237 OA
ATOM     94  O   UNL A   1      40.527  26.127  37.550  1.00  0.00    -0.237 OA
ATOM     95  O   UNL A   1      42.209  24.617  36.579  1.00  0.00    -0.744 OA
ENDBRANCH  91  92
ENDBRANCH  65  86
ENDBRANCH  39  40
ENDBRANCH  31  34
ENDBRANCH  29  30
ENDBRANCH  28  29
ENDBRANCH  27  28
ENDBRANCH   1  27
TORSDOF 21
ENDMDL
MODEL 2
REMARK VINA RESULT:     -11.5      1.532      2.698
REMARK SMILES CCN(Cc1cn(CC)nc1C)C(=O)c1ccn([C@@H](C)C(=O)NCCCCNC(=O)c2ccc(-c3c4nc(c(-c5ccc(S(=O)(=O)[O-])cc5)c5ccc([nH]5)c(-c5ccc(S(=O)(=O)[O-])cc5)c5nc(c(-c6ccc(S(=O)(=O)[O-])cc6)c6ccc3[nH]6)C=C5)C=C4)cc2)n1
REMARK SMILES IDX 24 1 23 2 21 3 22 4 19 6 20 7 18 8 15 9 16 10 91 11 17 12
REMARK SMILES IDX 13 13 14 14 3 15 2 16 1 17 4 18 5 19 6 20 11 21 7 22 10 23
REMARK SMILES IDX 12 24 8 25 9 26 25 27 26 28 27 29 28 30 29 31 30 33 31 34
REMARK SMILES IDX 32 35 90 36 33 37 89 38 34 39 35 40 36 41 83 42 37 43 88 44
REMARK SMILES IDX 82 45 84 46 38 47 87 48 81 49 80 50 39 52 69 53 50 54 68 55
REMARK SMILES IDX 51 56 54 57 67 58 85 59 52 60 53 61 66 63 86 64 55 65 40 66
REMARK SMILES IDX 41 67 49 68 42 69 48 70 43 71 44 72 45 73 46 74 47 75 70 76
REMARK SMILES IDX 71 77 79 78 72 79 78 80 73 81 74 82 75 83 76 84 77 85 56 86
REMARK SMILES IDX 57 87 65 88 58 89 64 90 59 91 60 92 61 93 62 94 63 95
REMARK H PARENT 23 5 28 32 84 51 54 62
REMARK Flexibility Score: inf
ROOT
ATOM      1  C   UNL A   1      35.602  20.442  24.922  1.00  0.00     0.116 C 
ENDROOT
BRANCH   1   2
ATOM      2  N   UNL A   1      35.098  21.020  26.159  1.00  0.00    -0.354 N 
ATOM      3  C   UNL A   1      33.997  21.754  26.496  1.00  0.00     0.244 C 
ATOM      4  O   UNL A   1      33.951  22.101  27.685  1.00  0.00    -0.273 OA
ATOM      5  H   UNL A   1      35.685  20.841  26.929  1.00  0.00     0.163 HD
BRANCH   3   6
ATOM      6  C   UNL A   1      32.835  22.131  25.558  1.00  0.00     0.193 C 
ATOM      7  C   UNL A   1      33.246  22.324  24.104  1.00  0.00     0.044 C 
BRANCH   6   8
ATOM      8  N   UNL A   1      32.033  23.224  26.091  1.00  0.00    -0.260 N 
ATOM      9  C   UNL A   1      31.316  25.221  26.233  1.00  0.00     0.150 A 
ATOM     10  C   UNL A   1      30.224  24.334  26.219  1.00  0.00     0.056 A 
ATOM     11  N   UNL A   1      32.463  24.513  26.103  1.00  0.00    -0.167 NA
ATOM     12  C   UNL A   1      30.766  23.130  26.568  1.00  0.00     0.110 A 
BRANCH   9  13
ATOM     13  C   UNL A   1      31.248  26.686  26.376  1.00  0.00     0.274 C 
ATOM     14  O   UNL A   1      30.922  27.210  27.442  1.00  0.00    -0.267 OA
BRANCH  13  15
ATOM     15  N   UNL A   1      31.565  27.476  25.241  1.00  0.00    -0.333 N 
BRANCH  15  16
ATOM     16  C   UNL A   1      30.588  27.514  24.158  1.00  0.00     0.117 C 
ATOM     17  C   UNL A   1      31.037  26.699  22.950  1.00  0.00     0.027 C 
ENDBRANCH  15  16
BRANCH  15  18
ATOM     18  C   UNL A   1      32.875  28.096  24.977  1.00  0.00     0.159 C 
BRANCH  18  19
ATOM     19  C   UNL A   1      33.396  28.863  26.161  1.00  0.00     0.012 A 
ATOM     20  C   UNL A   1      34.535  28.643  26.921  1.00  0.00     0.114 A 
ATOM     21  C   UNL A   1      32.890  30.105  26.664  1.00  0.00     0.064 A 
ATOM     22  N   UNL A   1      34.721  29.769  27.677  1.00  0.00    -0.272 N 
ATOM     23  N   UNL A   1      33.691  30.628  27.599  1.00  0.00    -0.178 NA
ATOM     24  C   UNL A   1      31.720  30.899  26.204  1.00  0.00     0.069 C 
BRANCH  22  25
ATOM     25  C   UNL A   1      35.919  30.151  28.404  1.00  0.00     0.141 C 
ATOM     26  C   UNL A   1      37.201  29.670  27.737  1.00  0.00     0.029 C 
ENDBRANCH  22  25
ENDBRANCH  18  19
ENDBRANCH  15  18
ENDBRANCH  13  15
ENDBRANCH   9  13
ENDBRANCH   6   8
ENDBRANCH   3   6
ENDBRANCH   1   2
BRANCH   1  27
ATOM     27  C   UNL A   1      36.970  21.019  24.517  1.00  0.00     0.023 C 
BRANCH  27  28
ATOM     28  C   UNL A   1      37.065  22.545  24.430  1.00  0.00     0.023 C 
BRANCH  28  29
ATOM     29  C   UNL A   1      37.754  23.208  25.612  1.00  0.00     0.116 C 
BRANCH  29  30
ATOM     30  N   UNL A   1      38.544  22.277  26.413  1.00  0.00    -0.352 N 
ATOM     31  C   UNL A   1      39.746  22.540  27.035  1.00  0.00     0.251 C 
ATOM     32  H   UNL A   1      38.181  21.369  26.521  1.00  0.00     0.163 HD
ATOM     33  O   UNL A   1      40.523  21.619  27.308  1.00  0.00    -0.269 OA
BRANCH  31  34
ATOM     34  C   UNL A   1      40.089  23.932  27.374  1.00  0.00     0.039 A 
ATOM     35  C   UNL A   1      39.233  24.984  27.043  1.00  0.00     0.014 A 
ATOM     36  C   UNL A   1      41.282  24.173  28.061  1.00  0.00     0.014 A 
ATOM     37  C   UNL A   1      39.539  26.267  27.494  1.00  0.00     0.010 A 
ATOM     38  C   UNL A   1      41.537  25.423  28.585  1.00  0.00     0.010 A 
ATOM     39  C   UNL A   1      40.677  26.478  28.295  1.00  0.00    -0.014 A 
BRANCH  39  40
ATOM     40  C   UNL A   1      40.837  27.742  29.022  1.00  0.00     0.031 A 
ATOM     41  C   UNL A   1      41.913  28.598  28.448  1.00  0.00     0.074 A 
ATOM     42  C   UNL A   1      39.982  28.202  29.963  1.00  0.00     0.049 A 
ATOM     43  N   UNL A   1      43.085  28.818  28.945  1.00  0.00    -0.248 NA
ATOM     44  C   UNL A   1      41.756  29.106  27.071  1.00  0.00     0.031 C 
ATOM     45  C   UNL A   1      38.721  27.588  30.397  1.00  0.00     0.029 A 
ATOM     46  N   UNL A   1      39.995  29.372  30.670  1.00  0.00    -0.354 N 
ATOM     47  C   UNL A   1      43.698  29.722  28.082  1.00  0.00     0.074 A 
ATOM     48  C   UNL A   1      42.945  29.677  26.858  1.00  0.00     0.031 C 
ATOM     49  C   UNL A   1      37.992  28.483  31.103  1.00  0.00     0.029 A 
ATOM     50  C   UNL A   1      38.794  29.675  31.319  1.00  0.00     0.049 A 
ATOM     51  H   UNL A   1      40.787  29.955  30.719  1.00  0.00     0.167 HD
ATOM     52  C   UNL A   1      44.565  30.658  28.564  1.00  0.00     0.031 A 
ATOM     53  C   UNL A   1      38.480  30.815  31.989  1.00  0.00     0.031 A 
ATOM     54  C   UNL A   1      44.909  30.370  29.932  1.00  0.00     0.049 A 
ATOM     55  C   UNL A   1      39.757  31.451  32.369  1.00  0.00     0.074 A 
ATOM     56  C   UNL A   1      45.628  29.407  30.604  1.00  0.00     0.029 A 
ATOM     57  N   UNL A   1      44.080  30.978  30.841  1.00  0.00    -0.354 N 
ATOM     58  N   UNL A   1      40.580  30.928  33.232  1.00  0.00    -0.248 NA
ATOM     59  C   UNL A   1      40.315  32.497  31.524  1.00  0.00     0.031 C 
ATOM     60  C   UNL A   1      45.006  29.288  31.882  1.00  0.00     0.029 A 
ATOM     61  C   UNL A   1      43.983  30.232  31.980  1.00  0.00     0.049 A 
ATOM     62  H   UNL A   1      43.618  31.835  30.692  1.00  0.00     0.167 HD
ATOM     63  C   UNL A   1      41.831  31.235  32.737  1.00  0.00     0.074 A 
ATOM     64  C   UNL A   1      41.611  32.334  31.802  1.00  0.00     0.031 C 
ATOM     65  C   UNL A   1      42.869  30.363  32.895  1.00  0.00     0.031 A 
BRANCH  52  66
ATOM     66  C   UNL A   1      44.669  32.081  28.038  1.00  0.00    -0.014 A 
ATOM     67  C   UNL A   1      45.896  32.491  27.465  1.00  0.00     0.010 A 
ATOM     68  C   UNL A   1      43.748  33.101  28.348  1.00  0.00     0.010 A 
ATOM     69  C   UNL A   1      46.210  33.845  27.288  1.00  0.00     0.020 A 
ATOM     70  C   UNL A   1      44.037  34.454  28.143  1.00  0.00     0.020 A 
ATOM     71  C   UNL A   1      45.278  34.819  27.639  1.00  0.00     0.054 A 
BRANCH  71  72
ATOM     72  S   UNL A   1      45.716  36.567  27.471  1.00  0.00     0.124 S 
ATOM     73  O   UNL A   1      46.197  36.889  28.809  1.00  0.00    -0.237 OA
ATOM     74  O   UNL A   1      46.730  36.529  26.422  1.00  0.00    -0.237 OA
ATOM     75  O   UNL A   1      44.455  37.198  27.088  1.00  0.00    -0.744 OA
ENDBRANCH  71  72
ENDBRANCH  52  66
BRANCH  53  76
ATOM     76  C   UNL A   1      37.183  31.513  32.200  1.00  0.00    -0.014 A 
ATOM     77  C   UNL A   1      36.841  32.045  33.462  1.00  0.00     0.010 A 
ATOM     78  C   UNL A   1      36.434  31.943  31.089  1.00  0.00     0.010 A 
ATOM     79  C   UNL A   1      35.848  33.034  33.595  1.00  0.00     0.020 A 
ATOM     80  C   UNL A   1      35.440  32.927  31.215  1.00  0.00     0.020 A 
ATOM     81  C   UNL A   1      35.172  33.490  32.462  1.00  0.00     0.054 A 
BRANCH  81  82
ATOM     82  S   UNL A   1      34.045  34.914  32.604  1.00  0.00     0.124 S 
ATOM     83  O   UNL A   1      32.795  34.283  33.018  1.00  0.00    -0.237 OA
ATOM     84  O   UNL A   1      34.699  35.741  33.614  1.00  0.00    -0.237 OA
ATOM     85  O   UNL A   1      34.036  35.480  31.256  1.00  0.00    -0.744 OA
ENDBRANCH  81  82
ENDBRANCH  53  76
BRANCH  65  86
ATOM     86  C   UNL A   1      42.791  29.377  34.028  1.00  0.00    -0.014 A 
ATOM     87  C   UNL A   1      43.028  29.680  35.383  1.00  0.00     0.010 A 
ATOM     88  C   UNL A   1      42.364  28.083  33.690  1.00  0.00     0.010 A 
ATOM     89  C   UNL A   1      42.862  28.694  36.367  1.00  0.00     0.020 A 
ATOM     90  C   UNL A   1      42.175  27.107  34.664  1.00  0.00     0.020 A 
ATOM     91  C   UNL A   1      42.438  27.412  35.998  1.00  0.00     0.054 A 
BRANCH  91  92
ATOM     92  S   UNL A   1      42.202  26.139  37.269  1.00  0.00     0.124 S 
ATOM     93  O   UNL A   1      42.512  24.909  36.546  1.00  0.00    -0.237 OA
ATOM     94  O   UNL A   1      43.164  26.527  38.298  1.00  0.00    -0.237 OA
ATOM     95  O   UNL A   1      40.801  26.290  37.657  1.00  0.00    -0.744 OA
ENDBRANCH  91  92
ENDBRANCH  65  86
ENDBRANCH  39  40
ENDBRANCH  31  34
ENDBRANCH  29  30
ENDBRANCH  28  29
ENDBRANCH  27  28
ENDBRANCH   1  27
TORSDOF 21
ENDMDL
MODEL 3
REMARK VINA RESULT:     -10.8      1.617      2.075
REMARK SMILES CCN(Cc1cn(CC)nc1C)C(=O)c1ccn([C@@H](C)C(=O)NCCCCNC(=O)c2ccc(-c3c4nc(c(-c5ccc(S(=O)(=O)[O-])cc5)c5ccc([nH]5)c(-c5ccc(S(=O)(=O)[O-])cc5)c5nc(c(-c6ccc(S(=O)(=O)[O-])cc6)c6ccc3[nH]6)C=C5)C=C4)cc2)n1
REMARK SMILES IDX 24 1 23 2 21 3 22 4 19 6 20 7 18 8 15 9 16 10 91 11 17 12
REMARK SMILES IDX 13 13 14 14 3 15 2 16 1 17 4 18 5 19 6 20 11 21 7 22 10 23
REMARK SMILES IDX 12 24 8 25 9 26 25 27 26 28 27 29 28 30 29 31 30 33 31 34
REMARK SMILES IDX 32 35 90 36 33 37 89 38 34 39 35 40 36 41 83 42 37 43 88 44
REMARK SMILES IDX 82 45 84 46 38 47 87 48 81 49 80 50 39 52 69 53 50 54 68 55
REMARK SMILES IDX 51 56 54 57 67 58 85 59 52 60 53 61 66 63 86 64 55 65 40 66
REMARK SMILES IDX 41 67 49 68 42 69 48 70 43 71 44 72 45 73 46 74 47 75 70 76
REMARK SMILES IDX 71 77 79 78 72 79 78 80 73 81 74 82 75 83 76 84 77 85 56 86
REMARK SMILES IDX 57 87 65 88 58 89 64 90 59 91 60 92 61 93 62 94 63 95
REMARK H PARENT 23 5 28 32 84 51 54 62
REMARK Flexibility Score: inf
ROOT
ATOM      1  C   UNL A   1      36.265  20.970  25.103  1.00  0.00     0.116 C 
ENDROOT
BRANCH   1   2
ATOM      2  N   UNL A   1      35.522  21.566  26.204  1.00  0.00    -0.354 N 
ATOM      3  C   UNL A   1      34.532  22.500  26.297  1.00  0.00     0.244 C 
ATOM      4  O   UNL A   1      34.186  22.774  27.455  1.00  0.00    -0.273 OA
ATOM      5  H   UNL A   1      35.796  21.214  27.082  1.00  0.00     0.163 HD
BRANCH   3   6
ATOM      6  C   UNL A   1      33.811  23.182  25.118  1.00  0.00     0.193 C 
ATOM      7  C   UNL A   1      34.745  23.679  24.022  1.00  0.00     0.044 C 
BRANCH   6   8
ATOM      8  N   UNL A   1      32.848  24.179  25.565  1.00  0.00    -0.260 N 
ATOM      9  C   UNL A   1      32.141  26.130  26.025  1.00  0.00     0.150 A 
ATOM     10  C   UNL A   1      31.188  25.464  25.233  1.00  0.00     0.056 A 
ATOM     11  N   UNL A   1      33.217  25.326  26.194  1.00  0.00    -0.167 NA
ATOM     12  C   UNL A   1      31.507  24.143  25.366  1.00  0.00     0.110 A 
BRANCH   9  13
ATOM     13  C   UNL A   1      32.007  27.481  26.599  1.00  0.00     0.274 C 
ATOM     14  O   UNL A   1      31.305  27.688  27.590  1.00  0.00    -0.267 OA
BRANCH  13  15
ATOM     15  N   UNL A   1      32.710  28.539  25.968  1.00  0.00    -0.333 N 
BRANCH  15  16
ATOM     16  C   UNL A   1      34.161  28.561  26.118  1.00  0.00     0.117 C 
ATOM     17  C   UNL A   1      34.595  29.209  27.429  1.00  0.00     0.027 C 
ENDBRANCH  15  16
BRANCH  15  18
ATOM     18  C   UNL A   1      32.088  29.722  25.349  1.00  0.00     0.159 C 
BRANCH  18  19
ATOM     19  C   UNL A   1      31.201  29.362  24.189  1.00  0.00     0.012 A 
ATOM     20  C   UNL A   1      29.904  29.768  23.912  1.00  0.00     0.114 A 
ATOM     21  C   UNL A   1      31.581  28.628  23.019  1.00  0.00     0.064 A 
ATOM     22  N   UNL A   1      29.655  29.413  22.614  1.00  0.00    -0.272 N 
ATOM     23  N   UNL A   1      30.624  28.648  22.084  1.00  0.00    -0.178 NA
ATOM     24  C   UNL A   1      32.887  27.999  22.687  1.00  0.00     0.069 C 
BRANCH  22  25
ATOM     25  C   UNL A   1      28.566  29.874  21.770  1.00  0.00     0.141 C 
ATOM     26  C   UNL A   1      27.742  30.983  22.412  1.00  0.00     0.029 C 
ENDBRANCH  22  25
ENDBRANCH  18  19
ENDBRANCH  15  18
ENDBRANCH  13  15
ENDBRANCH   9  13
ENDBRANCH   6   8
ENDBRANCH   3   6
ENDBRANCH   1   2
BRANCH   1  27
ATOM     27  C   UNL A   1      37.693  21.532  24.985  1.00  0.00     0.023 C 
BRANCH  27  28
ATOM     28  C   UNL A   1      37.934  22.911  25.606  1.00  0.00     0.023 C 
BRANCH  28  29
ATOM     29  C   UNL A   1      38.993  22.941  26.697  1.00  0.00     0.116 C 
BRANCH  29  30
ATOM     30  N   UNL A   1      40.240  22.291  26.305  1.00  0.00    -0.352 N 
ATOM     31  C   UNL A   1      41.430  22.913  25.993  1.00  0.00     0.251 C 
ATOM     32  H   UNL A   1      40.232  21.308  26.260  1.00  0.00     0.163 HD
ATOM     33  O   UNL A   1      42.266  22.345  25.282  1.00  0.00    -0.269 OA
BRANCH  31  34
ATOM     34  C   UNL A   1      41.695  24.262  26.522  1.00  0.00     0.039 A 
ATOM     35  C   UNL A   1      41.096  25.388  25.952  1.00  0.00     0.014 A 
ATOM     36  C   UNL A   1      42.539  24.388  27.628  1.00  0.00     0.014 A 
ATOM     37  C   UNL A   1      41.276  26.627  26.564  1.00  0.00     0.010 A 
ATOM     38  C   UNL A   1      42.644  25.596  28.285  1.00  0.00     0.010 A 
ATOM     39  C   UNL A   1      42.025  26.723  27.752  1.00  0.00    -0.014 A 
BRANCH  39  40
ATOM     40  C   UNL A   1      41.963  27.945  28.560  1.00  0.00     0.031 A 
ATOM     41  C   UNL A   1      43.082  28.884  28.263  1.00  0.00     0.074 A 
ATOM     42  C   UNL A   1      40.911  28.307  29.329  1.00  0.00     0.049 A 
ATOM     43  N   UNL A   1      44.115  29.125  29.000  1.00  0.00    -0.248 NA
ATOM     44  C   UNL A   1      43.176  29.468  26.911  1.00  0.00     0.031 C 
ATOM     45  C   UNL A   1      39.625  27.611  29.464  1.00  0.00     0.029 A 
ATOM     46  N   UNL A   1      40.715  29.430  30.083  1.00  0.00    -0.354 N 
ATOM     47  C   UNL A   1      44.837  30.108  28.328  1.00  0.00     0.074 A 
ATOM     48  C   UNL A   1      44.350  30.104  26.975  1.00  0.00     0.031 C 
ATOM     49  C   UNL A   1      38.719  28.427  30.050  1.00  0.00     0.029 A 
ATOM     50  C   UNL A   1      39.392  29.638  30.487  1.00  0.00     0.049 A 
ATOM     51  H   UNL A   1      41.446  30.045  30.322  1.00  0.00     0.167 HD
ATOM     52  C   UNL A   1      45.534  31.051  29.025  1.00  0.00     0.031 A 
ATOM     53  C   UNL A   1      38.885  30.719  31.137  1.00  0.00     0.031 A 
ATOM     54  C   UNL A   1      45.611  30.694  30.418  1.00  0.00     0.049 A 
ATOM     55  C   UNL A   1      40.021  31.387  31.802  1.00  0.00     0.074 A 
ATOM     56  C   UNL A   1      46.234  29.724  31.172  1.00  0.00     0.029 A 
ATOM     57  N   UNL A   1      44.582  31.207  31.168  1.00  0.00    -0.354 N 
ATOM     58  N   UNL A   1      40.681  30.849  32.787  1.00  0.00    -0.248 NA
ATOM     59  C   UNL A   1      40.677  32.507  31.144  1.00  0.00     0.031 C 
ATOM     60  C   UNL A   1      45.375  29.498  32.288  1.00  0.00     0.029 A 
ATOM     61  C   UNL A   1      44.301  30.388  32.223  1.00  0.00     0.049 A 
ATOM     62  H   UNL A   1      44.112  32.049  30.972  1.00  0.00     0.167 HD
ATOM     63  C   UNL A   1      41.987  31.243  32.575  1.00  0.00     0.074 A 
ATOM     64  C   UNL A   1      41.898  32.387  31.672  1.00  0.00     0.031 C 
ATOM     65  C   UNL A   1      43.019  30.411  32.896  1.00  0.00     0.031 A 
BRANCH  52  66
ATOM     66  C   UNL A   1      45.661  32.507  28.605  1.00  0.00    -0.014 A 
ATOM     67  C   UNL A   1      46.807  33.223  29.025  1.00  0.00     0.010 A 
ATOM     68  C   UNL A   1      44.594  33.271  28.094  1.00  0.00     0.010 A 
ATOM     69  C   UNL A   1      46.848  34.623  29.005  1.00  0.00     0.020 A 
ATOM     70  C   UNL A   1      44.638  34.668  28.037  1.00  0.00     0.020 A 
ATOM     71  C   UNL A   1      45.754  35.337  28.519  1.00  0.00     0.054 A 
BRANCH  71  72
ATOM     72  S   UNL A   1      45.787  37.146  28.559  1.00  0.00     0.124 S 
ATOM     73  O   UNL A   1      46.741  37.408  29.631  1.00  0.00    -0.237 OA
ATOM     74  O   UNL A   1      46.240  37.474  27.211  1.00  0.00    -0.237 OA
ATOM     75  O   UNL A   1      44.402  37.505  28.850  1.00  0.00    -0.744 OA
ENDBRANCH  71  72
ENDBRANCH  52  66
BRANCH  53  76
ATOM     76  C   UNL A   1      37.535  31.343  31.114  1.00  0.00    -0.014 A 
ATOM     77  C   UNL A   1      36.647  31.193  32.201  1.00  0.00     0.010 A 
ATOM     78  C   UNL A   1      37.248  32.351  30.175  1.00  0.00     0.010 A 
ATOM     79  C   UNL A   1      35.565  32.075  32.389  1.00  0.00     0.020 A 
ATOM     80  C   UNL A   1      36.170  33.232  30.355  1.00  0.00     0.020 A 
ATOM     81  C   UNL A   1      35.351  33.109  31.477  1.00  0.00     0.054 A 
BRANCH  81  82
ATOM     82  S   UNL A   1      34.087  34.372  31.834  1.00  0.00     0.124 S 
ATOM     83  O   UNL A   1      34.894  35.508  32.268  1.00  0.00    -0.237 OA
ATOM     84  O   UNL A   1      33.417  34.528  30.546  1.00  0.00    -0.237 OA
ATOM     85  O   UNL A   1      33.272  33.755  32.881  1.00  0.00    -0.744 OA
ENDBRANCH  81  82
ENDBRANCH  53  76
BRANCH  65  86
ATOM     86  C   UNL A   1      42.772  29.354  33.938  1.00  0.00    -0.014 A 
ATOM     87  C   UNL A   1      42.754  29.576  35.328  1.00  0.00     0.010 A 
ATOM     88  C   UNL A   1      42.450  28.076  33.453  1.00  0.00     0.010 A 
ATOM     89  C   UNL A   1      42.446  28.526  36.208  1.00  0.00     0.020 A 
ATOM     90  C   UNL A   1      42.121  27.037  34.318  1.00  0.00     0.020 A 
ATOM     91  C   UNL A   1      42.133  27.262  35.693  1.00  0.00     0.054 A 
BRANCH  91  92
ATOM     92  S   UNL A   1      41.714  25.908  36.824  1.00  0.00     0.124 S 
ATOM     93  O   UNL A   1      42.990  25.635  37.479  1.00  0.00    -0.237 OA
ATOM     94  O   UNL A   1      40.683  26.501  37.673  1.00  0.00    -0.237 OA
ATOM     95  O   UNL A   1      41.236  24.848  35.937  1.00  0.00    -0.744 OA
ENDBRANCH  91  92
ENDBRANCH  65  86
ENDBRANCH  39  40
ENDBRANCH  31  34
ENDBRANCH  29  30
ENDBRANCH  28  29
ENDBRANCH  27  28
ENDBRANCH   1  27
TORSDOF 21
ENDMDL
