MODEL 1
REMARK VINA RESULT:     -12.0      0.000      0.000
REMARK SMILES CS(=O)(=O)c1ccc(/C=C(/C(=O)NCCCCNC(=O)c2ccc(-c3c4nc(c(-c5ccc(S(=O)(=O)[O-])cc5)c5ccc([nH]5)c(-c5ccc(S(=O)(=O)[O-])cc5)c5nc(c(-c6ccc(S(=O)(=O)[O-])cc6)c6ccc3[nH]6)C=C5)C=C4)cc2)c2ccc(-c3ccc(S(C)(=O)=O)cc3)cc2)cc1
REMARK SMILES IDX 15 1 14 2 13 3 11 4 12 5 10 7 9 8 8 9 5 10 6 11 98 12 7 13
REMARK SMILES IDX 97 14 2 15 1 16 3 17 4 18 81 19 82 20 96 21 83 22 95 23
REMARK SMILES IDX 84 24 85 25 86 26 94 27 87 28 93 29 88 30 89 31 90 32 91 33
REMARK SMILES IDX 92 34 16 35 17 36 18 37 19 38 20 40 21 41 22 42 80 43 23 44
REMARK SMILES IDX 79 45 24 46 25 47 26 48 73 49 27 50 78 51 72 52 74 53 28 54
REMARK SMILES IDX 77 55 71 56 70 57 29 59 59 60 40 61 58 62 41 63 44 64 57 65
REMARK SMILES IDX 75 66 42 67 43 68 56 70 76 71 45 72 30 73 31 74 39 75 32 76
REMARK SMILES IDX 38 77 33 78 34 79 35 80 36 81 37 82 60 83 61 84 69 85 62 86
REMARK SMILES IDX 68 87 63 88 64 89 65 90 66 91 67 92 46 93 47 94 55 95 48 96
REMARK SMILES IDX 54 97 49 98 50 99 51 100 52 101 53 102
REMARK H PARENT 13 6 18 39 74 58 44 69
REMARK Flexibility Score: inf
ROOT
ATOM      1  C   UNL A   1      35.437  22.476  24.101  1.00  0.00     0.023 C 
ENDROOT
BRANCH   1   2
ATOM      2  C   UNL A   1      34.069  22.951  23.607  1.00  0.00     0.116 C 
BRANCH   2   3
ATOM      3  N   UNL A   1      33.030  22.504  24.511  1.00  0.00    -0.352 N 
ATOM      4  C   UNL A   1      31.964  23.106  25.097  1.00  0.00     0.251 C 
ATOM      5  O   UNL A   1      31.308  22.399  25.866  1.00  0.00    -0.269 OA
ATOM      6  H   UNL A   1      33.116  21.554  24.753  1.00  0.00     0.163 HD
BRANCH   4   7
ATOM      7  C   UNL A   1      31.514  24.520  24.791  1.00  0.00     0.047 C 
ATOM      8  C   UNL A   1      30.731  24.831  23.730  1.00  0.00     0.022 C 
BRANCH   8   9
ATOM      9  C   UNL A   1      30.101  26.122  23.363  1.00  0.00    -0.025 A 
ATOM     10  C   UNL A   1      28.841  28.609  22.969  1.00  0.00     0.067 A 
ATOM     11  C   UNL A   1      30.130  28.388  22.477  1.00  0.00     0.021 A 
ATOM     12  C   UNL A   1      28.145  27.575  23.593  1.00  0.00     0.021 A 
ATOM     13  C   UNL A   1      30.740  27.141  22.647  1.00  0.00     0.009 A 
ATOM     14  C   UNL A   1      28.780  26.342  23.788  1.00  0.00     0.009 A 
BRANCH  10  15
ATOM     15  S   UNL A   1      28.166  30.241  22.782  1.00  0.00     0.175 S 
ATOM     16  C   UNL A   1      29.257  31.369  23.598  1.00  0.00     0.163 C 
ATOM     17  O   UNL A   1      26.912  30.257  23.510  1.00  0.00    -0.224 OA
ATOM     18  O   UNL A   1      28.214  30.544  21.364  1.00  0.00    -0.224 OA
ENDBRANCH  10  15
ENDBRANCH   8   9
BRANCH   7  19
ATOM     19  C   UNL A   1      32.147  25.600  25.593  1.00  0.00    -0.013 A 
ATOM     20  C   UNL A   1      33.389  26.089  25.163  1.00  0.00     0.009 A 
ATOM     21  C   UNL A   1      31.516  26.226  26.672  1.00  0.00     0.009 A 
ATOM     22  C   UNL A   1      33.951  27.223  25.745  1.00  0.00     0.009 A 
ATOM     23  C   UNL A   1      32.072  27.384  27.235  1.00  0.00     0.009 A 
ATOM     24  C   UNL A   1      33.281  27.923  26.758  1.00  0.00    -0.018 A 
BRANCH  24  25
ATOM     25  C   UNL A   1      33.814  29.208  27.247  1.00  0.00    -0.018 A 
ATOM     26  C   UNL A   1      33.017  30.369  27.205  1.00  0.00     0.010 A 
ATOM     27  C   UNL A   1      35.110  29.318  27.779  1.00  0.00     0.010 A 
ATOM     28  C   UNL A   1      33.493  31.599  27.663  1.00  0.00     0.021 A 
ATOM     29  C   UNL A   1      35.599  30.545  28.240  1.00  0.00     0.021 A 
ATOM     30  C   UNL A   1      34.790  31.680  28.168  1.00  0.00     0.067 A 
BRANCH  30  31
ATOM     31  S   UNL A   1      35.391  33.249  28.739  1.00  0.00     0.175 S 
ATOM     32  C   UNL A   1      34.509  34.424  27.745  1.00  0.00     0.163 C 
ATOM     33  O   UNL A   1      34.958  33.401  30.114  1.00  0.00    -0.224 OA
ATOM     34  O   UNL A   1      36.797  33.345  28.385  1.00  0.00    -0.224 OA
ENDBRANCH  30  31
ENDBRANCH  24  25
ENDBRANCH   7  19
ENDBRANCH   4   7
ENDBRANCH   2   3
ENDBRANCH   1   2
BRANCH   1  35
ATOM     35  C   UNL A   1      36.303  23.586  24.712  1.00  0.00     0.023 C 
BRANCH  35  36
ATOM     36  C   UNL A   1      36.854  23.291  26.105  1.00  0.00     0.116 C 
BRANCH  36  37
ATOM     37  N   UNL A   1      37.834  22.213  26.112  1.00  0.00    -0.352 N 
ATOM     38  C   UNL A   1      39.166  22.263  26.448  1.00  0.00     0.251 C 
ATOM     39  H   UNL A   1      37.498  21.329  25.838  1.00  0.00     0.163 HD
ATOM     40  O   UNL A   1      39.882  21.283  26.283  1.00  0.00    -0.269 OA
BRANCH  38  41
ATOM     41  C   UNL A   1      39.726  23.524  26.972  1.00  0.00     0.039 A 
ATOM     42  C   UNL A   1      40.677  23.467  27.993  1.00  0.00     0.014 A 
ATOM     43  C   UNL A   1      39.362  24.750  26.406  1.00  0.00     0.014 A 
ATOM     44  C   UNL A   1      41.333  24.634  28.385  1.00  0.00     0.010 A 
ATOM     45  C   UNL A   1      40.060  25.902  26.758  1.00  0.00     0.010 A 
ATOM     46  C   UNL A   1      41.069  25.850  27.732  1.00  0.00    -0.014 A 
BRANCH  46  47
ATOM     47  C   UNL A   1      41.884  27.061  28.001  1.00  0.00     0.031 A 
ATOM     48  C   UNL A   1      41.362  28.148  28.896  1.00  0.00     0.074 A 
ATOM     49  C   UNL A   1      43.063  27.213  27.363  1.00  0.00     0.049 A 
ATOM     50  N   UNL A   1      41.894  29.312  29.171  1.00  0.00    -0.248 NA
ATOM     51  C   UNL A   1      40.066  27.909  29.550  1.00  0.00     0.031 C 
ATOM     52  C   UNL A   1      43.660  26.242  26.440  1.00  0.00     0.029 A 
ATOM     53  N   UNL A   1      43.966  28.245  27.383  1.00  0.00    -0.354 N 
ATOM     54  C   UNL A   1      40.999  29.945  30.024  1.00  0.00     0.074 A 
ATOM     55  C   UNL A   1      39.868  29.056  30.184  1.00  0.00     0.031 C 
ATOM     56  C   UNL A   1      44.834  26.718  25.999  1.00  0.00     0.029 A 
ATOM     57  C   UNL A   1      45.055  28.045  26.566  1.00  0.00     0.049 A 
ATOM     58  H   UNL A   1      43.848  29.055  27.931  1.00  0.00     0.167 HD
ATOM     59  C   UNL A   1      41.116  31.151  30.629  1.00  0.00     0.031 A 
ATOM     60  C   UNL A   1      46.103  28.843  26.286  1.00  0.00     0.031 A 
ATOM     61  C   UNL A   1      42.242  32.031  30.464  1.00  0.00     0.049 A 
ATOM     62  C   UNL A   1      46.186  30.196  26.939  1.00  0.00     0.074 A 
ATOM     63  C   UNL A   1      42.476  33.251  31.077  1.00  0.00     0.029 A 
ATOM     64  N   UNL A   1      43.318  31.795  29.623  1.00  0.00    -0.354 N 
ATOM     65  N   UNL A   1      45.361  30.747  27.797  1.00  0.00    -0.248 NA
ATOM     66  C   UNL A   1      47.339  31.034  26.584  1.00  0.00     0.031 C 
ATOM     67  C   UNL A   1      43.665  33.778  30.562  1.00  0.00     0.029 A 
ATOM     68  C   UNL A   1      44.201  32.861  29.673  1.00  0.00     0.049 A 
ATOM     69  H   UNL A   1      43.438  30.989  29.071  1.00  0.00     0.167 HD
ATOM     70  C   UNL A   1      45.906  31.990  28.098  1.00  0.00     0.074 A 
ATOM     71  C   UNL A   1      47.141  32.099  27.349  1.00  0.00     0.031 C 
ATOM     72  C   UNL A   1      45.423  32.957  28.916  1.00  0.00     0.031 A 
BRANCH  59  73
ATOM     73  C   UNL A   1      39.992  31.595  31.529  1.00  0.00    -0.014 A 
ATOM     74  C   UNL A   1      40.062  31.402  32.920  1.00  0.00     0.010 A 
ATOM     75  C   UNL A   1      38.885  32.271  30.985  1.00  0.00     0.010 A 
ATOM     76  C   UNL A   1      39.031  31.850  33.748  1.00  0.00     0.020 A 
ATOM     77  C   UNL A   1      37.862  32.744  31.814  1.00  0.00     0.020 A 
ATOM     78  C   UNL A   1      37.937  32.519  33.190  1.00  0.00     0.054 A 
BRANCH  78  79
ATOM     79  S   UNL A   1      36.633  33.123  34.297  1.00  0.00     0.124 S 
ATOM     80  O   UNL A   1      36.793  34.571  34.190  1.00  0.00    -0.237 OA
ATOM     81  O   UNL A   1      35.421  32.580  33.688  1.00  0.00    -0.237 OA
ATOM     82  O   UNL A   1      36.986  32.552  35.594  1.00  0.00    -0.744 OA
ENDBRANCH  78  79
ENDBRANCH  59  73
BRANCH  60  83
ATOM     83  C   UNL A   1      47.154  28.393  25.333  1.00  0.00    -0.014 A 
ATOM     84  C   UNL A   1      48.449  28.088  25.789  1.00  0.00     0.010 A 
ATOM     85  C   UNL A   1      46.867  28.272  23.961  1.00  0.00     0.010 A 
ATOM     86  C   UNL A   1      49.443  27.694  24.888  1.00  0.00     0.020 A 
ATOM     87  C   UNL A   1      47.850  27.850  23.060  1.00  0.00     0.020 A 
ATOM     88  C   UNL A   1      49.137  27.578  23.529  1.00  0.00     0.054 A 
BRANCH  88  89
ATOM     89  S   UNL A   1      50.432  27.031  22.383  1.00  0.00     0.124 S 
ATOM     90  O   UNL A   1      49.670  26.254  21.411  1.00  0.00    -0.237 OA
ATOM     91  O   UNL A   1      50.977  28.297  21.895  1.00  0.00    -0.237 OA
ATOM     92  O   UNL A   1      51.337  26.260  23.233  1.00  0.00    -0.744 OA
ENDBRANCH  88  89
ENDBRANCH  60  83
BRANCH  72  93
ATOM     93  C   UNL A   1      46.239  34.216  29.054  1.00  0.00    -0.014 A 
ATOM     94  C   UNL A   1      47.450  34.217  29.768  1.00  0.00     0.010 A 
ATOM     95  C   UNL A   1      45.816  35.396  28.416  1.00  0.00     0.010 A 
ATOM     96  C   UNL A   1      48.212  35.385  29.862  1.00  0.00     0.020 A 
ATOM     97  C   UNL A   1      46.589  36.558  28.484  1.00  0.00     0.020 A 
ATOM     98  C   UNL A   1      47.778  36.547  29.217  1.00  0.00     0.054 A 
BRANCH  98  99
ATOM     99  S   UNL A   1      48.814  38.033  29.312  1.00  0.00     0.124 S 
ATOM    100  O   UNL A   1      47.852  39.093  29.022  1.00  0.00    -0.237 OA
ATOM    101  O   UNL A   1      49.310  37.991  30.686  1.00  0.00    -0.237 OA
ATOM    102  O   UNL A   1      49.828  37.815  28.282  1.00  0.00    -0.744 OA
ENDBRANCH  98  99
ENDBRANCH  72  93
ENDBRANCH  46  47
ENDBRANCH  38  41
ENDBRANCH  36  37
ENDBRANCH  35  36
ENDBRANCH   1  35
TORSDOF 19
ENDMDL
MODEL 2
REMARK VINA RESULT:     -11.5      1.360      1.915
REMARK SMILES CS(=O)(=O)c1ccc(/C=C(/C(=O)NCCCCNC(=O)c2ccc(-c3c4nc(c(-c5ccc(S(=O)(=O)[O-])cc5)c5ccc([nH]5)c(-c5ccc(S(=O)(=O)[O-])cc5)c5nc(c(-c6ccc(S(=O)(=O)[O-])cc6)c6ccc3[nH]6)C=C5)C=C4)cc2)c2ccc(-c3ccc(S(C)(=O)=O)cc3)cc2)cc1
REMARK SMILES IDX 15 1 14 2 13 3 11 4 12 5 10 7 9 8 8 9 5 10 6 11 98 12 7 13
REMARK SMILES IDX 97 14 2 15 1 16 3 17 4 18 81 19 82 20 96 21 83 22 95 23
REMARK SMILES IDX 84 24 85 25 86 26 94 27 87 28 93 29 88 30 89 31 90 32 91 33
REMARK SMILES IDX 92 34 16 35 17 36 18 37 19 38 20 40 21 41 22 42 80 43 23 44
REMARK SMILES IDX 79 45 24 46 25 47 26 48 73 49 27 50 78 51 72 52 74 53 28 54
REMARK SMILES IDX 77 55 71 56 70 57 29 59 59 60 40 61 58 62 41 63 44 64 57 65
REMARK SMILES IDX 75 66 42 67 43 68 56 70 76 71 45 72 30 73 31 74 39 75 32 76
REMARK SMILES IDX 38 77 33 78 34 79 35 80 36 81 37 82 60 83 61 84 69 85 62 86
REMARK SMILES IDX 68 87 63 88 64 89 65 90 66 91 67 92 46 93 47 94 55 95 48 96
REMARK SMILES IDX 54 97 49 98 50 99 51 100 52 101 53 102
REMARK H PARENT 13 6 18 39 74 58 44 69
REMARK Flexibility Score: inf
ROOT
ATOM      1  C   UNL A   1      34.454  22.821  24.896  1.00  0.00     0.023 C 
ENDROOT
BRANCH   1   2
ATOM      2  C   UNL A   1      33.130  23.480  24.502  1.00  0.00     0.116 C 
BRANCH   2   3
ATOM      3  N   UNL A   1      32.235  23.520  25.639  1.00  0.00    -0.352 N 
ATOM      4  C   UNL A   1      31.399  24.459  26.151  1.00  0.00     0.251 C 
ATOM      5  O   UNL A   1      30.813  24.142  27.190  1.00  0.00    -0.269 OA
ATOM      6  H   UNL A   1      32.232  22.681  26.154  1.00  0.00     0.163 HD
BRANCH   4   7
ATOM      7  C   UNL A   1      31.101  25.784  25.482  1.00  0.00     0.047 C 
ATOM      8  C   UNL A   1      30.179  25.923  24.499  1.00  0.00     0.022 C 
BRANCH   8   9
ATOM      9  C   UNL A   1      29.677  27.151  23.836  1.00  0.00    -0.025 A 
ATOM     10  C   UNL A   1      28.545  29.525  22.830  1.00  0.00     0.067 A 
ATOM     11  C   UNL A   1      29.934  29.377  22.887  1.00  0.00     0.021 A 
ATOM     12  C   UNL A   1      27.714  28.470  23.204  1.00  0.00     0.021 A 
ATOM     13  C   UNL A   1      30.491  28.183  23.358  1.00  0.00     0.009 A 
ATOM     14  C   UNL A   1      28.284  27.294  23.706  1.00  0.00     0.009 A 
BRANCH  10  15
ATOM     15  S   UNL A   1      27.915  31.096  22.296  1.00  0.00     0.175 S 
ATOM     16  C   UNL A   1      29.262  32.243  22.296  1.00  0.00     0.163 C 
ATOM     17  O   UNL A   1      26.978  31.536  23.313  1.00  0.00    -0.224 OA
ATOM     18  O   UNL A   1      27.498  30.923  20.917  1.00  0.00    -0.224 OA
ENDBRANCH  10  15
ENDBRANCH   8   9
BRANCH   7  19
ATOM     19  C   UNL A   1      32.021  26.906  25.805  1.00  0.00    -0.013 A 
ATOM     20  C   UNL A   1      31.592  27.853  26.747  1.00  0.00     0.009 A 
ATOM     21  C   UNL A   1      33.326  26.995  25.311  1.00  0.00     0.009 A 
ATOM     22  C   UNL A   1      32.466  28.816  27.241  1.00  0.00     0.009 A 
ATOM     23  C   UNL A   1      34.211  27.950  25.833  1.00  0.00     0.009 A 
ATOM     24  C   UNL A   1      33.807  28.854  26.833  1.00  0.00    -0.018 A 
BRANCH  24  25
ATOM     25  C   UNL A   1      34.755  29.776  27.486  1.00  0.00    -0.018 A 
ATOM     26  C   UNL A   1      36.094  29.388  27.692  1.00  0.00     0.010 A 
ATOM     27  C   UNL A   1      34.369  31.059  27.906  1.00  0.00     0.010 A 
ATOM     28  C   UNL A   1      37.015  30.240  28.306  1.00  0.00     0.021 A 
ATOM     29  C   UNL A   1      35.282  31.922  28.523  1.00  0.00     0.021 A 
ATOM     30  C   UNL A   1      36.597  31.501  28.729  1.00  0.00     0.067 A 
BRANCH  30  31
ATOM     31  S   UNL A   1      37.770  32.574  29.516  1.00  0.00     0.175 S 
ATOM     32  C   UNL A   1      37.055  32.880  31.111  1.00  0.00     0.163 C 
ATOM     33  O   UNL A   1      38.990  31.813  29.705  1.00  0.00    -0.224 OA
ATOM     34  O   UNL A   1      37.781  33.832  28.792  1.00  0.00    -0.224 OA
ENDBRANCH  30  31
ENDBRANCH  24  25
ENDBRANCH   7  19
ENDBRANCH   4   7
ENDBRANCH   2   3
ENDBRANCH   1   2
BRANCH   1  35
ATOM     35  C   UNL A   1      35.643  23.788  24.952  1.00  0.00     0.023 C 
BRANCH  35  36
ATOM     36  C   UNL A   1      36.601  23.575  26.123  1.00  0.00     0.116 C 
BRANCH  36  37
ATOM     37  N   UNL A   1      37.445  22.399  25.960  1.00  0.00    -0.352 N 
ATOM     38  C   UNL A   1      38.783  22.256  26.235  1.00  0.00     0.251 C 
ATOM     39  H   UNL A   1      36.995  21.599  25.605  1.00  0.00     0.163 HD
ATOM     40  O   UNL A   1      39.371  21.225  25.927  1.00  0.00    -0.269 OA
BRANCH  38  41
ATOM     41  C   UNL A   1      39.509  23.374  26.871  1.00  0.00     0.039 A 
ATOM     42  C   UNL A   1      40.529  23.085  27.779  1.00  0.00     0.014 A 
ATOM     43  C   UNL A   1      39.224  24.695  26.515  1.00  0.00     0.014 A 
ATOM     44  C   UNL A   1      41.330  24.121  28.263  1.00  0.00     0.010 A 
ATOM     45  C   UNL A   1      40.062  25.718  26.953  1.00  0.00     0.010 A 
ATOM     46  C   UNL A   1      41.136  25.437  27.810  1.00  0.00    -0.014 A 
BRANCH  46  47
ATOM     47  C   UNL A   1      42.088  26.520  28.162  1.00  0.00     0.031 A 
ATOM     48  C   UNL A   1      41.816  27.424  29.330  1.00  0.00     0.074 A 
ATOM     49  C   UNL A   1      43.158  26.737  27.369  1.00  0.00     0.049 A 
ATOM     50  N   UNL A   1      42.487  28.475  29.730  1.00  0.00    -0.248 NA
ATOM     51  C   UNL A   1      40.626  27.125  30.142  1.00  0.00     0.031 C 
ATOM     52  C   UNL A   1      43.509  25.949  26.184  1.00  0.00     0.029 A 
ATOM     53  N   UNL A   1      44.140  27.693  27.431  1.00  0.00    -0.354 N 
ATOM     54  C   UNL A   1      41.801  28.965  30.833  1.00  0.00     0.074 A 
ATOM     55  C   UNL A   1      40.636  28.124  31.014  1.00  0.00     0.031 C 
ATOM     56  C   UNL A   1      44.635  26.441  25.645  1.00  0.00     0.029 A 
ATOM     57  C   UNL A   1      45.061  27.607  26.412  1.00  0.00     0.049 A 
ATOM     58  H   UNL A   1      44.184  28.376  28.139  1.00  0.00     0.167 HD
ATOM     59  C   UNL A   1      42.120  30.010  31.632  1.00  0.00     0.031 A 
ATOM     60  C   UNL A   1      46.116  28.389  26.113  1.00  0.00     0.031 A 
ATOM     61  C   UNL A   1      43.279  30.843  31.447  1.00  0.00     0.049 A 
ATOM     62  C   UNL A   1      46.423  29.570  26.993  1.00  0.00     0.074 A 
ATOM     63  C   UNL A   1      43.716  31.895  32.236  1.00  0.00     0.029 A 
ATOM     64  N   UNL A   1      44.180  30.729  30.399  1.00  0.00    -0.354 N 
ATOM     65  N   UNL A   1      45.800  29.975  28.074  1.00  0.00    -0.248 NA
ATOM     66  C   UNL A   1      47.574  30.400  26.612  1.00  0.00     0.031 C 
ATOM     67  C   UNL A   1      44.848  32.453  31.633  1.00  0.00     0.029 A 
ATOM     68  C   UNL A   1      45.151  31.712  30.501  1.00  0.00     0.049 A 
ATOM     69  H   UNL A   1      44.137  30.050  29.689  1.00  0.00     0.167 HD
ATOM     70  C   UNL A   1      46.495  31.097  28.511  1.00  0.00     0.074 A 
ATOM     71  C   UNL A   1      47.598  31.292  27.593  1.00  0.00     0.031 C 
ATOM     72  C   UNL A   1      46.238  31.898  29.574  1.00  0.00     0.031 A 
BRANCH  59  73
ATOM     73  C   UNL A   1      41.200  30.318  32.785  1.00  0.00    -0.014 A 
ATOM     74  C   UNL A   1      41.411  29.741  34.050  1.00  0.00     0.010 A 
ATOM     75  C   UNL A   1      40.154  31.243  32.619  1.00  0.00     0.010 A 
ATOM     76  C   UNL A   1      40.573  30.062  35.121  1.00  0.00     0.020 A 
ATOM     77  C   UNL A   1      39.329  31.586  33.694  1.00  0.00     0.020 A 
ATOM     78  C   UNL A   1      39.537  30.983  34.937  1.00  0.00     0.054 A 
BRANCH  78  79
ATOM     79  S   UNL A   1      38.491  31.407  36.357  1.00  0.00     0.124 S 
ATOM     80  O   UNL A   1      39.420  32.152  37.204  1.00  0.00    -0.237 OA
ATOM     81  O   UNL A   1      37.428  32.199  35.744  1.00  0.00    -0.237 OA
ATOM     82  O   UNL A   1      38.075  30.109  36.881  1.00  0.00    -0.744 OA
ENDBRANCH  78  79
ENDBRANCH  59  73
BRANCH  60  83
ATOM     83  C   UNL A   1      46.956  28.090  24.921  1.00  0.00    -0.014 A 
ATOM     84  C   UNL A   1      48.192  27.434  25.063  1.00  0.00     0.010 A 
ATOM     85  C   UNL A   1      46.526  28.467  23.635  1.00  0.00     0.010 A 
ATOM     86  C   UNL A   1      48.992  27.181  23.945  1.00  0.00     0.020 A 
ATOM     87  C   UNL A   1      47.310  28.189  22.511  1.00  0.00     0.020 A 
ATOM     88  C   UNL A   1      48.547  27.561  22.676  1.00  0.00     0.054 A 
BRANCH  88  89
ATOM     89  S   UNL A   1      49.585  27.191  21.235  1.00  0.00     0.124 S 
ATOM     90  O   UNL A   1      48.592  26.829  20.230  1.00  0.00    -0.237 OA
ATOM     91  O   UNL A   1      50.278  28.458  21.013  1.00  0.00    -0.237 OA
ATOM     92  O   UNL A   1      50.437  26.098  21.701  1.00  0.00    -0.744 OA
ENDBRANCH  88  89
ENDBRANCH  60  83
BRANCH  72  93
ATOM     93  C   UNL A   1      47.173  33.054  29.810  1.00  0.00    -0.014 A 
ATOM     94  C   UNL A   1      46.900  34.326  29.276  1.00  0.00     0.010 A 
ATOM     95  C   UNL A   1      48.309  32.879  30.622  1.00  0.00     0.010 A 
ATOM     96  C   UNL A   1      47.761  35.397  29.530  1.00  0.00     0.020 A 
ATOM     97  C   UNL A   1      49.156  33.955  30.902  1.00  0.00     0.020 A 
ATOM     98  C   UNL A   1      48.882  35.205  30.343  1.00  0.00     0.054 A 
BRANCH  98  99
ATOM     99  S   UNL A   1      49.952  36.626  30.698  1.00  0.00     0.124 S 
ATOM    100  O   UNL A   1      49.769  37.450  29.507  1.00  0.00    -0.237 OA
ATOM    101  O   UNL A   1      49.376  37.161  31.930  1.00  0.00    -0.237 OA
ATOM    102  O   UNL A   1      51.279  36.031  30.846  1.00  0.00    -0.744 OA
ENDBRANCH  98  99
ENDBRANCH  72  93
ENDBRANCH  46  47
ENDBRANCH  38  41
ENDBRANCH  36  37
ENDBRANCH  35  36
ENDBRANCH   1  35
TORSDOF 19
ENDMDL
MODEL 3
REMARK VINA RESULT:     -10.8      5.767     10.822
REMARK SMILES CS(=O)(=O)c1ccc(/C=C(/C(=O)NCCCCNC(=O)c2ccc(-c3c4nc(c(-c5ccc(S(=O)(=O)[O-])cc5)c5ccc([nH]5)c(-c5ccc(S(=O)(=O)[O-])cc5)c5nc(c(-c6ccc(S(=O)(=O)[O-])cc6)c6ccc3[nH]6)C=C5)C=C4)cc2)c2ccc(-c3ccc(S(C)(=O)=O)cc3)cc2)cc1
REMARK SMILES IDX 15 1 14 2 13 3 11 4 12 5 10 7 9 8 8 9 5 10 6 11 98 12 7 13
REMARK SMILES IDX 97 14 2 15 1 16 3 17 4 18 81 19 82 20 96 21 83 22 95 23
REMARK SMILES IDX 84 24 85 25 86 26 94 27 87 28 93 29 88 30 89 31 90 32 91 33
REMARK SMILES IDX 92 34 16 35 17 36 18 37 19 38 20 40 21 41 22 42 80 43 23 44
REMARK SMILES IDX 79 45 24 46 25 47 26 48 73 49 27 50 78 51 72 52 74 53 28 54
REMARK SMILES IDX 77 55 71 56 70 57 29 59 59 60 40 61 58 62 41 63 44 64 57 65
REMARK SMILES IDX 75 66 42 67 43 68 56 70 76 71 45 72 30 73 31 74 39 75 32 76
REMARK SMILES IDX 38 77 33 78 34 79 35 80 36 81 37 82 60 83 61 84 69 85 62 86
REMARK SMILES IDX 68 87 63 88 64 89 65 90 66 91 67 92 46 93 47 94 55 95 48 96
REMARK SMILES IDX 54 97 49 98 50 99 51 100 52 101 53 102
REMARK H PARENT 13 6 18 39 74 58 44 69
REMARK Flexibility Score: inf
ROOT
ATOM      1  C   UNL A   1      39.229  28.281  30.132  1.00  0.00     0.023 C 
ENDROOT
BRANCH   1   2
ATOM      2  C   UNL A   1      37.963  28.573  30.939  1.00  0.00     0.116 C 
BRANCH   2   3
ATOM      3  N   UNL A   1      38.314  29.007  32.276  1.00  0.00    -0.352 N 
ATOM      4  C   UNL A   1      38.155  30.166  32.965  1.00  0.00     0.251 C 
ATOM      5  O   UNL A   1      38.636  30.180  34.101  1.00  0.00    -0.269 OA
ATOM      6  H   UNL A   1      38.765  28.307  32.799  1.00  0.00     0.163 HD
BRANCH   4   7
ATOM      7  C   UNL A   1      37.370  31.356  32.455  1.00  0.00     0.047 C 
ATOM      8  C   UNL A   1      36.039  31.504  32.658  1.00  0.00     0.022 C 
BRANCH   8   9
ATOM      9  C   UNL A   1      35.154  32.651  32.345  1.00  0.00    -0.025 A 
ATOM     10  C   UNL A   1      33.671  35.006  31.915  1.00  0.00     0.067 A 
ATOM     11  C   UNL A   1      34.058  34.211  30.833  1.00  0.00     0.021 A 
ATOM     12  C   UNL A   1      33.955  34.600  33.217  1.00  0.00     0.021 A 
ATOM     13  C   UNL A   1      34.767  33.025  31.054  1.00  0.00     0.009 A 
ATOM     14  C   UNL A   1      34.696  33.429  33.423  1.00  0.00     0.009 A 
BRANCH  10  15
ATOM     15  S   UNL A   1      32.844  36.534  31.548  1.00  0.00     0.175 S 
ATOM     16  C   UNL A   1      33.741  37.835  32.342  1.00  0.00     0.163 C 
ATOM     17  O   UNL A   1      31.541  36.463  32.183  1.00  0.00    -0.224 OA
ATOM     18  O   UNL A   1      32.970  36.735  30.117  1.00  0.00    -0.224 OA
ENDBRANCH  10  15
ENDBRANCH   8   9
BRANCH   7  19
ATOM     19  C   UNL A   1      38.088  32.268  31.526  1.00  0.00    -0.013 A 
ATOM     20  C   UNL A   1      38.287  33.595  31.938  1.00  0.00     0.009 A 
ATOM     21  C   UNL A   1      38.673  31.843  30.330  1.00  0.00     0.009 A 
ATOM     22  C   UNL A   1      39.113  34.452  31.215  1.00  0.00     0.009 A 
ATOM     23  C   UNL A   1      39.525  32.701  29.620  1.00  0.00     0.009 A 
ATOM     24  C   UNL A   1      39.789  34.008  30.069  1.00  0.00    -0.018 A 
BRANCH  24  25
ATOM     25  C   UNL A   1      40.780  34.879  29.411  1.00  0.00    -0.018 A 
ATOM     26  C   UNL A   1      41.959  35.252  30.089  1.00  0.00     0.010 A 
ATOM     27  C   UNL A   1      40.599  35.349  28.100  1.00  0.00     0.010 A 
ATOM     28  C   UNL A   1      42.916  36.073  29.492  1.00  0.00     0.021 A 
ATOM     29  C   UNL A   1      41.552  36.173  27.490  1.00  0.00     0.021 A 
ATOM     30  C   UNL A   1      42.699  36.539  28.196  1.00  0.00     0.067 A 
BRANCH  30  31
ATOM     31  S   UNL A   1      43.917  37.590  27.447  1.00  0.00     0.175 S 
ATOM     32  C   UNL A   1      44.493  38.591  28.794  1.00  0.00     0.163 C 
ATOM     33  O   UNL A   1      45.009  36.741  27.013  1.00  0.00    -0.224 OA
ATOM     34  O   UNL A   1      43.236  38.466  26.510  1.00  0.00    -0.224 OA
ENDBRANCH  30  31
ENDBRANCH  24  25
ENDBRANCH   7  19
ENDBRANCH   4   7
ENDBRANCH   2   3
ENDBRANCH   1   2
BRANCH   1  35
ATOM     35  C   UNL A   1      39.293  26.858  29.560  1.00  0.00     0.023 C 
BRANCH  35  36
ATOM     36  C   UNL A   1      39.790  26.757  28.119  1.00  0.00     0.116 C 
BRANCH  36  37
ATOM     37  N   UNL A   1      40.853  25.775  27.952  1.00  0.00    -0.352 N 
ATOM     38  C   UNL A   1      42.213  25.955  28.034  1.00  0.00     0.251 C 
ATOM     39  H   UNL A   1      40.557  24.857  27.753  1.00  0.00     0.163 HD
ATOM     40  O   UNL A   1      42.976  25.041  27.747  1.00  0.00    -0.269 OA
BRANCH  38  41
ATOM     41  C   UNL A   1      42.738  27.276  28.434  1.00  0.00     0.039 A 
ATOM     42  C   UNL A   1      42.331  28.407  27.721  1.00  0.00     0.014 A 
ATOM     43  C   UNL A   1      43.571  27.399  29.549  1.00  0.00     0.014 A 
ATOM     44  C   UNL A   1      42.687  29.673  28.185  1.00  0.00     0.010 A 
ATOM     45  C   UNL A   1      43.875  28.665  30.042  1.00  0.00     0.010 A 
ATOM     46  C   UNL A   1      43.415  29.813  29.379  1.00  0.00    -0.014 A 
BRANCH  46  47
ATOM     47  C   UNL A   1      43.644  31.146  29.990  1.00  0.00     0.031 A 
ATOM     48  C   UNL A   1      44.755  32.030  29.499  1.00  0.00     0.074 A 
ATOM     49  C   UNL A   1      42.896  31.519  31.049  1.00  0.00     0.049 A 
ATOM     50  N   UNL A   1      45.157  33.182  29.970  1.00  0.00    -0.248 NA
ATOM     51  C   UNL A   1      45.528  31.549  28.342  1.00  0.00     0.031 C 
ATOM     52  C   UNL A   1      41.811  30.731  31.641  1.00  0.00     0.029 A 
ATOM     53  N   UNL A   1      42.942  32.650  31.825  1.00  0.00    -0.354 N 
ATOM     54  C   UNL A   1      46.231  33.563  29.175  1.00  0.00     0.074 A 
ATOM     55  C   UNL A   1      46.447  32.497  28.220  1.00  0.00     0.031 C 
ATOM     56  C   UNL A   1      41.285  31.410  32.672  1.00  0.00     0.029 A 
ATOM     57  C   UNL A   1      42.023  32.657  32.848  1.00  0.00     0.049 A 
ATOM     58  H   UNL A   1      43.574  33.389  31.665  1.00  0.00     0.167 HD
ATOM     59  C   UNL A   1      46.961  34.702  29.227  1.00  0.00     0.031 A 
ATOM     60  C   UNL A   1      41.807  33.554  33.830  1.00  0.00     0.031 A 
ATOM     61  C   UNL A   1      46.742  35.758  30.181  1.00  0.00     0.049 A 
ATOM     62  C   UNL A   1      42.662  34.791  33.890  1.00  0.00     0.074 A 
ATOM     63  C   UNL A   1      47.396  36.974  30.280  1.00  0.00     0.029 A 
ATOM     64  N   UNL A   1      45.807  35.722  31.204  1.00  0.00    -0.354 N 
ATOM     65  N   UNL A   1      43.627  35.163  33.085  1.00  0.00    -0.248 NA
ATOM     66  C   UNL A   1      42.398  35.726  34.992  1.00  0.00     0.031 C 
ATOM     67  C   UNL A   1      46.896  37.650  31.398  1.00  0.00     0.029 A 
ATOM     68  C   UNL A   1      45.891  36.880  31.961  1.00  0.00     0.049 A 
ATOM     69  H   UNL A   1      45.178  34.985  31.369  1.00  0.00     0.167 HD
ATOM     70  C   UNL A   1      44.074  36.386  33.574  1.00  0.00     0.074 A 
ATOM     71  C   UNL A   1      43.258  36.700  34.729  1.00  0.00     0.031 C 
ATOM     72  C   UNL A   1      45.076  37.174  33.112  1.00  0.00     0.031 A 
BRANCH  59  73
ATOM     73  C   UNL A   1      48.071  34.869  28.223  1.00  0.00    -0.014 A 
ATOM     74  C   UNL A   1      49.389  34.491  28.535  1.00  0.00     0.010 A 
ATOM     75  C   UNL A   1      47.782  35.350  26.934  1.00  0.00     0.010 A 
ATOM     76  C   UNL A   1      50.404  34.618  27.584  1.00  0.00     0.020 A 
ATOM     77  C   UNL A   1      48.791  35.454  25.970  1.00  0.00     0.020 A 
ATOM     78  C   UNL A   1      50.099  35.099  26.306  1.00  0.00     0.054 A 
BRANCH  78  79
ATOM     79  S   UNL A   1      51.432  35.215  25.082  1.00  0.00     0.124 S 
ATOM     80  O   UNL A   1      51.127  36.484  24.425  1.00  0.00    -0.237 OA
ATOM     81  O   UNL A   1      52.631  35.212  25.915  1.00  0.00    -0.237 OA
ATOM     82  O   UNL A   1      51.248  34.026  24.254  1.00  0.00    -0.744 OA
ENDBRANCH  78  79
ENDBRANCH  59  73
BRANCH  60  83
ATOM     83  C   UNL A   1      40.746  33.312  34.845  1.00  0.00    -0.014 A 
ATOM     84  C   UNL A   1      39.455  33.841  34.670  1.00  0.00     0.010 A 
ATOM     85  C   UNL A   1      41.023  32.555  35.998  1.00  0.00     0.010 A 
ATOM     86  C   UNL A   1      38.469  33.638  35.639  1.00  0.00     0.020 A 
ATOM     87  C   UNL A   1      40.031  32.325  36.956  1.00  0.00     0.020 A 
ATOM     88  C   UNL A   1      38.763  32.881  36.777  1.00  0.00     0.054 A 
BRANCH  88  89
ATOM     89  S   UNL A   1      37.458  32.600  38.005  1.00  0.00     0.124 S 
ATOM     90  O   UNL A   1      37.402  31.143  38.060  1.00  0.00    -0.237 OA
ATOM     91  O   UNL A   1      37.995  33.259  39.193  1.00  0.00    -0.237 OA
ATOM     92  O   UNL A   1      36.290  33.253  37.417  1.00  0.00    -0.744 OA
ENDBRANCH  88  89
ENDBRANCH  60  83
BRANCH  72  93
ATOM     93  C   UNL A   1      45.338  38.461  33.848  1.00  0.00    -0.014 A 
ATOM     94  C   UNL A   1      46.367  38.551  34.803  1.00  0.00     0.010 A 
ATOM     95  C   UNL A   1      44.584  39.608  33.542  1.00  0.00     0.010 A 
ATOM     96  C   UNL A   1      46.620  39.760  35.456  1.00  0.00     0.020 A 
ATOM     97  C   UNL A   1      44.853  40.826  34.172  1.00  0.00     0.020 A 
ATOM     98  C   UNL A   1      45.863  40.891  35.134  1.00  0.00     0.054 A 
BRANCH  98  99
ATOM     99  S   UNL A   1      46.248  42.459  35.960  1.00  0.00     0.124 S 
ATOM    100  O   UNL A   1      45.031  43.232  35.728  1.00  0.00    -0.237 OA
ATOM    101  O   UNL A   1      46.479  42.046  37.342  1.00  0.00    -0.237 OA
ATOM    102  O   UNL A   1      47.434  42.940  35.253  1.00  0.00    -0.744 OA
ENDBRANCH  98  99
ENDBRANCH  72  93
ENDBRANCH  46  47
ENDBRANCH  38  41
ENDBRANCH  36  37
ENDBRANCH  35  36
ENDBRANCH   1  35
TORSDOF 19
ENDMDL
