MODEL 1
REMARK VINA RESULT:     -11.7      0.000      0.000
REMARK SMILES O=C(Cc1cccn1-c1ccccc1F)NCCCCNC(=O)c1ccc(-c2c3nc(c(-c4ccc(S(=O)(=O)[O-])cc4)c4ccc([nH]4)c(-c4ccc(S(=O)(=O)[O-])cc4)c4nc(c(-c5ccc(S(=O)(=O)[O-])cc5)c5ccc2[nH]5)C=C4)C=C3)cc1
REMARK SMILES IDX 19 1 18 2 17 3 16 4 1 5 2 6 3 8 4 9 5 10 8 11 6 12 7 13 9 14
REMARK SMILES IDX 10 15 14 16 11 17 13 18 15 19 12 20 20 21 21 22 22 23 23 25
REMARK SMILES IDX 24 26 25 27 83 28 26 29 82 30 27 31 28 32 29 33 76 34 30 35
REMARK SMILES IDX 81 36 75 37 77 38 31 39 80 40 74 41 73 42 32 44 62 45 43 46
REMARK SMILES IDX 61 47 44 48 47 49 60 50 78 51 45 52 46 53 59 55 79 56 48 57
REMARK SMILES IDX 33 58 34 59 42 60 35 61 41 62 36 63 37 64 38 65 39 66 40 67
REMARK SMILES IDX 63 68 64 69 72 70 65 71 71 72 66 73 67 74 68 75 69 76 70 77
REMARK SMILES IDX 49 78 50 79 58 80 51 81 57 82 52 83 53 84 54 85 55 86 56 87
REMARK H PARENT 16 7 21 24 77 43 47 54
REMARK Flexibility Score: inf
ROOT
ATOM      1  C   UNL A   1      32.504  29.118  27.148  1.00  0.00     0.023 C 
ENDROOT
BRANCH   1   2
ATOM      2  C   UNL A   1      31.609  27.874  27.353  1.00  0.00     0.023 C 
BRANCH   2   3
ATOM      3  C   UNL A   1      31.468  26.738  26.309  1.00  0.00     0.116 C 
BRANCH   3   4
ATOM      4  N   UNL A   1      32.119  25.454  26.557  1.00  0.00    -0.356 N 
ATOM      5  O   UNL A   1      33.960  25.971  25.274  1.00  0.00    -0.275 OA
ATOM      6  C   UNL A   1      33.403  25.194  26.048  1.00  0.00     0.225 C 
ATOM      7  H   UNL A   1      31.655  24.763  27.084  1.00  0.00     0.163 HD
BRANCH   6   8
ATOM      8  C   UNL A   1      34.035  23.848  26.467  1.00  0.00     0.154 C 
BRANCH   8   9
ATOM      9  C   UNL A   1      35.378  23.489  25.840  1.00  0.00     0.032 A 
ATOM     10  C   UNL A   1      36.655  23.870  26.240  1.00  0.00     0.024 A 
ATOM     11  N   UNL A   1      35.558  22.730  24.688  1.00  0.00    -0.318 N 
ATOM     12  C   UNL A   1      37.598  23.306  25.345  1.00  0.00     0.020 A 
ATOM     13  C   UNL A   1      36.893  22.565  24.430  1.00  0.00     0.091 A 
BRANCH  11  14
ATOM     14  C   UNL A   1      34.548  22.160  23.923  1.00  0.00     0.081 A 
ATOM     15  C   UNL A   1      34.061  20.906  24.308  1.00  0.00     0.030 A 
ATOM     16  C   UNL A   1      33.897  22.964  23.001  1.00  0.00     0.147 A 
ATOM     17  C   UNL A   1      32.791  20.554  23.897  1.00  0.00     0.002 A 
ATOM     18  C   UNL A   1      32.664  22.584  22.547  1.00  0.00     0.041 A 
ATOM     19  F   UNL A   1      34.364  24.172  22.656  1.00  0.00    -0.205 F 
ATOM     20  C   UNL A   1      32.085  21.435  23.084  1.00  0.00     0.003 A 
ENDBRANCH  11  14
ENDBRANCH   8   9
ENDBRANCH   6   8
ENDBRANCH   3   4
ENDBRANCH   2   3
ENDBRANCH   1   2
BRANCH   1  21
ATOM     21  C   UNL A   1      34.065  29.089  27.166  1.00  0.00     0.116 C 
BRANCH  21  22
ATOM     22  N   UNL A   1      34.779  30.350  27.031  1.00  0.00    -0.352 N 
ATOM     23  C   UNL A   1      35.831  30.796  27.835  1.00  0.00     0.251 C 
ATOM     24  H   UNL A   1      34.493  30.946  26.302  1.00  0.00     0.163 HD
ATOM     25  O   UNL A   1      35.784  31.963  28.228  1.00  0.00    -0.269 OA
BRANCH  23  26
ATOM     26  C   UNL A   1      37.034  29.968  28.202  1.00  0.00     0.039 A 
ATOM     27  C   UNL A   1      38.120  29.853  27.321  1.00  0.00     0.014 A 
ATOM     28  C   UNL A   1      37.055  29.150  29.327  1.00  0.00     0.014 A 
ATOM     29  C   UNL A   1      39.226  29.030  27.628  1.00  0.00     0.010 A 
ATOM     30  C   UNL A   1      38.155  28.342  29.662  1.00  0.00     0.010 A 
ATOM     31  C   UNL A   1      39.273  28.301  28.828  1.00  0.00    -0.014 A 
BRANCH  31  32
ATOM     32  C   UNL A   1      40.566  27.710  29.309  1.00  0.00     0.031 A 
ATOM     33  C   UNL A   1      40.951  26.428  28.533  1.00  0.00     0.074 A 
ATOM     34  C   UNL A   1      41.247  28.296  30.345  1.00  0.00     0.049 A 
ATOM     35  N   UNL A   1      41.771  25.475  28.855  1.00  0.00    -0.248 NA
ATOM     36  C   UNL A   1      40.300  26.146  27.221  1.00  0.00     0.031 C 
ATOM     37  C   UNL A   1      40.878  29.583  30.973  1.00  0.00     0.029 A 
ATOM     38  N   UNL A   1      42.377  27.951  31.080  1.00  0.00    -0.354 N 
ATOM     39  C   UNL A   1      41.839  24.575  27.764  1.00  0.00     0.074 A 
ATOM     40  C   UNL A   1      40.877  25.018  26.805  1.00  0.00     0.031 C 
ATOM     41  C   UNL A   1      41.688  29.863  32.022  1.00  0.00     0.029 A 
ATOM     42  C   UNL A   1      42.671  28.805  32.181  1.00  0.00     0.049 A 
ATOM     43  H   UNL A   1      42.933  27.172  30.854  1.00  0.00     0.167 HD
ATOM     44  C   UNL A   1      42.732  23.548  27.675  1.00  0.00     0.031 A 
ATOM     45  C   UNL A   1      43.605  28.667  33.177  1.00  0.00     0.031 A 
ATOM     46  C   UNL A   1      43.465  23.421  28.882  1.00  0.00     0.049 A 
ATOM     47  C   UNL A   1      44.444  27.518  32.810  1.00  0.00     0.074 A 
ATOM     48  C   UNL A   1      43.141  22.951  30.126  1.00  0.00     0.029 A 
ATOM     49  N   UNL A   1      44.667  24.077  28.944  1.00  0.00    -0.354 N 
ATOM     50  N   UNL A   1      45.388  27.539  31.922  1.00  0.00    -0.248 NA
ATOM     51  C   UNL A   1      44.247  26.242  33.515  1.00  0.00     0.031 C 
ATOM     52  C   UNL A   1      43.944  23.716  30.994  1.00  0.00     0.029 A 
ATOM     53  C   UNL A   1      44.804  24.517  30.235  1.00  0.00     0.049 A 
ATOM     54  H   UNL A   1      45.306  24.206  28.206  1.00  0.00     0.167 HD
ATOM     55  C   UNL A   1      45.615  26.205  31.707  1.00  0.00     0.074 A 
ATOM     56  C   UNL A   1      45.180  25.517  32.903  1.00  0.00     0.031 C 
ATOM     57  C   UNL A   1      45.563  25.726  30.440  1.00  0.00     0.031 A 
BRANCH  44  58
ATOM     58  C   UNL A   1      43.179  22.697  26.515  1.00  0.00    -0.014 A 
ATOM     59  C   UNL A   1      42.612  21.399  26.410  1.00  0.00     0.010 A 
ATOM     60  C   UNL A   1      44.335  22.958  25.766  1.00  0.00     0.010 A 
ATOM     61  C   UNL A   1      43.246  20.368  25.713  1.00  0.00     0.020 A 
ATOM     62  C   UNL A   1      44.958  21.934  25.028  1.00  0.00     0.020 A 
ATOM     63  C   UNL A   1      44.440  20.636  25.056  1.00  0.00     0.054 A 
BRANCH  63  64
ATOM     64  S   UNL A   1      45.336  19.244  24.313  1.00  0.00     0.124 S 
ATOM     65  O   UNL A   1      46.706  19.745  24.276  1.00  0.00    -0.237 OA
ATOM     66  O   UNL A   1      45.092  18.163  25.266  1.00  0.00    -0.237 OA
ATOM     67  O   UNL A   1      44.689  19.075  23.014  1.00  0.00    -0.744 OA
ENDBRANCH  63  64
ENDBRANCH  44  58
BRANCH  45  68
ATOM     68  C   UNL A   1      43.967  29.286  34.521  1.00  0.00    -0.014 A 
ATOM     69  C   UNL A   1      43.104  29.529  35.593  1.00  0.00     0.010 A 
ATOM     70  C   UNL A   1      45.347  29.552  34.786  1.00  0.00     0.010 A 
ATOM     71  C   UNL A   1      43.608  29.863  36.880  1.00  0.00     0.020 A 
ATOM     72  C   UNL A   1      45.864  29.827  36.053  1.00  0.00     0.020 A 
ATOM     73  C   UNL A   1      44.987  29.953  37.111  1.00  0.00     0.054 A 
BRANCH  73  74
ATOM     74  S   UNL A   1      45.666  30.082  38.792  1.00  0.00     0.124 S 
ATOM     75  O   UNL A   1      46.543  28.917  38.871  1.00  0.00    -0.237 OA
ATOM     76  O   UNL A   1      46.339  31.379  38.774  1.00  0.00    -0.237 OA
ATOM     77  O   UNL A   1      44.477  30.028  39.642  1.00  0.00    -0.744 OA
ENDBRANCH  73  74
ENDBRANCH  45  68
BRANCH  57  78
ATOM     78  C   UNL A   1      45.898  26.742  29.362  1.00  0.00    -0.014 A 
ATOM     79  C   UNL A   1      47.247  26.985  29.048  1.00  0.00     0.010 A 
ATOM     80  C   UNL A   1      44.920  27.529  28.718  1.00  0.00     0.010 A 
ATOM     81  C   UNL A   1      47.612  27.974  28.123  1.00  0.00     0.020 A 
ATOM     82  C   UNL A   1      45.276  28.518  27.786  1.00  0.00     0.020 A 
ATOM     83  C   UNL A   1      46.624  28.735  27.494  1.00  0.00     0.054 A 
BRANCH  83  84
ATOM     84  S   UNL A   1      47.142  30.008  26.303  1.00  0.00     0.124 S 
ATOM     85  O   UNL A   1      46.433  29.610  25.082  1.00  0.00    -0.237 OA
ATOM     86  O   UNL A   1      46.682  31.232  26.920  1.00  0.00    -0.237 OA
ATOM     87  O   UNL A   1      48.602  29.850  26.234  1.00  0.00    -0.744 OA
ENDBRANCH  83  84
ENDBRANCH  57  78
ENDBRANCH  31  32
ENDBRANCH  23  26
ENDBRANCH  21  22
ENDBRANCH   1  21
TORSDOF 16
ENDMDL
MODEL 2
REMARK VINA RESULT:     -11.6      1.214      2.000
REMARK SMILES O=C(Cc1cccn1-c1ccccc1F)NCCCCNC(=O)c1ccc(-c2c3nc(c(-c4ccc(S(=O)(=O)[O-])cc4)c4ccc([nH]4)c(-c4ccc(S(=O)(=O)[O-])cc4)c4nc(c(-c5ccc(S(=O)(=O)[O-])cc5)c5ccc2[nH]5)C=C4)C=C3)cc1
REMARK SMILES IDX 19 1 18 2 17 3 16 4 1 5 2 6 3 8 4 9 5 10 8 11 6 12 7 13 9 14
REMARK SMILES IDX 10 15 14 16 11 17 13 18 15 19 12 20 20 21 21 22 22 23 23 25
REMARK SMILES IDX 24 26 25 27 83 28 26 29 82 30 27 31 28 32 29 33 76 34 30 35
REMARK SMILES IDX 81 36 75 37 77 38 31 39 80 40 74 41 73 42 32 44 62 45 43 46
REMARK SMILES IDX 61 47 44 48 47 49 60 50 78 51 45 52 46 53 59 55 79 56 48 57
REMARK SMILES IDX 33 58 34 59 42 60 35 61 41 62 36 63 37 64 38 65 39 66 40 67
REMARK SMILES IDX 63 68 64 69 72 70 65 71 71 72 66 73 67 74 68 75 69 76 70 77
REMARK SMILES IDX 49 78 50 79 58 80 51 81 57 82 52 83 53 84 54 85 55 86 56 87
REMARK H PARENT 16 7 21 24 77 43 47 54
REMARK Flexibility Score: inf
ROOT
ATOM      1  C   UNL A   1      32.931  28.699  27.178  1.00  0.00     0.023 C 
ENDROOT
BRANCH   1   2
ATOM      2  C   UNL A   1      31.785  28.199  26.269  1.00  0.00     0.023 C 
BRANCH   2   3
ATOM      3  C   UNL A   1      30.928  26.946  26.581  1.00  0.00     0.116 C 
BRANCH   3   4
ATOM      4  N   UNL A   1      30.918  25.832  25.635  1.00  0.00    -0.356 N 
ATOM      5  O   UNL A   1      31.329  24.254  27.261  1.00  0.00    -0.275 OA
ATOM      6  C   UNL A   1      31.060  24.509  26.088  1.00  0.00     0.225 C 
ATOM      7  H   UNL A   1      30.813  26.009  24.672  1.00  0.00     0.163 HD
BRANCH   6   8
ATOM      8  C   UNL A   1      30.923  23.410  25.012  1.00  0.00     0.154 C 
BRANCH   8   9
ATOM      9  C   UNL A   1      32.131  22.507  24.787  1.00  0.00     0.032 A 
ATOM     10  C   UNL A   1      32.349  21.213  25.252  1.00  0.00     0.024 A 
ATOM     11  N   UNL A   1      33.286  22.854  24.094  1.00  0.00    -0.318 N 
ATOM     12  C   UNL A   1      33.621  20.778  24.803  1.00  0.00     0.020 A 
ATOM     13  C   UNL A   1      34.151  21.793  24.047  1.00  0.00     0.091 A 
BRANCH  11  14
ATOM     14  C   UNL A   1      33.528  24.075  23.477  1.00  0.00     0.081 A 
ATOM     15  C   UNL A   1      33.001  24.282  22.199  1.00  0.00     0.030 A 
ATOM     16  C   UNL A   1      34.035  25.106  24.253  1.00  0.00     0.147 A 
ATOM     17  C   UNL A   1      32.803  25.584  21.785  1.00  0.00     0.002 A 
ATOM     18  C   UNL A   1      33.895  26.394  23.813  1.00  0.00     0.041 A 
ATOM     19  F   UNL A   1      34.520  24.898  25.485  1.00  0.00    -0.205 F 
ATOM     20  C   UNL A   1      33.186  26.618  22.633  1.00  0.00     0.003 A 
ENDBRANCH  11  14
ENDBRANCH   8   9
ENDBRANCH   6   8
ENDBRANCH   3   4
ENDBRANCH   2   3
ENDBRANCH   1   2
BRANCH   1  21
ATOM     21  C   UNL A   1      34.340  29.125  26.659  1.00  0.00     0.116 C 
BRANCH  21  22
ATOM     22  N   UNL A   1      34.867  30.415  27.075  1.00  0.00    -0.352 N 
ATOM     23  C   UNL A   1      35.698  30.657  28.173  1.00  0.00     0.251 C 
ATOM     24  H   UNL A   1      34.615  31.195  26.530  1.00  0.00     0.163 HD
ATOM     25  O   UNL A   1      35.411  31.613  28.896  1.00  0.00    -0.269 OA
BRANCH  23  26
ATOM     26  C   UNL A   1      36.938  29.865  28.495  1.00  0.00     0.039 A 
ATOM     27  C   UNL A   1      38.004  29.804  27.585  1.00  0.00     0.014 A 
ATOM     28  C   UNL A   1      37.016  29.029  29.604  1.00  0.00     0.014 A 
ATOM     29  C   UNL A   1      39.146  29.015  27.848  1.00  0.00     0.010 A 
ATOM     30  C   UNL A   1      38.152  28.255  29.896  1.00  0.00     0.010 A 
ATOM     31  C   UNL A   1      39.249  28.268  29.033  1.00  0.00    -0.014 A 
BRANCH  31  32
ATOM     32  C   UNL A   1      40.573  27.714  29.471  1.00  0.00     0.031 A 
ATOM     33  C   UNL A   1      40.978  26.456  28.668  1.00  0.00     0.074 A 
ATOM     34  C   UNL A   1      41.264  28.311  30.495  1.00  0.00     0.049 A 
ATOM     35  N   UNL A   1      41.839  25.526  28.955  1.00  0.00    -0.248 NA
ATOM     36  C   UNL A   1      40.301  26.167  27.372  1.00  0.00     0.031 C 
ATOM     37  C   UNL A   1      40.871  29.577  31.149  1.00  0.00     0.029 A 
ATOM     38  N   UNL A   1      42.424  27.995  31.194  1.00  0.00    -0.354 N 
ATOM     39  C   UNL A   1      41.905  24.642  27.851  1.00  0.00     0.074 A 
ATOM     40  C   UNL A   1      40.902  25.064  26.925  1.00  0.00     0.031 C 
ATOM     41  C   UNL A   1      41.700  29.871  32.179  1.00  0.00     0.029 A 
ATOM     42  C   UNL A   1      42.721  28.845  32.297  1.00  0.00     0.049 A 
ATOM     43  H   UNL A   1      43.000  27.237  30.943  1.00  0.00     0.167 HD
ATOM     44  C   UNL A   1      42.829  23.647  27.725  1.00  0.00     0.031 A 
ATOM     45  C   UNL A   1      43.687  28.727  33.265  1.00  0.00     0.031 A 
ATOM     46  C   UNL A   1      43.599  23.530  28.909  1.00  0.00     0.049 A 
ATOM     47  C   UNL A   1      44.552  27.610  32.860  1.00  0.00     0.074 A 
ATOM     48  C   UNL A   1      43.326  23.035  30.156  1.00  0.00     0.029 A 
ATOM     49  N   UNL A   1      44.780  24.224  28.946  1.00  0.00    -0.354 N 
ATOM     50  N   UNL A   1      45.470  27.673  31.947  1.00  0.00    -0.248 NA
ATOM     51  C   UNL A   1      44.418  26.320  33.554  1.00  0.00     0.031 C 
ATOM     52  C   UNL A   1      44.127  23.816  31.010  1.00  0.00     0.029 A 
ATOM     53  C   UNL A   1      44.939  24.654  30.238  1.00  0.00     0.049 A 
ATOM     54  H   UNL A   1      45.394  24.384  28.192  1.00  0.00     0.167 HD
ATOM     55  C   UNL A   1      45.735  26.350  31.709  1.00  0.00     0.074 A 
ATOM     56  C   UNL A   1      45.356  25.634  32.907  1.00  0.00     0.031 C 
ATOM     57  C   UNL A   1      45.663  25.885  30.438  1.00  0.00     0.031 A 
BRANCH  44  58
ATOM     58  C   UNL A   1      43.271  22.825  26.542  1.00  0.00    -0.014 A 
ATOM     59  C   UNL A   1      42.619  21.579  26.341  1.00  0.00     0.010 A 
ATOM     60  C   UNL A   1      44.479  23.038  25.861  1.00  0.00     0.010 A 
ATOM     61  C   UNL A   1      43.212  20.541  25.619  1.00  0.00     0.020 A 
ATOM     62  C   UNL A   1      45.063  22.009  25.099  1.00  0.00     0.020 A 
ATOM     63  C   UNL A   1      44.453  20.753  25.032  1.00  0.00     0.054 A 
BRANCH  63  64
ATOM     64  S   UNL A   1      45.283  19.338  24.256  1.00  0.00     0.124 S 
ATOM     65  O   UNL A   1      44.893  18.236  25.129  1.00  0.00    -0.237 OA
ATOM     66  O   UNL A   1      44.691  19.316  22.920  1.00  0.00    -0.237 OA
ATOM     67  O   UNL A   1      46.696  19.708  24.295  1.00  0.00    -0.744 OA
ENDBRANCH  63  64
ENDBRANCH  44  58
BRANCH  45  68
ATOM     68  C   UNL A   1      44.066  29.341  34.606  1.00  0.00    -0.014 A 
ATOM     69  C   UNL A   1      44.987  30.369  34.829  1.00  0.00     0.010 A 
ATOM     70  C   UNL A   1      43.339  28.921  35.764  1.00  0.00     0.010 A 
ATOM     71  C   UNL A   1      45.058  31.030  36.085  1.00  0.00     0.020 A 
ATOM     72  C   UNL A   1      43.358  29.593  36.988  1.00  0.00     0.020 A 
ATOM     73  C   UNL A   1      44.203  30.675  37.136  1.00  0.00     0.054 A 
BRANCH  73  74
ATOM     74  S   UNL A   1      44.064  31.686  38.639  1.00  0.00     0.124 S 
ATOM     75  O   UNL A   1      44.493  33.003  38.176  1.00  0.00    -0.237 OA
ATOM     76  O   UNL A   1      42.649  31.567  38.984  1.00  0.00    -0.237 OA
ATOM     77  O   UNL A   1      44.974  31.026  39.575  1.00  0.00    -0.744 OA
ENDBRANCH  73  74
ENDBRANCH  45  68
BRANCH  57  78
ATOM     78  C   UNL A   1      45.934  26.924  29.364  1.00  0.00    -0.014 A 
ATOM     79  C   UNL A   1      47.251  27.372  29.164  1.00  0.00     0.010 A 
ATOM     80  C   UNL A   1      44.909  27.536  28.612  1.00  0.00     0.010 A 
ATOM     81  C   UNL A   1      47.542  28.392  28.246  1.00  0.00     0.020 A 
ATOM     82  C   UNL A   1      45.192  28.555  27.686  1.00  0.00     0.020 A 
ATOM     83  C   UNL A   1      46.510  28.978  27.509  1.00  0.00     0.054 A 
BRANCH  83  84
ATOM     84  S   UNL A   1      46.931  30.298  26.332  1.00  0.00     0.124 S 
ATOM     85  O   UNL A   1      48.380  30.442  26.517  1.00  0.00    -0.237 OA
ATOM     86  O   UNL A   1      46.518  29.741  25.063  1.00  0.00    -0.237 OA
ATOM     87  O   UNL A   1      46.144  31.448  26.798  1.00  0.00    -0.744 OA
ENDBRANCH  83  84
ENDBRANCH  57  78
ENDBRANCH  31  32
ENDBRANCH  23  26
ENDBRANCH  21  22
ENDBRANCH   1  21
TORSDOF 16
ENDMDL
MODEL 3
REMARK VINA RESULT:     -11.5      4.650     10.778
REMARK SMILES O=C(Cc1cccn1-c1ccccc1F)NCCCCNC(=O)c1ccc(-c2c3nc(c(-c4ccc(S(=O)(=O)[O-])cc4)c4ccc([nH]4)c(-c4ccc(S(=O)(=O)[O-])cc4)c4nc(c(-c5ccc(S(=O)(=O)[O-])cc5)c5ccc2[nH]5)C=C4)C=C3)cc1
REMARK SMILES IDX 19 1 18 2 17 3 16 4 1 5 2 6 3 8 4 9 5 10 8 11 6 12 7 13 9 14
REMARK SMILES IDX 10 15 14 16 11 17 13 18 15 19 12 20 20 21 21 22 22 23 23 25
REMARK SMILES IDX 24 26 25 27 83 28 26 29 82 30 27 31 28 32 29 33 76 34 30 35
REMARK SMILES IDX 81 36 75 37 77 38 31 39 80 40 74 41 73 42 32 44 62 45 43 46
REMARK SMILES IDX 61 47 44 48 47 49 60 50 78 51 45 52 46 53 59 55 79 56 48 57
REMARK SMILES IDX 33 58 34 59 42 60 35 61 41 62 36 63 37 64 38 65 39 66 40 67
REMARK SMILES IDX 63 68 64 69 72 70 65 71 71 72 66 73 67 74 68 75 69 76 70 77
REMARK SMILES IDX 49 78 50 79 58 80 51 81 57 82 52 83 53 84 54 85 55 86 56 87
REMARK H PARENT 16 7 21 24 77 43 47 54
REMARK Flexibility Score: inf
ROOT
ATOM      1  C   UNL A   1      33.500  33.630  27.974  1.00  0.00     0.023 C 
ENDROOT
BRANCH   1   2
ATOM      2  C   UNL A   1      33.497  35.002  28.686  1.00  0.00     0.023 C 
BRANCH   2   3
ATOM      3  C   UNL A   1      33.189  35.186  30.193  1.00  0.00     0.116 C 
BRANCH   3   4
ATOM      4  N   UNL A   1      34.277  35.518  31.110  1.00  0.00    -0.356 N 
ATOM      5  O   UNL A   1      34.162  33.499  32.212  1.00  0.00    -0.275 OA
ATOM      6  C   UNL A   1      34.738  34.573  32.043  1.00  0.00     0.225 C 
ATOM      7  H   UNL A   1      34.691  36.410  31.076  1.00  0.00     0.163 HD
BRANCH   6   8
ATOM      8  C   UNL A   1      35.964  34.996  32.882  1.00  0.00     0.154 C 
BRANCH   8   9
ATOM      9  C   UNL A   1      36.737  33.886  33.586  1.00  0.00     0.032 A 
ATOM     10  C   UNL A   1      36.615  33.436  34.897  1.00  0.00     0.024 A 
ATOM     11  N   UNL A   1      37.769  33.137  33.029  1.00  0.00    -0.318 N 
ATOM     12  C   UNL A   1      37.551  32.394  35.109  1.00  0.00     0.020 A 
ATOM     13  C   UNL A   1      38.211  32.197  33.923  1.00  0.00     0.091 A 
BRANCH  11  14
ATOM     14  C   UNL A   1      38.261  33.264  31.736  1.00  0.00     0.081 A 
ATOM     15  C   UNL A   1      37.559  32.635  30.702  1.00  0.00     0.030 A 
ATOM     16  C   UNL A   1      39.243  34.213  31.504  1.00  0.00     0.147 A 
ATOM     17  C   UNL A   1      37.720  33.125  29.422  1.00  0.00     0.002 A 
ATOM     18  C   UNL A   1      39.446  34.654  30.224  1.00  0.00     0.041 A 
ATOM     19  F   UNL A   1      39.895  34.823  32.504  1.00  0.00    -0.205 F 
ATOM     20  C   UNL A   1      38.607  34.178  29.218  1.00  0.00     0.003 A 
ENDBRANCH  11  14
ENDBRANCH   8   9
ENDBRANCH   6   8
ENDBRANCH   3   4
ENDBRANCH   2   3
ENDBRANCH   1   2
BRANCH   1  21
ATOM     21  C   UNL A   1      34.565  32.515  28.222  1.00  0.00     0.116 C 
BRANCH  21  22
ATOM     22  N   UNL A   1      34.099  31.156  28.448  1.00  0.00    -0.352 N 
ATOM     23  C   UNL A   1      34.753  29.981  28.067  1.00  0.00     0.251 C 
ATOM     24  H   UNL A   1      33.239  31.053  28.916  1.00  0.00     0.163 HD
ATOM     25  O   UNL A   1      34.072  29.107  27.528  1.00  0.00    -0.269 OA
BRANCH  23  26
ATOM     26  C   UNL A   1      36.210  29.697  28.319  1.00  0.00     0.039 A 
ATOM     27  C   UNL A   1      36.647  29.263  29.580  1.00  0.00     0.014 A 
ATOM     28  C   UNL A   1      37.198  30.012  27.392  1.00  0.00     0.014 A 
ATOM     29  C   UNL A   1      38.018  29.051  29.846  1.00  0.00     0.010 A 
ATOM     30  C   UNL A   1      38.565  29.788  27.629  1.00  0.00     0.010 A 
ATOM     31  C   UNL A   1      38.987  29.269  28.853  1.00  0.00    -0.014 A 
BRANCH  31  32
ATOM     32  C   UNL A   1      40.378  28.730  29.017  1.00  0.00     0.031 A 
ATOM     33  C   UNL A   1      41.346  29.773  29.622  1.00  0.00     0.074 A 
ATOM     34  C   UNL A   1      40.670  27.449  28.622  1.00  0.00     0.049 A 
ATOM     35  N   UNL A   1      42.644  29.814  29.604  1.00  0.00    -0.248 NA
ATOM     36  C   UNL A   1      40.789  30.967  30.320  1.00  0.00     0.031 C 
ATOM     37  C   UNL A   1      39.671  26.466  28.149  1.00  0.00     0.029 A 
ATOM     38  N   UNL A   1      41.842  26.705  28.535  1.00  0.00    -0.354 N 
ATOM     39  C   UNL A   1      43.053  30.927  30.377  1.00  0.00     0.074 A 
ATOM     40  C   UNL A   1      41.864  31.624  30.756  1.00  0.00     0.031 C 
ATOM     41  C   UNL A   1      40.269  25.317  27.752  1.00  0.00     0.029 A 
ATOM     42  C   UNL A   1      41.707  25.422  27.933  1.00  0.00     0.049 A 
ATOM     43  H   UNL A   1      42.705  27.043  28.867  1.00  0.00     0.167 HD
ATOM     44  C   UNL A   1      44.347  31.182  30.724  1.00  0.00     0.031 A 
ATOM     45  C   UNL A   1      42.669  24.515  27.567  1.00  0.00     0.031 A 
ATOM     46  C   UNL A   1      45.223  30.272  30.079  1.00  0.00     0.049 A 
ATOM     47  C   UNL A   1      43.944  25.020  28.094  1.00  0.00     0.074 A 
ATOM     48  C   UNL A   1      45.657  30.152  28.787  1.00  0.00     0.029 A 
ATOM     49  N   UNL A   1      45.562  29.144  30.779  1.00  0.00    -0.354 N 
ATOM     50  N   UNL A   1      44.326  24.932  29.330  1.00  0.00    -0.248 NA
ATOM     51  C   UNL A   1      44.899  25.643  27.165  1.00  0.00     0.031 C 
ATOM     52  C   UNL A   1      45.859  28.768  28.628  1.00  0.00     0.029 A 
ATOM     53  C   UNL A   1      45.665  28.132  29.860  1.00  0.00     0.049 A 
ATOM     54  H   UNL A   1      45.704  29.074  31.751  1.00  0.00     0.167 HD
ATOM     55  C   UNL A   1      45.369  25.819  29.376  1.00  0.00     0.074 A 
ATOM     56  C   UNL A   1      45.873  25.930  28.025  1.00  0.00     0.031 C 
ATOM     57  C   UNL A   1      45.356  26.798  30.313  1.00  0.00     0.031 A 
BRANCH  44  58
ATOM     58  C   UNL A   1      44.953  32.090  31.763  1.00  0.00    -0.014 A 
ATOM     59  C   UNL A   1      44.565  31.878  33.112  1.00  0.00     0.010 A 
ATOM     60  C   UNL A   1      45.576  33.308  31.455  1.00  0.00     0.010 A 
ATOM     61  C   UNL A   1      44.655  32.884  34.076  1.00  0.00     0.020 A 
ATOM     62  C   UNL A   1      45.707  34.313  32.432  1.00  0.00     0.020 A 
ATOM     63  C   UNL A   1      45.194  34.113  33.716  1.00  0.00     0.054 A 
BRANCH  63  64
ATOM     64  S   UNL A   1      45.133  35.460  34.931  1.00  0.00     0.124 S 
ATOM     65  O   UNL A   1      45.493  34.775  36.168  1.00  0.00    -0.237 OA
ATOM     66  O   UNL A   1      46.135  36.394  34.420  1.00  0.00    -0.237 OA
ATOM     67  O   UNL A   1      43.754  35.934  34.848  1.00  0.00    -0.744 OA
ENDBRANCH  63  64
ENDBRANCH  44  58
BRANCH  45  68
ATOM     68  C   UNL A   1      42.806  23.234  26.755  1.00  0.00    -0.014 A 
ATOM     69  C   UNL A   1      43.563  23.053  25.593  1.00  0.00     0.010 A 
ATOM     70  C   UNL A   1      42.200  22.045  27.270  1.00  0.00     0.010 A 
ATOM     71  C   UNL A   1      43.820  21.752  25.080  1.00  0.00     0.020 A 
ATOM     72  C   UNL A   1      42.485  20.757  26.812  1.00  0.00     0.020 A 
ATOM     73  C   UNL A   1      43.326  20.612  25.728  1.00  0.00     0.054 A 
BRANCH  73  74
ATOM     74  S   UNL A   1      43.878  18.941  25.274  1.00  0.00     0.124 S 
ATOM     75  O   UNL A   1      42.773  18.105  25.734  1.00  0.00    -0.237 OA
ATOM     76  O   UNL A   1      44.042  19.033  23.825  1.00  0.00    -0.237 OA
ATOM     77  O   UNL A   1      45.129  18.787  26.016  1.00  0.00    -0.744 OA
ENDBRANCH  73  74
ENDBRANCH  45  68
BRANCH  57  78
ATOM     78  C   UNL A   1      44.583  26.461  31.575  1.00  0.00    -0.014 A 
ATOM     79  C   UNL A   1      43.435  27.208  31.894  1.00  0.00     0.010 A 
ATOM     80  C   UNL A   1      45.013  25.488  32.502  1.00  0.00     0.010 A 
ATOM     81  C   UNL A   1      42.737  26.994  33.091  1.00  0.00     0.020 A 
ATOM     82  C   UNL A   1      44.316  25.263  33.701  1.00  0.00     0.020 A 
ATOM     83  C   UNL A   1      43.179  26.020  33.989  1.00  0.00     0.054 A 
BRANCH  83  84
ATOM     84  S   UNL A   1      42.245  25.777  35.530  1.00  0.00     0.124 S 
ATOM     85  O   UNL A   1      41.310  26.908  35.519  1.00  0.00    -0.237 OA
ATOM     86  O   UNL A   1      41.648  24.473  35.342  1.00  0.00    -0.237 OA
ATOM     87  O   UNL A   1      43.272  25.851  36.579  1.00  0.00    -0.744 OA
ENDBRANCH  83  84
ENDBRANCH  57  78
ENDBRANCH  31  32
ENDBRANCH  23  26
ENDBRANCH  21  22
ENDBRANCH   1  21
TORSDOF 16
ENDMDL
