MODEL 1
REMARK VINA RESULT:     -10.2      0.000      0.000
REMARK SMILES CSc1ncc(Cl)c(C(=O)Nc2ccsc2C(=O)NCCCCNC(=O)c2ccc(-c3c4nc(c(-c5ccc(S(=O)(=O)[O-])cc5)c5ccc([nH]5)c(-c5ccc(S(=O)(=O)[O-])cc5)c5nc(c(-c6ccc(S(=O)(=O)[O-])cc6)c6ccc3[nH]6)C=C5)C=C4)cc2)n1
REMARK SMILES IDX 21 1 20 2 19 3 17 4 18 5 16 7 12 8 13 9 14 10 15 11 11 12
REMARK SMILES IDX 9 13 10 14 8 16 3 17 4 18 87 19 5 20 6 21 7 22 2 23 1 24
REMARK SMILES IDX 22 25 23 26 24 27 25 28 26 30 27 31 28 32 86 33 29 34 85 35
REMARK SMILES IDX 30 36 31 37 32 38 79 39 33 40 84 41 78 42 80 43 34 44 83 45
REMARK SMILES IDX 77 46 76 47 35 49 65 50 46 51 64 52 47 53 50 54 63 55 81 56
REMARK SMILES IDX 48 57 49 58 62 60 82 61 51 62 36 63 37 64 45 65 38 66 44 67
REMARK SMILES IDX 39 68 40 69 41 70 42 71 43 72 66 73 67 74 75 75 68 76 74 77
REMARK SMILES IDX 69 78 70 79 71 80 72 81 73 82 52 83 53 84 61 85 54 86 60 87
REMARK SMILES IDX 55 88 56 89 57 90 58 91 59 92
REMARK H PARENT 19 6 11 15 24 29 80 48 50 59
REMARK Flexibility Score: inf
ROOT
ATOM      1  C   UNL A   1      31.971  27.012  26.622  1.00  0.00     0.023 C 
ENDROOT
BRANCH   1   2
ATOM      2  C   UNL A   1      30.915  25.975  26.269  1.00  0.00     0.116 C 
BRANCH   2   3
ATOM      3  N   UNL A   1      29.905  26.349  25.309  1.00  0.00    -0.351 N 
ATOM      4  C   UNL A   1      29.972  26.620  23.953  1.00  0.00     0.263 C 
ATOM      5  O   UNL A   1      28.865  26.835  23.443  1.00  0.00    -0.268 OA
ATOM      6  H   UNL A   1      28.999  26.426  25.689  1.00  0.00     0.163 HD
BRANCH   4   7
ATOM      7  C   UNL A   1      31.223  26.709  23.172  1.00  0.00     0.115 A 
ATOM      8  C   UNL A   1      32.073  25.814  22.522  1.00  0.00     0.065 A 
ATOM      9  C   UNL A   1      33.264  26.426  22.018  1.00  0.00     0.038 A 
ATOM     10  C   UNL A   1      33.304  27.775  22.265  1.00  0.00     0.068 A 
ATOM     11  S   UNL A   1      31.913  28.309  23.084  1.00  0.00    -0.137 S 
BRANCH   8  12
ATOM     12  N   UNL A   1      31.800  24.479  22.341  1.00  0.00    -0.319 N 
ATOM     13  C   UNL A   1      32.224  23.373  23.050  1.00  0.00     0.276 C 
ATOM     14  O   UNL A   1      31.802  22.285  22.639  1.00  0.00    -0.267 OA
ATOM     15  H   UNL A   1      31.205  24.280  21.582  1.00  0.00     0.170 HD
BRANCH  13  16
ATOM     16  C   UNL A   1      33.065  23.387  24.303  1.00  0.00     0.151 A 
ATOM     17  C   UNL A   1      35.271  23.510  24.999  1.00  0.00     0.188 A 
ATOM     18  N   UNL A   1      34.948  23.410  26.291  1.00  0.00    -0.230 NA
ATOM     19  N   UNL A   1      34.382  23.599  24.005  1.00  0.00    -0.216 NA
ATOM     20  C   UNL A   1      33.649  23.188  26.554  1.00  0.00     0.137 A 
ATOM     21  C   UNL A   1      32.667  23.068  25.591  1.00  0.00     0.090 A 
ATOM     22  Cl  UNL A   1      31.206  22.339  26.115  1.00  0.00    -0.080 Cl
BRANCH  17  23
ATOM     23  S   UNL A   1      36.955  23.153  24.584  1.00  0.00    -0.090 SA
ATOM     24  C   UNL A   1      37.752  23.791  26.061  1.00  0.00     0.094 C 
ENDBRANCH  17  23
ENDBRANCH  13  16
ENDBRANCH   8  12
ENDBRANCH   4   7
ENDBRANCH   2   3
ENDBRANCH   1   2
BRANCH   1  25
ATOM     25  C   UNL A   1      33.388  26.757  26.129  1.00  0.00     0.023 C 
BRANCH  25  26
ATOM     26  C   UNL A   1      34.433  27.813  26.475  1.00  0.00     0.116 C 
BRANCH  26  27
ATOM     27  N   UNL A   1      33.881  29.075  26.949  1.00  0.00    -0.352 N 
ATOM     28  C   UNL A   1      34.463  30.084  27.684  1.00  0.00     0.251 C 
ATOM     29  H   UNL A   1      32.939  29.232  26.704  1.00  0.00     0.163 HD
ATOM     30  O   UNL A   1      33.794  31.060  28.019  1.00  0.00    -0.269 OA
BRANCH  28  31
ATOM     31  C   UNL A   1      35.872  29.979  28.124  1.00  0.00     0.039 A 
ATOM     32  C   UNL A   1      36.139  29.559  29.430  1.00  0.00     0.014 A 
ATOM     33  C   UNL A   1      36.928  30.254  27.254  1.00  0.00     0.014 A 
ATOM     34  C   UNL A   1      37.456  29.301  29.823  1.00  0.00     0.010 A 
ATOM     35  C   UNL A   1      38.227  29.906  27.614  1.00  0.00     0.010 A 
ATOM     36  C   UNL A   1      38.505  29.412  28.897  1.00  0.00    -0.014 A 
BRANCH  36  37
ATOM     37  C   UNL A   1      39.893  28.994  29.233  1.00  0.00     0.031 A 
ATOM     38  C   UNL A   1      40.849  29.976  29.857  1.00  0.00     0.074 A 
ATOM     39  C   UNL A   1      40.324  27.763  28.890  1.00  0.00     0.049 A 
ATOM     40  N   UNL A   1      42.126  29.837  30.109  1.00  0.00    -0.248 NA
ATOM     41  C   UNL A   1      40.307  31.297  30.212  1.00  0.00     0.031 C 
ATOM     42  C   UNL A   1      39.515  26.728  28.238  1.00  0.00     0.029 A 
ATOM     43  N   UNL A   1      41.558  27.174  29.027  1.00  0.00    -0.354 N 
ATOM     44  C   UNL A   1      42.544  31.058  30.624  1.00  0.00     0.074 A 
ATOM     45  C   UNL A   1      41.397  31.939  30.605  1.00  0.00     0.031 C 
ATOM     46  C   UNL A   1      40.264  25.629  28.057  1.00  0.00     0.029 A 
ATOM     47  C   UNL A   1      41.619  25.891  28.533  1.00  0.00     0.049 A 
ATOM     48  H   UNL A   1      42.327  27.628  29.441  1.00  0.00     0.167 HD
ATOM     49  C   UNL A   1      43.766  31.411  31.088  1.00  0.00     0.031 A 
ATOM     50  C   UNL A   1      42.648  25.025  28.459  1.00  0.00     0.031 A 
ATOM     51  C   UNL A   1      44.900  30.527  31.131  1.00  0.00     0.049 A 
ATOM     52  C   UNL A   1      43.995  25.436  28.986  1.00  0.00     0.074 A 
ATOM     53  C   UNL A   1      46.162  30.772  31.643  1.00  0.00     0.029 A 
ATOM     54  N   UNL A   1      44.909  29.229  30.646  1.00  0.00    -0.354 N 
ATOM     55  N   UNL A   1      44.354  26.577  29.525  1.00  0.00    -0.248 NA
ATOM     56  C   UNL A   1      45.074  24.442  28.903  1.00  0.00     0.031 C 
ATOM     57  C   UNL A   1      46.948  29.636  31.428  1.00  0.00     0.029 A 
ATOM     58  C   UNL A   1      46.161  28.665  30.830  1.00  0.00     0.049 A 
ATOM     59  H   UNL A   1      44.140  28.774  30.233  1.00  0.00     0.167 HD
ATOM     60  C   UNL A   1      45.693  26.428  29.869  1.00  0.00     0.074 A 
ATOM     61  C   UNL A   1      46.077  25.085  29.487  1.00  0.00     0.031 C 
ATOM     62  C   UNL A   1      46.527  27.324  30.451  1.00  0.00     0.031 A 
BRANCH  49  63
ATOM     63  C   UNL A   1      43.939  32.822  31.587  1.00  0.00    -0.014 A 
ATOM     64  C   UNL A   1      43.799  33.131  32.952  1.00  0.00     0.010 A 
ATOM     65  C   UNL A   1      44.276  33.847  30.685  1.00  0.00     0.010 A 
ATOM     66  C   UNL A   1      43.946  34.446  33.399  1.00  0.00     0.020 A 
ATOM     67  C   UNL A   1      44.452  35.160  31.132  1.00  0.00     0.020 A 
ATOM     68  C   UNL A   1      44.265  35.454  32.484  1.00  0.00     0.054 A 
BRANCH  68  69
ATOM     69  S   UNL A   1      44.463  37.151  33.094  1.00  0.00     0.124 S 
ATOM     70  O   UNL A   1      45.257  36.945  34.302  1.00  0.00    -0.237 OA
ATOM     71  O   UNL A   1      45.157  37.810  31.989  1.00  0.00    -0.237 OA
ATOM     72  O   UNL A   1      43.091  37.600  33.319  1.00  0.00    -0.744 OA
ENDBRANCH  68  69
ENDBRANCH  49  63
BRANCH  50  73
ATOM     73  C   UNL A   1      42.440  23.672  27.873  1.00  0.00    -0.014 A 
ATOM     74  C   UNL A   1      42.760  23.424  26.527  1.00  0.00     0.010 A 
ATOM     75  C   UNL A   1      41.938  22.620  28.661  1.00  0.00     0.010 A 
ATOM     76  C   UNL A   1      42.566  22.154  25.974  1.00  0.00     0.020 A 
ATOM     77  C   UNL A   1      41.767  21.342  28.119  1.00  0.00     0.020 A 
ATOM     78  C   UNL A   1      42.074  21.120  26.775  1.00  0.00     0.054 A 
BRANCH  78  79
ATOM     79  S   UNL A   1      41.883  19.467  26.053  1.00  0.00     0.124 S 
ATOM     80  O   UNL A   1      42.366  18.607  27.128  1.00  0.00    -0.237 OA
ATOM     81  O   UNL A   1      40.448  19.402  25.785  1.00  0.00    -0.237 OA
ATOM     82  O   UNL A   1      42.727  19.516  24.861  1.00  0.00    -0.744 OA
ENDBRANCH  78  79
ENDBRANCH  50  73
BRANCH  62  83
ATOM     83  C   UNL A   1      47.933  26.876  30.748  1.00  0.00    -0.014 A 
ATOM     84  C   UNL A   1      48.987  27.148  29.858  1.00  0.00     0.010 A 
ATOM     85  C   UNL A   1      48.212  26.239  31.971  1.00  0.00     0.010 A 
ATOM     86  C   UNL A   1      50.294  26.772  30.180  1.00  0.00     0.020 A 
ATOM     87  C   UNL A   1      49.521  25.886  32.306  1.00  0.00     0.020 A 
ATOM     88  C   UNL A   1      50.554  26.146  31.403  1.00  0.00     0.054 A 
BRANCH  88  89
ATOM     89  S   UNL A   1      52.267  25.727  31.825  1.00  0.00     0.124 S 
ATOM     90  O   UNL A   1      52.144  24.333  32.243  1.00  0.00    -0.237 OA
ATOM     91  O   UNL A   1      52.971  25.944  30.563  1.00  0.00    -0.237 OA
ATOM     92  O   UNL A   1      52.603  26.669  32.889  1.00  0.00    -0.744 OA
ENDBRANCH  88  89
ENDBRANCH  62  83
ENDBRANCH  36  37
ENDBRANCH  28  31
ENDBRANCH  26  27
ENDBRANCH  25  26
ENDBRANCH   1  25
TORSDOF 17
ENDMDL
MODEL 2
REMARK VINA RESULT:      -9.8      2.994      3.953
REMARK SMILES CSc1ncc(Cl)c(C(=O)Nc2ccsc2C(=O)NCCCCNC(=O)c2ccc(-c3c4nc(c(-c5ccc(S(=O)(=O)[O-])cc5)c5ccc([nH]5)c(-c5ccc(S(=O)(=O)[O-])cc5)c5nc(c(-c6ccc(S(=O)(=O)[O-])cc6)c6ccc3[nH]6)C=C5)C=C4)cc2)n1
REMARK SMILES IDX 21 1 20 2 19 3 17 4 18 5 16 7 12 8 13 9 14 10 15 11 11 12
REMARK SMILES IDX 9 13 10 14 8 16 3 17 4 18 87 19 5 20 6 21 7 22 2 23 1 24
REMARK SMILES IDX 22 25 23 26 24 27 25 28 26 30 27 31 28 32 86 33 29 34 85 35
REMARK SMILES IDX 30 36 31 37 32 38 79 39 33 40 84 41 78 42 80 43 34 44 83 45
REMARK SMILES IDX 77 46 76 47 35 49 65 50 46 51 64 52 47 53 50 54 63 55 81 56
REMARK SMILES IDX 48 57 49 58 62 60 82 61 51 62 36 63 37 64 45 65 38 66 44 67
REMARK SMILES IDX 39 68 40 69 41 70 42 71 43 72 66 73 67 74 75 75 68 76 74 77
REMARK SMILES IDX 69 78 70 79 71 80 72 81 73 82 52 83 53 84 61 85 54 86 60 87
REMARK SMILES IDX 55 88 56 89 57 90 58 91 59 92
REMARK H PARENT 19 6 11 15 24 29 80 48 50 59
REMARK Flexibility Score: inf
ROOT
ATOM      1  C   UNL A   1      35.065  30.130  27.103  1.00  0.00     0.023 C 
ENDROOT
BRANCH   1   2
ATOM      2  C   UNL A   1      34.058  29.067  26.687  1.00  0.00     0.116 C 
BRANCH   2   3
ATOM      3  N   UNL A   1      32.933  28.834  27.558  1.00  0.00    -0.351 N 
ATOM      4  C   UNL A   1      31.718  28.202  27.352  1.00  0.00     0.263 C 
ATOM      5  O   UNL A   1      31.026  28.130  28.375  1.00  0.00    -0.268 OA
ATOM      6  H   UNL A   1      33.050  29.191  28.469  1.00  0.00     0.163 HD
BRANCH   4   7
ATOM      7  C   UNL A   1      31.238  27.705  26.047  1.00  0.00     0.115 A 
ATOM      8  C   UNL A   1      30.754  26.498  25.542  1.00  0.00     0.065 A 
ATOM      9  C   UNL A   1      30.552  26.514  24.126  1.00  0.00     0.038 A 
ATOM     10  C   UNL A   1      30.859  27.729  23.567  1.00  0.00     0.068 A 
ATOM     11  S   UNL A   1      31.373  28.851  24.737  1.00  0.00    -0.137 S 
BRANCH   8  12
ATOM     12  N   UNL A   1      30.461  25.399  26.314  1.00  0.00    -0.319 N 
ATOM     13  C   UNL A   1      30.938  24.104  26.250  1.00  0.00     0.276 C 
ATOM     14  O   UNL A   1      30.477  23.327  27.094  1.00  0.00    -0.267 OA
ATOM     15  H   UNL A   1      29.803  25.561  27.029  1.00  0.00     0.170 HD
BRANCH  13  16
ATOM     16  C   UNL A   1      32.009  23.595  25.317  1.00  0.00     0.151 A 
ATOM     17  C   UNL A   1      32.570  21.741  24.047  1.00  0.00     0.188 A 
ATOM     18  N   UNL A   1      33.717  22.281  23.629  1.00  0.00    -0.230 NA
ATOM     19  N   UNL A   1      31.664  22.381  24.793  1.00  0.00    -0.216 NA
ATOM     20  C   UNL A   1      34.039  23.468  24.171  1.00  0.00     0.137 A 
ATOM     21  C   UNL A   1      33.267  24.135  25.101  1.00  0.00     0.090 A 
ATOM     22  Cl  UNL A   1      34.073  25.367  25.980  1.00  0.00    -0.080 Cl
BRANCH  17  23
ATOM     23  S   UNL A   1      32.430  19.983  23.890  1.00  0.00    -0.090 SA
ATOM     24  C   UNL A   1      33.065  19.503  25.499  1.00  0.00     0.094 C 
ENDBRANCH  17  23
ENDBRANCH  13  16
ENDBRANCH   8  12
ENDBRANCH   4   7
ENDBRANCH   2   3
ENDBRANCH   1   2
BRANCH   1  25
ATOM     25  C   UNL A   1      34.602  31.169  28.114  1.00  0.00     0.023 C 
BRANCH  25  26
ATOM     26  C   UNL A   1      35.677  31.787  29.001  1.00  0.00     0.116 C 
BRANCH  26  27
ATOM     27  N   UNL A   1      35.569  31.440  30.411  1.00  0.00    -0.352 N 
ATOM     28  C   UNL A   1      36.395  30.679  31.210  1.00  0.00     0.251 C 
ATOM     29  H   UNL A   1      34.778  31.809  30.868  1.00  0.00     0.163 HD
ATOM     30  O   UNL A   1      36.090  30.473  32.383  1.00  0.00    -0.269 OA
BRANCH  28  31
ATOM     31  C   UNL A   1      37.618  30.061  30.654  1.00  0.00     0.039 A 
ATOM     32  C   UNL A   1      37.932  30.282  29.309  1.00  0.00     0.014 A 
ATOM     33  C   UNL A   1      38.474  29.297  31.449  1.00  0.00     0.014 A 
ATOM     34  C   UNL A   1      39.157  29.841  28.799  1.00  0.00     0.010 A 
ATOM     35  C   UNL A   1      39.731  28.943  30.968  1.00  0.00     0.010 A 
ATOM     36  C   UNL A   1      40.094  29.224  29.642  1.00  0.00    -0.014 A 
BRANCH  36  37
ATOM     37  C   UNL A   1      41.465  28.886  29.174  1.00  0.00     0.031 A 
ATOM     38  C   UNL A   1      42.524  29.953  29.094  1.00  0.00     0.074 A 
ATOM     39  C   UNL A   1      41.733  27.641  28.728  1.00  0.00     0.049 A 
ATOM     40  N   UNL A   1      43.734  29.880  28.601  1.00  0.00    -0.248 NA
ATOM     41  C   UNL A   1      42.164  31.286  29.606  1.00  0.00     0.031 C 
ATOM     42  C   UNL A   1      40.785  26.522  28.705  1.00  0.00     0.029 A 
ATOM     43  N   UNL A   1      42.880  27.108  28.192  1.00  0.00    -0.354 N 
ATOM     44  C   UNL A   1      44.266  31.159  28.716  1.00  0.00     0.074 A 
ATOM     45  C   UNL A   1      43.233  31.997  29.284  1.00  0.00     0.031 C 
ATOM     46  C   UNL A   1      41.395  25.435  28.208  1.00  0.00     0.029 A 
ATOM     47  C   UNL A   1      42.762  25.785  27.831  1.00  0.00     0.049 A 
ATOM     48  H   UNL A   1      43.710  27.624  28.077  1.00  0.00     0.167 HD
ATOM     49  C   UNL A   1      45.509  31.594  28.398  1.00  0.00     0.031 A 
ATOM     50  C   UNL A   1      43.644  24.949  27.252  1.00  0.00     0.031 A 
ATOM     51  C   UNL A   1      46.545  30.754  27.858  1.00  0.00     0.049 A 
ATOM     52  C   UNL A   1      45.020  25.452  26.911  1.00  0.00     0.074 A 
ATOM     53  C   UNL A   1      47.855  31.088  27.563  1.00  0.00     0.029 A 
ATOM     54  N   UNL A   1      46.389  29.415  27.534  1.00  0.00    -0.354 N 
ATOM     55  N   UNL A   1      45.523  26.651  27.085  1.00  0.00    -0.248 NA
ATOM     56  C   UNL A   1      45.950  24.489  26.304  1.00  0.00     0.031 C 
ATOM     57  C   UNL A   1      48.480  29.961  27.020  1.00  0.00     0.029 A 
ATOM     58  C   UNL A   1      47.575  28.912  27.025  1.00  0.00     0.049 A 
ATOM     59  H   UNL A   1      45.560  28.898  27.649  1.00  0.00     0.167 HD
ATOM     60  C   UNL A   1      46.837  26.578  26.633  1.00  0.00     0.074 A 
ATOM     61  C   UNL A   1      47.053  25.217  26.189  1.00  0.00     0.031 C 
ATOM     62  C   UNL A   1      47.778  27.553  26.593  1.00  0.00     0.031 A 
BRANCH  49  63
ATOM     63  C   UNL A   1      45.814  33.051  28.624  1.00  0.00    -0.014 A 
ATOM     64  C   UNL A   1      45.567  34.008  27.623  1.00  0.00     0.010 A 
ATOM     65  C   UNL A   1      46.327  33.475  29.863  1.00  0.00     0.010 A 
ATOM     66  C   UNL A   1      45.870  35.354  27.839  1.00  0.00     0.020 A 
ATOM     67  C   UNL A   1      46.605  34.825  30.094  1.00  0.00     0.020 A 
ATOM     68  C   UNL A   1      46.394  35.753  29.072  1.00  0.00     0.054 A 
BRANCH  68  69
ATOM     69  S   UNL A   1      46.767  37.509  29.331  1.00  0.00     0.124 S 
ATOM     70  O   UNL A   1      45.491  38.139  29.000  1.00  0.00    -0.237 OA
ATOM     71  O   UNL A   1      47.141  37.554  30.743  1.00  0.00    -0.237 OA
ATOM     72  O   UNL A   1      47.854  37.775  28.394  1.00  0.00    -0.744 OA
ENDBRANCH  68  69
ENDBRANCH  49  63
BRANCH  50  73
ATOM     73  C   UNL A   1      43.258  23.538  26.968  1.00  0.00    -0.014 A 
ATOM     74  C   UNL A   1      43.001  23.123  25.650  1.00  0.00     0.010 A 
ATOM     75  C   UNL A   1      43.160  22.600  28.012  1.00  0.00     0.010 A 
ATOM     76  C   UNL A   1      42.638  21.800  25.381  1.00  0.00     0.020 A 
ATOM     77  C   UNL A   1      42.823  21.270  27.744  1.00  0.00     0.020 A 
ATOM     78  C   UNL A   1      42.554  20.881  26.431  1.00  0.00     0.054 A 
BRANCH  78  79
ATOM     79  S   UNL A   1      42.136  19.156  26.052  1.00  0.00     0.124 S 
ATOM     80  O   UNL A   1      40.695  19.233  25.835  1.00  0.00    -0.237 OA
ATOM     81  O   UNL A   1      42.943  18.888  24.864  1.00  0.00    -0.237 OA
ATOM     82  O   UNL A   1      42.552  18.433  27.252  1.00  0.00    -0.744 OA
ENDBRANCH  78  79
ENDBRANCH  50  73
BRANCH  62  83
ATOM     83  C   UNL A   1      49.145  27.181  26.084  1.00  0.00    -0.014 A 
ATOM     84  C   UNL A   1      49.491  27.354  24.733  1.00  0.00     0.010 A 
ATOM     85  C   UNL A   1      50.118  26.721  26.990  1.00  0.00     0.010 A 
ATOM     86  C   UNL A   1      50.783  27.055  24.293  1.00  0.00     0.020 A 
ATOM     87  C   UNL A   1      51.418  26.445  26.558  1.00  0.00     0.020 A 
ATOM     88  C   UNL A   1      51.739  26.605  25.209  1.00  0.00     0.054 A 
BRANCH  88  89
ATOM     89  S   UNL A   1      53.427  26.285  24.626  1.00  0.00     0.124 S 
ATOM     90  O   UNL A   1      53.461  27.032  23.372  1.00  0.00    -0.237 OA
ATOM     91  O   UNL A   1      54.247  26.829  25.705  1.00  0.00    -0.237 OA
ATOM     92  O   UNL A   1      53.476  24.831  24.487  1.00  0.00    -0.744 OA
ENDBRANCH  88  89
ENDBRANCH  62  83
ENDBRANCH  36  37
ENDBRANCH  28  31
ENDBRANCH  26  27
ENDBRANCH  25  26
ENDBRANCH   1  25
TORSDOF 17
ENDMDL
MODEL 3
REMARK VINA RESULT:      -9.6      2.463      2.996
REMARK SMILES CSc1ncc(Cl)c(C(=O)Nc2ccsc2C(=O)NCCCCNC(=O)c2ccc(-c3c4nc(c(-c5ccc(S(=O)(=O)[O-])cc5)c5ccc([nH]5)c(-c5ccc(S(=O)(=O)[O-])cc5)c5nc(c(-c6ccc(S(=O)(=O)[O-])cc6)c6ccc3[nH]6)C=C5)C=C4)cc2)n1
REMARK SMILES IDX 21 1 20 2 19 3 17 4 18 5 16 7 12 8 13 9 14 10 15 11 11 12
REMARK SMILES IDX 9 13 10 14 8 16 3 17 4 18 87 19 5 20 6 21 7 22 2 23 1 24
REMARK SMILES IDX 22 25 23 26 24 27 25 28 26 30 27 31 28 32 86 33 29 34 85 35
REMARK SMILES IDX 30 36 31 37 32 38 79 39 33 40 84 41 78 42 80 43 34 44 83 45
REMARK SMILES IDX 77 46 76 47 35 49 65 50 46 51 64 52 47 53 50 54 63 55 81 56
REMARK SMILES IDX 48 57 49 58 62 60 82 61 51 62 36 63 37 64 45 65 38 66 44 67
REMARK SMILES IDX 39 68 40 69 41 70 42 71 43 72 66 73 67 74 75 75 68 76 74 77
REMARK SMILES IDX 69 78 70 79 71 80 72 81 73 82 52 83 53 84 61 85 54 86 60 87
REMARK SMILES IDX 55 88 56 89 57 90 58 91 59 92
REMARK H PARENT 19 6 11 15 24 29 80 48 50 59
REMARK Flexibility Score: inf
ROOT
ATOM      1  C   UNL A   1      32.243  27.546  26.483  1.00  0.00     0.023 C 
ENDROOT
BRANCH   1   2
ATOM      2  C   UNL A   1      31.377  26.297  26.392  1.00  0.00     0.116 C 
BRANCH   2   3
ATOM      3  N   UNL A   1      30.231  26.340  25.518  1.00  0.00    -0.351 N 
ATOM      4  C   UNL A   1      30.105  26.192  24.147  1.00  0.00     0.263 C 
ATOM      5  O   UNL A   1      28.930  26.217  23.759  1.00  0.00    -0.268 OA
ATOM      6  H   UNL A   1      29.378  26.506  25.983  1.00  0.00     0.163 HD
BRANCH   4   7
ATOM      7  C   UNL A   1      31.237  26.073  23.205  1.00  0.00     0.115 A 
ATOM      8  C   UNL A   1      31.983  25.034  22.649  1.00  0.00     0.065 A 
ATOM      9  C   UNL A   1      33.097  25.486  21.874  1.00  0.00     0.038 A 
ATOM     10  C   UNL A   1      33.180  26.854  21.825  1.00  0.00     0.068 A 
ATOM     11  S   UNL A   1      31.920  27.595  22.693  1.00  0.00    -0.137 S 
BRANCH   8  12
ATOM     12  N   UNL A   1      31.678  23.701  22.791  1.00  0.00    -0.319 N 
ATOM     13  C   UNL A   1      32.229  22.737  23.612  1.00  0.00     0.276 C 
ATOM     14  O   UNL A   1      31.734  21.608  23.510  1.00  0.00    -0.267 OA
ATOM     15  H   UNL A   1      30.949  23.382  22.211  1.00  0.00     0.170 HD
BRANCH  13  16
ATOM     16  C   UNL A   1      33.294  22.960  24.656  1.00  0.00     0.151 A 
ATOM     17  C   UNL A   1      35.592  22.882  24.941  1.00  0.00     0.188 A 
ATOM     18  N   UNL A   1      35.519  23.217  26.232  1.00  0.00    -0.230 NA
ATOM     19  N   UNL A   1      34.543  22.839  24.114  1.00  0.00    -0.216 NA
ATOM     20  C   UNL A   1      34.279  23.316  26.743  1.00  0.00     0.137 A 
ATOM     21  C   UNL A   1      33.120  23.102  26.023  1.00  0.00     0.090 A 
ATOM     22  Cl  UNL A   1      31.712  22.827  26.962  1.00  0.00    -0.080 Cl
BRANCH  17  23
ATOM     23  S   UNL A   1      37.104  22.126  24.414  1.00  0.00    -0.090 SA
ATOM     24  C   UNL A   1      36.801  20.454  24.993  1.00  0.00     0.094 C 
ENDBRANCH  17  23
ENDBRANCH  13  16
ENDBRANCH   8  12
ENDBRANCH   4   7
ENDBRANCH   2   3
ENDBRANCH   1   2
BRANCH   1  25
ATOM     25  C   UNL A   1      33.652  27.458  25.914  1.00  0.00     0.023 C 
BRANCH  25  26
ATOM     26  C   UNL A   1      34.642  28.523  26.373  1.00  0.00     0.116 C 
BRANCH  26  27
ATOM     27  N   UNL A   1      34.043  29.818  26.663  1.00  0.00    -0.352 N 
ATOM     28  C   UNL A   1      34.431  30.805  27.544  1.00  0.00     0.251 C 
ATOM     29  H   UNL A   1      33.228  30.023  26.147  1.00  0.00     0.163 HD
ATOM     30  O   UNL A   1      33.746  31.819  27.665  1.00  0.00    -0.269 OA
BRANCH  28  31
ATOM     31  C   UNL A   1      35.634  30.631  28.386  1.00  0.00     0.039 A 
ATOM     32  C   UNL A   1      35.585  29.723  29.449  1.00  0.00     0.014 A 
ATOM     33  C   UNL A   1      36.816  31.323  28.119  1.00  0.00     0.014 A 
ATOM     34  C   UNL A   1      36.749  29.424  30.163  1.00  0.00     0.010 A 
ATOM     35  C   UNL A   1      37.993  30.954  28.765  1.00  0.00     0.010 A 
ATOM     36  C   UNL A   1      37.977  29.990  29.784  1.00  0.00    -0.014 A 
BRANCH  36  37
ATOM     37  C   UNL A   1      39.258  29.575  30.416  1.00  0.00     0.031 A 
ATOM     38  C   UNL A   1      39.804  30.336  31.595  1.00  0.00     0.074 A 
ATOM     39  C   UNL A   1      39.981  28.574  29.871  1.00  0.00     0.049 A 
ATOM     40  N   UNL A   1      40.955  30.203  32.202  1.00  0.00    -0.248 NA
ATOM     41  C   UNL A   1      38.957  31.410  32.141  1.00  0.00     0.031 C 
ATOM     42  C   UNL A   1      39.592  27.782  28.700  1.00  0.00     0.029 A 
ATOM     43  N   UNL A   1      41.205  28.058  30.222  1.00  0.00    -0.354 N 
ATOM     44  C   UNL A   1      40.983  31.191  33.179  1.00  0.00     0.074 A 
ATOM     45  C   UNL A   1      39.755  31.944  33.054  1.00  0.00     0.031 C 
ATOM     46  C   UNL A   1      40.543  26.869  28.447  1.00  0.00     0.029 A 
ATOM     47  C   UNL A   1      41.633  27.038  29.404  1.00  0.00     0.049 A 
ATOM     48  H   UNL A   1      41.728  28.389  30.988  1.00  0.00     0.167 HD
ATOM     49  C   UNL A   1      41.936  31.440  34.109  1.00  0.00     0.031 A 
ATOM     50  C   UNL A   1      42.775  26.324  29.412  1.00  0.00     0.031 A 
ATOM     51  C   UNL A   1      43.146  30.675  34.250  1.00  0.00     0.049 A 
ATOM     52  C   UNL A   1      43.816  26.613  30.457  1.00  0.00     0.074 A 
ATOM     53  C   UNL A   1      44.141  30.808  35.203  1.00  0.00     0.029 A 
ATOM     54  N   UNL A   1      43.524  29.633  33.418  1.00  0.00    -0.354 N 
ATOM     55  N   UNL A   1      43.795  27.513  31.411  1.00  0.00    -0.248 NA
ATOM     56  C   UNL A   1      45.031  25.786  30.433  1.00  0.00     0.031 C 
ATOM     57  C   UNL A   1      45.143  29.875  34.920  1.00  0.00     0.029 A 
ATOM     58  C   UNL A   1      44.748  29.126  33.824  1.00  0.00     0.049 A 
ATOM     59  H   UNL A   1      43.002  29.302  32.653  1.00  0.00     0.167 HD
ATOM     60  C   UNL A   1      44.982  27.342  32.117  1.00  0.00     0.074 A 
ATOM     61  C   UNL A   1      45.691  26.248  31.488  1.00  0.00     0.031 C 
ATOM     62  C   UNL A   1      45.439  28.031  33.191  1.00  0.00     0.031 A 
BRANCH  49  63
ATOM     63  C   UNL A   1      41.705  32.594  35.050  1.00  0.00    -0.014 A 
ATOM     64  C   UNL A   1      42.160  33.887  34.736  1.00  0.00     0.010 A 
ATOM     65  C   UNL A   1      40.998  32.389  36.248  1.00  0.00     0.010 A 
ATOM     66  C   UNL A   1      41.954  34.945  35.624  1.00  0.00     0.020 A 
ATOM     67  C   UNL A   1      40.765  33.451  37.127  1.00  0.00     0.020 A 
ATOM     68  C   UNL A   1      41.263  34.719  36.818  1.00  0.00     0.054 A 
BRANCH  68  69
ATOM     69  S   UNL A   1      40.998  36.113  37.947  1.00  0.00     0.124 S 
ATOM     70  O   UNL A   1      39.824  36.755  37.361  1.00  0.00    -0.237 OA
ATOM     71  O   UNL A   1      40.777  35.450  39.231  1.00  0.00    -0.237 OA
ATOM     72  O   UNL A   1      42.239  36.877  37.852  1.00  0.00    -0.744 OA
ENDBRANCH  68  69
ENDBRANCH  49  63
BRANCH  50  73
ATOM     73  C   UNL A   1      42.989  25.252  28.400  1.00  0.00    -0.014 A 
ATOM     74  C   UNL A   1      43.609  25.546  27.173  1.00  0.00     0.010 A 
ATOM     75  C   UNL A   1      42.589  23.929  28.664  1.00  0.00     0.010 A 
ATOM     76  C   UNL A   1      43.811  24.542  26.221  1.00  0.00     0.020 A 
ATOM     77  C   UNL A   1      42.813  22.916  27.726  1.00  0.00     0.020 A 
ATOM     78  C   UNL A   1      43.414  23.232  26.506  1.00  0.00     0.054 A 
BRANCH  78  79
ATOM     79  S   UNL A   1      43.737  21.934  25.280  1.00  0.00     0.124 S 
ATOM     80  O   UNL A   1      43.594  22.660  24.023  1.00  0.00    -0.237 OA
ATOM     81  O   UNL A   1      45.094  21.511  25.616  1.00  0.00    -0.237 OA
ATOM     82  O   UNL A   1      42.700  20.941  25.553  1.00  0.00    -0.744 OA
ENDBRANCH  78  79
ENDBRANCH  50  73
BRANCH  62  83
ATOM     83  C   UNL A   1      46.754  27.603  33.785  1.00  0.00    -0.014 A 
ATOM     84  C   UNL A   1      47.962  28.197  33.383  1.00  0.00     0.010 A 
ATOM     85  C   UNL A   1      46.768  26.642  34.813  1.00  0.00     0.010 A 
ATOM     86  C   UNL A   1      49.166  27.824  33.988  1.00  0.00     0.020 A 
ATOM     87  C   UNL A   1      47.966  26.286  35.437  1.00  0.00     0.020 A 
ATOM     88  C   UNL A   1      49.160  26.873  35.012  1.00  0.00     0.054 A 
BRANCH  88  89
ATOM     89  S   UNL A   1      50.727  26.452  35.825  1.00  0.00     0.124 S 
ATOM     90  O   UNL A   1      50.561  25.024  36.082  1.00  0.00    -0.237 OA
ATOM     91  O   UNL A   1      51.718  26.796  34.808  1.00  0.00    -0.237 OA
ATOM     92  O   UNL A   1      50.741  27.302  37.012  1.00  0.00    -0.744 OA
ENDBRANCH  88  89
ENDBRANCH  62  83
ENDBRANCH  36  37
ENDBRANCH  28  31
ENDBRANCH  26  27
ENDBRANCH  25  26
ENDBRANCH   1  25
TORSDOF 17
ENDMDL
