MODEL 1
REMARK VINA RESULT:     -12.6      0.000      0.000
REMARK SMILES O=C1O[C@@H](c2ccc(O)c(O)c2)[C@H](C(=O)NCCCCNC(=O)c2ccc(-c3c4nc(c(-c5ccc(S(=O)(=O)[O-])cc5)c5ccc([nH]5)c(-c5ccc(S(=O)(=O)[O-])cc5)c5nc(c(-c6ccc(S(=O)(=O)[O-])cc6)c6ccc3[nH]6)C=C5)C=C4)cc2)/C1=C\c1ccc(O)c(O)c1
REMARK SMILES IDX 19 1 18 2 17 3 16 4 14 5 15 6 13 8 1 9 2 10 3 11 84 12 4 13
REMARK SMILES IDX 85 14 5 15 6 16 12 17 7 18 10 19 8 20 11 21 9 23 86 25 87 26
REMARK SMILES IDX 93 27 88 28 91 29 89 30 92 31 90 33 20 35 21 36 22 37 23 39
REMARK SMILES IDX 24 40 25 41 83 42 26 43 82 44 27 45 28 46 29 47 76 48 30 49
REMARK SMILES IDX 81 50 75 51 77 52 31 53 80 54 74 55 73 56 32 58 62 59 43 60
REMARK SMILES IDX 61 61 44 62 47 63 60 64 78 65 45 66 46 67 59 69 79 70 48 71
REMARK SMILES IDX 33 72 34 73 42 74 35 75 41 76 36 77 37 78 38 79 39 80 40 81
REMARK SMILES IDX 63 82 64 83 72 84 65 85 71 86 66 87 67 88 68 89 69 90 70 91
REMARK SMILES IDX 49 92 50 93 58 94 51 95 57 96 52 97 53 98 54 99 55 100
REMARK SMILES IDX 56 101
REMARK H PARENT 16 7 11 22 9 24 92 32 90 34 21 38 77 57 47 68
REMARK Flexibility Score: inf
ROOT
ATOM      1  C   UNL A   1      31.974  28.136  27.642  1.00  0.00     0.023 C 
ENDROOT
BRANCH   1   2
ATOM      2  C   UNL A   1      31.413  27.359  26.458  1.00  0.00     0.023 C 
BRANCH   2   3
ATOM      3  C   UNL A   1      32.103  26.031  26.191  1.00  0.00     0.116 C 
BRANCH   3   4
ATOM      4  N   UNL A   1      31.434  24.887  26.778  1.00  0.00    -0.355 N 
ATOM      5  C   UNL A   1      31.777  23.562  26.796  1.00  0.00     0.231 C 
ATOM      6  O   UNL A   1      31.114  22.830  27.533  1.00  0.00    -0.274 OA
ATOM      7  H   UNL A   1      30.592  25.099  27.241  1.00  0.00     0.163 HD
BRANCH   5   8
ATOM      8  C   UNL A   1      32.861  23.020  25.857  1.00  0.00     0.161 C 
ATOM      9  O   UNL A   1      31.866  19.828  24.574  1.00  0.00    -0.247 OA
ATOM     10  C   UNL A   1      32.396  20.777  25.127  1.00  0.00     0.335 C 
ATOM     11  O   UNL A   1      33.246  20.693  26.176  1.00  0.00    -0.453 OA
ATOM     12  C   UNL A   1      32.271  22.197  24.758  1.00  0.00     0.054 C 
ATOM     13  C   UNL A   1      33.772  21.988  26.516  1.00  0.00     0.224 C 
ATOM     14  C   UNL A   1      31.733  22.528  23.575  1.00  0.00     0.020 C 
BRANCH  13  15
ATOM     15  C   UNL A   1      35.252  22.115  26.138  1.00  0.00    -0.002 A 
ATOM     16  C   UNL A   1      35.969  23.313  26.366  1.00  0.00     0.012 A 
ATOM     17  C   UNL A   1      35.965  21.014  25.639  1.00  0.00     0.057 A 
ATOM     18  C   UNL A   1      37.344  23.408  26.133  1.00  0.00     0.050 A 
ATOM     19  C   UNL A   1      37.329  21.124  25.385  1.00  0.00     0.157 A 
ATOM     20  C   UNL A   1      38.018  22.305  25.641  1.00  0.00     0.157 A 
BRANCH  19  21
ATOM     21  O   UNL A   1      38.001  20.045  24.887  1.00  0.00    -0.504 OA
ATOM     22  H   UNL A   1      38.926  20.094  24.744  1.00  0.00     0.293 HD
ENDBRANCH  19  21
BRANCH  20  23
ATOM     23  O   UNL A   1      39.363  22.331  25.399  1.00  0.00    -0.504 OA
ATOM     24  H   UNL A   1      39.687  22.693  24.598  1.00  0.00     0.293 HD
ENDBRANCH  20  23
ENDBRANCH  13  15
BRANCH  14  25
ATOM     25  C   UNL A   1      31.582  23.896  23.085  1.00  0.00    -0.021 A 
ATOM     26  C   UNL A   1      30.456  24.666  23.415  1.00  0.00     0.012 A 
ATOM     27  C   UNL A   1      32.602  24.458  22.310  1.00  0.00     0.058 A 
ATOM     28  C   UNL A   1      30.329  25.978  22.946  1.00  0.00     0.051 A 
ATOM     29  C   UNL A   1      32.473  25.763  21.858  1.00  0.00     0.157 A 
ATOM     30  C   UNL A   1      31.343  26.517  22.164  1.00  0.00     0.157 A 
BRANCH  29  31
ATOM     31  O   UNL A   1      33.472  26.308  21.103  1.00  0.00    -0.504 OA
ATOM     32  H   UNL A   1      33.262  26.807  20.338  1.00  0.00     0.293 HD
ENDBRANCH  29  31
BRANCH  30  33
ATOM     33  O   UNL A   1      31.278  27.791  21.676  1.00  0.00    -0.504 OA
ATOM     34  H   UNL A   1      30.671  28.001  20.994  1.00  0.00     0.293 HD
ENDBRANCH  30  33
ENDBRANCH  14  25
ENDBRANCH   5   8
ENDBRANCH   3   4
ENDBRANCH   2   3
ENDBRANCH   1   2
BRANCH   1  35
ATOM     35  C   UNL A   1      33.363  28.718  27.426  1.00  0.00     0.116 C 
BRANCH  35  36
ATOM     36  N   UNL A   1      33.411  30.169  27.569  1.00  0.00    -0.352 N 
ATOM     37  C   UNL A   1      34.470  30.937  28.002  1.00  0.00     0.251 C 
ATOM     38  H   UNL A   1      32.591  30.657  27.327  1.00  0.00     0.163 HD
ATOM     39  O   UNL A   1      34.337  32.139  28.197  1.00  0.00    -0.269 OA
BRANCH  37  40
ATOM     40  C   UNL A   1      35.756  30.262  28.262  1.00  0.00     0.039 A 
ATOM     41  C   UNL A   1      36.723  30.212  27.256  1.00  0.00     0.014 A 
ATOM     42  C   UNL A   1      36.038  29.796  29.548  1.00  0.00     0.014 A 
ATOM     43  C   UNL A   1      38.010  29.769  27.567  1.00  0.00     0.010 A 
ATOM     44  C   UNL A   1      37.340  29.447  29.875  1.00  0.00     0.010 A 
ATOM     45  C   UNL A   1      38.341  29.427  28.889  1.00  0.00    -0.014 A 
BRANCH  45  46
ATOM     46  C   UNL A   1      39.712  29.014  29.282  1.00  0.00     0.031 A 
ATOM     47  C   UNL A   1      40.606  30.009  29.973  1.00  0.00     0.074 A 
ATOM     48  C   UNL A   1      40.186  27.799  28.939  1.00  0.00     0.049 A 
ATOM     49  N   UNL A   1      41.878  29.919  30.255  1.00  0.00    -0.248 NA
ATOM     50  C   UNL A   1      39.991  31.289  30.365  1.00  0.00     0.031 C 
ATOM     51  C   UNL A   1      39.428  26.750  28.253  1.00  0.00     0.029 A 
ATOM     52  N   UNL A   1      41.433  27.247  29.108  1.00  0.00    -0.354 N 
ATOM     53  C   UNL A   1      42.220  31.136  30.833  1.00  0.00     0.074 A 
ATOM     54  C   UNL A   1      41.038  31.967  30.805  1.00  0.00     0.031 C 
ATOM     55  C   UNL A   1      40.218  25.676  28.080  1.00  0.00     0.029 A 
ATOM     56  C   UNL A   1      41.553  25.978  28.589  1.00  0.00     0.049 A 
ATOM     57  H   UNL A   1      42.172  27.716  29.559  1.00  0.00     0.167 HD
ATOM     58  C   UNL A   1      43.405  31.521  31.362  1.00  0.00     0.031 A 
ATOM     59  C   UNL A   1      42.621  25.158  28.516  1.00  0.00     0.031 A 
ATOM     60  C   UNL A   1      44.574  30.686  31.399  1.00  0.00     0.049 A 
ATOM     61  C   UNL A   1      43.941  25.624  29.073  1.00  0.00     0.074 A 
ATOM     62  C   UNL A   1      45.813  30.967  31.946  1.00  0.00     0.029 A 
ATOM     63  N   UNL A   1      44.649  29.405  30.873  1.00  0.00    -0.354 N 
ATOM     64  N   UNL A   1      44.236  26.764  29.652  1.00  0.00    -0.248 NA
ATOM     65  C   UNL A   1      45.073  24.689  28.977  1.00  0.00     0.031 C 
ATOM     66  C   UNL A   1      46.654  29.879  31.700  1.00  0.00     0.029 A 
ATOM     67  C   UNL A   1      45.917  28.890  31.066  1.00  0.00     0.049 A 
ATOM     68  H   UNL A   1      43.909  28.933  30.427  1.00  0.00     0.167 HD
ATOM     69  C   UNL A   1      45.572  26.663  30.030  1.00  0.00     0.074 A 
ATOM     70  C   UNL A   1      46.027  25.353  29.616  1.00  0.00     0.031 C 
ATOM     71  C   UNL A   1      46.348  27.571  30.671  1.00  0.00     0.031 A 
BRANCH  58  72
ATOM     72  C   UNL A   1      43.492  32.908  31.941  1.00  0.00    -0.014 A 
ATOM     73  C   UNL A   1      43.863  34.007  31.144  1.00  0.00     0.010 A 
ATOM     74  C   UNL A   1      43.165  33.125  33.292  1.00  0.00     0.010 A 
ATOM     75  C   UNL A   1      43.948  35.286  31.696  1.00  0.00     0.020 A 
ATOM     76  C   UNL A   1      43.215  34.410  33.840  1.00  0.00     0.020 A 
ATOM     77  C   UNL A   1      43.623  35.480  33.041  1.00  0.00     0.054 A 
BRANCH  77  78
ATOM     78  S   UNL A   1      43.715  37.158  33.721  1.00  0.00     0.124 S 
ATOM     79  O   UNL A   1      44.966  37.108  34.475  1.00  0.00    -0.237 OA
ATOM     80  O   UNL A   1      43.741  37.987  32.519  1.00  0.00    -0.237 OA
ATOM     81  O   UNL A   1      42.506  37.272  34.531  1.00  0.00    -0.744 OA
ENDBRANCH  77  78
ENDBRANCH  58  72
BRANCH  59  82
ATOM     82  C   UNL A   1      42.492  23.807  27.900  1.00  0.00    -0.014 A 
ATOM     83  C   UNL A   1      41.981  22.729  28.646  1.00  0.00     0.010 A 
ATOM     84  C   UNL A   1      42.886  23.585  26.567  1.00  0.00     0.010 A 
ATOM     85  C   UNL A   1      41.893  21.452  28.084  1.00  0.00     0.020 A 
ATOM     86  C   UNL A   1      42.770  22.316  25.990  1.00  0.00     0.020 A 
ATOM     87  C   UNL A   1      42.287  21.254  26.757  1.00  0.00     0.054 A 
BRANCH  87  88
ATOM     88  S   UNL A   1      42.128  19.596  26.037  1.00  0.00     0.124 S 
ATOM     89  O   UNL A   1      40.699  19.522  25.755  1.00  0.00    -0.237 OA
ATOM     90  O   UNL A   1      43.002  19.677  24.869  1.00  0.00    -0.237 OA
ATOM     91  O   UNL A   1      42.604  18.715  27.101  1.00  0.00    -0.744 OA
ENDBRANCH  87  88
ENDBRANCH  59  82
BRANCH  71  92
ATOM     92  C   UNL A   1      47.751  27.166  31.041  1.00  0.00    -0.014 A 
ATOM     93  C   UNL A   1      48.020  26.384  32.176  1.00  0.00     0.010 A 
ATOM     94  C   UNL A   1      48.806  27.501  30.172  1.00  0.00     0.010 A 
ATOM     95  C   UNL A   1      49.324  25.957  32.443  1.00  0.00     0.020 A 
ATOM     96  C   UNL A   1      50.104  27.049  30.418  1.00  0.00     0.020 A 
ATOM     97  C   UNL A   1      50.356  26.285  31.558  1.00  0.00     0.054 A 
BRANCH  97  98
ATOM     98  S   UNL A   1      52.024  25.651  31.886  1.00  0.00     0.124 S 
ATOM     99  O   UNL A   1      51.764  24.240  32.159  1.00  0.00    -0.237 OA
ATOM    100  O   UNL A   1      52.723  25.932  30.636  1.00  0.00    -0.237 OA
ATOM    101  O   UNL A   1      52.473  26.434  33.035  1.00  0.00    -0.744 OA
ENDBRANCH  97  98
ENDBRANCH  71  92
ENDBRANCH  45  46
ENDBRANCH  37  40
ENDBRANCH  35  36
ENDBRANCH   1  35
TORSDOF 20
ENDMDL
MODEL 2
REMARK VINA RESULT:     -12.3      2.476      9.347
REMARK SMILES O=C1O[C@@H](c2ccc(O)c(O)c2)[C@H](C(=O)NCCCCNC(=O)c2ccc(-c3c4nc(c(-c5ccc(S(=O)(=O)[O-])cc5)c5ccc([nH]5)c(-c5ccc(S(=O)(=O)[O-])cc5)c5nc(c(-c6ccc(S(=O)(=O)[O-])cc6)c6ccc3[nH]6)C=C5)C=C4)cc2)/C1=C\c1ccc(O)c(O)c1
REMARK SMILES IDX 19 1 18 2 17 3 16 4 14 5 15 6 13 8 1 9 2 10 3 11 84 12 4 13
REMARK SMILES IDX 85 14 5 15 6 16 12 17 7 18 10 19 8 20 11 21 9 23 86 25 87 26
REMARK SMILES IDX 93 27 88 28 91 29 89 30 92 31 90 33 20 35 21 36 22 37 23 39
REMARK SMILES IDX 24 40 25 41 83 42 26 43 82 44 27 45 28 46 29 47 76 48 30 49
REMARK SMILES IDX 81 50 75 51 77 52 31 53 80 54 74 55 73 56 32 58 62 59 43 60
REMARK SMILES IDX 61 61 44 62 47 63 60 64 78 65 45 66 46 67 59 69 79 70 48 71
REMARK SMILES IDX 33 72 34 73 42 74 35 75 41 76 36 77 37 78 38 79 39 80 40 81
REMARK SMILES IDX 63 82 64 83 72 84 65 85 71 86 66 87 67 88 68 89 69 90 70 91
REMARK SMILES IDX 49 92 50 93 58 94 51 95 57 96 52 97 53 98 54 99 55 100
REMARK SMILES IDX 56 101
REMARK H PARENT 16 7 11 22 9 24 92 32 90 34 21 38 77 57 47 68
REMARK Flexibility Score: inf
ROOT
ATOM      1  C   UNL A   1      36.639  23.080  23.648  1.00  0.00     0.023 C 
ENDROOT
BRANCH   1   2
ATOM      2  C   UNL A   1      35.118  23.109  23.572  1.00  0.00     0.023 C 
BRANCH   2   3
ATOM      3  C   UNL A   1      34.504  24.490  23.729  1.00  0.00     0.116 C 
BRANCH   3   4
ATOM      4  N   UNL A   1      33.508  24.814  22.727  1.00  0.00    -0.355 N 
ATOM      5  C   UNL A   1      32.468  25.704  22.753  1.00  0.00     0.231 C 
ATOM      6  O   UNL A   1      31.889  25.908  21.685  1.00  0.00    -0.274 OA
ATOM      7  H   UNL A   1      33.594  24.309  21.886  1.00  0.00     0.163 HD
BRANCH   5   8
ATOM      8  C   UNL A   1      31.995  26.317  24.076  1.00  0.00     0.161 C 
ATOM      9  O   UNL A   1      28.418  26.464  24.134  1.00  0.00    -0.247 OA
ATOM     10  C   UNL A   1      29.618  26.676  24.117  1.00  0.00     0.335 C 
ATOM     11  O   UNL A   1      30.198  27.847  23.766  1.00  0.00    -0.453 OA
ATOM     12  C   UNL A   1      30.686  25.742  24.510  1.00  0.00     0.054 C 
ATOM     13  C   UNL A   1      31.622  27.793  23.960  1.00  0.00     0.224 C 
ATOM     14  C   UNL A   1      30.373  24.624  25.181  1.00  0.00     0.020 C 
BRANCH  13  15
ATOM     15  C   UNL A   1      32.066  28.656  25.147  1.00  0.00    -0.002 A 
ATOM     16  C   UNL A   1      33.103  28.236  26.013  1.00  0.00     0.012 A 
ATOM     17  C   UNL A   1      31.519  29.931  25.355  1.00  0.00     0.057 A 
ATOM     18  C   UNL A   1      33.596  29.059  27.030  1.00  0.00     0.050 A 
ATOM     19  C   UNL A   1      31.997  30.735  26.386  1.00  0.00     0.157 A 
ATOM     20  C   UNL A   1      33.035  30.311  27.210  1.00  0.00     0.157 A 
BRANCH  19  21
ATOM     21  O   UNL A   1      31.442  31.967  26.579  1.00  0.00    -0.504 OA
ATOM     22  H   UNL A   1      31.408  32.582  25.873  1.00  0.00     0.293 HD
ENDBRANCH  19  21
BRANCH  20  23
ATOM     23  O   UNL A   1      33.476  31.166  28.180  1.00  0.00    -0.504 OA
ATOM     24  H   UNL A   1      33.013  31.963  28.347  1.00  0.00     0.293 HD
ENDBRANCH  20  23
ENDBRANCH  13  15
BRANCH  14  25
ATOM     25  C   UNL A   1      31.343  23.636  25.649  1.00  0.00    -0.021 A 
ATOM     26  C   UNL A   1      32.345  23.982  26.569  1.00  0.00     0.012 A 
ATOM     27  C   UNL A   1      31.239  22.315  25.202  1.00  0.00     0.058 A 
ATOM     28  C   UNL A   1      33.261  23.024  27.016  1.00  0.00     0.051 A 
ATOM     29  C   UNL A   1      32.144  21.369  25.659  1.00  0.00     0.157 A 
ATOM     30  C   UNL A   1      33.154  21.720  26.552  1.00  0.00     0.157 A 
BRANCH  29  31
ATOM     31  O   UNL A   1      32.038  20.080  25.222  1.00  0.00    -0.504 OA
ATOM     32  H   UNL A   1      32.737  19.691  24.735  1.00  0.00     0.293 HD
ENDBRANCH  29  31
BRANCH  30  33
ATOM     33  O   UNL A   1      34.019  20.739  26.950  1.00  0.00    -0.504 OA
ATOM     34  H   UNL A   1      33.705  19.869  27.097  1.00  0.00     0.293 HD
ENDBRANCH  30  33
ENDBRANCH  14  25
ENDBRANCH   5   8
ENDBRANCH   3   4
ENDBRANCH   2   3
ENDBRANCH   1   2
BRANCH   1  35
ATOM     35  C   UNL A   1      37.220  23.503  24.990  1.00  0.00     0.116 C 
BRANCH  35  36
ATOM     36  N   UNL A   1      38.184  22.550  25.529  1.00  0.00    -0.352 N 
ATOM     37  C   UNL A   1      39.251  22.812  26.361  1.00  0.00     0.251 C 
ATOM     38  H   UNL A   1      38.058  21.610  25.267  1.00  0.00     0.163 HD
ATOM     39  O   UNL A   1      40.061  21.937  26.639  1.00  0.00    -0.269 OA
BRANCH  37  40
ATOM     40  C   UNL A   1      39.410  24.187  26.873  1.00  0.00     0.039 A 
ATOM     41  C   UNL A   1      38.966  24.497  28.161  1.00  0.00     0.014 A 
ATOM     42  C   UNL A   1      40.114  25.125  26.114  1.00  0.00     0.014 A 
ATOM     43  C   UNL A   1      39.308  25.729  28.723  1.00  0.00     0.010 A 
ATOM     44  C   UNL A   1      40.531  26.306  26.710  1.00  0.00     0.010 A 
ATOM     45  C   UNL A   1      40.132  26.623  28.019  1.00  0.00    -0.014 A 
BRANCH  45  46
ATOM     46  C   UNL A   1      40.577  27.916  28.600  1.00  0.00     0.031 A 
ATOM     47  C   UNL A   1      41.975  28.028  29.148  1.00  0.00     0.074 A 
ATOM     48  C   UNL A   1      39.714  28.944  28.726  1.00  0.00     0.049 A 
ATOM     49  N   UNL A   1      42.514  28.996  29.840  1.00  0.00    -0.248 NA
ATOM     50  C   UNL A   1      42.870  26.882  28.917  1.00  0.00     0.031 C 
ATOM     51  C   UNL A   1      38.327  28.957  28.251  1.00  0.00     0.029 A 
ATOM     52  N   UNL A   1      39.873  30.177  29.308  1.00  0.00    -0.354 N 
ATOM     53  C   UNL A   1      43.800  28.565  30.145  1.00  0.00     0.074 A 
ATOM     54  C   UNL A   1      43.938  27.227  29.618  1.00  0.00     0.031 C 
ATOM     55  C   UNL A   1      37.773  30.146  28.543  1.00  0.00     0.029 A 
ATOM     56  C   UNL A   1      38.741  30.958  29.275  1.00  0.00     0.049 A 
ATOM     57  H   UNL A   1      40.720  30.475  29.714  1.00  0.00     0.167 HD
ATOM     58  C   UNL A   1      44.788  29.232  30.788  1.00  0.00     0.031 A 
ATOM     59  C   UNL A   1      38.503  32.182  29.788  1.00  0.00     0.031 A 
ATOM     60  C   UNL A   1      44.651  30.567  31.300  1.00  0.00     0.049 A 
ATOM     61  C   UNL A   1      39.605  32.888  30.537  1.00  0.00     0.074 A 
ATOM     62  C   UNL A   1      45.603  31.346  31.933  1.00  0.00     0.029 A 
ATOM     63  N   UNL A   1      43.492  31.325  31.234  1.00  0.00    -0.354 N 
ATOM     64  N   UNL A   1      40.827  32.481  30.782  1.00  0.00    -0.248 NA
ATOM     65  C   UNL A   1      39.298  34.224  31.070  1.00  0.00     0.031 C 
ATOM     66  C   UNL A   1      45.002  32.553  32.302  1.00  0.00     0.029 A 
ATOM     67  C   UNL A   1      43.698  32.556  31.830  1.00  0.00     0.049 A 
ATOM     68  H   UNL A   1      42.646  31.031  30.824  1.00  0.00     0.167 HD
ATOM     69  C   UNL A   1      41.448  33.529  31.455  1.00  0.00     0.074 A 
ATOM     70  C   UNL A   1      40.468  34.587  31.578  1.00  0.00     0.031 C 
ATOM     71  C   UNL A   1      42.719  33.610  31.921  1.00  0.00     0.031 A 
BRANCH  58  72
ATOM     72  C   UNL A   1      46.103  28.521  30.973  1.00  0.00    -0.014 A 
ATOM     73  C   UNL A   1      46.351  27.737  32.114  1.00  0.00     0.010 A 
ATOM     74  C   UNL A   1      47.091  28.608  29.976  1.00  0.00     0.010 A 
ATOM     75  C   UNL A   1      47.577  27.091  32.276  1.00  0.00     0.020 A 
ATOM     76  C   UNL A   1      48.308  27.934  30.117  1.00  0.00     0.020 A 
ATOM     77  C   UNL A   1      48.549  27.193  31.276  1.00  0.00     0.054 A 
BRANCH  77  78
ATOM     78  S   UNL A   1      50.120  26.318  31.503  1.00  0.00     0.124 S 
ATOM     79  O   UNL A   1      49.830  25.018  30.901  1.00  0.00    -0.237 OA
ATOM     80  O   UNL A   1      51.061  27.155  30.765  1.00  0.00    -0.237 OA
ATOM     81  O   UNL A   1      50.304  26.304  32.952  1.00  0.00    -0.744 OA
ENDBRANCH  77  78
ENDBRANCH  58  72
BRANCH  59  82
ATOM     82  C   UNL A   1      37.172  32.829  29.610  1.00  0.00    -0.014 A 
ATOM     83  C   UNL A   1      36.824  33.416  28.379  1.00  0.00     0.010 A 
ATOM     84  C   UNL A   1      36.247  32.871  30.669  1.00  0.00     0.010 A 
ATOM     85  C   UNL A   1      35.591  34.056  28.220  1.00  0.00     0.020 A 
ATOM     86  C   UNL A   1      34.999  33.481  30.504  1.00  0.00     0.020 A 
ATOM     87  C   UNL A   1      34.685  34.082  29.284  1.00  0.00     0.054 A 
BRANCH  87  88
ATOM     88  S   UNL A   1      33.076  34.886  29.040  1.00  0.00     0.124 S 
ATOM     89  O   UNL A   1      33.467  36.213  28.576  1.00  0.00    -0.237 OA
ATOM     90  O   UNL A   1      32.444  34.025  28.043  1.00  0.00    -0.237 OA
ATOM     91  O   UNL A   1      32.467  34.840  30.368  1.00  0.00    -0.744 OA
ENDBRANCH  87  88
ENDBRANCH  59  82
BRANCH  71  92
ATOM     92  C   UNL A   1      43.163  34.909  32.542  1.00  0.00    -0.014 A 
ATOM     93  C   UNL A   1      43.722  35.943  31.773  1.00  0.00     0.010 A 
ATOM     94  C   UNL A   1      42.920  35.126  33.911  1.00  0.00     0.010 A 
ATOM     95  C   UNL A   1      44.045  37.166  32.368  1.00  0.00     0.020 A 
ATOM     96  C   UNL A   1      43.212  36.356  34.502  1.00  0.00     0.020 A 
ATOM     97  C   UNL A   1      43.781  37.368  33.727  1.00  0.00     0.054 A 
BRANCH  97  98
ATOM     98  S   UNL A   1      44.137  38.991  34.454  1.00  0.00     0.124 S 
ATOM     99  O   UNL A   1      43.031  39.800  33.950  1.00  0.00    -0.237 OA
ATOM    100  O   UNL A   1      44.109  38.711  35.887  1.00  0.00    -0.237 OA
ATOM    101  O   UNL A   1      45.452  39.331  33.917  1.00  0.00    -0.744 OA
ENDBRANCH  97  98
ENDBRANCH  71  92
ENDBRANCH  45  46
ENDBRANCH  37  40
ENDBRANCH  35  36
ENDBRANCH   1  35
TORSDOF 20
ENDMDL
MODEL 3
REMARK VINA RESULT:     -11.5      3.630      7.861
REMARK SMILES O=C1O[C@@H](c2ccc(O)c(O)c2)[C@H](C(=O)NCCCCNC(=O)c2ccc(-c3c4nc(c(-c5ccc(S(=O)(=O)[O-])cc5)c5ccc([nH]5)c(-c5ccc(S(=O)(=O)[O-])cc5)c5nc(c(-c6ccc(S(=O)(=O)[O-])cc6)c6ccc3[nH]6)C=C5)C=C4)cc2)/C1=C\c1ccc(O)c(O)c1
REMARK SMILES IDX 19 1 18 2 17 3 16 4 14 5 15 6 13 8 1 9 2 10 3 11 84 12 4 13
REMARK SMILES IDX 85 14 5 15 6 16 12 17 7 18 10 19 8 20 11 21 9 23 86 25 87 26
REMARK SMILES IDX 93 27 88 28 91 29 89 30 92 31 90 33 20 35 21 36 22 37 23 39
REMARK SMILES IDX 24 40 25 41 83 42 26 43 82 44 27 45 28 46 29 47 76 48 30 49
REMARK SMILES IDX 81 50 75 51 77 52 31 53 80 54 74 55 73 56 32 58 62 59 43 60
REMARK SMILES IDX 61 61 44 62 47 63 60 64 78 65 45 66 46 67 59 69 79 70 48 71
REMARK SMILES IDX 33 72 34 73 42 74 35 75 41 76 36 77 37 78 38 79 39 80 40 81
REMARK SMILES IDX 63 82 64 83 72 84 65 85 71 86 66 87 67 88 68 89 69 90 70 91
REMARK SMILES IDX 49 92 50 93 58 94 51 95 57 96 52 97 53 98 54 99 55 100
REMARK SMILES IDX 56 101
REMARK H PARENT 16 7 11 22 9 24 92 32 90 34 21 38 77 57 47 68
REMARK Flexibility Score: inf
ROOT
ATOM      1  C   UNL A   1      38.532  19.660  24.918  1.00  0.00     0.023 C 
ENDROOT
BRANCH   1   2
ATOM      2  C   UNL A   1      37.170  20.336  25.006  1.00  0.00     0.023 C 
BRANCH   2   3
ATOM      3  C   UNL A   1      37.070  21.653  24.254  1.00  0.00     0.116 C 
BRANCH   3   4
ATOM      4  N   UNL A   1      36.800  22.800  25.098  1.00  0.00    -0.355 N 
ATOM      5  C   UNL A   1      35.639  23.227  25.684  1.00  0.00     0.231 C 
ATOM      6  O   UNL A   1      35.739  24.137  26.508  1.00  0.00    -0.274 OA
ATOM      7  H   UNL A   1      37.585  23.366  25.282  1.00  0.00     0.163 HD
BRANCH   5   8
ATOM      8  C   UNL A   1      34.284  22.664  25.240  1.00  0.00     0.161 C 
ATOM      9  O   UNL A   1      31.911  22.975  27.903  1.00  0.00    -0.247 OA
ATOM     10  C   UNL A   1      32.687  22.611  27.035  1.00  0.00     0.335 C 
ATOM     11  O   UNL A   1      33.240  21.380  26.950  1.00  0.00    -0.453 OA
ATOM     12  C   UNL A   1      33.151  23.397  25.880  1.00  0.00     0.054 C 
ATOM     13  C   UNL A   1      34.021  21.249  25.749  1.00  0.00     0.224 C 
ATOM     14  C   UNL A   1      32.523  24.538  25.561  1.00  0.00     0.020 C 
BRANCH  13  15
ATOM     15  C   UNL A   1      33.344  20.324  24.731  1.00  0.00    -0.002 A 
ATOM     16  C   UNL A   1      32.704  20.841  23.580  1.00  0.00     0.012 A 
ATOM     17  C   UNL A   1      33.420  18.930  24.863  1.00  0.00     0.057 A 
ATOM     18  C   UNL A   1      32.182  20.006  22.586  1.00  0.00     0.050 A 
ATOM     19  C   UNL A   1      32.876  18.105  23.883  1.00  0.00     0.157 A 
ATOM     20  C   UNL A   1      32.273  18.635  22.747  1.00  0.00     0.157 A 
BRANCH  19  21
ATOM     21  O   UNL A   1      32.949  16.750  24.038  1.00  0.00    -0.504 OA
ATOM     22  H   UNL A   1      32.322  16.306  24.575  1.00  0.00     0.293 HD
ENDBRANCH  19  21
BRANCH  20  23
ATOM     23  O   UNL A   1      31.790  17.766  21.810  1.00  0.00    -0.504 OA
ATOM     24  H   UNL A   1      31.842  16.843  21.957  1.00  0.00     0.293 HD
ENDBRANCH  20  23
ENDBRANCH  13  15
BRANCH  14  25
ATOM     25  C   UNL A   1      32.870  25.388  24.424  1.00  0.00    -0.021 A 
ATOM     26  C   UNL A   1      32.597  24.988  23.107  1.00  0.00     0.012 A 
ATOM     27  C   UNL A   1      33.446  26.640  24.662  1.00  0.00     0.058 A 
ATOM     28  C   UNL A   1      32.927  25.816  22.029  1.00  0.00     0.051 A 
ATOM     29  C   UNL A   1      33.760  27.460  23.588  1.00  0.00     0.157 A 
ATOM     30  C   UNL A   1      33.512  27.051  22.281  1.00  0.00     0.157 A 
BRANCH  29  31
ATOM     31  O   UNL A   1      34.319  28.683  23.825  1.00  0.00    -0.504 OA
ATOM     32  H   UNL A   1      34.465  28.970  24.705  1.00  0.00     0.293 HD
ENDBRANCH  29  31
BRANCH  30  33
ATOM     33  O   UNL A   1      33.858  27.904  21.271  1.00  0.00    -0.504 OA
ATOM     34  H   UNL A   1      34.737  28.221  21.205  1.00  0.00     0.293 HD
ENDBRANCH  30  33
ENDBRANCH  14  25
ENDBRANCH   5   8
ENDBRANCH   3   4
ENDBRANCH   2   3
ENDBRANCH   1   2
BRANCH   1  35
ATOM     35  C   UNL A   1      39.538  20.108  25.969  1.00  0.00     0.116 C 
BRANCH  35  36
ATOM     36  N   UNL A   1      40.667  19.195  26.117  1.00  0.00    -0.352 N 
ATOM     37  C   UNL A   1      41.977  19.516  26.399  1.00  0.00     0.251 C 
ATOM     38  H   UNL A   1      40.469  18.238  26.001  1.00  0.00     0.163 HD
ATOM     39  O   UNL A   1      42.854  18.661  26.370  1.00  0.00    -0.269 OA
BRANCH  37  40
ATOM     40  C   UNL A   1      42.297  20.926  26.696  1.00  0.00     0.039 A 
ATOM     41  C   UNL A   1      42.421  21.338  28.024  1.00  0.00     0.014 A 
ATOM     42  C   UNL A   1      42.598  21.797  25.646  1.00  0.00     0.014 A 
ATOM     43  C   UNL A   1      42.932  22.608  28.301  1.00  0.00     0.010 A 
ATOM     44  C   UNL A   1      43.193  23.018  25.925  1.00  0.00     0.010 A 
ATOM     45  C   UNL A   1      43.365  23.439  27.254  1.00  0.00    -0.014 A 
BRANCH  45  46
ATOM     46  C   UNL A   1      43.977  24.770  27.500  1.00  0.00     0.031 A 
ATOM     47  C   UNL A   1      43.097  25.910  27.940  1.00  0.00     0.074 A 
ATOM     48  C   UNL A   1      45.283  24.982  27.239  1.00  0.00     0.049 A 
ATOM     49  N   UNL A   1      43.385  27.179  28.052  1.00  0.00    -0.248 NA
ATOM     50  C   UNL A   1      41.698  25.578  28.260  1.00  0.00     0.031 C 
ATOM     51  C   UNL A   1      46.240  23.967  26.792  1.00  0.00     0.029 A 
ATOM     52  N   UNL A   1      46.029  26.134  27.299  1.00  0.00    -0.354 N 
ATOM     53  C   UNL A   1      42.200  27.798  28.431  1.00  0.00     0.074 A 
ATOM     54  C   UNL A   1      41.178  26.777  28.469  1.00  0.00     0.031 C 
ATOM     55  C   UNL A   1      47.448  24.537  26.639  1.00  0.00     0.029 A 
ATOM     56  C   UNL A   1      47.342  25.966  26.920  1.00  0.00     0.049 A 
ATOM     57  H   UNL A   1      45.659  27.001  27.586  1.00  0.00     0.167 HD
ATOM     58  C   UNL A   1      41.984  29.098  28.743  1.00  0.00     0.031 A 
ATOM     59  C   UNL A   1      48.342  26.862  26.798  1.00  0.00     0.031 A 
ATOM     60  C   UNL A   1      43.006  30.108  28.716  1.00  0.00     0.049 A 
ATOM     61  C   UNL A   1      48.067  28.311  27.109  1.00  0.00     0.074 A 
ATOM     62  C   UNL A   1      42.899  31.446  29.050  1.00  0.00     0.029 A 
ATOM     63  N   UNL A   1      44.322  29.892  28.338  1.00  0.00    -0.354 N 
ATOM     64  N   UNL A   1      46.950  28.873  27.504  1.00  0.00    -0.248 NA
ATOM     65  C   UNL A   1      49.193  29.247  26.968  1.00  0.00     0.031 C 
ATOM     66  C   UNL A   1      44.138  32.052  28.819  1.00  0.00     0.029 A 
ATOM     67  C   UNL A   1      45.034  31.075  28.414  1.00  0.00     0.049 A 
ATOM     68  H   UNL A   1      44.695  29.025  28.057  1.00  0.00     0.167 HD
ATOM     69  C   UNL A   1      47.250  30.217  27.704  1.00  0.00     0.074 A 
ATOM     70  C   UNL A   1      48.653  30.384  27.387  1.00  0.00     0.031 C 
ATOM     71  C   UNL A   1      46.439  31.220  28.121  1.00  0.00     0.031 A 
BRANCH  58  72
ATOM     72  C   UNL A   1      40.587  29.497  29.137  1.00  0.00    -0.014 A 
ATOM     73  C   UNL A   1      40.266  29.799  30.474  1.00  0.00     0.010 A 
ATOM     74  C   UNL A   1      39.586  29.607  28.154  1.00  0.00     0.010 A 
ATOM     75  C   UNL A   1      38.965  30.158  30.827  1.00  0.00     0.020 A 
ATOM     76  C   UNL A   1      38.290  30.002  28.497  1.00  0.00     0.020 A 
ATOM     77  C   UNL A   1      37.984  30.259  29.835  1.00  0.00     0.054 A 
BRANCH  77  78
ATOM     78  S   UNL A   1      36.310  30.757  30.322  1.00  0.00     0.124 S 
ATOM     79  O   UNL A   1      35.963  29.728  31.300  1.00  0.00    -0.237 OA
ATOM     80  O   UNL A   1      36.522  32.095  30.867  1.00  0.00    -0.237 OA
ATOM     81  O   UNL A   1      35.556  30.706  29.072  1.00  0.00    -0.744 OA
ENDBRANCH  77  78
ENDBRANCH  58  72
BRANCH  59  82
ATOM     82  C   UNL A   1      49.699  26.422  26.368  1.00  0.00    -0.014 A 
ATOM     83  C   UNL A   1      50.613  25.908  27.307  1.00  0.00     0.010 A 
ATOM     84  C   UNL A   1      50.093  26.521  25.021  1.00  0.00     0.010 A 
ATOM     85  C   UNL A   1      51.900  25.529  26.914  1.00  0.00     0.020 A 
ATOM     86  C   UNL A   1      51.369  26.113  24.617  1.00  0.00     0.020 A 
ATOM     87  C   UNL A   1      52.269  25.632  25.570  1.00  0.00     0.054 A 
BRANCH  87  88
ATOM     88  S   UNL A   1      53.932  25.099  25.078  1.00  0.00     0.124 S 
ATOM     89  O   UNL A   1      54.141  25.852  23.846  1.00  0.00    -0.237 OA
ATOM     90  O   UNL A   1      54.744  25.513  26.220  1.00  0.00    -0.237 OA
ATOM     91  O   UNL A   1      53.793  23.654  24.913  1.00  0.00    -0.744 OA
ENDBRANCH  87  88
ENDBRANCH  59  82
BRANCH  71  92
ATOM     92  C   UNL A   1      47.050  32.579  28.338  1.00  0.00    -0.014 A 
ATOM     93  C   UNL A   1      47.638  32.939  29.563  1.00  0.00     0.010 A 
ATOM     94  C   UNL A   1      47.119  33.475  27.255  1.00  0.00     0.010 A 
ATOM     95  C   UNL A   1      48.269  34.177  29.703  1.00  0.00     0.020 A 
ATOM     96  C   UNL A   1      47.776  34.700  27.382  1.00  0.00     0.020 A 
ATOM     97  C   UNL A   1      48.342  35.047  28.609  1.00  0.00     0.054 A 
BRANCH  97  98
ATOM     98  S   UNL A   1      49.237  36.614  28.797  1.00  0.00     0.124 S 
ATOM     99  O   UNL A   1      48.420  37.527  28.003  1.00  0.00    -0.237 OA
ATOM    100  O   UNL A   1      49.201  36.830  30.240  1.00  0.00    -0.237 OA
ATOM    101  O   UNL A   1      50.560  36.326  28.248  1.00  0.00    -0.744 OA
ENDBRANCH  97  98
ENDBRANCH  71  92
ENDBRANCH  45  46
ENDBRANCH  37  40
ENDBRANCH  35  36
ENDBRANCH   1  35
TORSDOF 20
ENDMDL
