MODEL 1
REMARK VINA RESULT:     -11.2      0.000      0.000
REMARK SMILES COc1ccc(Nc2c(C(=O)NCCCCNC(=O)c3ccc(-c4c5nc(c(-c6ccc(S(=O)(=O)[O-])cc6)c6ccc([nH]6)c(-c6ccc(S(=O)(=O)[O-])cc6)c6nc(c(-c7ccc(S(=O)(=O)[O-])cc7)c7ccc4[nH]7)C=C6)C=C5)cc3)[nH]c(=O)[nH]c2=O)cc1
REMARK SMILES IDX 14 1 13 2 12 3 10 4 11 5 9 7 8 8 84 9 80 10 83 11 85 12
REMARK SMILES IDX 81 13 82 16 7 17 6 19 3 20 4 21 87 22 5 23 86 24 2 25 1 26
REMARK SMILES IDX 15 27 16 28 17 29 18 30 19 32 20 33 21 34 79 35 22 36 78 37
REMARK SMILES IDX 23 38 24 39 25 40 72 41 26 42 77 43 71 44 73 45 27 46 76 47
REMARK SMILES IDX 70 48 69 49 28 51 58 52 39 53 57 54 40 55 43 56 56 57 74 58
REMARK SMILES IDX 41 59 42 60 55 62 75 63 44 64 29 65 30 66 38 67 31 68 37 69
REMARK SMILES IDX 32 70 33 71 34 72 35 73 36 74 59 75 60 76 68 77 61 78 67 79
REMARK SMILES IDX 62 80 63 81 64 82 65 83 66 84 45 85 46 86 54 87 47 88 53 89
REMARK SMILES IDX 48 90 49 91 50 92 51 93 52 94
REMARK H PARENT 12 6 80 14 83 15 7 18 17 31 73 50 43 61
REMARK Flexibility Score: inf
ROOT
ATOM      1  C   UNL A   1      32.875  27.241  26.877  1.00  0.00     0.023 C 
ENDROOT
BRANCH   1   2
ATOM      2  C   UNL A   1      32.353  26.016  26.145  1.00  0.00     0.116 C 
BRANCH   2   3
ATOM      3  N   UNL A   1      31.385  25.198  26.816  1.00  0.00    -0.351 N 
ATOM      4  C   UNL A   1      31.114  23.881  26.614  1.00  0.00     0.270 C 
ATOM      5  O   UNL A   1      30.207  23.385  27.297  1.00  0.00    -0.268 OA
ATOM      6  H   UNL A   1      30.849  25.647  27.510  1.00  0.00     0.163 HD
BRANCH   4   7
ATOM      7  C   UNL A   1      31.728  22.993  25.536  1.00  0.00     0.137 A 
ATOM      8  C   UNL A   1      31.455  22.908  24.211  1.00  0.00     0.134 A 
ATOM      9  C   UNL A   1      32.392  22.034  23.396  1.00  0.00     0.278 A 
ATOM     10  N   UNL A   1      32.783  22.265  26.066  1.00  0.00    -0.301 N 
ATOM     11  N   UNL A   1      33.309  21.283  24.064  1.00  0.00    -0.272 N 
ATOM     12  O   UNL A   1      32.346  22.011  22.167  1.00  0.00    -0.267 OA
ATOM     13  C   UNL A   1      33.573  21.397  25.389  1.00  0.00     0.326 A 
ATOM     14  H   UNL A   1      32.976  22.390  27.024  1.00  0.00     0.172 HD
ATOM     15  H   UNL A   1      33.814  20.612  23.551  1.00  0.00     0.175 HD
ATOM     16  O   UNL A   1      34.480  20.773  25.924  1.00  0.00    -0.248 OA
BRANCH   8  17
ATOM     17  N   UNL A   1      30.484  23.551  23.455  1.00  0.00    -0.349 N 
ATOM     18  H   UNL A   1      29.765  22.998  23.071  1.00  0.00     0.167 HD
BRANCH  17  19
ATOM     19  C   UNL A   1      30.451  24.951  23.195  1.00  0.00     0.039 A 
ATOM     20  C   UNL A   1      30.754  27.760  23.041  1.00  0.00     0.119 A 
ATOM     21  C   UNL A   1      29.667  27.198  23.708  1.00  0.00     0.048 A 
ATOM     22  C   UNL A   1      31.684  26.919  22.432  1.00  0.00     0.048 A 
ATOM     23  C   UNL A   1      29.518  25.811  23.792  1.00  0.00     0.030 A 
ATOM     24  C   UNL A   1      31.524  25.526  22.497  1.00  0.00     0.030 A 
BRANCH  20  25
ATOM     25  O   UNL A   1      30.801  29.124  23.082  1.00  0.00    -0.497 OA
ATOM     26  C   UNL A   1      30.101  29.822  22.060  1.00  0.00     0.278 C 
ENDBRANCH  20  25
ENDBRANCH  17  19
ENDBRANCH   8  17
ENDBRANCH   4   7
ENDBRANCH   2   3
ENDBRANCH   1   2
BRANCH   1  27
ATOM     27  C   UNL A   1      32.482  28.604  26.324  1.00  0.00     0.023 C 
BRANCH  27  28
ATOM     28  C   UNL A   1      33.590  29.642  26.191  1.00  0.00     0.116 C 
BRANCH  28  29
ATOM     29  N   UNL A   1      33.541  30.717  27.175  1.00  0.00    -0.352 N 
ATOM     30  C   UNL A   1      34.449  31.099  28.139  1.00  0.00     0.251 C 
ATOM     31  H   UNL A   1      32.722  31.262  27.145  1.00  0.00     0.163 HD
ATOM     32  O   UNL A   1      34.178  32.034  28.889  1.00  0.00    -0.269 OA
BRANCH  30  33
ATOM     33  C   UNL A   1      35.711  30.344  28.318  1.00  0.00     0.039 A 
ATOM     34  C   UNL A   1      36.652  30.345  27.284  1.00  0.00     0.014 A 
ATOM     35  C   UNL A   1      36.006  29.698  29.519  1.00  0.00     0.014 A 
ATOM     36  C   UNL A   1      37.929  29.820  27.506  1.00  0.00     0.010 A 
ATOM     37  C   UNL A   1      37.309  29.280  29.775  1.00  0.00     0.010 A 
ATOM     38  C   UNL A   1      38.294  29.352  28.778  1.00  0.00    -0.014 A 
BRANCH  38  39
ATOM     39  C   UNL A   1      39.693  28.954  29.099  1.00  0.00     0.031 A 
ATOM     40  C   UNL A   1      40.628  29.937  29.754  1.00  0.00     0.074 A 
ATOM     41  C   UNL A   1      40.151  27.738  28.729  1.00  0.00     0.049 A 
ATOM     42  N   UNL A   1      41.906  29.817  30.010  1.00  0.00    -0.248 NA
ATOM     43  C   UNL A   1      40.061  31.240  30.143  1.00  0.00     0.031 C 
ATOM     44  C   UNL A   1      39.369  26.703  28.045  1.00  0.00     0.029 A 
ATOM     45  N   UNL A   1      41.392  27.165  28.872  1.00  0.00    -0.354 N 
ATOM     46  C   UNL A   1      42.295  31.028  30.573  1.00  0.00     0.074 A 
ATOM     47  C   UNL A   1      41.135  31.891  30.561  1.00  0.00     0.031 C 
ATOM     48  C   UNL A   1      40.134  25.614  27.867  1.00  0.00     0.029 A 
ATOM     49  C   UNL A   1      41.474  25.884  28.375  1.00  0.00     0.049 A 
ATOM     50  H   UNL A   1      42.153  27.628  29.292  1.00  0.00     0.167 HD
ATOM     51  C   UNL A   1      43.497  31.381  31.087  1.00  0.00     0.031 A 
ATOM     52  C   UNL A   1      42.510  25.024  28.329  1.00  0.00     0.031 A 
ATOM     53  C   UNL A   1      44.647  30.518  31.123  1.00  0.00     0.049 A 
ATOM     54  C   UNL A   1      43.841  25.449  28.893  1.00  0.00     0.074 A 
ATOM     55  C   UNL A   1      45.900  30.775  31.650  1.00  0.00     0.029 A 
ATOM     56  N   UNL A   1      44.679  29.225  30.625  1.00  0.00    -0.354 N 
ATOM     57  N   UNL A   1      44.173  26.585  29.457  1.00  0.00    -0.248 NA
ATOM     58  C   UNL A   1      44.936  24.469  28.822  1.00  0.00     0.031 C 
ATOM     59  C   UNL A   1      46.702  29.649  31.440  1.00  0.00     0.029 A 
ATOM     60  C   UNL A   1      45.931  28.672  30.829  1.00  0.00     0.049 A 
ATOM     61  H   UNL A   1      43.924  28.768  30.190  1.00  0.00     0.167 HD
ATOM     62  C   UNL A   1      45.502  26.442  29.842  1.00  0.00     0.074 A 
ATOM     63  C   UNL A   1      45.908  25.105  29.458  1.00  0.00     0.031 C 
ATOM     64  C   UNL A   1      46.314  27.335  30.458  1.00  0.00     0.031 A 
BRANCH  51  65
ATOM     65  C   UNL A   1      43.620  32.762  31.677  1.00  0.00    -0.014 A 
ATOM     66  C   UNL A   1      43.340  32.987  33.038  1.00  0.00     0.010 A 
ATOM     67  C   UNL A   1      44.059  33.836  30.882  1.00  0.00     0.010 A 
ATOM     68  C   UNL A   1      43.458  34.266  33.584  1.00  0.00     0.020 A 
ATOM     69  C   UNL A   1      44.208  35.113  31.432  1.00  0.00     0.020 A 
ATOM     70  C   UNL A   1      43.890  35.322  32.776  1.00  0.00     0.054 A 
BRANCH  70  71
ATOM     71  S   UNL A   1      44.065  36.967  33.521  1.00  0.00     0.124 S 
ATOM     72  O   UNL A   1      44.046  37.832  32.344  1.00  0.00    -0.237 OA
ATOM     73  O   UNL A   1      42.888  37.055  34.382  1.00  0.00    -0.237 OA
ATOM     74  O   UNL A   1      45.344  36.897  34.223  1.00  0.00    -0.744 OA
ENDBRANCH  70  71
ENDBRANCH  51  65
BRANCH  52  75
ATOM     75  C   UNL A   1      42.343  23.662  27.747  1.00  0.00    -0.014 A 
ATOM     76  C   UNL A   1      41.972  22.580  28.565  1.00  0.00     0.010 A 
ATOM     77  C   UNL A   1      42.588  23.430  26.381  1.00  0.00     0.010 A 
ATOM     78  C   UNL A   1      41.890  21.286  28.040  1.00  0.00     0.020 A 
ATOM     79  C   UNL A   1      42.477  22.143  25.846  1.00  0.00     0.020 A 
ATOM     80  C   UNL A   1      42.149  21.075  26.684  1.00  0.00     0.054 A 
BRANCH  80  81
ATOM     81  S   UNL A   1      42.029  19.390  26.020  1.00  0.00     0.124 S 
ATOM     82  O   UNL A   1      42.519  18.589  27.137  1.00  0.00    -0.237 OA
ATOM     83  O   UNL A   1      40.602  19.266  25.728  1.00  0.00    -0.237 OA
ATOM     84  O   UNL A   1      42.896  19.426  24.844  1.00  0.00    -0.744 OA
ENDBRANCH  80  81
ENDBRANCH  52  75
BRANCH  64  85
ATOM     85  C   UNL A   1      47.705  26.882  30.809  1.00  0.00    -0.014 A 
ATOM     86  C   UNL A   1      48.780  27.064  29.922  1.00  0.00     0.010 A 
ATOM     87  C   UNL A   1      47.946  26.311  32.073  1.00  0.00     0.010 A 
ATOM     88  C   UNL A   1      50.067  26.654  30.280  1.00  0.00     0.020 A 
ATOM     89  C   UNL A   1      49.235  25.926  32.446  1.00  0.00     0.020 A 
ATOM     90  C   UNL A   1      50.286  26.087  31.540  1.00  0.00     0.054 A 
BRANCH  90  91
ATOM     91  S   UNL A   1      51.973  25.604  31.999  1.00  0.00     0.124 S 
ATOM     92  O   UNL A   1      51.823  24.172  32.242  1.00  0.00    -0.237 OA
ATOM     93  O   UNL A   1      52.744  25.963  30.812  1.00  0.00    -0.237 OA
ATOM     94  O   UNL A   1      52.254  26.411  33.184  1.00  0.00    -0.744 OA
ENDBRANCH  90  91
ENDBRANCH  64  85
ENDBRANCH  38  39
ENDBRANCH  30  33
ENDBRANCH  28  29
ENDBRANCH  27  28
ENDBRANCH   1  27
TORSDOF 17
ENDMDL
MODEL 2
REMARK VINA RESULT:     -11.0      2.614      9.280
REMARK SMILES COc1ccc(Nc2c(C(=O)NCCCCNC(=O)c3ccc(-c4c5nc(c(-c6ccc(S(=O)(=O)[O-])cc6)c6ccc([nH]6)c(-c6ccc(S(=O)(=O)[O-])cc6)c6nc(c(-c7ccc(S(=O)(=O)[O-])cc7)c7ccc4[nH]7)C=C6)C=C5)cc3)[nH]c(=O)[nH]c2=O)cc1
REMARK SMILES IDX 14 1 13 2 12 3 10 4 11 5 9 7 8 8 84 9 80 10 83 11 85 12
REMARK SMILES IDX 81 13 82 16 7 17 6 19 3 20 4 21 87 22 5 23 86 24 2 25 1 26
REMARK SMILES IDX 15 27 16 28 17 29 18 30 19 32 20 33 21 34 79 35 22 36 78 37
REMARK SMILES IDX 23 38 24 39 25 40 72 41 26 42 77 43 71 44 73 45 27 46 76 47
REMARK SMILES IDX 70 48 69 49 28 51 58 52 39 53 57 54 40 55 43 56 56 57 74 58
REMARK SMILES IDX 41 59 42 60 55 62 75 63 44 64 29 65 30 66 38 67 31 68 37 69
REMARK SMILES IDX 32 70 33 71 34 72 35 73 36 74 59 75 60 76 68 77 61 78 67 79
REMARK SMILES IDX 62 80 63 81 64 82 65 83 66 84 45 85 46 86 54 87 47 88 53 89
REMARK SMILES IDX 48 90 49 91 50 92 51 93 52 94
REMARK H PARENT 12 6 80 14 83 15 7 18 17 31 73 50 43 61
REMARK Flexibility Score: inf
ROOT
ATOM      1  C   UNL A   1      35.205  24.172  25.806  1.00  0.00     0.023 C 
ENDROOT
BRANCH   1   2
ATOM      2  C   UNL A   1      34.150  24.991  25.079  1.00  0.00     0.116 C 
BRANCH   2   3
ATOM      3  N   UNL A   1      34.345  25.244  23.681  1.00  0.00    -0.351 N 
ATOM      4  C   UNL A   1      33.507  25.876  22.817  1.00  0.00     0.270 C 
ATOM      5  O   UNL A   1      33.875  25.956  21.637  1.00  0.00    -0.268 OA
ATOM      6  H   UNL A   1      35.194  24.921  23.299  1.00  0.00     0.163 HD
BRANCH   4   7
ATOM      7  C   UNL A   1      32.101  26.375  23.135  1.00  0.00     0.137 A 
ATOM      8  C   UNL A   1      30.934  25.694  23.247  1.00  0.00     0.134 A 
ATOM      9  C   UNL A   1      29.746  26.494  23.754  1.00  0.00     0.278 A 
ATOM     10  N   UNL A   1      32.134  27.730  23.433  1.00  0.00    -0.301 N 
ATOM     11  N   UNL A   1      29.893  27.839  23.891  1.00  0.00    -0.272 N 
ATOM     12  O   UNL A   1      28.684  25.949  24.053  1.00  0.00    -0.267 OA
ATOM     13  C   UNL A   1      31.074  28.495  23.787  1.00  0.00     0.326 A 
ATOM     14  H   UNL A   1      33.010  28.177  23.382  1.00  0.00     0.172 HD
ATOM     15  H   UNL A   1      29.086  28.371  24.078  1.00  0.00     0.175 HD
ATOM     16  O   UNL A   1      31.172  29.693  24.022  1.00  0.00    -0.248 OA
BRANCH   8  17
ATOM     17  N   UNL A   1      30.660  24.350  23.034  1.00  0.00    -0.349 N 
ATOM     18  H   UNL A   1      29.947  24.126  22.392  1.00  0.00     0.167 HD
BRANCH  17  19
ATOM     19  C   UNL A   1      31.333  23.271  23.675  1.00  0.00     0.039 A 
ATOM     20  C   UNL A   1      32.307  20.832  24.727  1.00  0.00     0.119 A 
ATOM     21  C   UNL A   1      31.583  21.712  25.528  1.00  0.00     0.048 A 
ATOM     22  C   UNL A   1      32.563  21.176  23.400  1.00  0.00     0.048 A 
ATOM     23  C   UNL A   1      31.095  22.915  25.010  1.00  0.00     0.030 A 
ATOM     24  C   UNL A   1      32.091  22.394  22.885  1.00  0.00     0.030 A 
BRANCH  20  25
ATOM     25  O   UNL A   1      32.677  19.673  25.348  1.00  0.00    -0.497 OA
ATOM     26  C   UNL A   1      32.528  18.470  24.606  1.00  0.00     0.278 C 
ENDBRANCH  20  25
ENDBRANCH  17  19
ENDBRANCH   8  17
ENDBRANCH   4   7
ENDBRANCH   2   3
ENDBRANCH   1   2
BRANCH   1  27
ATOM     27  C   UNL A   1      35.809  22.992  25.058  1.00  0.00     0.023 C 
BRANCH  27  28
ATOM     28  C   UNL A   1      37.241  23.148  24.560  1.00  0.00     0.116 C 
BRANCH  28  29
ATOM     29  N   UNL A   1      38.218  22.306  25.239  1.00  0.00    -0.352 N 
ATOM     30  C   UNL A   1      39.139  22.606  26.221  1.00  0.00     0.251 C 
ATOM     31  H   UNL A   1      38.220  21.365  24.950  1.00  0.00     0.163 HD
ATOM     32  O   UNL A   1      39.893  21.727  26.631  1.00  0.00    -0.269 OA
BRANCH  30  33
ATOM     33  C   UNL A   1      39.269  23.993  26.725  1.00  0.00     0.039 A 
ATOM     34  C   UNL A   1      38.722  24.312  27.972  1.00  0.00     0.014 A 
ATOM     35  C   UNL A   1      39.983  24.958  26.016  1.00  0.00     0.014 A 
ATOM     36  C   UNL A   1      39.011  25.548  28.561  1.00  0.00     0.010 A 
ATOM     37  C   UNL A   1      40.362  26.138  26.650  1.00  0.00     0.010 A 
ATOM     38  C   UNL A   1      39.897  26.442  27.938  1.00  0.00    -0.014 A 
BRANCH  38  39
ATOM     39  C   UNL A   1      40.366  27.683  28.615  1.00  0.00     0.031 A 
ATOM     40  C   UNL A   1      41.757  27.751  29.192  1.00  0.00     0.074 A 
ATOM     41  C   UNL A   1      39.518  28.721  28.786  1.00  0.00     0.049 A 
ATOM     42  N   UNL A   1      42.308  28.696  29.910  1.00  0.00    -0.248 NA
ATOM     43  C   UNL A   1      42.633  26.591  28.958  1.00  0.00     0.031 C 
ATOM     44  C   UNL A   1      38.129  28.774  28.321  1.00  0.00     0.029 A 
ATOM     45  N   UNL A   1      39.700  29.935  29.404  1.00  0.00    -0.354 N 
ATOM     46  C   UNL A   1      43.583  28.238  30.224  1.00  0.00     0.074 A 
ATOM     47  C   UNL A   1      43.700  26.906  29.675  1.00  0.00     0.031 C 
ATOM     48  C   UNL A   1      37.601  29.969  28.634  1.00  0.00     0.029 A 
ATOM     49  C   UNL A   1      38.592  30.751  29.365  1.00  0.00     0.049 A 
ATOM     50  H   UNL A   1      40.545  30.197  29.836  1.00  0.00     0.167 HD
ATOM     51  C   UNL A   1      44.580  28.878  30.879  1.00  0.00     0.031 A 
ATOM     52  C   UNL A   1      38.392  31.988  29.862  1.00  0.00     0.031 A 
ATOM     53  C   UNL A   1      44.477  30.212  31.406  1.00  0.00     0.049 A 
ATOM     54  C   UNL A   1      39.514  32.670  30.601  1.00  0.00     0.074 A 
ATOM     55  C   UNL A   1      45.443  30.957  32.058  1.00  0.00     0.029 A 
ATOM     56  N   UNL A   1      43.344  31.006  31.327  1.00  0.00    -0.354 N 
ATOM     57  N   UNL A   1      40.724  32.232  30.849  1.00  0.00    -0.248 NA
ATOM     58  C   UNL A   1      39.243  34.020  31.117  1.00  0.00     0.031 C 
ATOM     59  C   UNL A   1      44.883  32.191  32.405  1.00  0.00     0.029 A 
ATOM     60  C   UNL A   1      43.584  32.233  31.922  1.00  0.00     0.049 A 
ATOM     61  H   UNL A   1      42.493  30.738  30.910  1.00  0.00     0.167 HD
ATOM     62  C   UNL A   1      41.370  33.267  31.518  1.00  0.00     0.074 A 
ATOM     63  C   UNL A   1      40.422  34.356  31.621  1.00  0.00     0.031 C 
ATOM     64  C   UNL A   1      42.636  33.312  32.001  1.00  0.00     0.031 A 
BRANCH  51  65
ATOM     65  C   UNL A   1      45.887  28.144  31.040  1.00  0.00    -0.014 A 
ATOM     66  C   UNL A   1      46.881  28.228  30.049  1.00  0.00     0.010 A 
ATOM     67  C   UNL A   1      46.143  27.402  32.206  1.00  0.00     0.010 A 
ATOM     68  C   UNL A   1      48.093  27.551  30.201  1.00  0.00     0.020 A 
ATOM     69  C   UNL A   1      47.366  26.746  32.377  1.00  0.00     0.020 A 
ATOM     70  C   UNL A   1      48.327  26.812  31.365  1.00  0.00     0.054 A 
BRANCH  70  71
ATOM     71  S   UNL A   1      49.922  25.969  31.549  1.00  0.00     0.124 S 
ATOM     72  O   UNL A   1      49.581  24.881  32.462  1.00  0.00    -0.237 OA
ATOM     73  O   UNL A   1      50.230  25.565  30.180  1.00  0.00    -0.237 OA
ATOM     74  O   UNL A   1      50.797  26.998  32.105  1.00  0.00    -0.744 OA
ENDBRANCH  70  71
ENDBRANCH  51  65
BRANCH  52  75
ATOM     75  C   UNL A   1      37.088  32.683  29.670  1.00  0.00    -0.014 A 
ATOM     76  C   UNL A   1      36.817  33.368  28.472  1.00  0.00     0.010 A 
ATOM     77  C   UNL A   1      36.124  32.697  30.695  1.00  0.00     0.010 A 
ATOM     78  C   UNL A   1      35.628  34.088  28.317  1.00  0.00     0.020 A 
ATOM     79  C   UNL A   1      34.921  33.390  30.531  1.00  0.00     0.020 A 
ATOM     80  C   UNL A   1      34.689  34.099  29.351  1.00  0.00     0.054 A 
BRANCH  80  81
ATOM     81  S   UNL A   1      33.149  35.032  29.127  1.00  0.00     0.124 S 
ATOM     82  O   UNL A   1      33.644  36.338  28.705  1.00  0.00    -0.237 OA
ATOM     83  O   UNL A   1      32.455  34.255  28.102  1.00  0.00    -0.237 OA
ATOM     84  O   UNL A   1      32.531  34.992  30.451  1.00  0.00    -0.744 OA
ENDBRANCH  80  81
ENDBRANCH  52  75
BRANCH  64  85
ATOM     85  C   UNL A   1      43.091  34.598  32.636  1.00  0.00    -0.014 A 
ATOM     86  C   UNL A   1      43.646  35.637  31.868  1.00  0.00     0.010 A 
ATOM     87  C   UNL A   1      42.910  34.788  34.019  1.00  0.00     0.010 A 
ATOM     88  C   UNL A   1      44.042  36.831  32.478  1.00  0.00     0.020 A 
ATOM     89  C   UNL A   1      43.278  35.988  34.627  1.00  0.00     0.020 A 
ATOM     90  C   UNL A   1      43.856  36.998  33.854  1.00  0.00     0.054 A 
BRANCH  90  91
ATOM     91  S   UNL A   1      44.335  38.574  34.615  1.00  0.00     0.124 S 
ATOM     92  O   UNL A   1      43.449  39.518  33.939  1.00  0.00    -0.237 OA
ATOM     93  O   UNL A   1      44.050  38.346  36.029  1.00  0.00    -0.237 OA
ATOM     94  O   UNL A   1      45.752  38.702  34.284  1.00  0.00    -0.744 OA
ENDBRANCH  90  91
ENDBRANCH  64  85
ENDBRANCH  38  39
ENDBRANCH  30  33
ENDBRANCH  28  29
ENDBRANCH  27  28
ENDBRANCH   1  27
TORSDOF 17
ENDMDL
MODEL 3
REMARK VINA RESULT:     -10.8      4.404     10.289
REMARK SMILES COc1ccc(Nc2c(C(=O)NCCCCNC(=O)c3ccc(-c4c5nc(c(-c6ccc(S(=O)(=O)[O-])cc6)c6ccc([nH]6)c(-c6ccc(S(=O)(=O)[O-])cc6)c6nc(c(-c7ccc(S(=O)(=O)[O-])cc7)c7ccc4[nH]7)C=C6)C=C5)cc3)[nH]c(=O)[nH]c2=O)cc1
REMARK SMILES IDX 14 1 13 2 12 3 10 4 11 5 9 7 8 8 84 9 80 10 83 11 85 12
REMARK SMILES IDX 81 13 82 16 7 17 6 19 3 20 4 21 87 22 5 23 86 24 2 25 1 26
REMARK SMILES IDX 15 27 16 28 17 29 18 30 19 32 20 33 21 34 79 35 22 36 78 37
REMARK SMILES IDX 23 38 24 39 25 40 72 41 26 42 77 43 71 44 73 45 27 46 76 47
REMARK SMILES IDX 70 48 69 49 28 51 58 52 39 53 57 54 40 55 43 56 56 57 74 58
REMARK SMILES IDX 41 59 42 60 55 62 75 63 44 64 29 65 30 66 38 67 31 68 37 69
REMARK SMILES IDX 32 70 33 71 34 72 35 73 36 74 59 75 60 76 68 77 61 78 67 79
REMARK SMILES IDX 62 80 63 81 64 82 65 83 66 84 45 85 46 86 54 87 47 88 53 89
REMARK SMILES IDX 48 90 49 91 50 92 51 93 52 94
REMARK H PARENT 12 6 80 14 83 15 7 18 17 31 73 50 43 61
REMARK Flexibility Score: inf
ROOT
ATOM      1  C   UNL A   1      36.913  22.688  26.025  1.00  0.00     0.023 C 
ENDROOT
BRANCH   1   2
ATOM      2  C   UNL A   1      35.588  23.383  26.288  1.00  0.00     0.116 C 
BRANCH   2   3
ATOM      3  N   UNL A   1      34.747  22.853  27.321  1.00  0.00    -0.351 N 
ATOM      4  C   UNL A   1      33.391  22.748  27.329  1.00  0.00     0.270 C 
ATOM      5  O   UNL A   1      32.872  22.279  28.351  1.00  0.00    -0.268 OA
ATOM      6  H   UNL A   1      35.209  22.522  28.125  1.00  0.00     0.163 HD
BRANCH   4   7
ATOM      7  C   UNL A   1      32.444  23.277  26.257  1.00  0.00     0.137 A 
ATOM      8  C   UNL A   1      32.435  23.072  24.917  1.00  0.00     0.134 A 
ATOM      9  C   UNL A   1      31.228  23.615  24.171  1.00  0.00     0.278 A 
ATOM     10  N   UNL A   1      31.410  23.989  26.847  1.00  0.00    -0.301 N 
ATOM     11  N   UNL A   1      30.352  24.397  24.857  1.00  0.00    -0.272 N 
ATOM     12  O   UNL A   1      31.029  23.348  22.987  1.00  0.00    -0.267 OA
ATOM     13  C   UNL A   1      30.373  24.576  26.200  1.00  0.00     0.326 A 
ATOM     14  H   UNL A   1      31.431  24.077  27.828  1.00  0.00     0.172 HD
ATOM     15  H   UNL A   1      29.655  24.865  24.342  1.00  0.00     0.175 HD
ATOM     16  O   UNL A   1      29.500  25.205  26.784  1.00  0.00    -0.248 OA
BRANCH   8  17
ATOM     17  N   UNL A   1      33.330  22.379  24.113  1.00  0.00    -0.349 N 
ATOM     18  H   UNL A   1      33.939  22.908  23.548  1.00  0.00     0.167 HD
BRANCH  17  19
ATOM     19  C   UNL A   1      33.432  20.960  24.046  1.00  0.00     0.039 A 
ATOM     20  C   UNL A   1      33.302  18.146  24.309  1.00  0.00     0.119 A 
ATOM     21  C   UNL A   1      34.404  18.854  24.786  1.00  0.00     0.048 A 
ATOM     22  C   UNL A   1      32.269  18.841  23.682  1.00  0.00     0.048 A 
ATOM     23  C   UNL A   1      34.468  20.245  24.663  1.00  0.00     0.030 A 
ATOM     24  C   UNL A   1      32.343  20.235  23.539  1.00  0.00     0.030 A 
BRANCH  20  25
ATOM     25  O   UNL A   1      33.349  16.801  24.541  1.00  0.00    -0.497 OA
ATOM     26  C   UNL A   1      32.637  16.320  25.674  1.00  0.00     0.278 C 
ENDBRANCH  20  25
ENDBRANCH  17  19
ENDBRANCH   8  17
ENDBRANCH   4   7
ENDBRANCH   2   3
ENDBRANCH   1   2
BRANCH   1  27
ATOM     27  C   UNL A   1      38.147  23.568  25.884  1.00  0.00     0.023 C 
BRANCH  27  28
ATOM     28  C   UNL A   1      39.339  23.237  26.775  1.00  0.00     0.116 C 
BRANCH  28  29
ATOM     29  N   UNL A   1      40.640  23.544  26.192  1.00  0.00    -0.352 N 
ATOM     30  C   UNL A   1      41.472  24.629  26.365  1.00  0.00     0.251 C 
ATOM     31  H   UNL A   1      40.982  22.861  25.571  1.00  0.00     0.163 HD
ATOM     32  O   UNL A   1      42.527  24.689  25.737  1.00  0.00    -0.269 OA
BRANCH  30  33
ATOM     33  C   UNL A   1      41.065  25.750  27.246  1.00  0.00     0.039 A 
ATOM     34  C   UNL A   1      40.096  25.521  28.227  1.00  0.00     0.014 A 
ATOM     35  C   UNL A   1      41.681  26.999  27.161  1.00  0.00     0.014 A 
ATOM     36  C   UNL A   1      39.848  26.494  29.200  1.00  0.00     0.010 A 
ATOM     37  C   UNL A   1      41.516  27.919  28.192  1.00  0.00     0.010 A 
ATOM     38  C   UNL A   1      40.612  27.673  29.236  1.00  0.00    -0.014 A 
BRANCH  38  39
ATOM     39  C   UNL A   1      40.501  28.647  30.358  1.00  0.00     0.031 A 
ATOM     40  C   UNL A   1      41.396  28.519  31.563  1.00  0.00     0.074 A 
ATOM     41  C   UNL A   1      39.542  29.598  30.333  1.00  0.00     0.049 A 
ATOM     42  N   UNL A   1      41.377  29.198  32.682  1.00  0.00    -0.248 NA
ATOM     43  C   UNL A   1      42.428  27.469  31.519  1.00  0.00     0.031 C 
ATOM     44  C   UNL A   1      38.575  29.809  29.250  1.00  0.00     0.029 A 
ATOM     45  N   UNL A   1      39.217  30.569  31.250  1.00  0.00    -0.354 N 
ATOM     46  C   UNL A   1      42.378  28.648  33.475  1.00  0.00     0.074 A 
ATOM     47  C   UNL A   1      42.941  27.540  32.737  1.00  0.00     0.031 C 
ATOM     48  C   UNL A   1      37.798  30.862  29.548  1.00  0.00     0.029 A 
ATOM     49  C   UNL A   1      38.172  31.376  30.861  1.00  0.00     0.049 A 
ATOM     50  H   UNL A   1      39.689  30.678  32.107  1.00  0.00     0.167 HD
ATOM     51  C   UNL A   1      42.816  29.048  34.692  1.00  0.00     0.031 A 
ATOM     52  C   UNL A   1      37.578  32.409  31.489  1.00  0.00     0.031 A 
ATOM     53  C   UNL A   1      42.276  30.165  35.420  1.00  0.00     0.049 A 
ATOM     54  C   UNL A   1      38.074  32.823  32.850  1.00  0.00     0.074 A 
ATOM     55  C   UNL A   1      42.673  30.666  36.646  1.00  0.00     0.029 A 
ATOM     56  N   UNL A   1      41.231  30.963  34.979  1.00  0.00    -0.354 N 
ATOM     57  N   UNL A   1      39.050  32.313  33.562  1.00  0.00    -0.248 NA
ATOM     58  C   UNL A   1      37.394  33.960  33.487  1.00  0.00     0.031 C 
ATOM     59  C   UNL A   1      41.845  31.748  36.965  1.00  0.00     0.029 A 
ATOM     60  C   UNL A   1      40.967  31.951  35.912  1.00  0.00     0.049 A 
ATOM     61  H   UNL A   1      40.748  30.844  34.130  1.00  0.00     0.167 HD
ATOM     62  C   UNL A   1      39.124  33.091  34.713  1.00  0.00     0.074 A 
ATOM     63  C   UNL A   1      38.105  34.113  34.594  1.00  0.00     0.031 C 
ATOM     64  C   UNL A   1      39.962  32.971  35.772  1.00  0.00     0.031 A 
BRANCH  51  65
ATOM     65  C   UNL A   1      43.960  28.281  35.304  1.00  0.00    -0.014 A 
ATOM     66  C   UNL A   1      43.715  27.160  36.119  1.00  0.00     0.010 A 
ATOM     67  C   UNL A   1      45.288  28.652  35.030  1.00  0.00     0.010 A 
ATOM     68  C   UNL A   1      44.777  26.448  36.681  1.00  0.00     0.020 A 
ATOM     69  C   UNL A   1      46.355  27.924  35.568  1.00  0.00     0.020 A 
ATOM     70  C   UNL A   1      46.090  26.836  36.403  1.00  0.00     0.054 A 
BRANCH  70  71
ATOM     71  S   UNL A   1      47.448  25.873  37.122  1.00  0.00     0.124 S 
ATOM     72  O   UNL A   1      47.774  24.955  36.033  1.00  0.00    -0.237 OA
ATOM     73  O   UNL A   1      48.453  26.896  37.402  1.00  0.00    -0.237 OA
ATOM     74  O   UNL A   1      46.849  25.253  38.301  1.00  0.00    -0.744 OA
ENDBRANCH  70  71
ENDBRANCH  51  65
BRANCH  52  75
ATOM     75  C   UNL A   1      36.457  33.149  30.842  1.00  0.00    -0.014 A 
ATOM     76  C   UNL A   1      36.698  33.974  29.728  1.00  0.00     0.010 A 
ATOM     77  C   UNL A   1      35.150  33.065  31.357  1.00  0.00     0.010 A 
ATOM     78  C   UNL A   1      35.666  34.731  29.167  1.00  0.00     0.020 A 
ATOM     79  C   UNL A   1      34.109  33.797  30.778  1.00  0.00     0.020 A 
ATOM     80  C   UNL A   1      34.377  34.642  29.700  1.00  0.00     0.054 A 
BRANCH  80  81
ATOM     81  S   UNL A   1      33.049  35.627  28.951  1.00  0.00     0.124 S 
ATOM     82  O   UNL A   1      32.316  36.088  30.125  1.00  0.00    -0.237 OA
ATOM     83  O   UNL A   1      33.789  36.654  28.221  1.00  0.00    -0.237 OA
ATOM     84  O   UNL A   1      32.344  34.662  28.109  1.00  0.00    -0.744 OA
ENDBRANCH  80  81
ENDBRANCH  52  75
BRANCH  64  85
ATOM     85  C   UNL A   1      39.853  34.002  36.862  1.00  0.00    -0.014 A 
ATOM     86  C   UNL A   1      40.392  35.291  36.708  1.00  0.00     0.010 A 
ATOM     87  C   UNL A   1      39.153  33.687  38.042  1.00  0.00     0.010 A 
ATOM     88  C   UNL A   1      40.259  36.237  37.728  1.00  0.00     0.020 A 
ATOM     89  C   UNL A   1      38.994  34.638  39.051  1.00  0.00     0.020 A 
ATOM     90  C   UNL A   1      39.562  35.904  38.893  1.00  0.00     0.054 A 
BRANCH  90  91
ATOM     91  S   UNL A   1      39.364  37.164  40.183  1.00  0.00     0.124 S 
ATOM     92  O   UNL A   1      38.403  36.529  41.081  1.00  0.00    -0.237 OA
ATOM     93  O   UNL A   1      40.720  37.301  40.708  1.00  0.00    -0.237 OA
ATOM     94  O   UNL A   1      38.863  38.329  39.457  1.00  0.00    -0.744 OA
ENDBRANCH  90  91
ENDBRANCH  64  85
ENDBRANCH  38  39
ENDBRANCH  30  33
ENDBRANCH  28  29
ENDBRANCH  27  28
ENDBRANCH   1  27
TORSDOF 17
ENDMDL
