MODEL 1
REMARK VINA RESULT:     -10.4      0.000      0.000
REMARK SMILES C[C@H](CSc1ccc(C(=O)N(C)C)cn1)C(=O)NCCCCNC(=O)c1ccc(-c2c3nc(c(-c4ccc(S(=O)(=O)[O-])cc4)c4ccc([nH]4)c(-c4ccc(S(=O)(=O)[O-])cc4)c4nc(c(-c5ccc(S(=O)(=O)[O-])cc5)c5ccc2[nH]5)C=C4)C=C3)cc1
REMARK SMILES IDX 20 1 19 2 18 3 16 4 17 5 2 7 1 8 3 9 4 10 5 11 6 12 15 13
REMARK SMILES IDX 7 14 14 15 8 16 9 17 10 18 11 19 12 20 13 21 21 22 22 23
REMARK SMILES IDX 23 24 24 25 25 27 26 28 27 29 85 30 28 31 84 32 29 33 30 34
REMARK SMILES IDX 31 35 78 36 32 37 83 38 77 39 79 40 33 41 82 42 76 43 75 44
REMARK SMILES IDX 34 46 64 47 45 48 63 49 46 50 49 51 62 52 80 53 47 54 48 55
REMARK SMILES IDX 61 57 81 58 50 59 35 60 36 61 44 62 37 63 43 64 38 65 39 66
REMARK SMILES IDX 40 67 41 68 42 69 65 70 66 71 74 72 67 73 73 74 68 75 69 76
REMARK SMILES IDX 70 77 71 78 72 79 51 80 52 81 60 82 53 83 59 84 54 85 55 86
REMARK SMILES IDX 56 87 57 88 58 89
REMARK H PARENT 18 6 23 26 79 45 49 56
REMARK Flexibility Score: inf
ROOT
ATOM      1  C   UNL A   1      31.902  26.523  26.513  1.00  0.00     0.023 C 
ENDROOT
BRANCH   1   2
ATOM      2  C   UNL A   1      30.467  26.031  26.319  1.00  0.00     0.116 C 
BRANCH   2   3
ATOM      3  N   UNL A   1      30.364  25.150  25.175  1.00  0.00    -0.356 N 
ATOM      4  C   UNL A   1      30.302  25.446  23.848  1.00  0.00     0.223 C 
ATOM      5  O   UNL A   1      30.119  24.511  23.063  1.00  0.00    -0.275 OA
ATOM      6  H   UNL A   1      30.334  24.190  25.390  1.00  0.00     0.163 HD
BRANCH   4   7
ATOM      7  C   UNL A   1      30.553  26.857  23.315  1.00  0.00     0.085 C 
ATOM      8  C   UNL A   1      29.230  27.622  23.321  1.00  0.00     0.019 C 
BRANCH   7   9
ATOM      9  C   UNL A   1      31.430  26.898  22.045  1.00  0.00     0.089 C 
BRANCH   9  10
ATOM     10  S   UNL A   1      33.253  27.028  22.260  1.00  0.00    -0.106 SA
BRANCH  10  11
ATOM     11  C   UNL A   1      33.647  25.420  22.924  1.00  0.00     0.096 A 
ATOM     12  C   UNL A   1      34.068  25.313  24.246  1.00  0.00     0.036 A 
ATOM     13  N   UNL A   1      33.527  24.343  22.120  1.00  0.00    -0.249 NA
ATOM     14  C   UNL A   1      34.446  24.064  24.751  1.00  0.00     0.018 A 
ATOM     15  C   UNL A   1      33.889  23.136  22.643  1.00  0.00     0.126 A 
ATOM     16  C   UNL A   1      34.403  22.945  23.925  1.00  0.00     0.058 A 
BRANCH  16  17
ATOM     17  C   UNL A   1      34.762  21.560  24.329  1.00  0.00     0.254 C 
ATOM     18  O   UNL A   1      35.963  21.343  24.498  1.00  0.00    -0.269 OA
ATOM     19  N   UNL A   1      33.811  20.554  24.518  1.00  0.00    -0.345 N 
ATOM     20  C   UNL A   1      32.365  20.701  24.584  1.00  0.00     0.146 C 
ATOM     21  C   UNL A   1      34.324  19.225  24.825  1.00  0.00     0.146 C 
ENDBRANCH  16  17
ENDBRANCH  10  11
ENDBRANCH   9  10
ENDBRANCH   7   9
ENDBRANCH   4   7
ENDBRANCH   2   3
ENDBRANCH   1   2
BRANCH   1  22
ATOM     22  C   UNL A   1      31.998  27.827  27.304  1.00  0.00     0.023 C 
BRANCH  22  23
ATOM     23  C   UNL A   1      33.374  28.482  27.278  1.00  0.00     0.116 C 
BRANCH  23  24
ATOM     24  N   UNL A   1      33.329  29.916  27.515  1.00  0.00    -0.352 N 
ATOM     25  C   UNL A   1      34.309  30.726  28.046  1.00  0.00     0.251 C 
ATOM     26  H   UNL A   1      32.490  30.366  27.264  1.00  0.00     0.163 HD
ATOM     27  O   UNL A   1      34.067  31.889  28.330  1.00  0.00    -0.269 OA
BRANCH  25  28
ATOM     28  C   UNL A   1      35.643  30.150  28.314  1.00  0.00     0.039 A 
ATOM     29  C   UNL A   1      36.587  30.135  27.284  1.00  0.00     0.014 A 
ATOM     30  C   UNL A   1      35.975  29.679  29.587  1.00  0.00     0.014 A 
ATOM     31  C   UNL A   1      37.890  29.714  27.554  1.00  0.00     0.010 A 
ATOM     32  C   UNL A   1      37.293  29.334  29.871  1.00  0.00     0.010 A 
ATOM     33  C   UNL A   1      38.264  29.350  28.858  1.00  0.00    -0.014 A 
BRANCH  33  34
ATOM     34  C   UNL A   1      39.666  28.991  29.184  1.00  0.00     0.031 A 
ATOM     35  C   UNL A   1      40.576  30.006  29.821  1.00  0.00     0.074 A 
ATOM     36  C   UNL A   1      40.139  27.775  28.846  1.00  0.00     0.049 A 
ATOM     37  N   UNL A   1      41.844  29.900  30.124  1.00  0.00    -0.248 NA
ATOM     38  C   UNL A   1      39.991  31.320  30.134  1.00  0.00     0.031 C 
ATOM     39  C   UNL A   1      39.370  26.720  28.181  1.00  0.00     0.029 A 
ATOM     40  N   UNL A   1      41.385  27.223  29.010  1.00  0.00    -0.354 N 
ATOM     41  C   UNL A   1      42.211  31.133  30.649  1.00  0.00     0.074 A 
ATOM     42  C   UNL A   1      41.048  31.989  30.572  1.00  0.00     0.031 C 
ATOM     43  C   UNL A   1      40.153  25.641  28.018  1.00  0.00     0.029 A 
ATOM     44  C   UNL A   1      41.488  25.939  28.527  1.00  0.00     0.049 A 
ATOM     45  H   UNL A   1      42.135  27.700  29.433  1.00  0.00     0.167 HD
ATOM     46  C   UNL A   1      43.403  31.513  31.170  1.00  0.00     0.031 A 
ATOM     47  C   UNL A   1      42.540  25.097  28.492  1.00  0.00     0.031 A 
ATOM     48  C   UNL A   1      44.555  30.656  31.254  1.00  0.00     0.049 A 
ATOM     49  C   UNL A   1      43.854  25.542  29.072  1.00  0.00     0.074 A 
ATOM     50  C   UNL A   1      45.792  30.931  31.808  1.00  0.00     0.029 A 
ATOM     51  N   UNL A   1      44.613  29.358  30.769  1.00  0.00    -0.354 N 
ATOM     52  N   UNL A   1      44.163  26.692  29.621  1.00  0.00    -0.248 NA
ATOM     53  C   UNL A   1      44.956  24.571  29.040  1.00  0.00     0.031 C 
ATOM     54  C   UNL A   1      46.615  29.815  31.616  1.00  0.00     0.029 A 
ATOM     55  C   UNL A   1      45.871  28.825  30.993  1.00  0.00     0.049 A 
ATOM     56  H   UNL A   1      43.869  28.885  30.331  1.00  0.00     0.167 HD
ATOM     57  C   UNL A   1      45.490  26.575  30.023  1.00  0.00     0.074 A 
ATOM     58  C   UNL A   1      45.917  25.237  29.667  1.00  0.00     0.031 C 
ATOM     59  C   UNL A   1      46.281  27.492  30.632  1.00  0.00     0.031 A 
BRANCH  46  60
ATOM     60  C   UNL A   1      43.513  32.923  31.688  1.00  0.00    -0.014 A 
ATOM     61  C   UNL A   1      43.285  33.217  33.044  1.00  0.00     0.010 A 
ATOM     62  C   UNL A   1      43.878  33.964  30.814  1.00  0.00     0.010 A 
ATOM     63  C   UNL A   1      43.371  34.533  33.508  1.00  0.00     0.020 A 
ATOM     64  C   UNL A   1      43.994  35.277  31.280  1.00  0.00     0.020 A 
ATOM     65  C   UNL A   1      43.719  35.555  32.621  1.00  0.00     0.054 A 
BRANCH  65  66
ATOM     66  S   UNL A   1      43.834  37.251  33.253  1.00  0.00     0.124 S 
ATOM     67  O   UNL A   1      45.104  37.217  33.975  1.00  0.00    -0.237 OA
ATOM     68  O   UNL A   1      43.828  38.051  32.031  1.00  0.00    -0.237 OA
ATOM     69  O   UNL A   1      42.646  37.391  34.092  1.00  0.00    -0.744 OA
ENDBRANCH  65  66
ENDBRANCH  46  60
BRANCH  47  70
ATOM     70  C   UNL A   1      42.384  23.741  27.897  1.00  0.00    -0.014 A 
ATOM     71  C   UNL A   1      42.044  22.640  28.704  1.00  0.00     0.010 A 
ATOM     72  C   UNL A   1      42.556  23.547  26.514  1.00  0.00     0.010 A 
ATOM     73  C   UNL A   1      41.897  21.369  28.142  1.00  0.00     0.020 A 
ATOM     74  C   UNL A   1      42.382  22.282  25.945  1.00  0.00     0.020 A 
ATOM     75  C   UNL A   1      42.065  21.198  26.765  1.00  0.00     0.054 A 
BRANCH  75  76
ATOM     76  S   UNL A   1      41.815  19.549  26.050  1.00  0.00     0.124 S 
ATOM     77  O   UNL A   1      40.388  19.563  25.747  1.00  0.00    -0.237 OA
ATOM     78  O   UNL A   1      42.709  19.567  24.896  1.00  0.00    -0.237 OA
ATOM     79  O   UNL A   1      42.219  18.646  27.127  1.00  0.00    -0.744 OA
ENDBRANCH  75  76
ENDBRANCH  47  70
BRANCH  59  80
ATOM     80  C   UNL A   1      47.684  27.071  30.983  1.00  0.00    -0.014 A 
ATOM     81  C   UNL A   1      47.985  26.509  32.236  1.00  0.00     0.010 A 
ATOM     82  C   UNL A   1      48.704  27.190  30.021  1.00  0.00     0.010 A 
ATOM     83  C   UNL A   1      49.289  26.099  32.530  1.00  0.00     0.020 A 
ATOM     84  C   UNL A   1      50.001  26.756  30.301  1.00  0.00     0.020 A 
ATOM     85  C   UNL A   1      50.288  26.225  31.560  1.00  0.00     0.054 A 
BRANCH  85  86
ATOM     86  S   UNL A   1      51.962  25.643  31.950  1.00  0.00     0.124 S 
ATOM     87  O   UNL A   1      52.727  26.131  30.807  1.00  0.00    -0.237 OA
ATOM     88  O   UNL A   1      52.243  26.303  33.223  1.00  0.00    -0.237 OA
ATOM     89  O   UNL A   1      51.814  24.190  32.028  1.00  0.00    -0.744 OA
ENDBRANCH  85  86
ENDBRANCH  59  80
ENDBRANCH  33  34
ENDBRANCH  25  28
ENDBRANCH  23  24
ENDBRANCH  22  23
ENDBRANCH   1  22
TORSDOF 18
ENDMDL
MODEL 2
REMARK VINA RESULT:     -10.1      1.301      2.195
REMARK SMILES C[C@H](CSc1ccc(C(=O)N(C)C)cn1)C(=O)NCCCCNC(=O)c1ccc(-c2c3nc(c(-c4ccc(S(=O)(=O)[O-])cc4)c4ccc([nH]4)c(-c4ccc(S(=O)(=O)[O-])cc4)c4nc(c(-c5ccc(S(=O)(=O)[O-])cc5)c5ccc2[nH]5)C=C4)C=C3)cc1
REMARK SMILES IDX 20 1 19 2 18 3 16 4 17 5 2 7 1 8 3 9 4 10 5 11 6 12 15 13
REMARK SMILES IDX 7 14 14 15 8 16 9 17 10 18 11 19 12 20 13 21 21 22 22 23
REMARK SMILES IDX 23 24 24 25 25 27 26 28 27 29 85 30 28 31 84 32 29 33 30 34
REMARK SMILES IDX 31 35 78 36 32 37 83 38 77 39 79 40 33 41 82 42 76 43 75 44
REMARK SMILES IDX 34 46 64 47 45 48 63 49 46 50 49 51 62 52 80 53 47 54 48 55
REMARK SMILES IDX 61 57 81 58 50 59 35 60 36 61 44 62 37 63 43 64 38 65 39 66
REMARK SMILES IDX 40 67 41 68 42 69 65 70 66 71 74 72 67 73 73 74 68 75 69 76
REMARK SMILES IDX 70 77 71 78 72 79 51 80 52 81 60 82 53 83 59 84 54 85 55 86
REMARK SMILES IDX 56 87 57 88 58 89
REMARK H PARENT 18 6 23 26 79 45 49 56
REMARK Flexibility Score: inf
ROOT
ATOM      1  C   UNL A   1      33.206  29.151  24.845  1.00  0.00     0.023 C 
ENDROOT
BRANCH   1   2
ATOM      2  C   UNL A   1      32.316  28.420  23.839  1.00  0.00     0.116 C 
BRANCH   2   3
ATOM      3  N   UNL A   1      33.105  27.643  22.908  1.00  0.00    -0.356 N 
ATOM      4  C   UNL A   1      32.970  26.345  22.520  1.00  0.00     0.223 C 
ATOM      5  O   UNL A   1      33.837  25.879  21.775  1.00  0.00    -0.275 OA
ATOM      6  H   UNL A   1      33.854  28.126  22.492  1.00  0.00     0.163 HD
BRANCH   4   7
ATOM      7  C   UNL A   1      31.745  25.507  22.889  1.00  0.00     0.085 C 
ATOM      8  C   UNL A   1      30.490  26.266  22.462  1.00  0.00     0.019 C 
BRANCH   7   9
ATOM      9  C   UNL A   1      31.805  24.905  24.309  1.00  0.00     0.089 C 
BRANCH   9  10
ATOM     10  S   UNL A   1      33.451  24.412  24.968  1.00  0.00    -0.106 SA
BRANCH  10  11
ATOM     11  C   UNL A   1      33.341  22.633  24.900  1.00  0.00     0.096 A 
ATOM     12  C   UNL A   1      32.935  22.020  23.718  1.00  0.00     0.036 A 
ATOM     13  N   UNL A   1      33.655  21.924  26.004  1.00  0.00    -0.249 NA
ATOM     14  C   UNL A   1      32.779  20.629  23.681  1.00  0.00     0.018 A 
ATOM     15  C   UNL A   1      33.508  20.570  25.935  1.00  0.00     0.126 A 
ATOM     16  C   UNL A   1      33.026  19.877  24.824  1.00  0.00     0.058 A 
BRANCH  16  17
ATOM     17  C   UNL A   1      32.913  18.398  24.925  1.00  0.00     0.254 C 
ATOM     18  O   UNL A   1      31.775  17.955  25.087  1.00  0.00    -0.269 OA
ATOM     19  N   UNL A   1      34.016  17.545  24.837  1.00  0.00    -0.345 N 
ATOM     20  C   UNL A   1      35.369  17.885  24.424  1.00  0.00     0.146 C 
ATOM     21  C   UNL A   1      33.759  16.126  25.044  1.00  0.00     0.146 C 
ENDBRANCH  16  17
ENDBRANCH  10  11
ENDBRANCH   9  10
ENDBRANCH   7   9
ENDBRANCH   4   7
ENDBRANCH   2   3
ENDBRANCH   1   2
BRANCH   1  22
ATOM     22  C   UNL A   1      33.868  28.222  25.863  1.00  0.00     0.023 C 
BRANCH  22  23
ATOM     23  C   UNL A   1      33.488  28.499  27.313  1.00  0.00     0.116 C 
BRANCH  23  24
ATOM     24  N   UNL A   1      33.434  29.918  27.627  1.00  0.00    -0.352 N 
ATOM     25  C   UNL A   1      34.415  30.707  28.186  1.00  0.00     0.251 C 
ATOM     26  H   UNL A   1      32.587  30.373  27.415  1.00  0.00     0.163 HD
ATOM     27  O   UNL A   1      34.168  31.851  28.536  1.00  0.00    -0.269 OA
BRANCH  25  28
ATOM     28  C   UNL A   1      35.759  30.131  28.400  1.00  0.00     0.039 A 
ATOM     29  C   UNL A   1      36.709  30.246  27.384  1.00  0.00     0.014 A 
ATOM     30  C   UNL A   1      36.092  29.528  29.617  1.00  0.00     0.014 A 
ATOM     31  C   UNL A   1      38.019  29.823  27.617  1.00  0.00     0.010 A 
ATOM     32  C   UNL A   1      37.414  29.179  29.872  1.00  0.00     0.010 A 
ATOM     33  C   UNL A   1      38.391  29.325  28.876  1.00  0.00    -0.014 A 
BRANCH  33  34
ATOM     34  C   UNL A   1      39.798  28.959  29.173  1.00  0.00     0.031 A 
ATOM     35  C   UNL A   1      40.727  29.969  29.788  1.00  0.00     0.074 A 
ATOM     36  C   UNL A   1      40.257  27.738  28.828  1.00  0.00     0.049 A 
ATOM     37  N   UNL A   1      42.001  29.857  30.064  1.00  0.00    -0.248 NA
ATOM     38  C   UNL A   1      40.157  31.288  30.110  1.00  0.00     0.031 C 
ATOM     39  C   UNL A   1      39.468  26.687  28.183  1.00  0.00     0.029 A 
ATOM     40  N   UNL A   1      41.502  27.180  28.967  1.00  0.00    -0.354 N 
ATOM     41  C   UNL A   1      42.386  31.089  30.577  1.00  0.00     0.074 A 
ATOM     42  C   UNL A   1      41.227  31.952  30.522  1.00  0.00     0.031 C 
ATOM     43  C   UNL A   1      40.240  25.603  28.006  1.00  0.00     0.029 A 
ATOM     44  C   UNL A   1      41.588  25.894  28.486  1.00  0.00     0.049 A 
ATOM     45  H   UNL A   1      42.265  27.654  29.373  1.00  0.00     0.167 HD
ATOM     46  C   UNL A   1      43.591  31.464  31.071  1.00  0.00     0.031 A 
ATOM     47  C   UNL A   1      42.634  25.046  28.431  1.00  0.00     0.031 A 
ATOM     48  C   UNL A   1      44.740  30.600  31.133  1.00  0.00     0.049 A 
ATOM     49  C   UNL A   1      43.963  25.485  28.980  1.00  0.00     0.074 A 
ATOM     50  C   UNL A   1      45.990  30.869  31.659  1.00  0.00     0.029 A 
ATOM     51  N   UNL A   1      44.779  29.300  30.651  1.00  0.00    -0.354 N 
ATOM     52  N   UNL A   1      44.290  26.634  29.520  1.00  0.00    -0.248 NA
ATOM     53  C   UNL A   1      45.058  24.507  28.927  1.00  0.00     0.031 C 
ATOM     54  C   UNL A   1      46.802  29.749  31.453  1.00  0.00     0.029 A 
ATOM     55  C   UNL A   1      46.040  28.761  30.849  1.00  0.00     0.049 A 
ATOM     56  H   UNL A   1      44.024  28.831  30.230  1.00  0.00     0.167 HD
ATOM     57  C   UNL A   1      45.624  26.510  29.893  1.00  0.00     0.074 A 
ATOM     58  C   UNL A   1      46.036  25.169  29.532  1.00  0.00     0.031 C 
ATOM     59  C   UNL A   1      46.434  27.424  30.483  1.00  0.00     0.031 A 
BRANCH  46  60
ATOM     60  C   UNL A   1      43.720  32.874  31.583  1.00  0.00    -0.014 A 
ATOM     61  C   UNL A   1      44.111  33.922  30.729  1.00  0.00     0.010 A 
ATOM     62  C   UNL A   1      43.421  33.163  32.928  1.00  0.00     0.010 A 
ATOM     63  C   UNL A   1      44.248  35.223  31.222  1.00  0.00     0.020 A 
ATOM     64  C   UNL A   1      43.528  34.468  33.416  1.00  0.00     0.020 A 
ATOM     65  C   UNL A   1      43.960  35.486  32.564  1.00  0.00     0.054 A 
BRANCH  65  66
ATOM     66  S   UNL A   1      44.135  37.186  33.172  1.00  0.00     0.124 S 
ATOM     67  O   UNL A   1      44.007  37.960  31.940  1.00  0.00    -0.237 OA
ATOM     68  O   UNL A   1      43.022  37.309  34.109  1.00  0.00    -0.237 OA
ATOM     69  O   UNL A   1      45.463  37.202  33.781  1.00  0.00    -0.744 OA
ENDBRANCH  65  66
ENDBRANCH  46  60
BRANCH  47  70
ATOM     70  C   UNL A   1      42.458  23.689  27.843  1.00  0.00    -0.014 A 
ATOM     71  C   UNL A   1      42.545  23.496  26.452  1.00  0.00     0.010 A 
ATOM     72  C   UNL A   1      42.221  22.578  28.673  1.00  0.00     0.010 A 
ATOM     73  C   UNL A   1      42.381  22.221  25.903  1.00  0.00     0.020 A 
ATOM     74  C   UNL A   1      42.085  21.298  28.130  1.00  0.00     0.020 A 
ATOM     75  C   UNL A   1      42.155  21.129  26.745  1.00  0.00     0.054 A 
BRANCH  75  76
ATOM     76  S   UNL A   1      42.000  19.475  26.014  1.00  0.00     0.124 S 
ATOM     77  O   UNL A   1      42.489  18.621  27.091  1.00  0.00    -0.237 OA
ATOM     78  O   UNL A   1      40.570  19.388  25.733  1.00  0.00    -0.237 OA
ATOM     79  O   UNL A   1      42.856  19.545  24.830  1.00  0.00    -0.744 OA
ENDBRANCH  75  76
ENDBRANCH  47  70
BRANCH  59  80
ATOM     80  C   UNL A   1      47.841  26.997  30.806  1.00  0.00    -0.014 A 
ATOM     81  C   UNL A   1      48.887  27.171  29.882  1.00  0.00     0.010 A 
ATOM     82  C   UNL A   1      48.129  26.465  32.077  1.00  0.00     0.010 A 
ATOM     83  C   UNL A   1      50.191  26.793  30.214  1.00  0.00     0.020 A 
ATOM     84  C   UNL A   1      49.435  26.112  32.422  1.00  0.00     0.020 A 
ATOM     85  C   UNL A   1      50.456  26.266  31.482  1.00  0.00     0.054 A 
BRANCH  85  86
ATOM     86  S   UNL A   1      52.166  25.828  31.905  1.00  0.00     0.124 S 
ATOM     87  O   UNL A   1      52.070  24.383  32.092  1.00  0.00    -0.237 OA
ATOM     88  O   UNL A   1      52.910  26.261  30.725  1.00  0.00    -0.237 OA
ATOM     89  O   UNL A   1      52.431  26.598  33.119  1.00  0.00    -0.744 OA
ENDBRANCH  85  86
ENDBRANCH  59  80
ENDBRANCH  33  34
ENDBRANCH  25  28
ENDBRANCH  23  24
ENDBRANCH  22  23
ENDBRANCH   1  22
TORSDOF 18
ENDMDL
MODEL 3
REMARK VINA RESULT:     -10.1      5.459      7.704
REMARK SMILES C[C@H](CSc1ccc(C(=O)N(C)C)cn1)C(=O)NCCCCNC(=O)c1ccc(-c2c3nc(c(-c4ccc(S(=O)(=O)[O-])cc4)c4ccc([nH]4)c(-c4ccc(S(=O)(=O)[O-])cc4)c4nc(c(-c5ccc(S(=O)(=O)[O-])cc5)c5ccc2[nH]5)C=C4)C=C3)cc1
REMARK SMILES IDX 20 1 19 2 18 3 16 4 17 5 2 7 1 8 3 9 4 10 5 11 6 12 15 13
REMARK SMILES IDX 7 14 14 15 8 16 9 17 10 18 11 19 12 20 13 21 21 22 22 23
REMARK SMILES IDX 23 24 24 25 25 27 26 28 27 29 85 30 28 31 84 32 29 33 30 34
REMARK SMILES IDX 31 35 78 36 32 37 83 38 77 39 79 40 33 41 82 42 76 43 75 44
REMARK SMILES IDX 34 46 64 47 45 48 63 49 46 50 49 51 62 52 80 53 47 54 48 55
REMARK SMILES IDX 61 57 81 58 50 59 35 60 36 61 44 62 37 63 43 64 38 65 39 66
REMARK SMILES IDX 40 67 41 68 42 69 65 70 66 71 74 72 67 73 73 74 68 75 69 76
REMARK SMILES IDX 70 77 71 78 72 79 51 80 52 81 60 82 53 83 59 84 54 85 55 86
REMARK SMILES IDX 56 87 57 88 58 89
REMARK H PARENT 18 6 23 26 79 45 49 56
REMARK Flexibility Score: inf
ROOT
ATOM      1  C   UNL A   1      34.892  34.539  28.328  1.00  0.00     0.023 C 
ENDROOT
BRANCH   1   2
ATOM      2  C   UNL A   1      33.498  34.820  28.892  1.00  0.00     0.116 C 
BRANCH   2   3
ATOM      3  N   UNL A   1      33.445  36.113  29.539  1.00  0.00    -0.356 N 
ATOM      4  C   UNL A   1      32.923  36.465  30.746  1.00  0.00     0.223 C 
ATOM      5  O   UNL A   1      32.915  37.664  31.036  1.00  0.00    -0.275 OA
ATOM      6  H   UNL A   1      33.847  36.852  29.028  1.00  0.00     0.163 HD
BRANCH   4   7
ATOM      7  C   UNL A   1      32.456  35.426  31.766  1.00  0.00     0.085 C 
ATOM      8  C   UNL A   1      31.334  36.037  32.604  1.00  0.00     0.019 C 
BRANCH   7   9
ATOM      9  C   UNL A   1      33.610  34.697  32.487  1.00  0.00     0.089 C 
BRANCH   9  10
ATOM     10  S   UNL A   1      34.943  35.721  33.236  1.00  0.00    -0.106 SA
BRANCH  10  11
ATOM     11  C   UNL A   1      36.251  34.521  33.418  1.00  0.00     0.096 A 
ATOM     12  C   UNL A   1      35.996  33.185  33.125  1.00  0.00     0.036 A 
ATOM     13  N   UNL A   1      37.461  34.945  33.839  1.00  0.00    -0.249 NA
ATOM     14  C   UNL A   1      36.998  32.230  33.333  1.00  0.00     0.018 A 
ATOM     15  C   UNL A   1      38.422  33.994  34.020  1.00  0.00     0.126 A 
ATOM     16  C   UNL A   1      38.233  32.625  33.836  1.00  0.00     0.058 A 
BRANCH  16  17
ATOM     17  C   UNL A   1      39.387  31.725  34.094  1.00  0.00     0.254 C 
ATOM     18  O   UNL A   1      40.341  31.838  33.322  1.00  0.00    -0.269 OA
ATOM     19  N   UNL A   1      39.412  30.805  35.146  1.00  0.00    -0.345 N 
ATOM     20  C   UNL A   1      38.484  30.710  36.262  1.00  0.00     0.146 C 
ATOM     21  C   UNL A   1      40.575  29.930  35.216  1.00  0.00     0.146 C 
ENDBRANCH  16  17
ENDBRANCH  10  11
ENDBRANCH   9  10
ENDBRANCH   7   9
ENDBRANCH   4   7
ENDBRANCH   2   3
ENDBRANCH   1   2
BRANCH   1  22
ATOM     22  C   UNL A   1      35.792  33.758  29.285  1.00  0.00     0.023 C 
BRANCH  22  23
ATOM     23  C   UNL A   1      36.068  32.320  28.862  1.00  0.00     0.116 C 
BRANCH  23  24
ATOM     24  N   UNL A   1      35.663  31.343  29.861  1.00  0.00    -0.352 N 
ATOM     25  C   UNL A   1      36.370  30.258  30.330  1.00  0.00     0.251 C 
ATOM     26  H   UNL A   1      34.768  31.474  30.252  1.00  0.00     0.163 HD
ATOM     27  O   UNL A   1      35.835  29.436  31.058  1.00  0.00    -0.269 OA
BRANCH  25  28
ATOM     28  C   UNL A   1      37.772  30.077  29.899  1.00  0.00     0.039 A 
ATOM     29  C   UNL A   1      38.766  29.967  30.873  1.00  0.00     0.014 A 
ATOM     30  C   UNL A   1      38.093  29.965  28.543  1.00  0.00     0.014 A 
ATOM     31  C   UNL A   1      40.074  29.669  30.488  1.00  0.00     0.010 A 
ATOM     32  C   UNL A   1      39.379  29.593  28.169  1.00  0.00     0.010 A 
ATOM     33  C   UNL A   1      40.383  29.438  29.138  1.00  0.00    -0.014 A 
BRANCH  33  34
ATOM     34  C   UNL A   1      41.746  29.027  28.720  1.00  0.00     0.031 A 
ATOM     35  C   UNL A   1      42.848  30.046  28.633  1.00  0.00     0.074 A 
ATOM     36  C   UNL A   1      41.974  27.749  28.356  1.00  0.00     0.049 A 
ATOM     37  N   UNL A   1      44.083  29.892  28.231  1.00  0.00    -0.248 NA
ATOM     38  C   UNL A   1      42.511  31.426  29.022  1.00  0.00     0.031 C 
ATOM     39  C   UNL A   1      40.976  26.677  28.351  1.00  0.00     0.029 A 
ATOM     40  N   UNL A   1      43.119  27.137  27.911  1.00  0.00    -0.354 N 
ATOM     41  C   UNL A   1      44.665  31.151  28.307  1.00  0.00     0.074 A 
ATOM     42  C   UNL A   1      43.634  32.069  28.737  1.00  0.00     0.031 C 
ATOM     43  C   UNL A   1      41.559  25.535  27.950  1.00  0.00     0.029 A 
ATOM     44  C   UNL A   1      42.958  25.800  27.630  1.00  0.00     0.049 A 
ATOM     45  H   UNL A   1      43.977  27.610  27.803  1.00  0.00     0.167 HD
ATOM     46  C   UNL A   1      45.949  31.510  28.061  1.00  0.00     0.031 A 
ATOM     47  C   UNL A   1      43.836  24.891  27.162  1.00  0.00     0.031 A 
ATOM     48  C   UNL A   1      46.974  30.592  27.641  1.00  0.00     0.049 A 
ATOM     49  C   UNL A   1      45.254  25.312  26.892  1.00  0.00     0.074 A 
ATOM     50  C   UNL A   1      48.315  30.847  27.414  1.00  0.00     0.029 A 
ATOM     51  N   UNL A   1      46.774  29.244  27.385  1.00  0.00    -0.354 N 
ATOM     52  N   UNL A   1      45.800  26.496  27.029  1.00  0.00    -0.248 NA
ATOM     53  C   UNL A   1      46.176  24.272  26.418  1.00  0.00     0.031 C 
ATOM     54  C   UNL A   1      48.916  29.663  26.973  1.00  0.00     0.029 A 
ATOM     55  C   UNL A   1      47.962  28.658  26.981  1.00  0.00     0.049 A 
ATOM     56  H   UNL A   1      45.914  28.774  27.476  1.00  0.00     0.167 HD
ATOM     57  C   UNL A   1      47.137  26.338  26.682  1.00  0.00     0.074 A 
ATOM     58  C   UNL A   1      47.319  24.941  26.343  1.00  0.00     0.031 C 
ATOM     59  C   UNL A   1      48.126  27.266  26.647  1.00  0.00     0.031 A 
BRANCH  46  60
ATOM     60  C   UNL A   1      46.308  32.961  28.241  1.00  0.00    -0.014 A 
ATOM     61  C   UNL A   1      46.785  33.442  29.474  1.00  0.00     0.010 A 
ATOM     62  C   UNL A   1      46.196  33.851  27.156  1.00  0.00     0.010 A 
ATOM     63  C   UNL A   1      47.096  34.796  29.633  1.00  0.00     0.020 A 
ATOM     64  C   UNL A   1      46.535  35.199  27.304  1.00  0.00     0.020 A 
ATOM     65  C   UNL A   1      46.963  35.666  28.548  1.00  0.00     0.054 A 
BRANCH  65  66
ATOM     66  S   UNL A   1      47.385  37.415  28.781  1.00  0.00     0.124 S 
ATOM     67  O   UNL A   1      46.146  38.078  28.383  1.00  0.00    -0.237 OA
ATOM     68  O   UNL A   1      47.704  37.482  30.205  1.00  0.00    -0.237 OA
ATOM     69  O   UNL A   1      48.518  37.622  27.882  1.00  0.00    -0.744 OA
ENDBRANCH  65  66
ENDBRANCH  46  60
BRANCH  47  70
ATOM     70  C   UNL A   1      43.396  23.487  26.934  1.00  0.00    -0.014 A 
ATOM     71  C   UNL A   1      43.289  22.975  25.628  1.00  0.00     0.010 A 
ATOM     72  C   UNL A   1      43.102  22.646  28.023  1.00  0.00     0.010 A 
ATOM     73  C   UNL A   1      42.878  21.656  25.416  1.00  0.00     0.020 A 
ATOM     74  C   UNL A   1      42.717  21.319  27.816  1.00  0.00     0.020 A 
ATOM     75  C   UNL A   1      42.597  20.835  26.512  1.00  0.00     0.054 A 
BRANCH  75  76
ATOM     76  S   UNL A   1      42.118  19.110  26.215  1.00  0.00     0.124 S 
ATOM     77  O   UNL A   1      40.731  19.249  25.788  1.00  0.00    -0.237 OA
ATOM     78  O   UNL A   1      43.062  18.695  25.180  1.00  0.00    -0.237 OA
ATOM     79  O   UNL A   1      42.314  18.473  27.516  1.00  0.00    -0.744 OA
ENDBRANCH  75  76
ENDBRANCH  47  70
BRANCH  59  80
ATOM     80  C   UNL A   1      49.503  26.797  26.259  1.00  0.00    -0.014 A 
ATOM     81  C   UNL A   1      50.311  26.081  27.160  1.00  0.00     0.010 A 
ATOM     82  C   UNL A   1      49.970  27.027  24.951  1.00  0.00     0.010 A 
ATOM     83  C   UNL A   1      51.575  25.630  26.768  1.00  0.00     0.020 A 
ATOM     84  C   UNL A   1      51.220  26.554  24.548  1.00  0.00     0.020 A 
ATOM     85  C   UNL A   1      52.021  25.870  25.465  1.00  0.00     0.054 A 
BRANCH  85  86
ATOM     86  S   UNL A   1      53.646  25.233  24.967  1.00  0.00     0.124 S 
ATOM     87  O   UNL A   1      53.598  25.382  23.516  1.00  0.00    -0.237 OA
ATOM     88  O   UNL A   1      54.568  26.128  25.661  1.00  0.00    -0.237 OA
ATOM     89  O   UNL A   1      53.641  23.854  25.453  1.00  0.00    -0.744 OA
ENDBRANCH  85  86
ENDBRANCH  59  80
ENDBRANCH  33  34
ENDBRANCH  25  28
ENDBRANCH  23  24
ENDBRANCH  22  23
ENDBRANCH   1  22
TORSDOF 18
ENDMDL
