MODEL 1
REMARK VINA RESULT:     -11.1      0.000      0.000
REMARK SMILES COc1ccc(Cl)c2c1N[C@@H](c1ccc(C(=O)NCCCCNC(=O)c3ccc(-c4c5nc(c(-c6ccc(S(=O)(=O)[O-])cc6)c6ccc([nH]6)c(-c6ccc(S(=O)(=O)[O-])cc6)c6nc(c(-c7ccc(S(=O)(=O)[O-])cc7)c7ccc4[nH]7)C=C6)C=C5)cc3)cc1)[C@@H]1CC=C[C@H]21
REMARK SMILES IDX 21 1 20 2 19 3 18 4 16 5 17 6 15 8 12 9 13 10 87 11 14 12
REMARK SMILES IDX 86 13 11 14 3 15 4 16 9 17 5 18 8 19 10 20 6 21 92 22 7 24
REMARK SMILES IDX 88 25 91 26 89 27 90 28 2 29 1 30 22 31 23 32 24 33 25 35
REMARK SMILES IDX 26 36 27 37 85 38 28 39 84 40 29 41 30 42 31 43 78 44 32 45
REMARK SMILES IDX 83 46 77 47 79 48 33 49 82 50 76 51 75 52 34 54 64 55 45 56
REMARK SMILES IDX 63 57 46 58 49 59 62 60 80 61 47 62 48 63 61 65 81 66 50 67
REMARK SMILES IDX 35 68 36 69 44 70 37 71 43 72 38 73 39 74 40 75 41 76 42 77
REMARK SMILES IDX 65 78 66 79 74 80 67 81 73 82 68 83 69 84 70 85 71 86 72 87
REMARK SMILES IDX 51 88 52 89 60 90 53 91 59 92 54 93 55 94 56 95 57 96 58 97
REMARK H PARENT 18 7 10 23 23 34 79 53 49 64
REMARK Flexibility Score: inf
ROOT
ATOM      1  C   UNL A   1      33.307  28.970  27.257  1.00  0.00     0.023 C 
ENDROOT
BRANCH   1   2
ATOM      2  C   UNL A   1      32.038  29.575  26.656  1.00  0.00     0.023 C 
BRANCH   2   3
ATOM      3  C   UNL A   1      32.166  30.012  25.196  1.00  0.00     0.116 C 
BRANCH   3   4
ATOM      4  N   UNL A   1      31.022  29.578  24.416  1.00  0.00    -0.352 N 
ATOM      5  C   UNL A   1      30.618  28.322  24.037  1.00  0.00     0.251 C 
ATOM      6  O   UNL A   1      29.540  28.197  23.459  1.00  0.00    -0.269 OA
ATOM      7  H   UNL A   1      30.437  30.307  24.107  1.00  0.00     0.163 HD
BRANCH   5   8
ATOM      8  C   UNL A   1      31.414  27.106  24.346  1.00  0.00     0.039 A 
ATOM      9  C   UNL A   1      32.998  24.814  24.812  1.00  0.00    -0.025 A 
ATOM     10  C   UNL A   1      33.232  25.630  23.695  1.00  0.00     0.006 A 
ATOM     11  C   UNL A   1      31.985  25.183  25.708  1.00  0.00     0.006 A 
ATOM     12  C   UNL A   1      32.455  26.772  23.473  1.00  0.00     0.014 A 
ATOM     13  C   UNL A   1      31.211  26.321  25.482  1.00  0.00     0.014 A 
BRANCH   9  14
ATOM     14  C   UNL A   1      33.799  23.551  25.082  1.00  0.00     0.114 C 
ATOM     15  C   UNL A   1      37.439  23.160  25.748  1.00  0.00     0.142 A 
ATOM     16  C   UNL A   1      38.412  22.172  25.860  1.00  0.00     0.050 A 
ATOM     17  C   UNL A   1      36.142  22.864  25.280  1.00  0.00     0.083 A 
ATOM     18  C   UNL A   1      38.096  20.859  25.530  1.00  0.00     0.025 A 
ATOM     19  C   UNL A   1      35.821  21.536  24.933  1.00  0.00     0.005 A 
ATOM     20  N   UNL A   1      35.210  23.878  25.126  1.00  0.00    -0.375 N 
ATOM     21  C   UNL A   1      36.815  20.542  25.067  1.00  0.00     0.047 A 
ATOM     22  C   UNL A   1      34.460  21.222  24.348  1.00  0.00     0.051 C 
ATOM     23  H   UNL A   1      35.504  24.815  25.049  1.00  0.00     0.161 HD
ATOM     24  Cl  UNL A   1      36.534  18.891  24.626  1.00  0.00    -0.084 Cl
ATOM     25  C   UNL A   1      33.570  22.451  24.027  1.00  0.00     0.031 C 
ATOM     26  C   UNL A   1      33.542  20.420  25.238  1.00  0.00    -0.023 C 
ATOM     27  C   UNL A   1      32.142  21.875  24.061  1.00  0.00     0.034 C 
ATOM     28  C   UNL A   1      32.262  20.772  25.062  1.00  0.00    -0.030 C 
BRANCH  15  29
ATOM     29  O   UNL A   1      37.823  24.446  26.046  1.00  0.00    -0.495 OA
ATOM     30  C   UNL A   1      39.175  24.499  26.505  1.00  0.00     0.278 C 
ENDBRANCH  15  29
ENDBRANCH   9  14
ENDBRANCH   5   8
ENDBRANCH   3   4
ENDBRANCH   2   3
ENDBRANCH   1   2
BRANCH   1  31
ATOM     31  C   UNL A   1      34.477  29.934  27.388  1.00  0.00     0.116 C 
BRANCH  31  32
ATOM     32  N   UNL A   1      34.173  31.096  28.210  1.00  0.00    -0.352 N 
ATOM     33  C   UNL A   1      34.932  31.616  29.232  1.00  0.00     0.251 C 
ATOM     34  H   UNL A   1      33.330  31.563  28.012  1.00  0.00     0.163 HD
ATOM     35  O   UNL A   1      34.536  32.556  29.903  1.00  0.00    -0.269 OA
BRANCH  33  36
ATOM     36  C   UNL A   1      36.226  30.968  29.519  1.00  0.00     0.039 A 
ATOM     37  C   UNL A   1      37.395  31.575  29.061  1.00  0.00     0.014 A 
ATOM     38  C   UNL A   1      36.270  29.836  30.339  1.00  0.00     0.014 A 
ATOM     39  C   UNL A   1      38.628  31.077  29.479  1.00  0.00     0.010 A 
ATOM     40  C   UNL A   1      37.499  29.370  30.790  1.00  0.00     0.010 A 
ATOM     41  C   UNL A   1      38.685  29.991  30.369  1.00  0.00    -0.014 A 
BRANCH  41  42
ATOM     42  C   UNL A   1      39.985  29.489  30.862  1.00  0.00     0.031 A 
ATOM     43  C   UNL A   1      40.606  30.107  32.079  1.00  0.00     0.074 A 
ATOM     44  C   UNL A   1      40.617  28.504  30.194  1.00  0.00     0.049 A 
ATOM     45  N   UNL A   1      41.738  29.810  32.661  1.00  0.00    -0.248 NA
ATOM     46  C   UNL A   1      39.868  31.209  32.717  1.00  0.00     0.031 C 
ATOM     47  C   UNL A   1      40.124  27.851  28.979  1.00  0.00     0.029 A 
ATOM     48  N   UNL A   1      41.812  27.879  30.447  1.00  0.00    -0.354 N 
ATOM     49  C   UNL A   1      41.849  30.688  33.730  1.00  0.00     0.074 A 
ATOM     50  C   UNL A   1      40.694  31.558  33.693  1.00  0.00     0.031 C 
ATOM     51  C   UNL A   1      40.995  26.897  28.610  1.00  0.00     0.029 A 
ATOM     52  C   UNL A   1      42.115  26.885  29.546  1.00  0.00     0.049 A 
ATOM     53  H   UNL A   1      42.397  28.120  31.201  1.00  0.00     0.167 HD
ATOM     54  C   UNL A   1      42.816  30.748  34.673  1.00  0.00     0.031 A 
ATOM     55  C   UNL A   1      43.171  26.051  29.490  1.00  0.00     0.031 A 
ATOM     56  C   UNL A   1      43.954  29.874  34.718  1.00  0.00     0.049 A 
ATOM     57  C   UNL A   1      44.236  26.139  30.546  1.00  0.00     0.074 A 
ATOM     58  C   UNL A   1      44.968  29.833  35.658  1.00  0.00     0.029 A 
ATOM     59  N   UNL A   1      44.226  28.886  33.786  1.00  0.00    -0.354 N 
ATOM     60  N   UNL A   1      44.304  26.950  31.574  1.00  0.00    -0.248 NA
ATOM     61  C   UNL A   1      45.360  25.197  30.443  1.00  0.00     0.031 C 
ATOM     62  C   UNL A   1      45.869  28.834  35.279  1.00  0.00     0.029 A 
ATOM     63  C   UNL A   1      45.397  28.233  34.123  1.00  0.00     0.049 A 
ATOM     64  H   UNL A   1      43.668  28.679  33.002  1.00  0.00     0.167 HD
ATOM     65  C   UNL A   1      45.467  26.605  32.251  1.00  0.00     0.074 A 
ATOM     66  C   UNL A   1      46.072  25.511  31.519  1.00  0.00     0.031 C 
ATOM     67  C   UNL A   1      45.982  27.144  33.382  1.00  0.00     0.031 A 
BRANCH  54  68
ATOM     68  C   UNL A   1      42.671  31.791  35.744  1.00  0.00    -0.014 A 
ATOM     69  C   UNL A   1      41.994  31.496  36.941  1.00  0.00     0.010 A 
ATOM     70  C   UNL A   1      43.249  33.061  35.572  1.00  0.00     0.010 A 
ATOM     71  C   UNL A   1      41.873  32.464  37.939  1.00  0.00     0.020 A 
ATOM     72  C   UNL A   1      43.146  34.026  36.577  1.00  0.00     0.020 A 
ATOM     73  C   UNL A   1      42.451  33.723  37.751  1.00  0.00     0.054 A 
BRANCH  73  74
ATOM     74  S   UNL A   1      42.287  34.952  39.074  1.00  0.00     0.124 S 
ATOM     75  O   UNL A   1      40.837  35.024  39.243  1.00  0.00    -0.237 OA
ATOM     76  O   UNL A   1      43.016  34.329  40.175  1.00  0.00    -0.237 OA
ATOM     77  O   UNL A   1      42.905  36.151  38.516  1.00  0.00    -0.744 OA
ENDBRANCH  73  74
ENDBRANCH  54  68
BRANCH  55  78
ATOM     78  C   UNL A   1      43.238  25.032  28.411  1.00  0.00    -0.014 A 
ATOM     79  C   UNL A   1      43.877  25.335  27.195  1.00  0.00     0.010 A 
ATOM     80  C   UNL A   1      42.722  23.741  28.614  1.00  0.00     0.010 A 
ATOM     81  C   UNL A   1      44.006  24.358  26.204  1.00  0.00     0.020 A 
ATOM     82  C   UNL A   1      42.862  22.757  27.631  1.00  0.00     0.020 A 
ATOM     83  C   UNL A   1      43.508  23.072  26.433  1.00  0.00     0.054 A 
BRANCH  83  84
ATOM     84  S   UNL A   1      43.759  21.807  25.156  1.00  0.00     0.124 S 
ATOM     85  O   UNL A   1      43.676  22.590  23.927  1.00  0.00    -0.237 OA
ATOM     86  O   UNL A   1      45.083  21.292  25.490  1.00  0.00    -0.237 OA
ATOM     87  O   UNL A   1      42.658  20.872  25.376  1.00  0.00    -0.744 OA
ENDBRANCH  83  84
ENDBRANCH  55  78
BRANCH  67  88
ATOM     88  C   UNL A   1      47.255  26.562  33.925  1.00  0.00    -0.014 A 
ATOM     89  C   UNL A   1      47.224  25.446  34.775  1.00  0.00     0.010 A 
ATOM     90  C   UNL A   1      48.491  27.051  33.464  1.00  0.00     0.010 A 
ATOM     91  C   UNL A   1      48.415  24.817  35.150  1.00  0.00     0.020 A 
ATOM     92  C   UNL A   1      49.681  26.416  33.825  1.00  0.00     0.020 A 
ATOM     93  C   UNL A   1      49.633  25.299  34.661  1.00  0.00     0.054 A 
BRANCH  93  94
ATOM     94  S   UNL A   1      51.152  24.404  35.092  1.00  0.00     0.124 S 
ATOM     95  O   UNL A   1      52.164  25.133  34.332  1.00  0.00    -0.237 OA
ATOM     96  O   UNL A   1      51.214  24.569  36.542  1.00  0.00    -0.237 OA
ATOM     97  O   UNL A   1      50.896  23.040  34.634  1.00  0.00    -0.744 OA
ENDBRANCH  93  94
ENDBRANCH  67  88
ENDBRANCH  41  42
ENDBRANCH  33  36
ENDBRANCH  31  32
ENDBRANCH   1  31
TORSDOF 16
ENDMDL
MODEL 2
REMARK VINA RESULT:     -11.1      4.524     10.146
REMARK SMILES COc1ccc(Cl)c2c1N[C@@H](c1ccc(C(=O)NCCCCNC(=O)c3ccc(-c4c5nc(c(-c6ccc(S(=O)(=O)[O-])cc6)c6ccc([nH]6)c(-c6ccc(S(=O)(=O)[O-])cc6)c6nc(c(-c7ccc(S(=O)(=O)[O-])cc7)c7ccc4[nH]7)C=C6)C=C5)cc3)cc1)[C@@H]1CC=C[C@H]21
REMARK SMILES IDX 21 1 20 2 19 3 18 4 16 5 17 6 15 8 12 9 13 10 87 11 14 12
REMARK SMILES IDX 86 13 11 14 3 15 4 16 9 17 5 18 8 19 10 20 6 21 92 22 7 24
REMARK SMILES IDX 88 25 91 26 89 27 90 28 2 29 1 30 22 31 23 32 24 33 25 35
REMARK SMILES IDX 26 36 27 37 85 38 28 39 84 40 29 41 30 42 31 43 78 44 32 45
REMARK SMILES IDX 83 46 77 47 79 48 33 49 82 50 76 51 75 52 34 54 64 55 45 56
REMARK SMILES IDX 63 57 46 58 49 59 62 60 80 61 47 62 48 63 61 65 81 66 50 67
REMARK SMILES IDX 35 68 36 69 44 70 37 71 43 72 38 73 39 74 40 75 41 76 42 77
REMARK SMILES IDX 65 78 66 79 74 80 67 81 73 82 68 83 69 84 70 85 71 86 72 87
REMARK SMILES IDX 51 88 52 89 60 90 53 91 59 92 54 93 55 94 56 95 57 96 58 97
REMARK H PARENT 18 7 10 23 23 34 79 53 49 64
REMARK Flexibility Score: inf
ROOT
ATOM      1  C   UNL A   1      37.828  23.376  25.323  1.00  0.00     0.023 C 
ENDROOT
BRANCH   1   2
ATOM      2  C   UNL A   1      37.087  22.184  24.718  1.00  0.00     0.023 C 
BRANCH   2   3
ATOM      3  C   UNL A   1      36.227  21.396  25.707  1.00  0.00     0.116 C 
BRANCH   3   4
ATOM      4  N   UNL A   1      35.032  20.877  25.068  1.00  0.00    -0.352 N 
ATOM      5  C   UNL A   1      33.921  21.522  24.583  1.00  0.00     0.251 C 
ATOM      6  O   UNL A   1      33.073  20.867  23.980  1.00  0.00    -0.269 OA
ATOM      7  H   UNL A   1      35.015  19.899  24.964  1.00  0.00     0.163 HD
BRANCH   5   8
ATOM      8  C   UNL A   1      33.733  22.990  24.718  1.00  0.00     0.039 A 
ATOM      9  C   UNL A   1      33.323  25.758  25.105  1.00  0.00    -0.025 A 
ATOM     10  C   UNL A   1      33.044  24.843  26.132  1.00  0.00     0.006 A 
ATOM     11  C   UNL A   1      33.843  25.270  23.899  1.00  0.00     0.006 A 
ATOM     12  C   UNL A   1      33.261  23.474  25.943  1.00  0.00     0.014 A 
ATOM     13  C   UNL A   1      34.055  23.903  23.714  1.00  0.00     0.014 A 
BRANCH   9  14
ATOM     14  C   UNL A   1      33.081  27.251  25.255  1.00  0.00     0.114 C 
ATOM     15  C   UNL A   1      34.798  29.712  27.455  1.00  0.00     0.142 A 
ATOM     16  C   UNL A   1      34.682  31.028  27.893  1.00  0.00     0.050 A 
ATOM     17  C   UNL A   1      33.767  29.089  26.723  1.00  0.00     0.083 A 
ATOM     18  C   UNL A   1      33.539  31.756  27.579  1.00  0.00     0.025 A 
ATOM     19  C   UNL A   1      32.602  29.820  26.413  1.00  0.00     0.005 A 
ATOM     20  N   UNL A   1      33.886  27.760  26.348  1.00  0.00    -0.375 N 
ATOM     21  C   UNL A   1      32.506  31.159  26.851  1.00  0.00     0.047 A 
ATOM     22  C   UNL A   1      31.454  29.134  25.703  1.00  0.00     0.051 C 
ATOM     23  H   UNL A   1      34.514  27.166  26.819  1.00  0.00     0.161 HD
ATOM     24  Cl  UNL A   1      31.100  32.126  26.561  1.00  0.00    -0.084 Cl
ATOM     25  C   UNL A   1      31.603  27.603  25.512  1.00  0.00     0.031 C 
ATOM     26  C   UNL A   1      31.210  29.584  24.283  1.00  0.00    -0.023 C 
ATOM     27  C   UNL A   1      30.696  27.304  24.303  1.00  0.00     0.034 C 
ATOM     28  C   UNL A   1      30.775  28.574  23.519  1.00  0.00    -0.030 C 
BRANCH  15  29
ATOM     29  O   UNL A   1      35.930  29.030  27.832  1.00  0.00    -0.495 OA
ATOM     30  C   UNL A   1      36.406  29.465  29.107  1.00  0.00     0.278 C 
ENDBRANCH  15  29
ENDBRANCH   9  14
ENDBRANCH   5   8
ENDBRANCH   3   4
ENDBRANCH   2   3
ENDBRANCH   1   2
BRANCH   1  31
ATOM     31  C   UNL A   1      38.728  23.039  26.502  1.00  0.00     0.116 C 
BRANCH  31  32
ATOM     32  N   UNL A   1      39.964  22.377  26.111  1.00  0.00    -0.352 N 
ATOM     33  C   UNL A   1      41.242  22.879  26.192  1.00  0.00     0.251 C 
ATOM     34  H   UNL A   1      39.875  21.466  25.747  1.00  0.00     0.163 HD
ATOM     35  O   UNL A   1      42.198  22.254  25.760  1.00  0.00    -0.269 OA
BRANCH  33  36
ATOM     36  C   UNL A   1      41.412  24.220  26.780  1.00  0.00     0.039 A 
ATOM     37  C   UNL A   1      41.771  24.322  28.124  1.00  0.00     0.014 A 
ATOM     38  C   UNL A   1      41.330  25.353  25.964  1.00  0.00     0.014 A 
ATOM     39  C   UNL A   1      42.114  25.569  28.642  1.00  0.00     0.010 A 
ATOM     40  C   UNL A   1      41.716  26.588  26.472  1.00  0.00     0.010 A 
ATOM     41  C   UNL A   1      42.116  26.703  27.812  1.00  0.00    -0.014 A 
BRANCH  41  42
ATOM     42  C   UNL A   1      42.529  28.022  28.338  1.00  0.00     0.031 A 
ATOM     43  C   UNL A   1      43.983  28.390  28.357  1.00  0.00     0.074 A 
ATOM     44  C   UNL A   1      41.601  28.866  28.826  1.00  0.00     0.049 A 
ATOM     45  N   UNL A   1      44.543  29.492  28.782  1.00  0.00    -0.248 NA
ATOM     46  C   UNL A   1      44.931  27.386  27.848  1.00  0.00     0.031 C 
ATOM     47  C   UNL A   1      40.161  28.601  28.888  1.00  0.00     0.029 A 
ATOM     48  N   UNL A   1      41.732  30.123  29.360  1.00  0.00    -0.354 N 
ATOM     49  C   UNL A   1      45.906  29.314  28.594  1.00  0.00     0.074 A 
ATOM     50  C   UNL A   1      46.095  27.984  28.059  1.00  0.00     0.031 C 
ATOM     51  C   UNL A   1      39.540  29.675  29.403  1.00  0.00     0.029 A 
ATOM     52  C   UNL A   1      40.535  30.694  29.726  1.00  0.00     0.049 A 
ATOM     53  H   UNL A   1      42.599  30.574  29.472  1.00  0.00     0.167 HD
ATOM     54  C   UNL A   1      46.909  30.191  28.823  1.00  0.00     0.031 A 
ATOM     55  C   UNL A   1      40.269  31.906  30.251  1.00  0.00     0.031 A 
ATOM     56  C   UNL A   1      46.718  31.517  29.340  1.00  0.00     0.049 A 
ATOM     57  C   UNL A   1      41.400  32.862  30.502  1.00  0.00     0.074 A 
ATOM     58  C   UNL A   1      47.670  32.494  29.570  1.00  0.00     0.029 A 
ATOM     59  N   UNL A   1      45.493  32.054  29.702  1.00  0.00    -0.354 N 
ATOM     60  N   UNL A   1      42.681  32.692  30.280  1.00  0.00    -0.248 NA
ATOM     61  C   UNL A   1      41.053  34.176  31.066  1.00  0.00     0.031 C 
ATOM     62  C   UNL A   1      47.022  33.615  30.097  1.00  0.00     0.029 A 
ATOM     63  C   UNL A   1      45.664  33.346  30.162  1.00  0.00     0.049 A 
ATOM     64  H   UNL A   1      44.630  31.585  29.639  1.00  0.00     0.167 HD
ATOM     65  C   UNL A   1      43.291  33.881  30.658  1.00  0.00     0.074 A 
ATOM     66  C   UNL A   1      42.242  34.764  31.122  1.00  0.00     0.031 C 
ATOM     67  C   UNL A   1      44.605  34.210  30.617  1.00  0.00     0.031 A 
BRANCH  54  68
ATOM     68  C   UNL A   1      48.305  29.742  28.500  1.00  0.00    -0.014 A 
ATOM     69  C   UNL A   1      49.107  29.139  29.486  1.00  0.00     0.010 A 
ATOM     70  C   UNL A   1      48.806  29.886  27.195  1.00  0.00     0.010 A 
ATOM     71  C   UNL A   1      50.399  28.711  29.178  1.00  0.00     0.020 A 
ATOM     72  C   UNL A   1      50.092  29.441  26.879  1.00  0.00     0.020 A 
ATOM     73  C   UNL A   1      50.884  28.864  27.876  1.00  0.00     0.054 A 
BRANCH  73  74
ATOM     74  S   UNL A   1      52.561  28.283  27.507  1.00  0.00     0.124 S 
ATOM     75  O   UNL A   1      52.377  27.623  26.217  1.00  0.00    -0.237 OA
ATOM     76  O   UNL A   1      53.325  29.527  27.472  1.00  0.00    -0.237 OA
ATOM     77  O   UNL A   1      52.874  27.390  28.620  1.00  0.00    -0.744 OA
ENDBRANCH  73  74
ENDBRANCH  54  68
BRANCH  55  78
ATOM     78  C   UNL A   1      38.861  32.288  30.528  1.00  0.00    -0.014 A 
ATOM     79  C   UNL A   1      38.298  32.033  31.791  1.00  0.00     0.010 A 
ATOM     80  C   UNL A   1      38.099  32.960  29.557  1.00  0.00     0.010 A 
ATOM     81  C   UNL A   1      36.997  32.455  32.082  1.00  0.00     0.020 A 
ATOM     82  C   UNL A   1      36.802  33.395  29.849  1.00  0.00     0.020 A 
ATOM     83  C   UNL A   1      36.262  33.143  31.112  1.00  0.00     0.054 A 
BRANCH  83  84
ATOM     84  S   UNL A   1      34.605  33.741  31.547  1.00  0.00     0.124 S 
ATOM     85  O   UNL A   1      34.077  32.636  32.340  1.00  0.00    -0.237 OA
ATOM     86  O   UNL A   1      34.904  34.965  32.285  1.00  0.00    -0.237 OA
ATOM     87  O   UNL A   1      33.961  33.943  30.251  1.00  0.00    -0.744 OA
ENDBRANCH  83  84
ENDBRANCH  55  78
BRANCH  67  88
ATOM     88  C   UNL A   1      45.001  35.587  31.066  1.00  0.00    -0.014 A 
ATOM     89  C   UNL A   1      44.978  36.666  30.168  1.00  0.00     0.010 A 
ATOM     90  C   UNL A   1      45.258  35.823  32.429  1.00  0.00     0.010 A 
ATOM     91  C   UNL A   1      45.197  37.967  30.629  1.00  0.00     0.020 A 
ATOM     92  C   UNL A   1      45.463  37.124  32.895  1.00  0.00     0.020 A 
ATOM     93  C   UNL A   1      45.425  38.188  31.991  1.00  0.00     0.054 A 
BRANCH  93  94
ATOM     94  S   UNL A   1      45.612  39.897  32.570  1.00  0.00     0.124 S 
ATOM     95  O   UNL A   1      46.912  39.855  33.234  1.00  0.00    -0.237 OA
ATOM     96  O   UNL A   1      45.567  40.658  31.324  1.00  0.00    -0.237 OA
ATOM     97  O   UNL A   1      44.468  40.093  33.458  1.00  0.00    -0.744 OA
ENDBRANCH  93  94
ENDBRANCH  67  88
ENDBRANCH  41  42
ENDBRANCH  33  36
ENDBRANCH  31  32
ENDBRANCH   1  31
TORSDOF 16
ENDMDL
MODEL 3
REMARK VINA RESULT:     -11.1      4.308      8.045
REMARK SMILES COc1ccc(Cl)c2c1N[C@@H](c1ccc(C(=O)NCCCCNC(=O)c3ccc(-c4c5nc(c(-c6ccc(S(=O)(=O)[O-])cc6)c6ccc([nH]6)c(-c6ccc(S(=O)(=O)[O-])cc6)c6nc(c(-c7ccc(S(=O)(=O)[O-])cc7)c7ccc4[nH]7)C=C6)C=C5)cc3)cc1)[C@@H]1CC=C[C@H]21
REMARK SMILES IDX 21 1 20 2 19 3 18 4 16 5 17 6 15 8 12 9 13 10 87 11 14 12
REMARK SMILES IDX 86 13 11 14 3 15 4 16 9 17 5 18 8 19 10 20 6 21 92 22 7 24
REMARK SMILES IDX 88 25 91 26 89 27 90 28 2 29 1 30 22 31 23 32 24 33 25 35
REMARK SMILES IDX 26 36 27 37 85 38 28 39 84 40 29 41 30 42 31 43 78 44 32 45
REMARK SMILES IDX 83 46 77 47 79 48 33 49 82 50 76 51 75 52 34 54 64 55 45 56
REMARK SMILES IDX 63 57 46 58 49 59 62 60 80 61 47 62 48 63 61 65 81 66 50 67
REMARK SMILES IDX 35 68 36 69 44 70 37 71 43 72 38 73 39 74 40 75 41 76 42 77
REMARK SMILES IDX 65 78 66 79 74 80 67 81 73 82 68 83 69 84 70 85 71 86 72 87
REMARK SMILES IDX 51 88 52 89 60 90 53 91 59 92 54 93 55 94 56 95 57 96 58 97
REMARK H PARENT 18 7 10 23 23 34 79 53 49 64
REMARK Flexibility Score: inf
ROOT
ATOM      1  C   UNL A   1      33.957  33.925  27.953  1.00  0.00     0.023 C 
ENDROOT
BRANCH   1   2
ATOM      2  C   UNL A   1      33.878  34.883  29.141  1.00  0.00     0.023 C 
BRANCH   2   3
ATOM      3  C   UNL A   1      33.832  34.203  30.510  1.00  0.00     0.116 C 
BRANCH   3   4
ATOM      4  N   UNL A   1      33.320  35.103  31.527  1.00  0.00    -0.352 N 
ATOM      5  C   UNL A   1      33.852  35.491  32.732  1.00  0.00     0.251 C 
ATOM      6  O   UNL A   1      33.272  36.359  33.383  1.00  0.00    -0.269 OA
ATOM      7  H   UNL A   1      32.446  35.503  31.318  1.00  0.00     0.163 HD
BRANCH   5   8
ATOM      8  C   UNL A   1      35.127  34.934  33.253  1.00  0.00     0.039 A 
ATOM      9  C   UNL A   1      37.616  33.917  34.123  1.00  0.00    -0.025 A 
ATOM     10  C   UNL A   1      37.510  34.606  32.905  1.00  0.00     0.006 A 
ATOM     11  C   UNL A   1      36.466  33.778  34.912  1.00  0.00     0.006 A 
ATOM     12  C   UNL A   1      36.280  35.121  32.482  1.00  0.00     0.014 A 
ATOM     13  C   UNL A   1      35.240  34.290  34.486  1.00  0.00     0.014 A 
BRANCH   9  14
ATOM     14  C   UNL A   1      38.924  33.320  34.612  1.00  0.00     0.114 C 
ATOM     15  C   UNL A   1      40.323  29.918  34.049  1.00  0.00     0.142 A 
ATOM     16  C   UNL A   1      41.356  29.094  34.485  1.00  0.00     0.050 A 
ATOM     17  C   UNL A   1      40.034  31.137  34.695  1.00  0.00     0.083 A 
ATOM     18  C   UNL A   1      42.140  29.491  35.563  1.00  0.00     0.025 A 
ATOM     19  C   UNL A   1      40.819  31.537  35.796  1.00  0.00     0.005 A 
ATOM     20  N   UNL A   1      38.964  31.911  34.275  1.00  0.00    -0.375 N 
ATOM     21  C   UNL A   1      41.873  30.697  36.216  1.00  0.00     0.047 A 
ATOM     22  C   UNL A   1      40.463  32.801  36.551  1.00  0.00     0.051 C 
ATOM     23  H   UNL A   1      38.236  31.506  33.749  1.00  0.00     0.161 HD
ATOM     24  Cl  UNL A   1      42.866  31.077  37.583  1.00  0.00    -0.084 Cl
ATOM     25  C   UNL A   1      39.135  33.481  36.130  1.00  0.00     0.031 C 
ATOM     26  C   UNL A   1      41.438  33.943  36.396  1.00  0.00    -0.023 C 
ATOM     27  C   UNL A   1      39.334  34.947  36.556  1.00  0.00     0.034 C 
ATOM     28  C   UNL A   1      40.811  35.126  36.418  1.00  0.00    -0.030 C 
BRANCH  15  29
ATOM     29  O   UNL A   1      39.556  29.453  33.008  1.00  0.00    -0.495 OA
ATOM     30  C   UNL A   1      39.724  28.047  32.817  1.00  0.00     0.278 C 
ENDBRANCH  15  29
ENDBRANCH   9  14
ENDBRANCH   5   8
ENDBRANCH   3   4
ENDBRANCH   2   3
ENDBRANCH   1   2
BRANCH   1  31
ATOM     31  C   UNL A   1      34.763  32.659  28.204  1.00  0.00     0.116 C 
BRANCH  31  32
ATOM     32  N   UNL A   1      34.065  31.446  27.803  1.00  0.00    -0.352 N 
ATOM     33  C   UNL A   1      34.580  30.173  27.728  1.00  0.00     0.251 C 
ATOM     34  H   UNL A   1      33.117  31.548  27.558  1.00  0.00     0.163 HD
ATOM     35  O   UNL A   1      33.913  29.242  27.304  1.00  0.00    -0.269 OA
BRANCH  33  36
ATOM     36  C   UNL A   1      35.983  29.979  28.138  1.00  0.00     0.039 A 
ATOM     37  C   UNL A   1      36.248  29.544  29.437  1.00  0.00     0.014 A 
ATOM     38  C   UNL A   1      37.008  30.117  27.197  1.00  0.00     0.014 A 
ATOM     39  C   UNL A   1      37.549  29.181  29.779  1.00  0.00     0.010 A 
ATOM     40  C   UNL A   1      38.296  29.712  27.528  1.00  0.00     0.010 A 
ATOM     41  C   UNL A   1      38.573  29.236  28.818  1.00  0.00    -0.014 A 
BRANCH  41  42
ATOM     42  C   UNL A   1      39.946  28.803  29.156  1.00  0.00     0.031 A 
ATOM     43  C   UNL A   1      40.858  29.738  29.892  1.00  0.00     0.074 A 
ATOM     44  C   UNL A   1      40.377  27.587  28.770  1.00  0.00     0.049 A 
ATOM     45  N   UNL A   1      42.094  29.546  30.274  1.00  0.00    -0.248 NA
ATOM     46  C   UNL A   1      40.319  31.065  30.233  1.00  0.00     0.031 C 
ATOM     47  C   UNL A   1      39.588  26.606  28.019  1.00  0.00     0.029 A 
ATOM     48  N   UNL A   1      41.587  26.968  28.959  1.00  0.00    -0.354 N 
ATOM     49  C   UNL A   1      42.480  30.726  30.895  1.00  0.00     0.074 A 
ATOM     50  C   UNL A   1      41.366  31.644  30.803  1.00  0.00     0.031 C 
ATOM     51  C   UNL A   1      40.326  25.498  27.838  1.00  0.00     0.029 A 
ATOM     52  C   UNL A   1      41.642  25.696  28.438  1.00  0.00     0.049 A 
ATOM     53  H   UNL A   1      42.344  27.393  29.421  1.00  0.00     0.167 HD
ATOM     54  C   UNL A   1      43.650  31.009  31.510  1.00  0.00     0.031 A 
ATOM     55  C   UNL A   1      42.637  24.788  28.455  1.00  0.00     0.031 A 
ATOM     56  C   UNL A   1      44.749  30.091  31.614  1.00  0.00     0.049 A 
ATOM     57  C   UNL A   1      43.931  25.127  29.139  1.00  0.00     0.074 A 
ATOM     58  C   UNL A   1      45.963  30.274  32.252  1.00  0.00     0.029 A 
ATOM     59  N   UNL A   1      44.767  28.817  31.070  1.00  0.00    -0.354 N 
ATOM     60  N   UNL A   1      44.264  26.234  29.758  1.00  0.00    -0.248 NA
ATOM     61  C   UNL A   1      44.979  24.095  29.138  1.00  0.00     0.031 C 
ATOM     62  C   UNL A   1      46.726  29.117  32.072  1.00  0.00     0.029 A 
ATOM     63  C   UNL A   1      45.973  28.203  31.351  1.00  0.00     0.049 A 
ATOM     64  H   UNL A   1      44.029  28.409  30.562  1.00  0.00     0.167 HD
ATOM     65  C   UNL A   1      45.551  26.026  30.236  1.00  0.00     0.074 A 
ATOM     66  C   UNL A   1      45.939  24.689  29.837  1.00  0.00     0.031 C 
ATOM     67  C   UNL A   1      46.338  26.870  30.947  1.00  0.00     0.031 A 
BRANCH  54  68
ATOM     68  C   UNL A   1      43.791  32.369  32.131  1.00  0.00    -0.014 A 
ATOM     69  C   UNL A   1      44.208  33.467  31.357  1.00  0.00     0.010 A 
ATOM     70  C   UNL A   1      43.466  32.562  33.485  1.00  0.00     0.010 A 
ATOM     71  C   UNL A   1      44.325  34.732  31.935  1.00  0.00     0.020 A 
ATOM     72  C   UNL A   1      43.564  33.830  34.061  1.00  0.00     0.020 A 
ATOM     73  C   UNL A   1      44.001  34.906  33.284  1.00  0.00     0.054 A 
BRANCH  73  74
ATOM     74  S   UNL A   1      44.150  36.566  33.998  1.00  0.00     0.124 S 
ATOM     75  O   UNL A   1      44.287  36.271  35.423  1.00  0.00    -0.237 OA
ATOM     76  O   UNL A   1      45.350  37.083  33.346  1.00  0.00    -0.237 OA
ATOM     77  O   UNL A   1      42.902  37.223  33.620  1.00  0.00    -0.744 OA
ENDBRANCH  73  74
ENDBRANCH  54  68
BRANCH  55  78
ATOM     78  C   UNL A   1      42.419  23.456  27.835  1.00  0.00    -0.014 A 
ATOM     79  C   UNL A   1      42.670  23.266  26.465  1.00  0.00     0.010 A 
ATOM     80  C   UNL A   1      42.020  22.360  28.620  1.00  0.00     0.010 A 
ATOM     81  C   UNL A   1      42.536  21.999  25.892  1.00  0.00     0.020 A 
ATOM     82  C   UNL A   1      41.898  21.087  28.053  1.00  0.00     0.020 A 
ATOM     83  C   UNL A   1      42.162  20.915  26.692  1.00  0.00     0.054 A 
BRANCH  83  84
ATOM     84  S   UNL A   1      42.069  19.270  25.931  1.00  0.00     0.124 S 
ATOM     85  O   UNL A   1      42.613  18.415  26.982  1.00  0.00    -0.237 OA
ATOM     86  O   UNL A   1      40.638  19.130  25.678  1.00  0.00    -0.237 OA
ATOM     87  O   UNL A   1      42.898  19.396  24.735  1.00  0.00    -0.744 OA
ENDBRANCH  83  84
ENDBRANCH  55  78
BRANCH  67  88
ATOM     88  C   UNL A   1      47.696  26.383  31.365  1.00  0.00    -0.014 A 
ATOM     89  C   UNL A   1      47.983  26.140  32.717  1.00  0.00     0.010 A 
ATOM     90  C   UNL A   1      48.639  26.035  30.381  1.00  0.00     0.010 A 
ATOM     91  C   UNL A   1      49.192  25.542  33.081  1.00  0.00     0.020 A 
ATOM     92  C   UNL A   1      49.842  25.424  30.740  1.00  0.00     0.020 A 
ATOM     93  C   UNL A   1      50.108  25.177  32.089  1.00  0.00     0.054 A 
BRANCH  93  94
ATOM     94  S   UNL A   1      51.626  24.319  32.588  1.00  0.00     0.124 S 
ATOM     95  O   UNL A   1      52.655  25.080  31.883  1.00  0.00    -0.237 OA
ATOM     96  O   UNL A   1      51.613  24.475  34.041  1.00  0.00    -0.237 OA
ATOM     97  O   UNL A   1      51.429  22.952  32.110  1.00  0.00    -0.744 OA
ENDBRANCH  93  94
ENDBRANCH  67  88
ENDBRANCH  41  42
ENDBRANCH  33  36
ENDBRANCH  31  32
ENDBRANCH   1  31
TORSDOF 16
ENDMDL
