MODEL 1
REMARK VINA RESULT:     -10.9      0.000      0.000
REMARK SMILES O=C(NCCCCNC(=O)c1ccc(-n2cc(CSc3nc4ccccc4c(=O)n3-c3ccc(Br)cc3)nn2)cc1)c1ccc(-c2c3nc(c(-c4ccc(S(=O)(=O)[O-])cc4)c4ccc([nH]4)c(-c4ccc(S(=O)(=O)[O-])cc4)c4nc(c(-c5ccc(S(=O)(=O)[O-])cc5)c5ccc2[nH]5)C=C4)C=C3)cc1
REMARK SMILES IDX 6 1 5 2 4 3 3 4 1 5 2 6 42 8 43 9 101 10 44 11 100 12 45 13
REMARK SMILES IDX 46 14 47 15 94 16 48 17 99 18 93 19 95 20 49 21 98 22 92 23
REMARK SMILES IDX 91 24 50 26 80 27 61 28 79 29 62 30 65 31 78 32 96 33 63 34
REMARK SMILES IDX 64 35 77 37 97 38 66 39 51 40 52 41 60 42 53 43 59 44 54 45
REMARK SMILES IDX 55 46 56 47 57 48 58 49 81 50 82 51 90 52 83 53 89 54 84 55
REMARK SMILES IDX 85 56 86 57 87 58 88 59 67 60 68 61 76 62 69 63 75 64 70 65
REMARK SMILES IDX 71 66 72 67 73 68 74 69 7 70 8 71 9 72 10 74 11 75 12 76
REMARK SMILES IDX 41 77 13 78 40 79 14 80 15 81 16 82 39 83 17 84 38 85 18 86
REMARK SMILES IDX 19 87 20 88 21 89 30 90 22 91 28 92 23 93 27 94 29 95 24 96
REMARK SMILES IDX 26 97 25 98 31 99 32 100 37 101 33 102 36 103 34 104 35 105
REMARK H PARENT 3 7 95 25 65 36 8 73
REMARK Flexibility Score: inf
ROOT
ATOM      1  C   UNL A   1      49.787  21.221  34.954  1.00  0.00     0.023 C 
ENDROOT
BRANCH   1   2
ATOM      2  C   UNL A   1      50.632  21.067  33.684  1.00  0.00     0.023 C 
BRANCH   2   3
ATOM      3  C   UNL A   1      51.953  21.836  33.660  1.00  0.00     0.116 C 
BRANCH   3   4
ATOM      4  N   UNL A   1      51.918  23.111  34.348  1.00  0.00    -0.352 N 
ATOM      5  O   UNL A   1      51.421  25.133  35.051  1.00  0.00    -0.269 OA
ATOM      6  C   UNL A   1      51.343  24.330  34.115  1.00  0.00     0.251 C 
ATOM      7  H   UNL A   1      52.434  23.096  35.187  1.00  0.00     0.163 HD
BRANCH   6   8
ATOM      8  C   UNL A   1      50.680  24.765  32.851  1.00  0.00     0.039 A 
ATOM      9  C   UNL A   1      51.316  25.077  31.650  1.00  0.00     0.014 A 
ATOM     10  C   UNL A   1      49.276  24.891  32.909  1.00  0.00     0.014 A 
ATOM     11  C   UNL A   1      50.579  25.541  30.555  1.00  0.00     0.010 A 
ATOM     12  C   UNL A   1      48.536  25.349  31.818  1.00  0.00     0.010 A 
ATOM     13  C   UNL A   1      49.191  25.698  30.642  1.00  0.00    -0.014 A 
BRANCH  13  14
ATOM     14  C   UNL A   1      48.461  26.149  29.453  1.00  0.00     0.031 A 
ATOM     15  C   UNL A   1      47.369  27.142  29.684  1.00  0.00     0.074 A 
ATOM     16  C   UNL A   1      48.800  25.846  28.184  1.00  0.00     0.049 A 
ATOM     17  N   UNL A   1      46.102  27.014  29.451  1.00  0.00    -0.248 NA
ATOM     18  C   UNL A   1      47.736  28.428  30.295  1.00  0.00     0.031 C 
ATOM     19  C   UNL A   1      50.013  25.177  27.705  1.00  0.00     0.029 A 
ATOM     20  N   UNL A   1      48.153  26.178  27.029  1.00  0.00    -0.354 N 
ATOM     21  C   UNL A   1      45.521  28.250  29.737  1.00  0.00     0.074 A 
ATOM     22  C   UNL A   1      46.557  29.051  30.345  1.00  0.00     0.031 C 
ATOM     23  C   UNL A   1      50.118  25.353  26.368  1.00  0.00     0.029 A 
ATOM     24  C   UNL A   1      48.915  26.009  25.881  1.00  0.00     0.049 A 
ATOM     25  H   UNL A   1      47.226  26.509  27.011  1.00  0.00     0.167 HD
ATOM     26  C   UNL A   1      44.270  28.595  29.319  1.00  0.00     0.031 A 
ATOM     27  C   UNL A   1      48.607  26.429  24.629  1.00  0.00     0.031 A 
ATOM     28  C   UNL A   1      43.520  27.466  28.847  1.00  0.00     0.049 A 
ATOM     29  C   UNL A   1      47.142  26.641  24.569  1.00  0.00     0.074 A 
ATOM     30  C   UNL A   1      43.053  26.295  29.406  1.00  0.00     0.029 A 
ATOM     31  N   UNL A   1      43.406  27.308  27.487  1.00  0.00    -0.354 N 
ATOM     32  N   UNL A   1      46.262  25.682  24.653  1.00  0.00    -0.248 NA
ATOM     33  C   UNL A   1      46.623  27.983  24.782  1.00  0.00     0.031 C 
ATOM     34  C   UNL A   1      43.131  25.331  28.361  1.00  0.00     0.029 A 
ATOM     35  C   UNL A   1      43.611  25.980  27.222  1.00  0.00     0.049 A 
ATOM     36  H   UNL A   1      43.215  28.015  26.828  1.00  0.00     0.167 HD
ATOM     37  C   UNL A   1      45.182  26.244  25.317  1.00  0.00     0.074 A 
ATOM     38  C   UNL A   1      45.417  27.684  25.270  1.00  0.00     0.031 C 
ATOM     39  C   UNL A   1      44.340  25.481  26.072  1.00  0.00     0.031 A 
BRANCH  26  40
ATOM     40  C   UNL A   1      43.816  30.006  29.033  1.00  0.00    -0.014 A 
ATOM     41  C   UNL A   1      44.497  30.757  28.049  1.00  0.00     0.010 A 
ATOM     42  C   UNL A   1      42.942  30.710  29.884  1.00  0.00     0.010 A 
ATOM     43  C   UNL A   1      44.369  32.151  27.975  1.00  0.00     0.020 A 
ATOM     44  C   UNL A   1      42.772  32.094  29.789  1.00  0.00     0.020 A 
ATOM     45  C   UNL A   1      43.520  32.812  28.862  1.00  0.00     0.054 A 
BRANCH  45  46
ATOM     46  S   UNL A   1      43.468  34.622  28.852  1.00  0.00     0.124 S 
ATOM     47  O   UNL A   1      42.032  34.881  28.893  1.00  0.00    -0.237 OA
ATOM     48  O   UNL A   1      44.207  34.962  30.064  1.00  0.00    -0.237 OA
ATOM     49  O   UNL A   1      44.134  34.977  27.601  1.00  0.00    -0.744 OA
ENDBRANCH  45  46
ENDBRANCH  26  40
BRANCH  27  50
ATOM     50  C   UNL A   1      49.530  26.943  23.588  1.00  0.00    -0.014 A 
ATOM     51  C   UNL A   1      49.190  26.896  22.223  1.00  0.00     0.010 A 
ATOM     52  C   UNL A   1      50.631  27.742  23.961  1.00  0.00     0.010 A 
ATOM     53  C   UNL A   1      49.889  27.665  21.276  1.00  0.00     0.020 A 
ATOM     54  C   UNL A   1      51.337  28.504  23.023  1.00  0.00     0.020 A 
ATOM     55  C   UNL A   1      50.947  28.481  21.687  1.00  0.00     0.054 A 
BRANCH  55  56
ATOM     56  S   UNL A   1      51.726  29.607  20.492  1.00  0.00     0.124 S 
ATOM     57  O   UNL A   1      53.064  29.776  21.051  1.00  0.00    -0.237 OA
ATOM     58  O   UNL A   1      51.651  28.851  19.246  1.00  0.00    -0.237 OA
ATOM     59  O   UNL A   1      50.879  30.799  20.542  1.00  0.00    -0.744 OA
ENDBRANCH  55  56
ENDBRANCH  27  50
BRANCH  39  60
ATOM     60  C   UNL A   1      44.376  23.981  25.918  1.00  0.00    -0.014 A 
ATOM     61  C   UNL A   1      43.340  23.242  25.316  1.00  0.00     0.010 A 
ATOM     62  C   UNL A   1      45.587  23.327  26.211  1.00  0.00     0.010 A 
ATOM     63  C   UNL A   1      43.514  21.882  25.014  1.00  0.00     0.020 A 
ATOM     64  C   UNL A   1      45.773  21.979  25.897  1.00  0.00     0.020 A 
ATOM     65  C   UNL A   1      44.736  21.263  25.298  1.00  0.00     0.054 A 
BRANCH  65  66
ATOM     66  S   UNL A   1      44.996  19.537  24.799  1.00  0.00     0.124 S 
ATOM     67  O   UNL A   1      44.591  19.549  23.396  1.00  0.00    -0.237 OA
ATOM     68  O   UNL A   1      46.423  19.340  25.040  1.00  0.00    -0.237 OA
ATOM     69  O   UNL A   1      44.117  18.782  25.691  1.00  0.00    -0.744 OA
ENDBRANCH  65  66
ENDBRANCH  39  60
ENDBRANCH  13  14
ENDBRANCH   6   8
ENDBRANCH   3   4
ENDBRANCH   2   3
ENDBRANCH   1   2
BRANCH   1  70
ATOM     70  C   UNL A   1      48.394  21.821  34.776  1.00  0.00     0.116 C 
BRANCH  70  71
ATOM     71  N   UNL A   1      47.324  20.845  34.885  1.00  0.00    -0.352 N 
ATOM     72  C   UNL A   1      45.957  21.026  34.901  1.00  0.00     0.251 C 
ATOM     73  H   UNL A   1      47.620  19.910  34.958  1.00  0.00     0.163 HD
ATOM     74  O   UNL A   1      45.208  20.079  35.039  1.00  0.00    -0.269 OA
BRANCH  72  75
ATOM     75  C   UNL A   1      45.391  22.388  34.774  1.00  0.00     0.039 A 
ATOM     76  C   UNL A   1      45.133  23.111  35.948  1.00  0.00     0.016 A 
ATOM     77  C   UNL A   1      45.074  22.929  33.524  1.00  0.00     0.016 A 
ATOM     78  C   UNL A   1      44.646  24.419  35.876  1.00  0.00     0.029 A 
ATOM     79  C   UNL A   1      44.543  24.216  33.449  1.00  0.00     0.029 A 
ATOM     80  C   UNL A   1      44.352  24.963  34.626  1.00  0.00     0.066 A 
BRANCH  80  81
ATOM     81  N   UNL A   1      43.751  26.230  34.545  1.00  0.00    -0.220 N 
ATOM     82  C   UNL A   1      42.794  26.591  33.639  1.00  0.00     0.141 A 
ATOM     83  N   UNL A   1      44.075  27.293  35.307  1.00  0.00    -0.062 NA
ATOM     84  C   UNL A   1      42.596  27.936  33.802  1.00  0.00     0.093 A 
ATOM     85  N   UNL A   1      43.432  28.354  34.813  1.00  0.00    -0.134 NA
BRANCH  84  86
ATOM     86  C   UNL A   1      41.903  28.905  32.917  1.00  0.00     0.138 C 
BRANCH  86  87
ATOM     87  S   UNL A   1      40.127  29.139  32.852  1.00  0.00    -0.081 SA
BRANCH  87  88
ATOM     88  C   UNL A   1      39.602  30.171  31.550  1.00  0.00     0.176 A 
ATOM     89  N   UNL A   1      39.713  31.429  31.868  1.00  0.00    -0.223 NA
ATOM     90  N   UNL A   1      39.139  29.768  30.303  1.00  0.00    -0.255 N 
ATOM     91  C   UNL A   1      39.242  32.395  30.974  1.00  0.00     0.079 A 
ATOM     92  C   UNL A   1      38.140  30.604  29.779  1.00  0.00     0.266 A 
ATOM     93  C   UNL A   1      39.595  33.737  31.112  1.00  0.00     0.029 A 
ATOM     94  C   UNL A   1      38.325  32.044  29.999  1.00  0.00     0.066 A 
ATOM     95  O   UNL A   1      37.125  30.241  29.191  1.00  0.00    -0.268 OA
ATOM     96  C   UNL A   1      38.984  34.713  30.314  1.00  0.00     0.002 A 
ATOM     97  C   UNL A   1      37.665  33.008  29.230  1.00  0.00     0.016 A 
ATOM     98  C   UNL A   1      37.995  34.351  29.397  1.00  0.00     0.001 A 
BRANCH  90  99
ATOM     99  C   UNL A   1      39.495  28.567  29.562  1.00  0.00     0.051 A 
ATOM    100  C   UNL A   1      40.047  28.669  28.265  1.00  0.00     0.028 A 
ATOM    101  C   UNL A   1      39.289  27.262  30.026  1.00  0.00     0.028 A 
ATOM    102  C   UNL A   1      40.124  27.575  27.395  1.00  0.00     0.018 A 
ATOM    103  C   UNL A   1      39.321  26.162  29.152  1.00  0.00     0.018 A 
ATOM    104  C   UNL A   1      39.694  26.333  27.826  1.00  0.00     0.018 A 
ATOM    105  Br  UNL A   1      39.600  24.893  26.612  1.00  0.00    -0.051 Br
ENDBRANCH  90  99
ENDBRANCH  87  88
ENDBRANCH  86  87
ENDBRANCH  84  86
ENDBRANCH  80  81
ENDBRANCH  72  75
ENDBRANCH  70  71
ENDBRANCH   1  70
TORSDOF 19
ENDMDL
MODEL 2
REMARK VINA RESULT:     -10.9      9.888     17.426
REMARK SMILES O=C(NCCCCNC(=O)c1ccc(-n2cc(CSc3nc4ccccc4c(=O)n3-c3ccc(Br)cc3)nn2)cc1)c1ccc(-c2c3nc(c(-c4ccc(S(=O)(=O)[O-])cc4)c4ccc([nH]4)c(-c4ccc(S(=O)(=O)[O-])cc4)c4nc(c(-c5ccc(S(=O)(=O)[O-])cc5)c5ccc2[nH]5)C=C4)C=C3)cc1
REMARK SMILES IDX 6 1 5 2 4 3 3 4 1 5 2 6 42 8 43 9 101 10 44 11 100 12 45 13
REMARK SMILES IDX 46 14 47 15 94 16 48 17 99 18 93 19 95 20 49 21 98 22 92 23
REMARK SMILES IDX 91 24 50 26 80 27 61 28 79 29 62 30 65 31 78 32 96 33 63 34
REMARK SMILES IDX 64 35 77 37 97 38 66 39 51 40 52 41 60 42 53 43 59 44 54 45
REMARK SMILES IDX 55 46 56 47 57 48 58 49 81 50 82 51 90 52 83 53 89 54 84 55
REMARK SMILES IDX 85 56 86 57 87 58 88 59 67 60 68 61 76 62 69 63 75 64 70 65
REMARK SMILES IDX 71 66 72 67 73 68 74 69 7 70 8 71 9 72 10 74 11 75 12 76
REMARK SMILES IDX 41 77 13 78 40 79 14 80 15 81 16 82 39 83 17 84 38 85 18 86
REMARK SMILES IDX 19 87 20 88 21 89 30 90 22 91 28 92 23 93 27 94 29 95 24 96
REMARK SMILES IDX 26 97 25 98 31 99 32 100 37 101 33 102 36 103 34 104 35 105
REMARK H PARENT 3 7 95 25 65 36 8 73
REMARK Flexibility Score: inf
ROOT
ATOM      1  C   UNL A   1      41.906  41.320  31.528  1.00  0.00     0.023 C 
ENDROOT
BRANCH   1   2
ATOM      2  C   UNL A   1      42.482  42.228  32.621  1.00  0.00     0.023 C 
BRANCH   2   3
ATOM      3  C   UNL A   1      43.140  41.518  33.805  1.00  0.00     0.116 C 
BRANCH   3   4
ATOM      4  N   UNL A   1      44.412  40.896  33.499  1.00  0.00    -0.352 N 
ATOM      5  O   UNL A   1      46.009  39.526  32.863  1.00  0.00    -0.269 OA
ATOM      6  C   UNL A   1      44.839  39.620  33.250  1.00  0.00     0.251 C 
ATOM      7  H   UNL A   1      45.149  41.549  33.464  1.00  0.00     0.163 HD
BRANCH   6   8
ATOM      8  C   UNL A   1      44.042  38.372  33.431  1.00  0.00     0.039 A 
ATOM      9  C   UNL A   1      43.764  37.421  32.451  1.00  0.00     0.014 A 
ATOM     10  C   UNL A   1      43.505  38.171  34.720  1.00  0.00     0.014 A 
ATOM     11  C   UNL A   1      42.942  36.326  32.735  1.00  0.00     0.010 A 
ATOM     12  C   UNL A   1      42.688  37.078  35.010  1.00  0.00     0.010 A 
ATOM     13  C   UNL A   1      42.384  36.162  34.009  1.00  0.00    -0.014 A 
BRANCH  13  14
ATOM     14  C   UNL A   1      41.562  34.976  34.267  1.00  0.00     0.031 A 
ATOM     15  C   UNL A   1      41.994  33.713  33.595  1.00  0.00     0.074 A 
ATOM     16  C   UNL A   1      40.556  34.919  35.163  1.00  0.00     0.049 A 
ATOM     17  N   UNL A   1      41.351  33.005  32.722  1.00  0.00    -0.248 NA
ATOM     18  C   UNL A   1      43.336  33.200  33.907  1.00  0.00     0.031 C 
ATOM     19  C   UNL A   1      40.179  35.919  36.165  1.00  0.00     0.029 A 
ATOM     20  N   UNL A   1      39.712  33.879  35.429  1.00  0.00    -0.354 N 
ATOM     21  C   UNL A   1      42.130  31.872  32.482  1.00  0.00     0.074 A 
ATOM     22  C   UNL A   1      43.383  32.094  33.163  1.00  0.00     0.031 C 
ATOM     23  C   UNL A   1      39.341  35.352  37.064  1.00  0.00     0.029 A 
ATOM     24  C   UNL A   1      39.009  34.007  36.618  1.00  0.00     0.049 A 
ATOM     25  H   UNL A   1      39.612  33.105  34.829  1.00  0.00     0.167 HD
ATOM     26  C   UNL A   1      41.644  30.756  31.868  1.00  0.00     0.031 A 
ATOM     27  C   UNL A   1      38.253  33.059  37.225  1.00  0.00     0.031 A 
ATOM     28  C   UNL A   1      40.379  30.989  31.230  1.00  0.00     0.049 A 
ATOM     29  C   UNL A   1      37.882  32.053  36.203  1.00  0.00     0.074 A 
ATOM     30  C   UNL A   1      39.930  31.796  30.206  1.00  0.00     0.029 A 
ATOM     31  N   UNL A   1      39.254  30.535  31.876  1.00  0.00    -0.354 N 
ATOM     32  N   UNL A   1      37.086  32.293  35.198  1.00  0.00    -0.248 NA
ATOM     33  C   UNL A   1      38.691  30.850  36.083  1.00  0.00     0.031 C 
ATOM     34  C   UNL A   1      38.605  32.161  30.577  1.00  0.00     0.029 A 
ATOM     35  C   UNL A   1      38.317  31.531  31.790  1.00  0.00     0.049 A 
ATOM     36  H   UNL A   1      39.143  29.662  32.316  1.00  0.00     0.167 HD
ATOM     37  C   UNL A   1      37.576  31.517  34.160  1.00  0.00     0.074 A 
ATOM     38  C   UNL A   1      38.489  30.571  34.793  1.00  0.00     0.031 C 
ATOM     39  C   UNL A   1      37.402  31.883  32.857  1.00  0.00     0.031 A 
BRANCH  26  40
ATOM     40  C   UNL A   1      42.150  29.354  32.104  1.00  0.00    -0.014 A 
ATOM     41  C   UNL A   1      41.785  28.686  33.295  1.00  0.00     0.010 A 
ATOM     42  C   UNL A   1      43.190  28.784  31.344  1.00  0.00     0.010 A 
ATOM     43  C   UNL A   1      42.480  27.553  33.739  1.00  0.00     0.020 A 
ATOM     44  C   UNL A   1      43.860  27.628  31.756  1.00  0.00     0.020 A 
ATOM     45  C   UNL A   1      43.528  27.044  32.973  1.00  0.00     0.054 A 
BRANCH  45  46
ATOM     46  S   UNL A   1      44.509  25.668  33.623  1.00  0.00     0.124 S 
ATOM     47  O   UNL A   1      44.057  25.605  35.010  1.00  0.00    -0.237 OA
ATOM     48  O   UNL A   1      44.095  24.558  32.771  1.00  0.00    -0.237 OA
ATOM     49  O   UNL A   1      45.888  26.112  33.433  1.00  0.00    -0.744 OA
ENDBRANCH  45  46
ENDBRANCH  26  40
BRANCH  27  50
ATOM     50  C   UNL A   1      38.093  32.815  38.679  1.00  0.00    -0.014 A 
ATOM     51  C   UNL A   1      36.960  32.152  39.187  1.00  0.00     0.010 A 
ATOM     52  C   UNL A   1      39.194  32.986  39.544  1.00  0.00     0.010 A 
ATOM     53  C   UNL A   1      36.953  31.628  40.492  1.00  0.00     0.020 A 
ATOM     54  C   UNL A   1      39.192  32.474  40.846  1.00  0.00     0.020 A 
ATOM     55  C   UNL A   1      38.079  31.776  41.307  1.00  0.00     0.054 A 
BRANCH  55  56
ATOM     56  S   UNL A   1      38.133  30.942  42.921  1.00  0.00     0.124 S 
ATOM     57  O   UNL A   1      38.416  29.560  42.547  1.00  0.00    -0.237 OA
ATOM     58  O   UNL A   1      39.211  31.646  43.608  1.00  0.00    -0.237 OA
ATOM     59  O   UNL A   1      36.798  31.174  43.472  1.00  0.00    -0.744 OA
ENDBRANCH  55  56
ENDBRANCH  27  50
BRANCH  39  60
ATOM     60  C   UNL A   1      36.388  32.952  32.527  1.00  0.00    -0.014 A 
ATOM     61  C   UNL A   1      35.067  32.667  32.134  1.00  0.00     0.010 A 
ATOM     62  C   UNL A   1      36.732  34.284  32.822  1.00  0.00     0.010 A 
ATOM     63  C   UNL A   1      34.114  33.693  32.040  1.00  0.00     0.020 A 
ATOM     64  C   UNL A   1      35.783  35.306  32.747  1.00  0.00     0.020 A 
ATOM     65  C   UNL A   1      34.477  35.005  32.358  1.00  0.00     0.054 A 
BRANCH  65  66
ATOM     66  S   UNL A   1      33.211  36.306  32.348  1.00  0.00     0.124 S 
ATOM     67  O   UNL A   1      31.979  35.547  32.153  1.00  0.00    -0.237 OA
ATOM     68  O   UNL A   1      33.369  36.924  33.662  1.00  0.00    -0.237 OA
ATOM     69  O   UNL A   1      33.598  37.158  31.224  1.00  0.00    -0.744 OA
ENDBRANCH  65  66
ENDBRANCH  39  60
ENDBRANCH  13  14
ENDBRANCH   6   8
ENDBRANCH   3   4
ENDBRANCH   2   3
ENDBRANCH   1   2
BRANCH   1  70
ATOM     70  C   UNL A   1      42.712  41.215  30.235  1.00  0.00     0.116 C 
BRANCH  70  71
ATOM     71  N   UNL A   1      43.005  39.847  29.844  1.00  0.00    -0.352 N 
ATOM     72  C   UNL A   1      43.122  39.290  28.589  1.00  0.00     0.251 C 
ATOM     73  H   UNL A   1      43.141  39.222  30.592  1.00  0.00     0.163 HD
ATOM     74  O   UNL A   1      43.337  38.101  28.456  1.00  0.00    -0.269 OA
BRANCH  72  75
ATOM     75  C   UNL A   1      42.961  40.138  27.386  1.00  0.00     0.039 A 
ATOM     76  C   UNL A   1      41.703  40.182  26.769  1.00  0.00     0.016 A 
ATOM     77  C   UNL A   1      44.041  40.842  26.845  1.00  0.00     0.016 A 
ATOM     78  C   UNL A   1      41.490  41.007  25.662  1.00  0.00     0.029 A 
ATOM     79  C   UNL A   1      43.846  41.630  25.711  1.00  0.00     0.029 A 
ATOM     80  C   UNL A   1      42.565  41.725  25.138  1.00  0.00     0.066 A 
BRANCH  80  81
ATOM     81  N   UNL A   1      42.394  42.465  23.956  1.00  0.00    -0.220 N 
ATOM     82  C   UNL A   1      41.735  42.026  22.842  1.00  0.00     0.141 A 
ATOM     83  N   UNL A   1      42.910  43.687  23.723  1.00  0.00    -0.062 NA
ATOM     84  C   UNL A   1      41.933  42.978  21.877  1.00  0.00     0.093 A 
ATOM     85  N   UNL A   1      42.699  43.977  22.438  1.00  0.00    -0.134 NA
BRANCH  84  86
ATOM     86  C   UNL A   1      41.703  42.905  20.414  1.00  0.00     0.138 C 
BRANCH  86  87
ATOM     87  S   UNL A   1      42.989  43.031  19.171  1.00  0.00    -0.081 SA
BRANCH  87  88
ATOM     88  C   UNL A   1      43.468  44.670  18.820  1.00  0.00     0.176 A 
ATOM     89  N   UNL A   1      42.558  45.292  18.126  1.00  0.00    -0.223 NA
ATOM     90  N   UNL A   1      44.641  45.298  19.222  1.00  0.00    -0.255 N 
ATOM     91  C   UNL A   1      42.824  46.586  17.672  1.00  0.00     0.079 A 
ATOM     92  C   UNL A   1      45.135  46.215  18.281  1.00  0.00     0.266 A 
ATOM     93  C   UNL A   1      41.802  47.405  17.192  1.00  0.00     0.029 A 
ATOM     94  C   UNL A   1      44.131  47.035  17.590  1.00  0.00     0.066 A 
ATOM     95  O   UNL A   1      46.312  46.368  17.965  1.00  0.00    -0.268 OA
ATOM     96  C   UNL A   1      42.106  48.632  16.588  1.00  0.00     0.002 A 
ATOM     97  C   UNL A   1      44.459  48.230  16.943  1.00  0.00     0.016 A 
ATOM     98  C   UNL A   1      43.436  49.028  16.433  1.00  0.00     0.001 A 
BRANCH  90  99
ATOM     99  C   UNL A   1      45.428  45.042  20.419  1.00  0.00     0.051 A 
ATOM    100  C   UNL A   1      45.719  43.715  20.808  1.00  0.00     0.028 A 
ATOM    101  C   UNL A   1      45.905  46.039  21.279  1.00  0.00     0.028 A 
ATOM    102  C   UNL A   1      46.198  43.396  22.084  1.00  0.00     0.018 A 
ATOM    103  C   UNL A   1      46.346  45.734  22.578  1.00  0.00     0.018 A 
ATOM    104  C   UNL A   1      46.446  44.412  22.990  1.00  0.00     0.018 A 
ATOM    105  Br  UNL A   1      46.896  43.998  24.774  1.00  0.00    -0.051 Br
ENDBRANCH  90  99
ENDBRANCH  87  88
ENDBRANCH  86  87
ENDBRANCH  84  86
ENDBRANCH  80  81
ENDBRANCH  72  75
ENDBRANCH  70  71
ENDBRANCH   1  70
TORSDOF 19
ENDMDL
MODEL 3
REMARK VINA RESULT:     -10.7      4.999     11.304
REMARK SMILES O=C(NCCCCNC(=O)c1ccc(-n2cc(CSc3nc4ccccc4c(=O)n3-c3ccc(Br)cc3)nn2)cc1)c1ccc(-c2c3nc(c(-c4ccc(S(=O)(=O)[O-])cc4)c4ccc([nH]4)c(-c4ccc(S(=O)(=O)[O-])cc4)c4nc(c(-c5ccc(S(=O)(=O)[O-])cc5)c5ccc2[nH]5)C=C4)C=C3)cc1
REMARK SMILES IDX 6 1 5 2 4 3 3 4 1 5 2 6 42 8 43 9 101 10 44 11 100 12 45 13
REMARK SMILES IDX 46 14 47 15 94 16 48 17 99 18 93 19 95 20 49 21 98 22 92 23
REMARK SMILES IDX 91 24 50 26 80 27 61 28 79 29 62 30 65 31 78 32 96 33 63 34
REMARK SMILES IDX 64 35 77 37 97 38 66 39 51 40 52 41 60 42 53 43 59 44 54 45
REMARK SMILES IDX 55 46 56 47 57 48 58 49 81 50 82 51 90 52 83 53 89 54 84 55
REMARK SMILES IDX 85 56 86 57 87 58 88 59 67 60 68 61 76 62 69 63 75 64 70 65
REMARK SMILES IDX 71 66 72 67 73 68 74 69 7 70 8 71 9 72 10 74 11 75 12 76
REMARK SMILES IDX 41 77 13 78 40 79 14 80 15 81 16 82 39 83 17 84 38 85 18 86
REMARK SMILES IDX 19 87 20 88 21 89 30 90 22 91 28 92 23 93 27 94 29 95 24 96
REMARK SMILES IDX 26 97 25 98 31 99 32 100 37 101 33 102 36 103 34 104 35 105
REMARK H PARENT 3 7 95 25 65 36 8 73
REMARK Flexibility Score: inf
ROOT
ATOM      1  C   UNL A   1      35.365  34.061  31.242  1.00  0.00     0.023 C 
ENDROOT
BRANCH   1   2
ATOM      2  C   UNL A   1      34.312  34.530  30.230  1.00  0.00     0.023 C 
BRANCH   2   3
ATOM      3  C   UNL A   1      34.681  34.367  28.755  1.00  0.00     0.116 C 
BRANCH   3   4
ATOM      4  N   UNL A   1      34.149  33.172  28.132  1.00  0.00    -0.352 N 
ATOM      5  O   UNL A   1      33.742  31.107  27.502  1.00  0.00    -0.269 OA
ATOM      6  C   UNL A   1      34.584  31.887  27.958  1.00  0.00     0.251 C 
ATOM      7  H   UNL A   1      33.260  33.321  27.737  1.00  0.00     0.163 HD
BRANCH   6   8
ATOM      8  C   UNL A   1      35.958  31.375  28.238  1.00  0.00     0.039 A 
ATOM      9  C   UNL A   1      37.072  32.143  28.571  1.00  0.00     0.014 A 
ATOM     10  C   UNL A   1      36.127  29.980  28.120  1.00  0.00     0.014 A 
ATOM     11  C   UNL A   1      38.325  31.544  28.741  1.00  0.00     0.010 A 
ATOM     12  C   UNL A   1      37.373  29.376  28.292  1.00  0.00     0.010 A 
ATOM     13  C   UNL A   1      38.483  30.162  28.581  1.00  0.00    -0.014 A 
BRANCH  13  14
ATOM     14  C   UNL A   1      39.808  29.578  28.809  1.00  0.00     0.031 A 
ATOM     15  C   UNL A   1      40.259  29.493  30.230  1.00  0.00     0.074 A 
ATOM     16  C   UNL A   1      40.563  28.993  27.856  1.00  0.00     0.049 A 
ATOM     17  N   UNL A   1      41.278  30.065  30.787  1.00  0.00    -0.248 NA
ATOM     18  C   UNL A   1      39.438  28.702  31.159  1.00  0.00     0.031 C 
ATOM     19  C   UNL A   1      40.188  28.661  26.479  1.00  0.00     0.029 A 
ATOM     20  N   UNL A   1      41.821  28.473  27.969  1.00  0.00    -0.354 N 
ATOM     21  C   UNL A   1      41.328  29.592  32.099  1.00  0.00     0.074 A 
ATOM     22  C   UNL A   1      40.116  28.834  32.300  1.00  0.00     0.031 C 
ATOM     23  C   UNL A   1      41.101  27.807  25.964  1.00  0.00     0.029 A 
ATOM     24  C   UNL A   1      42.194  27.654  26.913  1.00  0.00     0.049 A 
ATOM     25  H   UNL A   1      42.412  28.662  28.733  1.00  0.00     0.167 HD
ATOM     26  C   UNL A   1      42.429  29.721  32.892  1.00  0.00     0.031 A 
ATOM     27  C   UNL A   1      43.292  26.862  26.844  1.00  0.00     0.031 A 
ATOM     28  C   UNL A   1      43.384  30.650  32.355  1.00  0.00     0.049 A 
ATOM     29  C   UNL A   1      44.280  27.369  27.825  1.00  0.00     0.074 A 
ATOM     30  C   UNL A   1      43.384  31.999  32.067  1.00  0.00     0.029 A 
ATOM     31  N   UNL A   1      44.490  30.128  31.730  1.00  0.00    -0.354 N 
ATOM     32  N   UNL A   1      44.887  28.518  27.721  1.00  0.00    -0.248 NA
ATOM     33  C   UNL A   1      44.333  26.754  29.142  1.00  0.00     0.031 C 
ATOM     34  C   UNL A   1      44.207  32.129  30.912  1.00  0.00     0.029 A 
ATOM     35  C   UNL A   1      44.680  30.856  30.586  1.00  0.00     0.049 A 
ATOM     36  H   UNL A   1      45.041  29.375  32.045  1.00  0.00     0.167 HD
ATOM     37  C   UNL A   1      45.046  28.959  29.025  1.00  0.00     0.074 A 
ATOM     38  C   UNL A   1      44.790  27.785  29.854  1.00  0.00     0.031 C 
ATOM     39  C   UNL A   1      45.108  30.289  29.322  1.00  0.00     0.031 A 
BRANCH  26  40
ATOM     40  C   UNL A   1      42.808  28.772  34.003  1.00  0.00    -0.014 A 
ATOM     41  C   UNL A   1      43.172  27.446  33.676  1.00  0.00     0.010 A 
ATOM     42  C   UNL A   1      42.544  29.048  35.359  1.00  0.00     0.010 A 
ATOM     43  C   UNL A   1      43.193  26.434  34.646  1.00  0.00     0.020 A 
ATOM     44  C   UNL A   1      42.606  28.054  36.341  1.00  0.00     0.020 A 
ATOM     45  C   UNL A   1      42.889  26.744  35.971  1.00  0.00     0.054 A 
BRANCH  45  46
ATOM     46  S   UNL A   1      42.780  25.408  37.188  1.00  0.00     0.124 S 
ATOM     47  O   UNL A   1      43.814  24.489  36.719  1.00  0.00    -0.237 OA
ATOM     48  O   UNL A   1      43.069  26.101  38.440  1.00  0.00    -0.237 OA
ATOM     49  O   UNL A   1      41.407  24.930  37.049  1.00  0.00    -0.744 OA
ENDBRANCH  45  46
ENDBRANCH  26  40
BRANCH  27  50
ATOM     50  C   UNL A   1      43.415  25.528  26.207  1.00  0.00    -0.014 A 
ATOM     51  C   UNL A   1      44.337  25.296  25.170  1.00  0.00     0.010 A 
ATOM     52  C   UNL A   1      42.817  24.404  26.814  1.00  0.00     0.010 A 
ATOM     53  C   UNL A   1      44.693  23.988  24.796  1.00  0.00     0.020 A 
ATOM     54  C   UNL A   1      43.159  23.099  26.443  1.00  0.00     0.020 A 
ATOM     55  C   UNL A   1      44.114  22.897  25.450  1.00  0.00     0.054 A 
BRANCH  55  56
ATOM     56  S   UNL A   1      44.710  21.218  25.090  1.00  0.00     0.124 S 
ATOM     57  O   UNL A   1      46.062  21.243  25.639  1.00  0.00    -0.237 OA
ATOM     58  O   UNL A   1      43.752  20.379  25.803  1.00  0.00    -0.237 OA
ATOM     59  O   UNL A   1      44.636  21.133  23.631  1.00  0.00    -0.744 OA
ENDBRANCH  55  56
ENDBRANCH  27  50
BRANCH  39  60
ATOM     60  C   UNL A   1      45.344  31.277  28.206  1.00  0.00    -0.014 A 
ATOM     61  C   UNL A   1      44.321  32.066  27.644  1.00  0.00     0.010 A 
ATOM     62  C   UNL A   1      46.678  31.557  27.858  1.00  0.00     0.010 A 
ATOM     63  C   UNL A   1      44.630  33.109  26.758  1.00  0.00     0.020 A 
ATOM     64  C   UNL A   1      46.992  32.606  26.991  1.00  0.00     0.020 A 
ATOM     65  C   UNL A   1      45.966  33.378  26.446  1.00  0.00     0.054 A 
BRANCH  65  66
ATOM     66  S   UNL A   1      46.365  34.801  25.392  1.00  0.00     0.124 S 
ATOM     67  O   UNL A   1      45.489  34.598  24.240  1.00  0.00    -0.237 OA
ATOM     68  O   UNL A   1      46.030  35.940  26.243  1.00  0.00    -0.237 OA
ATOM     69  O   UNL A   1      47.793  34.643  25.119  1.00  0.00    -0.744 OA
ENDBRANCH  65  66
ENDBRANCH  39  60
ENDBRANCH  13  14
ENDBRANCH   6   8
ENDBRANCH   3   4
ENDBRANCH   2   3
ENDBRANCH   1   2
BRANCH   1  70
ATOM     70  C   UNL A   1      34.897  33.057  32.293  1.00  0.00     0.116 C 
BRANCH  70  71
ATOM     71  N   UNL A   1      35.157  31.674  31.931  1.00  0.00    -0.352 N 
ATOM     72  C   UNL A   1      36.298  30.917  32.083  1.00  0.00     0.251 C 
ATOM     73  H   UNL A   1      34.399  31.206  31.513  1.00  0.00     0.163 HD
ATOM     74  O   UNL A   1      36.341  29.772  31.679  1.00  0.00    -0.269 OA
BRANCH  72  75
ATOM     75  C   UNL A   1      37.496  31.508  32.722  1.00  0.00     0.039 A 
ATOM     76  C   UNL A   1      38.445  32.134  31.902  1.00  0.00     0.016 A 
ATOM     77  C   UNL A   1      37.708  31.407  34.101  1.00  0.00     0.016 A 
ATOM     78  C   UNL A   1      39.566  32.749  32.465  1.00  0.00     0.029 A 
ATOM     79  C   UNL A   1      38.849  31.978  34.663  1.00  0.00     0.029 A 
ATOM     80  C   UNL A   1      39.762  32.665  33.843  1.00  0.00     0.066 A 
BRANCH  80  81
ATOM     81  N   UNL A   1      40.943  33.175  34.408  1.00  0.00    -0.220 N 
ATOM     82  C   UNL A   1      41.633  34.259  33.944  1.00  0.00     0.141 A 
ATOM     83  N   UNL A   1      41.603  32.632  35.449  1.00  0.00    -0.062 NA
ATOM     84  C   UNL A   1      42.791  34.322  34.674  1.00  0.00     0.093 A 
ATOM     85  N   UNL A   1      42.765  33.277  35.572  1.00  0.00    -0.134 NA
BRANCH  84  86
ATOM     86  C   UNL A   1      44.029  35.098  34.421  1.00  0.00     0.138 C 
BRANCH  86  87
ATOM     87  S   UNL A   1      44.075  36.842  34.009  1.00  0.00    -0.081 SA
BRANCH  87  88
ATOM     88  C   UNL A   1      43.726  37.178  32.335  1.00  0.00     0.176 A 
ATOM     89  N   UNL A   1      43.279  36.119  31.722  1.00  0.00    -0.223 NA
ATOM     90  N   UNL A   1      43.861  38.398  31.685  1.00  0.00    -0.255 N 
ATOM     91  C   UNL A   1      43.043  36.184  30.347  1.00  0.00     0.079 A 
ATOM     92  C   UNL A   1      44.254  38.278  30.343  1.00  0.00     0.266 A 
ATOM     93  C   UNL A   1      42.294  35.203  29.696  1.00  0.00     0.029 A 
ATOM     94  C   UNL A   1      43.645  37.174  29.589  1.00  0.00     0.066 A 
ATOM     95  O   UNL A   1      45.075  38.983  29.760  1.00  0.00    -0.268 OA
ATOM     96  C   UNL A   1      42.208  35.193  28.298  1.00  0.00     0.002 A 
ATOM     97  C   UNL A   1      43.615  37.151  28.191  1.00  0.00     0.016 A 
ATOM     98  C   UNL A   1      42.896  36.147  27.545  1.00  0.00     0.001 A 
BRANCH  90  99
ATOM     99  C   UNL A   1      43.739  39.733  32.253  1.00  0.00     0.051 A 
ATOM    100  C   UNL A   1      43.475  39.897  33.632  1.00  0.00     0.028 A 
ATOM    101  C   UNL A   1      43.822  40.918  31.512  1.00  0.00     0.028 A 
ATOM    102  C   UNL A   1      43.051  41.116  34.174  1.00  0.00     0.018 A 
ATOM    103  C   UNL A   1      43.357  42.139  32.031  1.00  0.00     0.018 A 
ATOM    104  C   UNL A   1      42.930  42.220  33.349  1.00  0.00     0.018 A 
ATOM    105  Br  UNL A   1      42.171  43.814  34.012  1.00  0.00    -0.051 Br
ENDBRANCH  90  99
ENDBRANCH  87  88
ENDBRANCH  86  87
ENDBRANCH  84  86
ENDBRANCH  80  81
ENDBRANCH  72  75
ENDBRANCH  70  71
ENDBRANCH   1  70
TORSDOF 19
ENDMDL
