MODEL 1
REMARK VINA RESULT:     -13.0      0.000      0.000
REMARK SMILES CC(C)[C@@H]1C(=O)Nc2ccccc2N1C(=O)N[C@H](Cc1ccccc1)C(=O)NCCCCNC(=O)c1ccc(-c2c3nc(c(-c4ccc(S(=O)(=O)[O-])cc4)c4ccc([nH]4)c(-c4ccc(S(=O)(=O)[O-])cc4)c4nc(c(-c5ccc(S(=O)(=O)[O-])cc5)c5ccc2[nH]5)C=C4)C=C3)cc1
REMARK SMILES IDX 30 1 29 2 28 3 26 4 27 5 18 7 17 8 15 9 16 10 14 12 4 13
REMARK SMILES IDX 5 14 6 15 7 16 13 17 8 18 12 20 9 21 11 22 10 23 2 24 1 25
REMARK SMILES IDX 3 26 19 27 20 28 21 29 25 30 22 31 24 32 23 33 31 34 32 35
REMARK SMILES IDX 33 36 34 37 35 39 36 40 37 41 95 42 38 43 94 44 39 45 40 46
REMARK SMILES IDX 41 47 88 48 42 49 93 50 87 51 89 52 43 53 92 54 86 55 85 56
REMARK SMILES IDX 44 58 74 59 55 60 73 61 56 62 59 63 72 64 90 65 57 66 58 67
REMARK SMILES IDX 71 69 91 70 60 71 45 72 46 73 54 74 47 75 53 76 48 77 49 78
REMARK SMILES IDX 50 79 51 80 52 81 75 82 76 83 84 84 77 85 83 86 78 87 79 88
REMARK SMILES IDX 80 89 81 90 82 91 61 92 62 93 70 94 63 95 69 96 64 97 65 98
REMARK SMILES IDX 66 99 67 100 68 101
REMARK H PARENT 28 6 17 11 7 19 33 38 89 57 59 68
REMARK Flexibility Score: inf
ROOT
ATOM      1  C   UNL A   1      31.586  28.524  27.393  1.00  0.00     0.023 C 
ENDROOT
BRANCH   1   2
ATOM      2  C   UNL A   1      32.012  27.191  26.697  1.00  0.00     0.116 C 
BRANCH   2   3
ATOM      3  N   UNL A   1      31.228  25.993  26.992  1.00  0.00    -0.354 N 
ATOM      4  C   UNL A   1      31.221  24.748  26.422  1.00  0.00     0.242 C 
ATOM      5  O   UNL A   1      31.201  23.814  27.240  1.00  0.00    -0.273 OA
ATOM      6  H   UNL A   1      30.592  26.101  27.735  1.00  0.00     0.163 HD
BRANCH   4   7
ATOM      7  C   UNL A   1      31.066  24.387  24.895  1.00  0.00     0.177 C 
BRANCH   7   8
ATOM      8  N   UNL A   1      29.917  24.883  24.125  1.00  0.00    -0.326 N 
ATOM      9  C   UNL A   1      29.361  26.037  23.719  1.00  0.00     0.323 C 
ATOM     10  O   UNL A   1      28.128  25.933  23.608  1.00  0.00    -0.248 OA
ATOM     11  H   UNL A   1      29.381  24.123  23.803  1.00  0.00     0.166 HD
BRANCH   9  12
ATOM     12  N   UNL A   1      30.016  27.127  23.214  1.00  0.00    -0.280 N 
ATOM     13  C   UNL A   1      31.316  27.312  22.445  1.00  0.00     0.184 C 
ATOM     14  C   UNL A   1      32.055  28.633  22.732  1.00  0.00     0.247 C 
ATOM     15  O   UNL A   1      33.219  28.839  22.385  1.00  0.00    -0.272 OA
ATOM     16  N   UNL A   1      31.303  29.688  23.141  1.00  0.00    -0.322 N 
ATOM     17  C   UNL A   1      29.265  28.380  23.324  1.00  0.00     0.070 A 
ATOM     18  C   UNL A   1      29.923  29.614  23.299  1.00  0.00     0.065 A 
ATOM     19  H   UNL A   1      31.753  30.542  23.335  1.00  0.00     0.170 HD
ATOM     20  C   UNL A   1      27.855  28.397  23.316  1.00  0.00     0.028 A 
ATOM     21  C   UNL A   1      29.210  30.817  23.333  1.00  0.00     0.028 A 
ATOM     22  C   UNL A   1      27.143  29.600  23.245  1.00  0.00     0.002 A 
ATOM     23  C   UNL A   1      27.821  30.811  23.265  1.00  0.00     0.002 A 
BRANCH  13  24
ATOM     24  C   UNL A   1      32.343  26.180  22.384  1.00  0.00     0.015 C 
ATOM     25  C   UNL A   1      32.824  25.791  20.978  1.00  0.00     0.010 C 
ATOM     26  C   UNL A   1      33.512  26.270  23.357  1.00  0.00     0.010 C 
ENDBRANCH  13  24
ENDBRANCH   9  12
ENDBRANCH   7   8
BRANCH   7  27
ATOM     27  C   UNL A   1      31.260  22.845  24.674  1.00  0.00     0.070 C 
BRANCH  27  28
ATOM     28  C   UNL A   1      32.392  21.852  24.560  1.00  0.00    -0.045 A 
ATOM     29  C   UNL A   1      33.651  22.470  24.319  1.00  0.00     0.004 A 
ATOM     30  C   UNL A   1      32.382  20.509  24.910  1.00  0.00     0.004 A 
ATOM     31  C   UNL A   1      34.857  21.797  24.463  1.00  0.00     0.000 A 
ATOM     32  C   UNL A   1      33.605  19.818  25.031  1.00  0.00     0.000 A 
ATOM     33  C   UNL A   1      34.833  20.461  24.827  1.00  0.00     0.000 A 
ENDBRANCH  27  28
ENDBRANCH   7  27
ENDBRANCH   4   7
ENDBRANCH   2   3
ENDBRANCH   1   2
BRANCH   1  34
ATOM     34  C   UNL A   1      31.976  29.882  26.773  1.00  0.00     0.023 C 
BRANCH  34  35
ATOM     35  C   UNL A   1      33.483  30.213  26.889  1.00  0.00     0.116 C 
BRANCH  35  36
ATOM     36  N   UNL A   1      33.815  31.236  27.888  1.00  0.00    -0.352 N 
ATOM     37  C   UNL A   1      34.837  31.297  28.819  1.00  0.00     0.251 C 
ATOM     38  H   UNL A   1      33.207  32.010  27.898  1.00  0.00     0.163 HD
ATOM     39  O   UNL A   1      34.792  32.125  29.731  1.00  0.00    -0.269 OA
BRANCH  37  40
ATOM     40  C   UNL A   1      35.946  30.325  28.768  1.00  0.00     0.039 A 
ATOM     41  C   UNL A   1      36.749  30.261  27.625  1.00  0.00     0.014 A 
ATOM     42  C   UNL A   1      36.281  29.596  29.903  1.00  0.00     0.014 A 
ATOM     43  C   UNL A   1      37.999  29.645  27.707  1.00  0.00     0.010 A 
ATOM     44  C   UNL A   1      37.575  29.113  30.027  1.00  0.00     0.010 A 
ATOM     45  C   UNL A   1      38.467  29.181  28.948  1.00  0.00    -0.014 A 
BRANCH  45  46
ATOM     46  C   UNL A   1      39.910  28.887  29.157  1.00  0.00     0.031 A 
ATOM     47  C   UNL A   1      40.830  29.925  29.735  1.00  0.00     0.074 A 
ATOM     48  C   UNL A   1      40.403  27.706  28.724  1.00  0.00     0.049 A 
ATOM     49  N   UNL A   1      42.112  29.841  29.981  1.00  0.00    -0.248 NA
ATOM     50  C   UNL A   1      40.250  31.244  30.038  1.00  0.00     0.031 C 
ATOM     51  C   UNL A   1      39.628  26.661  28.038  1.00  0.00     0.029 A 
ATOM     52  N   UNL A   1      41.665  27.172  28.796  1.00  0.00    -0.354 N 
ATOM     53  C   UNL A   1      42.489  31.091  30.454  1.00  0.00     0.074 A 
ATOM     54  C   UNL A   1      41.321  31.940  30.385  1.00  0.00     0.031 C 
ATOM     55  C   UNL A   1      40.413  25.594  27.820  1.00  0.00     0.029 A 
ATOM     56  C   UNL A   1      41.754  25.886  28.308  1.00  0.00     0.049 A 
ATOM     57  H   UNL A   1      42.437  27.662  29.163  1.00  0.00     0.167 HD
ATOM     58  C   UNL A   1      43.689  31.488  30.939  1.00  0.00     0.031 A 
ATOM     59  C   UNL A   1      42.793  25.029  28.277  1.00  0.00     0.031 A 
ATOM     60  C   UNL A   1      44.839  30.628  31.015  1.00  0.00     0.049 A 
ATOM     61  C   UNL A   1      44.103  25.474  28.869  1.00  0.00     0.074 A 
ATOM     62  C   UNL A   1      46.088  30.903  31.542  1.00  0.00     0.029 A 
ATOM     63  N   UNL A   1      44.876  29.321  30.554  1.00  0.00    -0.354 N 
ATOM     64  N   UNL A   1      44.412  26.632  29.401  1.00  0.00    -0.248 NA
ATOM     65  C   UNL A   1      45.194  24.492  28.876  1.00  0.00     0.031 C 
ATOM     66  C   UNL A   1      46.893  29.773  31.359  1.00  0.00     0.029 A 
ATOM     67  C   UNL A   1      46.128  28.777  30.772  1.00  0.00     0.049 A 
ATOM     68  H   UNL A   1      44.120  28.849  30.133  1.00  0.00     0.167 HD
ATOM     69  C   UNL A   1      45.726  26.509  29.837  1.00  0.00     0.074 A 
ATOM     70  C   UNL A   1      46.144  25.157  29.520  1.00  0.00     0.031 C 
ATOM     71  C   UNL A   1      46.517  27.428  30.446  1.00  0.00     0.031 A 
BRANCH  58  72
ATOM     72  C   UNL A   1      43.799  32.907  31.434  1.00  0.00    -0.014 A 
ATOM     73  C   UNL A   1      43.717  33.201  32.809  1.00  0.00     0.010 A 
ATOM     74  C   UNL A   1      43.994  33.961  30.522  1.00  0.00     0.010 A 
ATOM     75  C   UNL A   1      43.770  34.522  33.257  1.00  0.00     0.020 A 
ATOM     76  C   UNL A   1      44.078  35.283  30.971  1.00  0.00     0.020 A 
ATOM     77  C   UNL A   1      43.944  35.557  32.334  1.00  0.00     0.054 A 
BRANCH  77  78
ATOM     78  S   UNL A   1      44.014  37.263  32.945  1.00  0.00     0.124 S 
ATOM     79  O   UNL A   1      43.988  38.028  31.700  1.00  0.00    -0.237 OA
ATOM     80  O   UNL A   1      42.808  37.358  33.764  1.00  0.00    -0.237 OA
ATOM     81  O   UNL A   1      45.272  37.316  33.683  1.00  0.00    -0.744 OA
ENDBRANCH  77  78
ENDBRANCH  58  72
BRANCH  59  82
ATOM     82  C   UNL A   1      42.621  23.654  27.723  1.00  0.00    -0.014 A 
ATOM     83  C   UNL A   1      42.781  23.413  26.346  1.00  0.00     0.010 A 
ATOM     84  C   UNL A   1      42.313  22.574  28.569  1.00  0.00     0.010 A 
ATOM     85  C   UNL A   1      42.610  22.127  25.823  1.00  0.00     0.020 A 
ATOM     86  C   UNL A   1      42.171  21.280  28.055  1.00  0.00     0.020 A 
ATOM     87  C   UNL A   1      42.307  21.068  26.682  1.00  0.00     0.054 A 
BRANCH  87  88
ATOM     88  S   UNL A   1      42.134  19.398  25.988  1.00  0.00     0.124 S 
ATOM     89  O   UNL A   1      43.009  19.463  24.821  1.00  0.00    -0.237 OA
ATOM     90  O   UNL A   1      42.601  18.552  27.083  1.00  0.00    -0.237 OA
ATOM     91  O   UNL A   1      40.707  19.295  25.696  1.00  0.00    -0.744 OA
ENDBRANCH  87  88
ENDBRANCH  59  82
BRANCH  71  92
ATOM     92  C   UNL A   1      47.899  26.987  30.842  1.00  0.00    -0.014 A 
ATOM     93  C   UNL A   1      48.127  26.290  32.041  1.00  0.00     0.010 A 
ATOM     94  C   UNL A   1      48.976  27.239  29.975  1.00  0.00     0.010 A 
ATOM     95  C   UNL A   1      49.419  25.885  32.384  1.00  0.00     0.020 A 
ATOM     96  C   UNL A   1      50.264  26.809  30.299  1.00  0.00     0.020 A 
ATOM     97  C   UNL A   1      50.480  26.150  31.511  1.00  0.00     0.054 A 
BRANCH  97  98
ATOM     98  S   UNL A   1      52.143  25.585  31.962  1.00  0.00     0.124 S 
ATOM     99  O   UNL A   1      51.912  24.173  32.256  1.00  0.00    -0.237 OA
ATOM    100  O   UNL A   1      52.914  25.858  30.752  1.00  0.00    -0.237 OA
ATOM    101  O   UNL A   1      52.489  26.414  33.115  1.00  0.00    -0.744 OA
ENDBRANCH  97  98
ENDBRANCH  71  92
ENDBRANCH  45  46
ENDBRANCH  37  40
ENDBRANCH  35  36
ENDBRANCH  34  35
ENDBRANCH   1  34
TORSDOF 19
ENDMDL
MODEL 2
REMARK VINA RESULT:     -12.9      4.640      6.410
REMARK SMILES CC(C)[C@@H]1C(=O)Nc2ccccc2N1C(=O)N[C@H](Cc1ccccc1)C(=O)NCCCCNC(=O)c1ccc(-c2c3nc(c(-c4ccc(S(=O)(=O)[O-])cc4)c4ccc([nH]4)c(-c4ccc(S(=O)(=O)[O-])cc4)c4nc(c(-c5ccc(S(=O)(=O)[O-])cc5)c5ccc2[nH]5)C=C4)C=C3)cc1
REMARK SMILES IDX 30 1 29 2 28 3 26 4 27 5 18 7 17 8 15 9 16 10 14 12 4 13
REMARK SMILES IDX 5 14 6 15 7 16 13 17 8 18 12 20 9 21 11 22 10 23 2 24 1 25
REMARK SMILES IDX 3 26 19 27 20 28 21 29 25 30 22 31 24 32 23 33 31 34 32 35
REMARK SMILES IDX 33 36 34 37 35 39 36 40 37 41 95 42 38 43 94 44 39 45 40 46
REMARK SMILES IDX 41 47 88 48 42 49 93 50 87 51 89 52 43 53 92 54 86 55 85 56
REMARK SMILES IDX 44 58 74 59 55 60 73 61 56 62 59 63 72 64 90 65 57 66 58 67
REMARK SMILES IDX 71 69 91 70 60 71 45 72 46 73 54 74 47 75 53 76 48 77 49 78
REMARK SMILES IDX 50 79 51 80 52 81 75 82 76 83 84 84 77 85 83 86 78 87 79 88
REMARK SMILES IDX 80 89 81 90 82 91 61 92 62 93 70 94 63 95 69 96 64 97 65 98
REMARK SMILES IDX 66 99 67 100 68 101
REMARK H PARENT 28 6 17 11 7 19 33 38 89 57 59 68
REMARK Flexibility Score: inf
ROOT
ATOM      1  C   UNL A   1      35.804  31.393  28.287  1.00  0.00     0.023 C 
ENDROOT
BRANCH   1   2
ATOM      2  C   UNL A   1      35.506  29.910  27.892  1.00  0.00     0.116 C 
BRANCH   2   3
ATOM      3  N   UNL A   1      34.131  29.570  27.532  1.00  0.00    -0.354 N 
ATOM      4  C   UNL A   1      33.575  28.412  27.056  1.00  0.00     0.242 C 
ATOM      5  O   UNL A   1      32.509  28.095  27.608  1.00  0.00    -0.273 OA
ATOM      6  H   UNL A   1      33.489  30.305  27.654  1.00  0.00     0.163 HD
BRANCH   4   7
ATOM      7  C   UNL A   1      34.037  27.561  25.812  1.00  0.00     0.177 C 
BRANCH   7   8
ATOM      8  N   UNL A   1      33.755  28.025  24.447  1.00  0.00    -0.326 N 
ATOM      9  C   UNL A   1      33.177  27.605  23.308  1.00  0.00     0.323 C 
ATOM     10  O   UNL A   1      33.708  28.122  22.312  1.00  0.00    -0.248 OA
ATOM     11  H   UNL A   1      34.103  28.937  24.327  1.00  0.00     0.166 HD
BRANCH   9  12
ATOM     12  N   UNL A   1      31.994  26.927  23.193  1.00  0.00    -0.280 N 
ATOM     13  C   UNL A   1      30.548  27.358  22.998  1.00  0.00     0.184 C 
ATOM     14  C   UNL A   1      29.504  26.442  23.664  1.00  0.00     0.247 C 
ATOM     15  O   UNL A   1      28.323  26.764  23.808  1.00  0.00    -0.272 OA
ATOM     16  N   UNL A   1      29.850  25.141  23.851  1.00  0.00    -0.322 N 
ATOM     17  C   UNL A   1      32.142  25.472  23.123  1.00  0.00     0.070 A 
ATOM     18  C   UNL A   1      31.082  24.626  23.464  1.00  0.00     0.065 A 
ATOM     19  H   UNL A   1      29.201  24.537  24.280  1.00  0.00     0.170 HD
ATOM     20  C   UNL A   1      33.299  24.874  22.581  1.00  0.00     0.028 A 
ATOM     21  C   UNL A   1      31.191  23.237  23.335  1.00  0.00     0.028 A 
ATOM     22  C   UNL A   1      33.367  23.495  22.355  1.00  0.00     0.002 A 
ATOM     23  C   UNL A   1      32.316  22.675  22.742  1.00  0.00     0.002 A 
BRANCH  13  24
ATOM     24  C   UNL A   1      30.140  28.815  23.228  1.00  0.00     0.015 C 
ATOM     25  C   UNL A   1      30.757  29.494  24.459  1.00  0.00     0.010 C 
ATOM     26  C   UNL A   1      30.188  29.733  22.014  1.00  0.00     0.010 C 
ENDBRANCH  13  24
ENDBRANCH   9  12
ENDBRANCH   7   8
BRANCH   7  27
ATOM     27  C   UNL A   1      33.614  26.060  25.987  1.00  0.00     0.070 C 
BRANCH  27  28
ATOM     28  C   UNL A   1      34.260  24.694  25.986  1.00  0.00    -0.045 A 
ATOM     29  C   UNL A   1      33.379  23.662  26.412  1.00  0.00     0.004 A 
ATOM     30  C   UNL A   1      35.461  24.324  25.396  1.00  0.00     0.004 A 
ATOM     31  C   UNL A   1      33.654  22.314  26.221  1.00  0.00     0.000 A 
ATOM     32  C   UNL A   1      35.753  22.956  25.225  1.00  0.00     0.000 A 
ATOM     33  C   UNL A   1      34.849  21.959  25.618  1.00  0.00     0.000 A 
ENDBRANCH  27  28
ENDBRANCH   7  27
ENDBRANCH   4   7
ENDBRANCH   2   3
ENDBRANCH   1   2
BRANCH   1  34
ATOM     34  C   UNL A   1      35.010  32.544  27.635  1.00  0.00     0.023 C 
BRANCH  34  35
ATOM     35  C   UNL A   1      35.281  33.930  28.267  1.00  0.00     0.116 C 
BRANCH  35  36
ATOM     36  N   UNL A   1      34.103  34.582  28.850  1.00  0.00    -0.352 N 
ATOM     37  C   UNL A   1      33.651  34.641  30.157  1.00  0.00     0.251 C 
ATOM     38  H   UNL A   1      33.537  35.060  28.201  1.00  0.00     0.163 HD
ATOM     39  O   UNL A   1      32.507  35.032  30.397  1.00  0.00    -0.269 OA
BRANCH  37  40
ATOM     40  C   UNL A   1      34.509  34.168  31.260  1.00  0.00     0.039 A 
ATOM     41  C   UNL A   1      34.562  32.801  31.548  1.00  0.00     0.014 A 
ATOM     42  C   UNL A   1      35.369  35.054  31.898  1.00  0.00     0.014 A 
ATOM     43  C   UNL A   1      35.627  32.306  32.303  1.00  0.00     0.010 A 
ATOM     44  C   UNL A   1      36.501  34.550  32.523  1.00  0.00     0.010 A 
ATOM     45  C   UNL A   1      36.670  33.168  32.684  1.00  0.00    -0.014 A 
BRANCH  45  46
ATOM     46  C   UNL A   1      37.981  32.628  33.132  1.00  0.00     0.031 A 
ATOM     47  C   UNL A   1      38.495  32.908  34.516  1.00  0.00     0.074 A 
ATOM     48  C   UNL A   1      38.750  31.965  32.241  1.00  0.00     0.049 A 
ATOM     49  N   UNL A   1      39.615  32.521  35.070  1.00  0.00    -0.248 NA
ATOM     50  C   UNL A   1      37.669  33.770  35.379  1.00  0.00     0.031 C 
ATOM     51  C   UNL A   1      38.409  31.731  30.830  1.00  0.00     0.029 A 
ATOM     52  N   UNL A   1      39.974  31.359  32.378  1.00  0.00    -0.354 N 
ATOM     53  C   UNL A   1      39.631  33.098  36.334  1.00  0.00     0.074 A 
ATOM     54  C   UNL A   1      38.451  33.926  36.436  1.00  0.00     0.031 C 
ATOM     55  C   UNL A   1      39.361  30.977  30.260  1.00  0.00     0.029 A 
ATOM     56  C   UNL A   1      40.402  30.705  31.242  1.00  0.00     0.049 A 
ATOM     57  H   UNL A   1      40.498  31.387  33.211  1.00  0.00     0.167 HD
ATOM     58  C   UNL A   1      40.526  32.925  37.334  1.00  0.00     0.031 A 
ATOM     59  C   UNL A   1      41.497  29.954  31.022  1.00  0.00     0.031 A 
ATOM     60  C   UNL A   1      41.689  32.087  37.223  1.00  0.00     0.049 A 
ATOM     61  C   UNL A   1      42.452  29.732  32.163  1.00  0.00     0.074 A 
ATOM     62  C   UNL A   1      42.634  31.789  38.189  1.00  0.00     0.029 A 
ATOM     63  N   UNL A   1      42.062  31.407  36.073  1.00  0.00    -0.354 N 
ATOM     64  N   UNL A   1      42.397  30.210  33.384  1.00  0.00    -0.248 NA
ATOM     65  C   UNL A   1      43.601  28.855  31.907  1.00  0.00     0.031 C 
ATOM     66  C   UNL A   1      43.601  30.962  37.608  1.00  0.00     0.029 A 
ATOM     67  C   UNL A   1      43.229  30.699  36.299  1.00  0.00     0.049 A 
ATOM     68  H   UNL A   1      41.569  31.426  35.221  1.00  0.00     0.167 HD
ATOM     69  C   UNL A   1      43.488  29.666  34.052  1.00  0.00     0.074 A 
ATOM     70  C   UNL A   1      44.173  28.810  33.103  1.00  0.00     0.031 C 
ATOM     71  C   UNL A   1      43.888  29.854  35.334  1.00  0.00     0.031 A 
BRANCH  58  72
ATOM     72  C   UNL A   1      40.263  33.648  38.630  1.00  0.00    -0.014 A 
ATOM     73  C   UNL A   1      39.520  33.037  39.659  1.00  0.00     0.010 A 
ATOM     74  C   UNL A   1      40.767  34.946  38.830  1.00  0.00     0.010 A 
ATOM     75  C   UNL A   1      39.237  33.731  40.837  1.00  0.00     0.020 A 
ATOM     76  C   UNL A   1      40.512  35.632  40.022  1.00  0.00     0.020 A 
ATOM     77  C   UNL A   1      39.730  35.027  41.009  1.00  0.00     0.054 A 
BRANCH  77  78
ATOM     78  S   UNL A   1      39.350  35.902  42.552  1.00  0.00     0.124 S 
ATOM     79  O   UNL A   1      40.282  35.277  43.488  1.00  0.00    -0.237 OA
ATOM     80  O   UNL A   1      39.642  37.292  42.212  1.00  0.00    -0.237 OA
ATOM     81  O   UNL A   1      37.941  35.602  42.783  1.00  0.00    -0.744 OA
ENDBRANCH  77  78
ENDBRANCH  58  72
BRANCH  59  82
ATOM     82  C   UNL A   1      41.717  29.310  29.694  1.00  0.00    -0.014 A 
ATOM     83  C   UNL A   1      41.203  28.028  29.428  1.00  0.00     0.010 A 
ATOM     84  C   UNL A   1      42.428  29.979  28.681  1.00  0.00     0.010 A 
ATOM     85  C   UNL A   1      41.416  27.418  28.187  1.00  0.00     0.020 A 
ATOM     86  C   UNL A   1      42.618  29.385  27.428  1.00  0.00     0.020 A 
ATOM     87  C   UNL A   1      42.122  28.101  27.195  1.00  0.00     0.054 A 
BRANCH  87  88
ATOM     88  S   UNL A   1      42.348  27.309  25.576  1.00  0.00     0.124 S 
ATOM     89  O   UNL A   1      43.637  26.645  25.741  1.00  0.00    -0.237 OA
ATOM     90  O   UNL A   1      41.188  26.426  25.492  1.00  0.00    -0.237 OA
ATOM     91  O   UNL A   1      42.336  28.431  24.641  1.00  0.00    -0.744 OA
ENDBRANCH  87  88
ENDBRANCH  59  82
BRANCH  71  92
ATOM     92  C   UNL A   1      45.100  29.090  35.793  1.00  0.00    -0.014 A 
ATOM     93  C   UNL A   1      46.392  29.629  35.670  1.00  0.00     0.010 A 
ATOM     94  C   UNL A   1      44.931  27.832  36.398  1.00  0.00     0.010 A 
ATOM     95  C   UNL A   1      47.501  28.903  36.111  1.00  0.00     0.020 A 
ATOM     96  C   UNL A   1      46.034  27.117  36.867  1.00  0.00     0.020 A 
ATOM     97  C   UNL A   1      47.314  27.650  36.704  1.00  0.00     0.054 A 
BRANCH  97  98
ATOM     98  S   UNL A   1      48.766  26.741  37.298  1.00  0.00     0.124 S 
ATOM     99  O   UNL A   1      49.330  27.675  38.269  1.00  0.00    -0.237 OA
ATOM    100  O   UNL A   1      48.179  25.528  37.860  1.00  0.00    -0.237 OA
ATOM    101  O   UNL A   1      49.565  26.539  36.091  1.00  0.00    -0.744 OA
ENDBRANCH  97  98
ENDBRANCH  71  92
ENDBRANCH  45  46
ENDBRANCH  37  40
ENDBRANCH  35  36
ENDBRANCH  34  35
ENDBRANCH   1  34
TORSDOF 19
ENDMDL
MODEL 3
REMARK VINA RESULT:     -12.7      4.914      9.270
REMARK SMILES CC(C)[C@@H]1C(=O)Nc2ccccc2N1C(=O)N[C@H](Cc1ccccc1)C(=O)NCCCCNC(=O)c1ccc(-c2c3nc(c(-c4ccc(S(=O)(=O)[O-])cc4)c4ccc([nH]4)c(-c4ccc(S(=O)(=O)[O-])cc4)c4nc(c(-c5ccc(S(=O)(=O)[O-])cc5)c5ccc2[nH]5)C=C4)C=C3)cc1
REMARK SMILES IDX 30 1 29 2 28 3 26 4 27 5 18 7 17 8 15 9 16 10 14 12 4 13
REMARK SMILES IDX 5 14 6 15 7 16 13 17 8 18 12 20 9 21 11 22 10 23 2 24 1 25
REMARK SMILES IDX 3 26 19 27 20 28 21 29 25 30 22 31 24 32 23 33 31 34 32 35
REMARK SMILES IDX 33 36 34 37 35 39 36 40 37 41 95 42 38 43 94 44 39 45 40 46
REMARK SMILES IDX 41 47 88 48 42 49 93 50 87 51 89 52 43 53 92 54 86 55 85 56
REMARK SMILES IDX 44 58 74 59 55 60 73 61 56 62 59 63 72 64 90 65 57 66 58 67
REMARK SMILES IDX 71 69 91 70 60 71 45 72 46 73 54 74 47 75 53 76 48 77 49 78
REMARK SMILES IDX 50 79 51 80 52 81 75 82 76 83 84 84 77 85 83 86 78 87 79 88
REMARK SMILES IDX 80 89 81 90 82 91 61 92 62 93 70 94 63 95 69 96 64 97 65 98
REMARK SMILES IDX 66 99 67 100 68 101
REMARK H PARENT 28 6 17 11 7 19 33 38 89 57 59 68
REMARK Flexibility Score: inf
ROOT
ATOM      1  C   UNL A   1      35.891  31.189  28.234  1.00  0.00     0.023 C 
ENDROOT
BRANCH   1   2
ATOM      2  C   UNL A   1      35.485  29.693  28.029  1.00  0.00     0.116 C 
BRANCH   2   3
ATOM      3  N   UNL A   1      34.119  29.417  27.587  1.00  0.00    -0.354 N 
ATOM      4  C   UNL A   1      33.542  28.292  27.060  1.00  0.00     0.242 C 
ATOM      5  O   UNL A   1      32.435  28.012  27.547  1.00  0.00    -0.273 OA
ATOM      6  H   UNL A   1      33.502  30.178  27.688  1.00  0.00     0.163 HD
BRANCH   4   7
ATOM      7  C   UNL A   1      34.037  27.443  25.828  1.00  0.00     0.177 C 
BRANCH   7   8
ATOM      8  N   UNL A   1      33.775  27.898  24.456  1.00  0.00    -0.326 N 
ATOM      9  C   UNL A   1      33.211  27.472  23.313  1.00  0.00     0.323 C 
ATOM     10  O   UNL A   1      33.756  27.982  22.320  1.00  0.00    -0.248 OA
ATOM     11  H   UNL A   1      34.125  28.809  24.336  1.00  0.00     0.166 HD
BRANCH   9  12
ATOM     12  N   UNL A   1      32.028  26.795  23.186  1.00  0.00    -0.280 N 
ATOM     13  C   UNL A   1      30.583  27.228  22.988  1.00  0.00     0.184 C 
ATOM     14  C   UNL A   1      29.536  26.306  23.641  1.00  0.00     0.247 C 
ATOM     15  O   UNL A   1      28.355  26.626  23.782  1.00  0.00    -0.272 OA
ATOM     16  N   UNL A   1      29.882  25.003  23.817  1.00  0.00    -0.322 N 
ATOM     17  C   UNL A   1      32.177  25.341  23.102  1.00  0.00     0.070 A 
ATOM     18  C   UNL A   1      31.116  24.492  23.430  1.00  0.00     0.065 A 
ATOM     19  H   UNL A   1      29.231  24.395  24.237  1.00  0.00     0.170 HD
ATOM     20  C   UNL A   1      33.336  24.749  22.559  1.00  0.00     0.028 A 
ATOM     21  C   UNL A   1      31.225  23.104  23.288  1.00  0.00     0.028 A 
ATOM     22  C   UNL A   1      33.405  23.371  22.320  1.00  0.00     0.002 A 
ATOM     23  C   UNL A   1      32.353  22.548  22.695  1.00  0.00     0.002 A 
BRANCH  13  24
ATOM     24  C   UNL A   1      30.174  28.682  23.231  1.00  0.00     0.015 C 
ATOM     25  C   UNL A   1      30.750  29.335  24.496  1.00  0.00     0.010 C 
ATOM     26  C   UNL A   1      30.272  29.623  22.037  1.00  0.00     0.010 C 
ENDBRANCH  13  24
ENDBRANCH   9  12
ENDBRANCH   7   8
BRANCH   7  27
ATOM     27  C   UNL A   1      33.628  25.937  26.001  1.00  0.00     0.070 C 
BRANCH  27  28
ATOM     28  C   UNL A   1      34.282  24.575  25.965  1.00  0.00    -0.045 A 
ATOM     29  C   UNL A   1      33.404  23.527  26.358  1.00  0.00     0.004 A 
ATOM     30  C   UNL A   1      35.487  24.228  25.370  1.00  0.00     0.004 A 
ATOM     31  C   UNL A   1      33.688  22.187  26.130  1.00  0.00     0.000 A 
ATOM     32  C   UNL A   1      35.787  22.867  25.162  1.00  0.00     0.000 A 
ATOM     33  C   UNL A   1      34.887  21.855  25.522  1.00  0.00     0.000 A 
ENDBRANCH  27  28
ENDBRANCH   7  27
ENDBRANCH   4   7
ENDBRANCH   2   3
ENDBRANCH   1   2
BRANCH   1  34
ATOM     34  C   UNL A   1      35.004  32.317  27.669  1.00  0.00     0.023 C 
BRANCH  34  35
ATOM     35  C   UNL A   1      35.312  33.713  28.262  1.00  0.00     0.116 C 
BRANCH  35  36
ATOM     36  N   UNL A   1      34.141  34.441  28.763  1.00  0.00    -0.352 N 
ATOM     37  C   UNL A   1      33.643  34.586  30.047  1.00  0.00     0.251 C 
ATOM     38  H   UNL A   1      33.620  34.906  28.069  1.00  0.00     0.163 HD
ATOM     39  O   UNL A   1      32.507  35.034  30.221  1.00  0.00    -0.269 OA
BRANCH  37  40
ATOM     40  C   UNL A   1      34.438  34.138  31.206  1.00  0.00     0.039 A 
ATOM     41  C   UNL A   1      34.506  32.774  31.503  1.00  0.00     0.014 A 
ATOM     42  C   UNL A   1      35.234  35.047  31.894  1.00  0.00     0.014 A 
ATOM     43  C   UNL A   1      35.531  32.308  32.328  1.00  0.00     0.010 A 
ATOM     44  C   UNL A   1      36.334  34.574  32.594  1.00  0.00     0.010 A 
ATOM     45  C   UNL A   1      36.526  33.197  32.773  1.00  0.00    -0.014 A 
BRANCH  45  46
ATOM     46  C   UNL A   1      37.817  32.691  33.307  1.00  0.00     0.031 A 
ATOM     47  C   UNL A   1      38.751  31.896  32.438  1.00  0.00     0.074 A 
ATOM     48  C   UNL A   1      38.093  32.868  34.618  1.00  0.00     0.049 A 
ATOM     49  N   UNL A   1      39.912  31.376  32.741  1.00  0.00    -0.248 NA
ATOM     50  C   UNL A   1      38.309  31.609  31.063  1.00  0.00     0.031 C 
ATOM     51  C   UNL A   1      37.209  33.523  35.592  1.00  0.00     0.029 A 
ATOM     52  N   UNL A   1      39.193  32.526  35.366  1.00  0.00    -0.354 N 
ATOM     53  C   UNL A   1      40.330  30.696  31.604  1.00  0.00     0.074 A 
ATOM     54  C   UNL A   1      39.265  30.800  30.633  1.00  0.00     0.031 C 
ATOM     55  C   UNL A   1      37.829  33.596  36.781  1.00  0.00     0.029 A 
ATOM     56  C   UNL A   1      39.134  32.959  36.673  1.00  0.00     0.049 A 
ATOM     57  H   UNL A   1      39.954  32.018  35.001  1.00  0.00     0.167 HD
ATOM     58  C   UNL A   1      41.509  30.073  31.373  1.00  0.00     0.031 A 
ATOM     59  C   UNL A   1      40.039  32.872  37.667  1.00  0.00     0.031 A 
ATOM     60  C   UNL A   1      42.567  29.990  32.344  1.00  0.00     0.049 A 
ATOM     61  C   UNL A   1      41.363  32.223  37.373  1.00  0.00     0.074 A 
ATOM     62  C   UNL A   1      43.827  29.436  32.202  1.00  0.00     0.029 A 
ATOM     63  N   UNL A   1      42.486  30.479  33.639  1.00  0.00    -0.354 N 
ATOM     64  N   UNL A   1      41.777  31.670  36.257  1.00  0.00    -0.248 NA
ATOM     65  C   UNL A   1      42.349  32.204  38.460  1.00  0.00     0.031 C 
ATOM     66  C   UNL A   1      44.493  29.555  33.427  1.00  0.00     0.029 A 
ATOM     67  C   UNL A   1      43.669  30.233  34.313  1.00  0.00     0.049 A 
ATOM     68  H   UNL A   1      41.702  30.936  34.022  1.00  0.00     0.167 HD
ATOM     69  C   UNL A   1      43.084  31.265  36.498  1.00  0.00     0.074 A 
ATOM     70  C   UNL A   1      43.396  31.653  37.860  1.00  0.00     0.031 C 
ATOM     71  C   UNL A   1      43.951  30.631  35.669  1.00  0.00     0.031 A 
BRANCH  58  72
ATOM     72  C   UNL A   1      41.710  29.454  30.014  1.00  0.00    -0.014 A 
ATOM     73  C   UNL A   1      42.319  30.181  28.973  1.00  0.00     0.010 A 
ATOM     74  C   UNL A   1      41.295  28.133  29.771  1.00  0.00     0.010 A 
ATOM     75  C   UNL A   1      42.457  29.619  27.701  1.00  0.00     0.020 A 
ATOM     76  C   UNL A   1      41.460  27.556  28.507  1.00  0.00     0.020 A 
ATOM     77  C   UNL A   1      42.020  28.311  27.475  1.00  0.00     0.054 A 
BRANCH  77  78
ATOM     78  S   UNL A   1      42.216  27.606  25.815  1.00  0.00     0.124 S 
ATOM     79  O   UNL A   1      41.057  26.721  25.727  1.00  0.00    -0.237 OA
ATOM     80  O   UNL A   1      42.168  28.788  24.958  1.00  0.00    -0.237 OA
ATOM     81  O   UNL A   1      43.510  26.933  25.874  1.00  0.00    -0.744 OA
ENDBRANCH  77  78
ENDBRANCH  58  72
BRANCH  59  82
ATOM     82  C   UNL A   1      39.749  33.466  39.005  1.00  0.00    -0.014 A 
ATOM     83  C   UNL A   1      39.910  34.846  39.225  1.00  0.00     0.010 A 
ATOM     84  C   UNL A   1      39.294  32.659  40.064  1.00  0.00     0.010 A 
ATOM     85  C   UNL A   1      39.648  35.403  40.481  1.00  0.00     0.020 A 
ATOM     86  C   UNL A   1      39.003  33.217  41.314  1.00  0.00     0.020 A 
ATOM     87  C   UNL A   1      39.195  34.585  41.518  1.00  0.00     0.054 A 
BRANCH  87  88
ATOM     88  S   UNL A   1      38.819  35.336  43.127  1.00  0.00     0.124 S 
ATOM     89  O   UNL A   1      37.360  35.283  43.153  1.00  0.00    -0.237 OA
ATOM     90  O   UNL A   1      39.501  34.443  44.060  1.00  0.00    -0.237 OA
ATOM     91  O   UNL A   1      39.395  36.675  43.024  1.00  0.00    -0.744 OA
ENDBRANCH  87  88
ENDBRANCH  59  82
BRANCH  71  92
ATOM     92  C   UNL A   1      45.330  30.354  36.202  1.00  0.00    -0.014 A 
ATOM     93  C   UNL A   1      45.624  29.159  36.880  1.00  0.00     0.010 A 
ATOM     94  C   UNL A   1      46.355  31.291  35.977  1.00  0.00     0.010 A 
ATOM     95  C   UNL A   1      46.914  28.922  37.359  1.00  0.00     0.020 A 
ATOM     96  C   UNL A   1      47.653  31.043  36.427  1.00  0.00     0.020 A 
ATOM     97  C   UNL A   1      47.920  29.868  37.132  1.00  0.00     0.054 A 
BRANCH  97  98
ATOM     98  S   UNL A   1      49.595  29.522  37.734  1.00  0.00     0.124 S 
ATOM     99  O   UNL A   1      49.350  29.201  39.138  1.00  0.00    -0.237 OA
ATOM    100  O   UNL A   1      50.013  28.402  36.896  1.00  0.00    -0.237 OA
ATOM    101  O   UNL A   1      50.313  30.773  37.496  1.00  0.00    -0.744 OA
ENDBRANCH  97  98
ENDBRANCH  71  92
ENDBRANCH  45  46
ENDBRANCH  37  40
ENDBRANCH  35  36
ENDBRANCH  34  35
ENDBRANCH   1  34
TORSDOF 19
ENDMDL
