MODEL 1
REMARK VINA RESULT:     -11.5      0.000      0.000
REMARK SMILES C[C@H](c1ccncc1)[N@H+]1[C@@H]2CC[C@H]1C[C@H](CC(=O)NCCCCNC(=O)c1ccc(-c3c4nc(c(-c5ccc(S(=O)(=O)[O-])cc5)c5ccc([nH]5)c(-c5ccc(S(=O)(=O)[O-])cc5)c5nc(c(-c6ccc(S(=O)(=O)[O-])cc6)c6ccc3[nH]6)C=C5)C=C4)cc1)C2
REMARK SMILES IDX 21 1 20 2 19 3 17 4 18 5 16 7 15 8 9 9 10 10 13 11 11 13
REMARK SMILES IDX 87 14 12 15 14 16 2 17 1 18 3 19 4 20 8 21 5 22 7 23 6 24
REMARK SMILES IDX 22 25 23 26 24 27 25 28 26 30 27 31 28 32 86 33 29 34 85 35
REMARK SMILES IDX 30 36 31 37 32 38 79 39 33 40 84 41 78 42 80 43 34 44 83 45
REMARK SMILES IDX 77 46 76 47 35 49 65 50 46 51 64 52 47 53 50 54 63 55 81 56
REMARK SMILES IDX 48 57 49 58 62 60 82 61 51 62 36 63 37 64 45 65 38 66 44 67
REMARK SMILES IDX 39 68 40 69 41 70 42 71 43 72 66 73 67 74 75 75 68 76 74 77
REMARK SMILES IDX 69 78 70 79 71 80 72 81 73 82 52 83 53 84 61 85 54 86 60 87
REMARK SMILES IDX 55 88 56 89 57 90 58 91 59 92
REMARK H PARENT 19 6 9 12 24 29 80 48 50 59
REMARK Flexibility Score: inf
ROOT
ATOM      1  C   UNL A   1      31.769  29.509  25.564  1.00  0.00     0.023 C 
ENDROOT
BRANCH   1   2
ATOM      2  C   UNL A   1      31.324  29.009  24.186  1.00  0.00     0.116 C 
BRANCH   2   3
ATOM      3  N   UNL A   1      32.468  28.725  23.331  1.00  0.00    -0.356 N 
ATOM      4  C   UNL A   1      32.814  27.602  22.636  1.00  0.00     0.220 C 
ATOM      5  O   UNL A   1      33.889  27.598  22.035  1.00  0.00    -0.275 OA
ATOM      6  H   UNL A   1      33.101  29.472  23.237  1.00  0.00     0.163 HD
BRANCH   4   7
ATOM      7  C   UNL A   1      31.904  26.384  22.586  1.00  0.00     0.104 C 
BRANCH   7   8
ATOM      8  C   UNL A   1      31.631  25.745  23.968  1.00  0.00     0.010 C 
ATOM      9  N   UNL A   1      32.361  23.016  24.937  1.00  0.00    -0.324 N 
ATOM     10  C   UNL A   1      32.899  24.208  25.626  1.00  0.00     0.185 C 
ATOM     11  C   UNL A   1      30.942  23.360  24.804  1.00  0.00     0.185 C 
ATOM     12  H   UNL A   1      32.500  22.147  25.454  1.00  0.00     0.349 HD
ATOM     13  C   UNL A   1      31.876  24.399  26.755  1.00  0.00     0.071 C 
ATOM     14  C   UNL A   1      32.955  25.444  24.704  1.00  0.00     0.069 C 
ATOM     15  C   UNL A   1      30.584  23.799  26.218  1.00  0.00     0.071 C 
ATOM     16  C   UNL A   1      30.743  24.503  23.812  1.00  0.00     0.069 C 
BRANCH   9  17
ATOM     17  C   UNL A   1      33.070  22.621  23.701  1.00  0.00     0.212 C 
ATOM     18  C   UNL A   1      32.383  21.479  22.927  1.00  0.00     0.081 C 
BRANCH  17  19
ATOM     19  C   UNL A   1      34.505  22.215  24.013  1.00  0.00     0.012 A 
ATOM     20  C   UNL A   1      35.588  22.899  23.451  1.00  0.00     0.030 A 
ATOM     21  C   UNL A   1      34.774  21.117  24.837  1.00  0.00     0.030 A 
ATOM     22  C   UNL A   1      36.872  22.464  23.733  1.00  0.00     0.111 A 
ATOM     23  C   UNL A   1      36.094  20.756  25.054  1.00  0.00     0.111 A 
ATOM     24  N   UNL A   1      37.151  21.405  24.523  1.00  0.00    -0.265 NA
ENDBRANCH  17  19
ENDBRANCH   9  17
ENDBRANCH   7   8
ENDBRANCH   4   7
ENDBRANCH   2   3
ENDBRANCH   1   2
BRANCH   1  25
ATOM     25  C   UNL A   1      32.254  28.450  26.535  1.00  0.00     0.023 C 
BRANCH  25  26
ATOM     26  C   UNL A   1      33.554  28.801  27.226  1.00  0.00     0.116 C 
BRANCH  26  27
ATOM     27  N   UNL A   1      33.575  30.142  27.801  1.00  0.00    -0.352 N 
ATOM     28  C   UNL A   1      34.635  30.783  28.415  1.00  0.00     0.251 C 
ATOM     29  H   UNL A   1      32.733  30.650  27.746  1.00  0.00     0.163 HD
ATOM     30  O   UNL A   1      34.503  31.884  28.916  1.00  0.00    -0.269 OA
BRANCH  28  31
ATOM     31  C   UNL A   1      35.920  30.056  28.489  1.00  0.00     0.039 A 
ATOM     32  C   UNL A   1      36.790  30.104  27.399  1.00  0.00     0.014 A 
ATOM     33  C   UNL A   1      36.316  29.485  29.699  1.00  0.00     0.014 A 
ATOM     34  C   UNL A   1      38.107  29.667  27.558  1.00  0.00     0.010 A 
ATOM     35  C   UNL A   1      37.649  29.154  29.884  1.00  0.00     0.010 A 
ATOM     36  C   UNL A   1      38.560  29.244  28.817  1.00  0.00    -0.014 A 
BRANCH  36  37
ATOM     37  C   UNL A   1      39.973  28.864  29.067  1.00  0.00     0.031 A 
ATOM     38  C   UNL A   1      40.923  29.902  29.596  1.00  0.00     0.074 A 
ATOM     39  C   UNL A   1      40.425  27.645  28.712  1.00  0.00     0.049 A 
ATOM     40  N   UNL A   1      42.224  29.855  29.702  1.00  0.00    -0.248 NA
ATOM     41  C   UNL A   1      40.331  31.186  30.014  1.00  0.00     0.031 C 
ATOM     42  C   UNL A   1      39.616  26.563  28.142  1.00  0.00     0.029 A 
ATOM     43  N   UNL A   1      41.691  27.115  28.764  1.00  0.00    -0.354 N 
ATOM     44  C   UNL A   1      42.609  31.115  30.147  1.00  0.00     0.074 A 
ATOM     45  C   UNL A   1      41.410  31.916  30.248  1.00  0.00     0.031 C 
ATOM     46  C   UNL A   1      40.401  25.494  27.922  1.00  0.00     0.029 A 
ATOM     47  C   UNL A   1      41.773  25.826  28.291  1.00  0.00     0.049 A 
ATOM     48  H   UNL A   1      42.469  27.612  29.108  1.00  0.00     0.167 HD
ATOM     49  C   UNL A   1      43.846  31.559  30.465  1.00  0.00     0.031 A 
ATOM     50  C   UNL A   1      42.836  25.008  28.160  1.00  0.00     0.031 A 
ATOM     51  C   UNL A   1      45.025  30.742  30.419  1.00  0.00     0.049 A 
ATOM     52  C   UNL A   1      44.195  25.505  28.572  1.00  0.00     0.074 A 
ATOM     53  C   UNL A   1      46.317  31.073  30.786  1.00  0.00     0.029 A 
ATOM     54  N   UNL A   1      45.050  29.421  29.999  1.00  0.00    -0.354 N 
ATOM     55  N   UNL A   1      44.534  26.687  29.027  1.00  0.00    -0.248 NA
ATOM     56  C   UNL A   1      45.312  24.557  28.462  1.00  0.00     0.031 C 
ATOM     57  C   UNL A   1      47.130  29.956  30.564  1.00  0.00     0.029 A 
ATOM     58  C   UNL A   1      46.335  28.920  30.097  1.00  0.00     0.049 A 
ATOM     59  H   UNL A   1      44.270  28.914  29.677  1.00  0.00     0.167 HD
ATOM     60  C   UNL A   1      45.898  26.616  29.287  1.00  0.00     0.074 A 
ATOM     61  C   UNL A   1      46.320  25.273  28.942  1.00  0.00     0.031 C 
ATOM     62  C   UNL A   1      46.726  27.574  29.768  1.00  0.00     0.031 A 
BRANCH  49  63
ATOM     63  C   UNL A   1      43.973  32.995  30.896  1.00  0.00    -0.014 A 
ATOM     64  C   UNL A   1      43.868  33.358  32.251  1.00  0.00     0.010 A 
ATOM     65  C   UNL A   1      44.206  33.994  29.934  1.00  0.00     0.010 A 
ATOM     66  C   UNL A   1      43.937  34.700  32.631  1.00  0.00     0.020 A 
ATOM     67  C   UNL A   1      44.305  35.335  30.315  1.00  0.00     0.020 A 
ATOM     68  C   UNL A   1      44.148  35.681  31.659  1.00  0.00     0.054 A 
BRANCH  68  69
ATOM     69  S   UNL A   1      44.240  37.416  32.178  1.00  0.00     0.124 S 
ATOM     70  O   UNL A   1      45.654  37.551  32.520  1.00  0.00    -0.237 OA
ATOM     71  O   UNL A   1      43.812  38.136  30.982  1.00  0.00    -0.237 OA
ATOM     72  O   UNL A   1      43.317  37.486  33.308  1.00  0.00    -0.744 OA
ENDBRANCH  68  69
ENDBRANCH  49  63
BRANCH  50  73
ATOM     73  C   UNL A   1      42.654  23.625  27.641  1.00  0.00    -0.014 A 
ATOM     74  C   UNL A   1      42.867  23.347  26.279  1.00  0.00     0.010 A 
ATOM     75  C   UNL A   1      42.283  22.578  28.503  1.00  0.00     0.010 A 
ATOM     76  C   UNL A   1      42.698  22.050  25.784  1.00  0.00     0.020 A 
ATOM     77  C   UNL A   1      42.134  21.275  28.017  1.00  0.00     0.020 A 
ATOM     78  C   UNL A   1      42.333  21.022  26.657  1.00  0.00     0.054 A 
BRANCH  78  79
ATOM     79  S   UNL A   1      42.174  19.335  26.006  1.00  0.00     0.124 S 
ATOM     80  O   UNL A   1      40.742  19.248  25.738  1.00  0.00    -0.237 OA
ATOM     81  O   UNL A   1      43.039  19.366  24.829  1.00  0.00    -0.237 OA
ATOM     82  O   UNL A   1      42.659  18.500  27.102  1.00  0.00    -0.744 OA
ENDBRANCH  78  79
ENDBRANCH  50  73
BRANCH  62  83
ATOM     83  C   UNL A   1      48.161  27.199  30.003  1.00  0.00    -0.014 A 
ATOM     84  C   UNL A   1      49.160  27.527  29.071  1.00  0.00     0.010 A 
ATOM     85  C   UNL A   1      48.523  26.592  31.219  1.00  0.00     0.010 A 
ATOM     86  C   UNL A   1      50.500  27.241  29.348  1.00  0.00     0.020 A 
ATOM     87  C   UNL A   1      49.863  26.323  31.507  1.00  0.00     0.020 A 
ATOM     88  C   UNL A   1      50.842  26.643  30.565  1.00  0.00     0.054 A 
BRANCH  88  89
ATOM     89  S   UNL A   1      52.594  26.349  30.933  1.00  0.00     0.124 S 
ATOM     90  O   UNL A   1      52.529  25.183  31.808  1.00  0.00    -0.237 OA
ATOM     91  O   UNL A   1      53.166  26.111  29.610  1.00  0.00    -0.237 OA
ATOM     92  O   UNL A   1      53.024  27.589  31.577  1.00  0.00    -0.744 OA
ENDBRANCH  88  89
ENDBRANCH  62  83
ENDBRANCH  36  37
ENDBRANCH  28  31
ENDBRANCH  26  27
ENDBRANCH  25  26
ENDBRANCH   1  25
TORSDOF 17
ENDMDL
MODEL 2
REMARK VINA RESULT:     -11.2      1.099      1.981
REMARK SMILES C[C@H](c1ccncc1)[N@H+]1[C@@H]2CC[C@H]1C[C@H](CC(=O)NCCCCNC(=O)c1ccc(-c3c4nc(c(-c5ccc(S(=O)(=O)[O-])cc5)c5ccc([nH]5)c(-c5ccc(S(=O)(=O)[O-])cc5)c5nc(c(-c6ccc(S(=O)(=O)[O-])cc6)c6ccc3[nH]6)C=C5)C=C4)cc1)C2
REMARK SMILES IDX 21 1 20 2 19 3 17 4 18 5 16 7 15 8 9 9 10 10 13 11 11 13
REMARK SMILES IDX 87 14 12 15 14 16 2 17 1 18 3 19 4 20 8 21 5 22 7 23 6 24
REMARK SMILES IDX 22 25 23 26 24 27 25 28 26 30 27 31 28 32 86 33 29 34 85 35
REMARK SMILES IDX 30 36 31 37 32 38 79 39 33 40 84 41 78 42 80 43 34 44 83 45
REMARK SMILES IDX 77 46 76 47 35 49 65 50 46 51 64 52 47 53 50 54 63 55 81 56
REMARK SMILES IDX 48 57 49 58 62 60 82 61 51 62 36 63 37 64 45 65 38 66 44 67
REMARK SMILES IDX 39 68 40 69 41 70 42 71 43 72 66 73 67 74 75 75 68 76 74 77
REMARK SMILES IDX 69 78 70 79 71 80 72 81 73 82 52 83 53 84 61 85 54 86 60 87
REMARK SMILES IDX 55 88 56 89 57 90 58 91 59 92
REMARK H PARENT 19 6 9 12 24 29 80 48 50 59
REMARK Flexibility Score: inf
ROOT
ATOM      1  C   UNL A   1      33.109  28.166  24.877  1.00  0.00     0.023 C 
ENDROOT
BRANCH   1   2
ATOM      2  C   UNL A   1      32.296  28.581  23.646  1.00  0.00     0.116 C 
BRANCH   2   3
ATOM      3  N   UNL A   1      32.738  27.871  22.454  1.00  0.00    -0.356 N 
ATOM      4  C   UNL A   1      33.108  26.571  22.268  1.00  0.00     0.220 C 
ATOM      5  O   UNL A   1      33.515  26.235  21.155  1.00  0.00    -0.275 OA
ATOM      6  H   UNL A   1      32.777  28.425  21.642  1.00  0.00     0.163 HD
BRANCH   4   7
ATOM      7  C   UNL A   1      33.017  25.547  23.389  1.00  0.00     0.104 C 
BRANCH   7   8
ATOM      8  C   UNL A   1      34.381  24.948  23.808  1.00  0.00     0.010 C 
ATOM      9  N   UNL A   1      34.936  22.339  25.151  1.00  0.00    -0.324 N 
ATOM     10  C   UNL A   1      35.497  22.609  23.810  1.00  0.00     0.185 C 
ATOM     11  C   UNL A   1      35.251  23.581  25.864  1.00  0.00     0.185 C 
ATOM     12  H   UNL A   1      35.339  21.520  25.606  1.00  0.00     0.349 HD
ATOM     13  C   UNL A   1      36.889  23.153  24.162  1.00  0.00     0.071 C 
ATOM     14  C   UNL A   1      34.670  23.648  23.025  1.00  0.00     0.069 C 
ATOM     15  C   UNL A   1      36.730  23.767  25.548  1.00  0.00     0.071 C 
ATOM     16  C   UNL A   1      34.429  24.749  25.328  1.00  0.00     0.069 C 
BRANCH   9  17
ATOM     17  C   UNL A   1      33.525  21.897  25.174  1.00  0.00     0.212 C 
ATOM     18  C   UNL A   1      32.897  21.889  26.581  1.00  0.00     0.081 C 
BRANCH  17  19
ATOM     19  C   UNL A   1      33.389  20.509  24.562  1.00  0.00     0.012 A 
ATOM     20  C   UNL A   1      34.307  19.496  24.857  1.00  0.00     0.030 A 
ATOM     21  C   UNL A   1      32.364  20.227  23.652  1.00  0.00     0.030 A 
ATOM     22  C   UNL A   1      34.163  18.264  24.241  1.00  0.00     0.111 A 
ATOM     23  C   UNL A   1      32.308  18.964  23.084  1.00  0.00     0.111 A 
ATOM     24  N   UNL A   1      33.184  17.974  23.358  1.00  0.00    -0.265 NA
ENDBRANCH  17  19
ENDBRANCH   9  17
ENDBRANCH   7   8
ENDBRANCH   4   7
ENDBRANCH   2   3
ENDBRANCH   1   2
BRANCH   1  25
ATOM     25  C   UNL A   1      32.521  28.542  26.223  1.00  0.00     0.023 C 
BRANCH  25  26
ATOM     26  C   UNL A   1      33.558  28.783  27.299  1.00  0.00     0.116 C 
BRANCH  26  27
ATOM     27  N   UNL A   1      33.608  30.163  27.774  1.00  0.00    -0.352 N 
ATOM     28  C   UNL A   1      34.685  30.829  28.327  1.00  0.00     0.251 C 
ATOM     29  H   UNL A   1      32.774  30.680  27.690  1.00  0.00     0.163 HD
ATOM     30  O   UNL A   1      34.577  31.965  28.746  1.00  0.00    -0.269 OA
BRANCH  28  31
ATOM     31  C   UNL A   1      35.959  30.087  28.440  1.00  0.00     0.039 A 
ATOM     32  C   UNL A   1      36.871  30.140  27.385  1.00  0.00     0.014 A 
ATOM     33  C   UNL A   1      36.303  29.496  29.657  1.00  0.00     0.014 A 
ATOM     34  C   UNL A   1      38.176  29.686  27.588  1.00  0.00     0.010 A 
ATOM     35  C   UNL A   1      37.624  29.149  29.888  1.00  0.00     0.010 A 
ATOM     36  C   UNL A   1      38.576  29.242  28.858  1.00  0.00    -0.014 A 
BRANCH  36  37
ATOM     37  C   UNL A   1      39.974  28.844  29.157  1.00  0.00     0.031 A 
ATOM     38  C   UNL A   1      40.910  29.861  29.751  1.00  0.00     0.074 A 
ATOM     39  C   UNL A   1      40.432  27.630  28.790  1.00  0.00     0.049 A 
ATOM     40  N   UNL A   1      42.204  29.800  29.909  1.00  0.00    -0.248 NA
ATOM     41  C   UNL A   1      40.311  31.139  30.176  1.00  0.00     0.031 C 
ATOM     42  C   UNL A   1      39.639  26.570  28.160  1.00  0.00     0.029 A 
ATOM     43  N   UNL A   1      41.690  27.088  28.881  1.00  0.00    -0.354 N 
ATOM     44  C   UNL A   1      42.580  31.045  30.402  1.00  0.00     0.074 A 
ATOM     45  C   UNL A   1      41.384  31.854  30.472  1.00  0.00     0.031 C 
ATOM     46  C   UNL A   1      40.424  25.500  27.946  1.00  0.00     0.029 A 
ATOM     47  C   UNL A   1      41.782  25.811  28.379  1.00  0.00     0.049 A 
ATOM     48  H   UNL A   1      42.457  27.570  29.269  1.00  0.00     0.167 HD
ATOM     49  C   UNL A   1      43.807  31.470  30.781  1.00  0.00     0.031 A 
ATOM     50  C   UNL A   1      42.844  24.988  28.272  1.00  0.00     0.031 A 
ATOM     51  C   UNL A   1      44.980  30.644  30.764  1.00  0.00     0.049 A 
ATOM     52  C   UNL A   1      44.188  25.462  28.752  1.00  0.00     0.074 A 
ATOM     53  C   UNL A   1      46.258  30.955  31.192  1.00  0.00     0.029 A 
ATOM     54  N   UNL A   1      45.013  29.334  30.312  1.00  0.00    -0.354 N 
ATOM     55  N   UNL A   1      44.517  26.630  29.251  1.00  0.00    -0.248 NA
ATOM     56  C   UNL A   1      45.301  24.507  28.665  1.00  0.00     0.031 C 
ATOM     57  C   UNL A   1      47.072  29.837  30.976  1.00  0.00     0.029 A 
ATOM     58  C   UNL A   1      46.288  28.820  30.450  1.00  0.00     0.049 A 
ATOM     59  H   UNL A   1      44.242  28.842  29.945  1.00  0.00     0.167 HD
ATOM     60  C   UNL A   1      45.868  26.540  29.565  1.00  0.00     0.074 A 
ATOM     61  C   UNL A   1      46.294  25.203  29.204  1.00  0.00     0.031 C 
ATOM     62  C   UNL A   1      46.683  27.479  30.104  1.00  0.00     0.031 A 
BRANCH  49  63
ATOM     63  C   UNL A   1      43.926  32.894  31.253  1.00  0.00    -0.014 A 
ATOM     64  C   UNL A   1      43.936  33.205  32.625  1.00  0.00     0.010 A 
ATOM     65  C   UNL A   1      44.036  33.934  30.313  1.00  0.00     0.010 A 
ATOM     66  C   UNL A   1      43.997  34.534  33.048  1.00  0.00     0.020 A 
ATOM     67  C   UNL A   1      44.127  35.263  30.733  1.00  0.00     0.020 A 
ATOM     68  C   UNL A   1      44.084  35.556  32.098  1.00  0.00     0.054 A 
BRANCH  68  69
ATOM     69  S   UNL A   1      44.168  37.274  32.673  1.00  0.00     0.124 S 
ATOM     70  O   UNL A   1      44.173  38.011  31.412  1.00  0.00    -0.237 OA
ATOM     71  O   UNL A   1      42.954  37.408  33.472  1.00  0.00    -0.237 OA
ATOM     72  O   UNL A   1      45.417  37.324  33.429  1.00  0.00    -0.744 OA
ENDBRANCH  68  69
ENDBRANCH  49  63
BRANCH  50  73
ATOM     73  C   UNL A   1      42.672  23.620  27.712  1.00  0.00    -0.014 A 
ATOM     74  C   UNL A   1      42.235  22.568  28.536  1.00  0.00     0.010 A 
ATOM     75  C   UNL A   1      42.929  23.362  26.353  1.00  0.00     0.010 A 
ATOM     76  C   UNL A   1      42.071  21.280  28.018  1.00  0.00     0.020 A 
ATOM     77  C   UNL A   1      42.745  22.080  25.825  1.00  0.00     0.020 A 
ATOM     78  C   UNL A   1      42.327  21.044  26.664  1.00  0.00     0.054 A 
BRANCH  78  79
ATOM     79  S   UNL A   1      42.054  19.378  25.998  1.00  0.00     0.124 S 
ATOM     80  O   UNL A   1      42.527  18.534  27.090  1.00  0.00    -0.237 OA
ATOM     81  O   UNL A   1      40.612  19.362  25.763  1.00  0.00    -0.237 OA
ATOM     82  O   UNL A   1      42.872  19.357  24.788  1.00  0.00    -0.744 OA
ENDBRANCH  78  79
ENDBRANCH  50  73
BRANCH  62  83
ATOM     83  C   UNL A   1      48.104  27.086  30.389  1.00  0.00    -0.014 A 
ATOM     84  C   UNL A   1      49.124  27.317  29.451  1.00  0.00     0.010 A 
ATOM     85  C   UNL A   1      48.432  26.562  31.653  1.00  0.00     0.010 A 
ATOM     86  C   UNL A   1      50.452  27.018  29.769  1.00  0.00     0.020 A 
ATOM     87  C   UNL A   1      49.760  26.281  31.980  1.00  0.00     0.020 A 
ATOM     88  C   UNL A   1      50.761  26.505  31.033  1.00  0.00     0.054 A 
BRANCH  88  89
ATOM     89  S   UNL A   1      52.499  26.194  31.449  1.00  0.00     0.124 S 
ATOM     90  O   UNL A   1      52.446  24.835  31.980  1.00  0.00    -0.237 OA
ATOM     91  O   UNL A   1      53.170  26.340  30.160  1.00  0.00    -0.237 OA
ATOM     92  O   UNL A   1      52.810  27.234  32.427  1.00  0.00    -0.744 OA
ENDBRANCH  88  89
ENDBRANCH  62  83
ENDBRANCH  36  37
ENDBRANCH  28  31
ENDBRANCH  26  27
ENDBRANCH  25  26
ENDBRANCH   1  25
TORSDOF 17
ENDMDL
MODEL 3
REMARK VINA RESULT:     -10.9      2.712      9.315
REMARK SMILES C[C@H](c1ccncc1)[N@H+]1[C@@H]2CC[C@H]1C[C@H](CC(=O)NCCCCNC(=O)c1ccc(-c3c4nc(c(-c5ccc(S(=O)(=O)[O-])cc5)c5ccc([nH]5)c(-c5ccc(S(=O)(=O)[O-])cc5)c5nc(c(-c6ccc(S(=O)(=O)[O-])cc6)c6ccc3[nH]6)C=C5)C=C4)cc1)C2
REMARK SMILES IDX 21 1 20 2 19 3 17 4 18 5 16 7 15 8 9 9 10 10 13 11 11 13
REMARK SMILES IDX 87 14 12 15 14 16 2 17 1 18 3 19 4 20 8 21 5 22 7 23 6 24
REMARK SMILES IDX 22 25 23 26 24 27 25 28 26 30 27 31 28 32 86 33 29 34 85 35
REMARK SMILES IDX 30 36 31 37 32 38 79 39 33 40 84 41 78 42 80 43 34 44 83 45
REMARK SMILES IDX 77 46 76 47 35 49 65 50 46 51 64 52 47 53 50 54 63 55 81 56
REMARK SMILES IDX 48 57 49 58 62 60 82 61 51 62 36 63 37 64 45 65 38 66 44 67
REMARK SMILES IDX 39 68 40 69 41 70 42 71 43 72 66 73 67 74 75 75 68 76 74 77
REMARK SMILES IDX 69 78 70 79 71 80 72 81 73 82 52 83 53 84 61 85 54 86 60 87
REMARK SMILES IDX 55 88 56 89 57 90 58 91 59 92
REMARK H PARENT 19 6 9 12 24 29 80 48 50 59
REMARK Flexibility Score: inf
ROOT
ATOM      1  C   UNL A   1      34.917  24.159  26.104  1.00  0.00     0.023 C 
ENDROOT
BRANCH   1   2
ATOM      2  C   UNL A   1      34.161  24.892  24.992  1.00  0.00     0.116 C 
BRANCH   2   3
ATOM      3  N   UNL A   1      33.087  24.073  24.451  1.00  0.00    -0.356 N 
ATOM      4  C   UNL A   1      32.393  24.159  23.279  1.00  0.00     0.220 C 
ATOM      5  O   UNL A   1      31.467  23.369  23.091  1.00  0.00    -0.275 OA
ATOM      6  H   UNL A   1      32.813  23.326  25.031  1.00  0.00     0.163 HD
BRANCH   4   7
ATOM      7  C   UNL A   1      32.745  25.191  22.218  1.00  0.00     0.104 C 
BRANCH   7   8
ATOM      8  C   UNL A   1      31.800  26.415  22.191  1.00  0.00     0.010 C 
ATOM      9  N   UNL A   1      31.037  28.231  24.436  1.00  0.00    -0.324 N 
ATOM     10  C   UNL A   1      31.734  28.779  23.253  1.00  0.00     0.185 C 
ATOM     11  C   UNL A   1      29.999  27.402  23.816  1.00  0.00     0.185 C 
ATOM     12  H   UNL A   1      30.644  28.947  25.047  1.00  0.00     0.349 HD
ATOM     13  C   UNL A   1      30.555  29.252  22.391  1.00  0.00     0.071 C 
ATOM     14  C   UNL A   1      32.573  27.711  22.519  1.00  0.00     0.069 C 
ATOM     15  C   UNL A   1      29.390  28.357  22.796  1.00  0.00     0.071 C 
ATOM     16  C   UNL A   1      30.605  26.183  23.126  1.00  0.00     0.069 C 
BRANCH   9  17
ATOM     17  C   UNL A   1      31.903  27.575  25.438  1.00  0.00     0.212 C 
ATOM     18  C   UNL A   1      31.134  26.707  26.453  1.00  0.00     0.081 C 
BRANCH  17  19
ATOM     19  C   UNL A   1      32.726  28.611  26.194  1.00  0.00     0.012 A 
ATOM     20  C   UNL A   1      32.152  29.807  26.636  1.00  0.00     0.030 A 
ATOM     21  C   UNL A   1      34.091  28.409  26.425  1.00  0.00     0.030 A 
ATOM     22  C   UNL A   1      32.954  30.735  27.281  1.00  0.00     0.111 A 
ATOM     23  C   UNL A   1      34.810  29.400  27.074  1.00  0.00     0.111 A 
ATOM     24  N   UNL A   1      34.273  30.559  27.510  1.00  0.00    -0.265 NA
ENDBRANCH  17  19
ENDBRANCH   9  17
ENDBRANCH   7   8
ENDBRANCH   4   7
ENDBRANCH   2   3
ENDBRANCH   1   2
BRANCH   1  25
ATOM     25  C   UNL A   1      35.851  23.050  25.657  1.00  0.00     0.023 C 
BRANCH  25  26
ATOM     26  C   UNL A   1      37.162  23.546  25.085  1.00  0.00     0.116 C 
BRANCH  26  27
ATOM     27  N   UNL A   1      38.302  22.685  25.387  1.00  0.00    -0.352 N 
ATOM     28  C   UNL A   1      39.415  22.991  26.147  1.00  0.00     0.251 C 
ATOM     29  H   UNL A   1      38.273  21.778  25.003  1.00  0.00     0.163 HD
ATOM     30  O   UNL A   1      40.333  22.202  26.269  1.00  0.00    -0.269 OA
BRANCH  28  31
ATOM     31  C   UNL A   1      39.473  24.335  26.760  1.00  0.00     0.039 A 
ATOM     32  C   UNL A   1      39.005  24.507  28.063  1.00  0.00     0.014 A 
ATOM     33  C   UNL A   1      40.148  25.362  26.098  1.00  0.00     0.014 A 
ATOM     34  C   UNL A   1      39.308  25.687  28.746  1.00  0.00     0.010 A 
ATOM     35  C   UNL A   1      40.539  26.482  26.813  1.00  0.00     0.010 A 
ATOM     36  C   UNL A   1      40.127  26.657  28.146  1.00  0.00    -0.014 A 
BRANCH  36  37
ATOM     37  C   UNL A   1      40.563  27.881  28.861  1.00  0.00     0.031 A 
ATOM     38  C   UNL A   1      41.910  27.893  29.529  1.00  0.00     0.074 A 
ATOM     39  C   UNL A   1      39.718  28.921  29.013  1.00  0.00     0.049 A 
ATOM     40  N   UNL A   1      42.411  28.764  30.364  1.00  0.00    -0.248 NA
ATOM     41  C   UNL A   1      42.789  26.742  29.260  1.00  0.00     0.031 C 
ATOM     42  C   UNL A   1      38.365  29.014  28.456  1.00  0.00     0.029 A 
ATOM     43  N   UNL A   1      39.870  30.099  29.701  1.00  0.00    -0.354 N 
ATOM     44  C   UNL A   1      43.637  28.241  30.758  1.00  0.00     0.074 A 
ATOM     45  C   UNL A   1      43.783  26.959  30.108  1.00  0.00     0.031 C 
ATOM     46  C   UNL A   1      37.825  30.195  28.804  1.00  0.00     0.029 A 
ATOM     47  C   UNL A   1      38.770  30.922  29.645  1.00  0.00     0.049 A 
ATOM     48  H   UNL A   1      40.692  30.333  30.192  1.00  0.00     0.167 HD
ATOM     49  C   UNL A   1      44.569  28.788  31.572  1.00  0.00     0.031 A 
ATOM     50  C   UNL A   1      38.545  32.123  30.214  1.00  0.00     0.031 A 
ATOM     51  C   UNL A   1      44.445  30.088  32.169  1.00  0.00     0.049 A 
ATOM     52  C   UNL A   1      39.618  32.737  31.070  1.00  0.00     0.074 A 
ATOM     53  C   UNL A   1      45.360  30.766  32.953  1.00  0.00     0.029 A 
ATOM     54  N   UNL A   1      43.342  30.915  32.028  1.00  0.00    -0.354 N 
ATOM     55  N   UNL A   1      40.788  32.245  31.401  1.00  0.00    -0.248 NA
ATOM     56  C   UNL A   1      39.346  34.072  31.622  1.00  0.00     0.031 C 
ATOM     57  C   UNL A   1      44.799  31.998  33.308  1.00  0.00     0.029 A 
ATOM     58  C   UNL A   1      43.551  32.099  32.710  1.00  0.00     0.049 A 
ATOM     59  H   UNL A   1      42.529  30.694  31.519  1.00  0.00     0.167 HD
ATOM     60  C   UNL A   1      41.404  33.222  32.174  1.00  0.00     0.074 A 
ATOM     61  C   UNL A   1      40.480  34.335  32.258  1.00  0.00     0.031 C 
ATOM     62  C   UNL A   1      42.626  33.201  32.761  1.00  0.00     0.031 A 
BRANCH  49  63
ATOM     63  C   UNL A   1      45.804  27.975  31.850  1.00  0.00    -0.014 A 
ATOM     64  C   UNL A   1      46.969  28.137  31.077  1.00  0.00     0.010 A 
ATOM     65  C   UNL A   1      45.802  27.041  32.901  1.00  0.00     0.010 A 
ATOM     66  C   UNL A   1      48.090  27.340  31.314  1.00  0.00     0.020 A 
ATOM     67  C   UNL A   1      46.933  26.262  33.160  1.00  0.00     0.020 A 
ATOM     68  C   UNL A   1      48.063  26.402  32.350  1.00  0.00     0.054 A 
BRANCH  68  69
ATOM     69  S   UNL A   1      49.534  25.383  32.641  1.00  0.00     0.124 S 
ATOM     70  O   UNL A   1      49.008  24.341  33.518  1.00  0.00    -0.237 OA
ATOM     71  O   UNL A   1      49.897  24.946  31.296  1.00  0.00    -0.237 OA
ATOM     72  O   UNL A   1      50.475  26.308  33.268  1.00  0.00    -0.744 OA
ENDBRANCH  68  69
ENDBRANCH  49  63
BRANCH  50  73
ATOM     73  C   UNL A   1      37.262  32.835  29.969  1.00  0.00    -0.014 A 
ATOM     74  C   UNL A   1      37.055  33.523  28.760  1.00  0.00     0.010 A 
ATOM     75  C   UNL A   1      36.236  32.819  30.931  1.00  0.00     0.010 A 
ATOM     76  C   UNL A   1      35.852  34.194  28.521  1.00  0.00     0.020 A 
ATOM     77  C   UNL A   1      35.023  33.471  30.687  1.00  0.00     0.020 A 
ATOM     78  C   UNL A   1      34.843  34.164  29.487  1.00  0.00     0.054 A 
BRANCH  78  79
ATOM     79  S   UNL A   1      33.267  34.995  29.136  1.00  0.00     0.124 S 
ATOM     80  O   UNL A   1      33.712  36.312  28.694  1.00  0.00    -0.237 OA
ATOM     81  O   UNL A   1      32.684  34.143  28.102  1.00  0.00    -0.237 OA
ATOM     82  O   UNL A   1      32.573  34.964  30.420  1.00  0.00    -0.744 OA
ENDBRANCH  78  79
ENDBRANCH  50  73
BRANCH  62  83
ATOM     83  C   UNL A   1      43.063  34.431  33.503  1.00  0.00    -0.014 A 
ATOM     84  C   UNL A   1      43.004  34.494  34.906  1.00  0.00     0.010 A 
ATOM     85  C   UNL A   1      43.625  35.503  32.786  1.00  0.00     0.010 A 
ATOM     86  C   UNL A   1      43.491  35.617  35.580  1.00  0.00     0.020 A 
ATOM     87  C   UNL A   1      44.131  36.618  33.458  1.00  0.00     0.020 A 
ATOM     88  C   UNL A   1      44.054  36.670  34.852  1.00  0.00     0.054 A 
BRANCH  88  89
ATOM     89  S   UNL A   1      44.747  38.084  35.752  1.00  0.00     0.124 S 
ATOM     90  O   UNL A   1      46.055  37.576  36.154  1.00  0.00    -0.237 OA
ATOM     91  O   UNL A   1      44.765  39.135  34.737  1.00  0.00    -0.237 OA
ATOM     92  O   UNL A   1      43.798  38.296  36.843  1.00  0.00    -0.744 OA
ENDBRANCH  88  89
ENDBRANCH  62  83
ENDBRANCH  36  37
ENDBRANCH  28  31
ENDBRANCH  26  27
ENDBRANCH  25  26
ENDBRANCH   1  25
TORSDOF 17
ENDMDL
