MODEL 1
REMARK VINA RESULT:      -9.9      0.000      0.000
REMARK SMILES C#CC[N@H+](CC(=O)NCCCCNC(=O)c1ccc(-c2c3nc(c(-c4ccc(S(=O)(=O)[O-])cc4)c4ccc([nH]4)c(-c4ccc(S(=O)(=O)[O-])cc4)c4nc(c(-c5ccc(S(=O)(=O)[O-])cc5)c5ccc2[nH]5)C=C4)C=C3)cc1)[C@H](C)C(=O)NCCC
REMARK SMILES IDX 9 1 8 2 6 3 7 4 5 6 4 7 3 9 2 10 1 11 76 12 77 13 78 14
REMARK SMILES IDX 79 15 80 16 81 18 82 19 83 20 10 21 11 22 12 23 13 24 14 25
REMARK SMILES IDX 15 27 16 28 17 29 75 30 18 31 74 32 19 33 20 34 21 35 68 36
REMARK SMILES IDX 22 37 73 38 67 39 69 40 23 41 72 42 66 43 65 44 24 46 54 47
REMARK SMILES IDX 35 48 53 49 36 50 39 51 52 52 70 53 37 54 38 55 51 57 71 58
REMARK SMILES IDX 40 59 25 60 26 61 34 62 27 63 33 64 28 65 29 66 30 67 31 68
REMARK SMILES IDX 32 69 55 70 56 71 64 72 57 73 63 74 58 75 59 76 60 77 61 78
REMARK SMILES IDX 62 79 41 80 42 81 50 82 43 83 49 84 44 85 45 86 46 87 47 88
REMARK SMILES IDX 48 89
REMARK H PARENT 8 5 4 8 80 17 13 26 69 45 39 56
REMARK Flexibility Score: inf
ROOT
ATOM      1  C   UNL A   1      37.675  23.539  25.754  1.00  0.00     0.116 C 
ENDROOT
BRANCH   1   2
ATOM      2  N   UNL A   1      37.403  23.294  24.346  1.00  0.00    -0.351 N 
ATOM      3  C   UNL A   1      36.215  23.284  23.652  1.00  0.00     0.275 C 
ATOM      4  O   UNL A   1      36.246  22.985  22.458  1.00  0.00    -0.269 OA
ATOM      5  H   UNL A   1      38.199  23.103  23.799  1.00  0.00     0.163 HD
BRANCH   3   6
ATOM      6  C   UNL A   1      34.901  23.679  24.358  1.00  0.00     0.364 C 
BRANCH   6   7
ATOM      7  N   UNL A   1      33.625  23.437  23.606  1.00  0.00    -0.307 N 
ATOM      8  H   UNL A   1      33.833  23.236  22.628  1.00  0.00     0.350 HD
BRANCH   7   9
ATOM      9  C   UNL A   1      32.966  22.220  24.047  1.00  0.00     0.355 C 
BRANCH   9  10
ATOM     10  C   UNL A   1      33.717  21.047  24.503  1.00  0.00    -0.047 C 
ATOM     11  C   UNL A   1      34.083  19.996  24.950  1.00  0.00     0.010 C 
ENDBRANCH   9  10
ENDBRANCH   7   9
BRANCH   7  12
ATOM     12  C   UNL A   1      32.792  24.683  23.518  1.00  0.00     0.272 C 
ATOM     13  C   UNL A   1      31.333  24.598  23.032  1.00  0.00     0.086 C 
BRANCH  12  14
ATOM     14  C   UNL A   1      33.474  25.930  22.907  1.00  0.00     0.278 C 
ATOM     15  O   UNL A   1      33.719  25.985  21.696  1.00  0.00    -0.268 OA
ATOM     16  N   UNL A   1      33.882  26.993  23.666  1.00  0.00    -0.351 N 
ATOM     17  H   UNL A   1      34.467  27.627  23.192  1.00  0.00     0.163 HD
BRANCH  16  18
ATOM     18  C   UNL A   1      33.606  27.354  25.046  1.00  0.00     0.116 C 
BRANCH  18  19
ATOM     19  C   UNL A   1      32.124  27.595  25.307  1.00  0.00     0.018 C 
ATOM     20  C   UNL A   1      31.604  26.764  26.470  1.00  0.00     0.006 C 
ENDBRANCH  18  19
ENDBRANCH  16  18
ENDBRANCH  12  14
ENDBRANCH   7  12
ENDBRANCH   6   7
ENDBRANCH   3   6
ENDBRANCH   1   2
BRANCH   1  21
ATOM     21  C   UNL A   1      38.392  22.355  26.422  1.00  0.00     0.023 C 
BRANCH  21  22
ATOM     22  C   UNL A   1      39.895  22.483  26.555  1.00  0.00     0.023 C 
BRANCH  22  23
ATOM     23  C   UNL A   1      40.340  23.856  26.990  1.00  0.00     0.116 C 
BRANCH  23  24
ATOM     24  N   UNL A   1      41.180  24.513  25.995  1.00  0.00    -0.352 N 
ATOM     25  C   UNL A   1      41.556  25.832  25.938  1.00  0.00     0.251 C 
ATOM     26  H   UNL A   1      41.519  23.938  25.272  1.00  0.00     0.163 HD
ATOM     27  O   UNL A   1      42.114  26.273  24.940  1.00  0.00    -0.269 OA
BRANCH  25  28
ATOM     28  C   UNL A   1      41.251  26.700  27.091  1.00  0.00     0.039 A 
ATOM     29  C   UNL A   1      40.341  26.265  28.053  1.00  0.00     0.014 A 
ATOM     30  C   UNL A   1      41.915  27.920  27.241  1.00  0.00     0.014 A 
ATOM     31  C   UNL A   1      40.130  27.048  29.186  1.00  0.00     0.010 A 
ATOM     32  C   UNL A   1      41.816  28.616  28.433  1.00  0.00     0.010 A 
ATOM     33  C   UNL A   1      40.884  28.217  29.395  1.00  0.00    -0.014 A 
BRANCH  33  34
ATOM     34  C   UNL A   1      40.654  29.079  30.577  1.00  0.00     0.031 A 
ATOM     35  C   UNL A   1      41.521  28.908  31.799  1.00  0.00     0.074 A 
ATOM     36  C   UNL A   1      39.663  29.991  30.558  1.00  0.00     0.049 A 
ATOM     37  N   UNL A   1      41.495  29.574  32.924  1.00  0.00    -0.248 NA
ATOM     38  C   UNL A   1      42.530  27.833  31.769  1.00  0.00     0.031 C 
ATOM     39  C   UNL A   1      38.726  30.204  29.452  1.00  0.00     0.029 A 
ATOM     40  N   UNL A   1      39.287  30.919  31.493  1.00  0.00    -0.354 N 
ATOM     41  C   UNL A   1      42.466  28.990  33.730  1.00  0.00     0.074 A 
ATOM     42  C   UNL A   1      43.010  27.870  33.002  1.00  0.00     0.031 C 
ATOM     43  C   UNL A   1      37.920  31.236  29.751  1.00  0.00     0.029 A 
ATOM     44  C   UNL A   1      38.250  31.723  31.085  1.00  0.00     0.049 A 
ATOM     45  H   UNL A   1      39.720  31.002  32.373  1.00  0.00     0.167 HD
ATOM     46  C   UNL A   1      42.891  29.372  34.955  1.00  0.00     0.031 A 
ATOM     47  C   UNL A   1      37.637  32.742  31.718  1.00  0.00     0.031 A 
ATOM     48  C   UNL A   1      42.354  30.498  35.668  1.00  0.00     0.049 A 
ATOM     49  C   UNL A   1      38.128  33.145  33.083  1.00  0.00     0.074 A 
ATOM     50  C   UNL A   1      42.749  31.008  36.891  1.00  0.00     0.029 A 
ATOM     51  N   UNL A   1      41.305  31.287  35.222  1.00  0.00    -0.354 N 
ATOM     52  N   UNL A   1      39.098  32.626  33.799  1.00  0.00    -0.248 NA
ATOM     53  C   UNL A   1      37.456  34.287  33.713  1.00  0.00     0.031 C 
ATOM     54  C   UNL A   1      41.890  32.061  37.218  1.00  0.00     0.029 A 
ATOM     55  C   UNL A   1      41.020  32.265  36.159  1.00  0.00     0.049 A 
ATOM     56  H   UNL A   1      40.833  31.171  34.366  1.00  0.00     0.167 HD
ATOM     57  C   UNL A   1      39.179  33.407  34.947  1.00  0.00     0.074 A 
ATOM     58  C   UNL A   1      38.174  34.442  34.817  1.00  0.00     0.031 C 
ATOM     59  C   UNL A   1      40.012  33.284  36.012  1.00  0.00     0.031 A 
BRANCH  46  60
ATOM     60  C   UNL A   1      43.986  28.563  35.603  1.00  0.00    -0.014 A 
ATOM     61  C   UNL A   1      45.344  28.879  35.411  1.00  0.00     0.010 A 
ATOM     62  C   UNL A   1      43.648  27.498  36.458  1.00  0.00     0.010 A 
ATOM     63  C   UNL A   1      46.342  28.127  36.037  1.00  0.00     0.020 A 
ATOM     64  C   UNL A   1      44.642  26.768  37.113  1.00  0.00     0.020 A 
ATOM     65  C   UNL A   1      45.984  27.080  36.890  1.00  0.00     0.054 A 
BRANCH  65  66
ATOM     66  S   UNL A   1      47.299  26.158  37.729  1.00  0.00     0.124 S 
ATOM     67  O   UNL A   1      47.026  26.454  39.134  1.00  0.00    -0.237 OA
ATOM     68  O   UNL A   1      47.035  24.781  37.316  1.00  0.00    -0.237 OA
ATOM     69  O   UNL A   1      48.528  26.741  37.198  1.00  0.00    -0.744 OA
ENDBRANCH  65  66
ENDBRANCH  46  60
BRANCH  47  70
ATOM     70  C   UNL A   1      36.506  33.460  31.065  1.00  0.00    -0.014 A 
ATOM     71  C   UNL A   1      35.345  33.792  31.786  1.00  0.00     0.010 A 
ATOM     72  C   UNL A   1      36.583  33.804  29.703  1.00  0.00     0.010 A 
ATOM     73  C   UNL A   1      34.269  34.419  31.150  1.00  0.00     0.020 A 
ATOM     74  C   UNL A   1      35.526  34.465  29.072  1.00  0.00     0.020 A 
ATOM     75  C   UNL A   1      34.368  34.754  29.797  1.00  0.00     0.054 A 
BRANCH  75  76
ATOM     76  S   UNL A   1      32.971  35.592  28.999  1.00  0.00     0.124 S 
ATOM     77  O   UNL A   1      32.425  34.535  28.155  1.00  0.00    -0.237 OA
ATOM     78  O   UNL A   1      32.148  35.983  30.141  1.00  0.00    -0.237 OA
ATOM     79  O   UNL A   1      33.601  36.702  28.286  1.00  0.00    -0.744 OA
ENDBRANCH  75  76
ENDBRANCH  47  70
BRANCH  59  80
ATOM     80  C   UNL A   1      39.914  34.336  37.089  1.00  0.00    -0.014 A 
ATOM     81  C   UNL A   1      39.134  34.147  38.243  1.00  0.00     0.010 A 
ATOM     82  C   UNL A   1      40.637  35.534  36.940  1.00  0.00     0.010 A 
ATOM     83  C   UNL A   1      39.022  35.166  39.192  1.00  0.00     0.020 A 
ATOM     84  C   UNL A   1      40.563  36.538  37.907  1.00  0.00     0.020 A 
ATOM     85  C   UNL A   1      39.733  36.357  39.014  1.00  0.00     0.054 A 
BRANCH  85  86
ATOM     86  S   UNL A   1      39.565  37.667  40.255  1.00  0.00     0.124 S 
ATOM     87  O   UNL A   1      38.571  38.542  39.640  1.00  0.00    -0.237 OA
ATOM     88  O   UNL A   1      39.114  36.932  41.434  1.00  0.00    -0.237 OA
ATOM     89  O   UNL A   1      40.911  38.226  40.353  1.00  0.00    -0.744 OA
ENDBRANCH  85  86
ENDBRANCH  59  80
ENDBRANCH  33  34
ENDBRANCH  25  28
ENDBRANCH  23  24
ENDBRANCH  22  23
ENDBRANCH  21  22
ENDBRANCH   1  21
TORSDOF 21
ENDMDL
MODEL 2
REMARK VINA RESULT:      -9.5      5.383      6.929
REMARK SMILES C#CC[N@H+](CC(=O)NCCCCNC(=O)c1ccc(-c2c3nc(c(-c4ccc(S(=O)(=O)[O-])cc4)c4ccc([nH]4)c(-c4ccc(S(=O)(=O)[O-])cc4)c4nc(c(-c5ccc(S(=O)(=O)[O-])cc5)c5ccc2[nH]5)C=C4)C=C3)cc1)[C@H](C)C(=O)NCCC
REMARK SMILES IDX 9 1 8 2 6 3 7 4 5 6 4 7 3 9 2 10 1 11 76 12 77 13 78 14
REMARK SMILES IDX 79 15 80 16 81 18 82 19 83 20 10 21 11 22 12 23 13 24 14 25
REMARK SMILES IDX 15 27 16 28 17 29 75 30 18 31 74 32 19 33 20 34 21 35 68 36
REMARK SMILES IDX 22 37 73 38 67 39 69 40 23 41 72 42 66 43 65 44 24 46 54 47
REMARK SMILES IDX 35 48 53 49 36 50 39 51 52 52 70 53 37 54 38 55 51 57 71 58
REMARK SMILES IDX 40 59 25 60 26 61 34 62 27 63 33 64 28 65 29 66 30 67 31 68
REMARK SMILES IDX 32 69 55 70 56 71 64 72 57 73 63 74 58 75 59 76 60 77 61 78
REMARK SMILES IDX 62 79 41 80 42 81 50 82 43 83 49 84 44 85 45 86 46 87 47 88
REMARK SMILES IDX 48 89
REMARK H PARENT 8 5 4 8 80 17 13 26 69 45 39 56
REMARK Flexibility Score: inf
ROOT
ATOM      1  C   UNL A   1      34.018  24.466  25.738  1.00  0.00     0.116 C 
ENDROOT
BRANCH   1   2
ATOM      2  N   UNL A   1      34.067  24.799  24.322  1.00  0.00    -0.351 N 
ATOM      3  C   UNL A   1      33.308  25.676  23.582  1.00  0.00     0.275 C 
ATOM      4  O   UNL A   1      33.511  25.734  22.368  1.00  0.00    -0.269 OA
ATOM      5  H   UNL A   1      34.756  24.318  23.810  1.00  0.00     0.163 HD
BRANCH   3   6
ATOM      6  C   UNL A   1      32.269  26.580  24.277  1.00  0.00     0.364 C 
BRANCH   6   7
ATOM      7  N   UNL A   1      30.867  26.053  24.377  1.00  0.00    -0.307 N 
ATOM      8  H   UNL A   1      30.740  25.281  23.723  1.00  0.00     0.350 HD
BRANCH   7   9
ATOM      9  C   UNL A   1      30.623  25.424  25.663  1.00  0.00     0.355 C 
BRANCH   9  10
ATOM     10  C   UNL A   1      30.596  23.968  25.827  1.00  0.00    -0.047 C 
ATOM     11  C   UNL A   1      30.625  22.837  26.225  1.00  0.00     0.010 C 
ENDBRANCH   9  10
ENDBRANCH   7   9
BRANCH   7  12
ATOM     12  C   UNL A   1      29.863  27.061  23.896  1.00  0.00     0.272 C 
ATOM     13  C   UNL A   1      28.366  26.701  23.872  1.00  0.00     0.086 C 
BRANCH  12  14
ATOM     14  C   UNL A   1      30.232  27.849  22.617  1.00  0.00     0.278 C 
ATOM     15  O   UNL A   1      30.773  27.282  21.661  1.00  0.00    -0.268 OA
ATOM     16  N   UNL A   1      30.030  29.197  22.500  1.00  0.00    -0.351 N 
ATOM     17  H   UNL A   1      30.477  29.606  21.724  1.00  0.00     0.163 HD
BRANCH  16  18
ATOM     18  C   UNL A   1      29.275  30.135  23.313  1.00  0.00     0.116 C 
BRANCH  18  19
ATOM     19  C   UNL A   1      27.945  30.524  22.681  1.00  0.00     0.018 C 
ATOM     20  C   UNL A   1      28.113  31.033  21.257  1.00  0.00     0.006 C 
ENDBRANCH  18  19
ENDBRANCH  16  18
ENDBRANCH  12  14
ENDBRANCH   7  12
ENDBRANCH   6   7
ENDBRANCH   3   6
ENDBRANCH   1   2
BRANCH   1  21
ATOM     21  C   UNL A   1      34.899  23.255  26.081  1.00  0.00     0.023 C 
BRANCH  21  22
ATOM     22  C   UNL A   1      36.113  23.051  25.200  1.00  0.00     0.023 C 
BRANCH  22  23
ATOM     23  C   UNL A   1      37.408  23.427  25.872  1.00  0.00     0.116 C 
BRANCH  23  24
ATOM     24  N   UNL A   1      38.249  22.269  26.151  1.00  0.00    -0.352 N 
ATOM     25  C   UNL A   1      39.567  22.249  26.537  1.00  0.00     0.251 C 
ATOM     26  H   UNL A   1      37.819  21.390  26.048  1.00  0.00     0.163 HD
ATOM     27  O   UNL A   1      40.189  21.194  26.557  1.00  0.00    -0.269 OA
BRANCH  25  28
ATOM     28  C   UNL A   1      40.211  23.524  26.903  1.00  0.00     0.039 A 
ATOM     29  C   UNL A   1      40.047  24.636  26.077  1.00  0.00     0.014 A 
ATOM     30  C   UNL A   1      40.929  23.627  28.097  1.00  0.00     0.014 A 
ATOM     31  C   UNL A   1      40.579  25.859  26.478  1.00  0.00     0.010 A 
ATOM     32  C   UNL A   1      41.322  24.870  28.560  1.00  0.00     0.010 A 
ATOM     33  C   UNL A   1      41.199  25.990  27.732  1.00  0.00    -0.014 A 
BRANCH  33  34
ATOM     34  C   UNL A   1      41.798  27.274  28.164  1.00  0.00     0.031 A 
ATOM     35  C   UNL A   1      43.281  27.494  28.000  1.00  0.00     0.074 A 
ATOM     36  C   UNL A   1      41.018  28.224  28.714  1.00  0.00     0.049 A 
ATOM     37  N   UNL A   1      43.992  28.550  28.295  1.00  0.00    -0.248 NA
ATOM     38  C   UNL A   1      44.076  26.373  27.464  1.00  0.00     0.031 C 
ATOM     39  C   UNL A   1      39.581  28.100  28.973  1.00  0.00     0.029 A 
ATOM     40  N   UNL A   1      41.322  29.490  29.144  1.00  0.00    -0.354 N 
ATOM     41  C   UNL A   1      45.307  28.215  27.994  1.00  0.00     0.074 A 
ATOM     42  C   UNL A   1      45.311  26.836  27.569  1.00  0.00     0.031 C 
ATOM     43  C   UNL A   1      39.121  29.261  29.465  1.00  0.00     0.029 A 
ATOM     44  C   UNL A   1      40.234  30.193  29.602  1.00  0.00     0.049 A 
ATOM     45  H   UNL A   1      42.234  29.859  29.125  1.00  0.00     0.167 HD
ATOM     46  C   UNL A   1      46.411  28.994  28.036  1.00  0.00     0.031 A 
ATOM     47  C   UNL A   1      40.146  31.451  30.076  1.00  0.00     0.031 A 
ATOM     48  C   UNL A   1      46.397  30.371  28.446  1.00  0.00     0.049 A 
ATOM     49  C   UNL A   1      41.391  32.296  30.115  1.00  0.00     0.074 A 
ATOM     50  C   UNL A   1      47.447  31.270  28.473  1.00  0.00     0.029 A 
ATOM     51  N   UNL A   1      45.275  31.047  28.903  1.00  0.00    -0.354 N 
ATOM     52  N   UNL A   1      42.615  31.984  29.756  1.00  0.00    -0.248 NA
ATOM     53  C   UNL A   1      41.236  33.673  30.600  1.00  0.00     0.031 C 
ATOM     54  C   UNL A   1      46.976  32.469  29.016  1.00  0.00     0.029 A 
ATOM     55  C   UNL A   1      45.614  32.346  29.241  1.00  0.00     0.049 A 
ATOM     56  H   UNL A   1      44.373  30.662  28.975  1.00  0.00     0.167 HD
ATOM     57  C   UNL A   1      43.367  33.140  29.934  1.00  0.00     0.074 A 
ATOM     58  C   UNL A   1      42.455  34.159  30.412  1.00  0.00     0.031 C 
ATOM     59  C   UNL A   1      44.691  33.344  29.718  1.00  0.00     0.031 A 
BRANCH  46  60
ATOM     60  C   UNL A   1      47.725  28.375  27.633  1.00  0.00    -0.014 A 
ATOM     61  C   UNL A   1      48.586  27.796  28.584  1.00  0.00     0.010 A 
ATOM     62  C   UNL A   1      48.082  28.328  26.273  1.00  0.00     0.010 A 
ATOM     63  C   UNL A   1      49.790  27.211  28.186  1.00  0.00     0.020 A 
ATOM     64  C   UNL A   1      49.268  27.712  25.868  1.00  0.00     0.020 A 
ATOM     65  C   UNL A   1      50.122  27.167  26.829  1.00  0.00     0.054 A 
BRANCH  65  66
ATOM     66  S   UNL A   1      51.665  26.353  26.339  1.00  0.00     0.124 S 
ATOM     67  O   UNL A   1      51.708  26.627  24.904  1.00  0.00    -0.237 OA
ATOM     68  O   UNL A   1      52.663  27.056  27.141  1.00  0.00    -0.237 OA
ATOM     69  O   UNL A   1      51.451  24.953  26.699  1.00  0.00    -0.744 OA
ENDBRANCH  65  66
ENDBRANCH  46  60
BRANCH  47  70
ATOM     70  C   UNL A   1      38.835  31.989  30.536  1.00  0.00    -0.014 A 
ATOM     71  C   UNL A   1      37.934  32.576  29.628  1.00  0.00     0.010 A 
ATOM     72  C   UNL A   1      38.486  31.928  31.897  1.00  0.00     0.010 A 
ATOM     73  C   UNL A   1      36.729  33.124  30.079  1.00  0.00     0.020 A 
ATOM     74  C   UNL A   1      37.266  32.439  32.346  1.00  0.00     0.020 A 
ATOM     75  C   UNL A   1      36.402  33.050  31.435  1.00  0.00     0.054 A 
BRANCH  75  76
ATOM     76  S   UNL A   1      34.821  33.743  31.992  1.00  0.00     0.124 S 
ATOM     77  O   UNL A   1      35.227  34.538  33.146  1.00  0.00    -0.237 OA
ATOM     78  O   UNL A   1      34.382  34.499  30.822  1.00  0.00    -0.237 OA
ATOM     79  O   UNL A   1      34.018  32.560  32.298  1.00  0.00    -0.744 OA
ENDBRANCH  75  76
ENDBRANCH  47  70
BRANCH  59  80
ATOM     80  C   UNL A   1      45.218  34.741  29.934  1.00  0.00    -0.014 A 
ATOM     81  C   UNL A   1      45.546  35.222  31.214  1.00  0.00     0.010 A 
ATOM     82  C   UNL A   1      45.399  35.582  28.820  1.00  0.00     0.010 A 
ATOM     83  C   UNL A   1      45.977  36.540  31.381  1.00  0.00     0.020 A 
ATOM     84  C   UNL A   1      45.871  36.885  28.978  1.00  0.00     0.020 A 
ATOM     85  C   UNL A   1      46.131  37.365  30.262  1.00  0.00     0.054 A 
BRANCH  85  86
ATOM     86  S   UNL A   1      46.684  39.074  30.506  1.00  0.00     0.124 S 
ATOM     87  O   UNL A   1      47.063  39.466  29.151  1.00  0.00    -0.237 OA
ATOM     88  O   UNL A   1      45.488  39.722  31.038  1.00  0.00    -0.237 OA
ATOM     89  O   UNL A   1      47.792  38.948  31.450  1.00  0.00    -0.744 OA
ENDBRANCH  85  86
ENDBRANCH  59  80
ENDBRANCH  33  34
ENDBRANCH  25  28
ENDBRANCH  23  24
ENDBRANCH  22  23
ENDBRANCH  21  22
ENDBRANCH   1  21
TORSDOF 21
ENDMDL
MODEL 3
REMARK VINA RESULT:      -9.5      6.143      8.496
REMARK SMILES C#CC[N@H+](CC(=O)NCCCCNC(=O)c1ccc(-c2c3nc(c(-c4ccc(S(=O)(=O)[O-])cc4)c4ccc([nH]4)c(-c4ccc(S(=O)(=O)[O-])cc4)c4nc(c(-c5ccc(S(=O)(=O)[O-])cc5)c5ccc2[nH]5)C=C4)C=C3)cc1)[C@H](C)C(=O)NCCC
REMARK SMILES IDX 9 1 8 2 6 3 7 4 5 6 4 7 3 9 2 10 1 11 76 12 77 13 78 14
REMARK SMILES IDX 79 15 80 16 81 18 82 19 83 20 10 21 11 22 12 23 13 24 14 25
REMARK SMILES IDX 15 27 16 28 17 29 75 30 18 31 74 32 19 33 20 34 21 35 68 36
REMARK SMILES IDX 22 37 73 38 67 39 69 40 23 41 72 42 66 43 65 44 24 46 54 47
REMARK SMILES IDX 35 48 53 49 36 50 39 51 52 52 70 53 37 54 38 55 51 57 71 58
REMARK SMILES IDX 40 59 25 60 26 61 34 62 27 63 33 64 28 65 29 66 30 67 31 68
REMARK SMILES IDX 32 69 55 70 56 71 64 72 57 73 63 74 58 75 59 76 60 77 61 78
REMARK SMILES IDX 62 79 41 80 42 81 50 82 43 83 49 84 44 85 45 86 46 87 47 88
REMARK SMILES IDX 48 89
REMARK H PARENT 8 5 4 8 80 17 13 26 69 45 39 56
REMARK Flexibility Score: inf
ROOT
ATOM      1  C   UNL A   1      37.017  22.341  24.774  1.00  0.00     0.116 C 
ENDROOT
BRANCH   1   2
ATOM      2  N   UNL A   1      36.311  22.936  23.649  1.00  0.00    -0.351 N 
ATOM      3  C   UNL A   1      34.970  23.184  23.464  1.00  0.00     0.275 C 
ATOM      4  O   UNL A   1      34.613  23.649  22.380  1.00  0.00    -0.269 OA
ATOM      5  H   UNL A   1      36.886  23.205  22.897  1.00  0.00     0.163 HD
BRANCH   3   6
ATOM      6  C   UNL A   1      33.967  22.919  24.605  1.00  0.00     0.364 C 
BRANCH   6   7
ATOM      7  N   UNL A   1      32.995  24.018  24.926  1.00  0.00    -0.307 N 
ATOM      8  H   UNL A   1      33.441  24.925  24.789  1.00  0.00     0.350 HD
BRANCH   7   9
ATOM      9  C   UNL A   1      31.898  24.056  23.974  1.00  0.00     0.355 C 
BRANCH   9  10
ATOM     10  C   UNL A   1      31.709  25.174  23.046  1.00  0.00    -0.047 C 
ATOM     11  C   UNL A   1      31.288  26.032  22.322  1.00  0.00     0.010 C 
ENDBRANCH   9  10
ENDBRANCH   7   9
BRANCH   7  12
ATOM     12  C   UNL A   1      32.647  24.037  26.386  1.00  0.00     0.272 C 
ATOM     13  C   UNL A   1      33.069  22.864  27.291  1.00  0.00     0.086 C 
BRANCH  12  14
ATOM     14  C   UNL A   1      31.212  24.487  26.749  1.00  0.00     0.278 C 
ATOM     15  O   UNL A   1      30.383  23.671  27.172  1.00  0.00    -0.268 OA
ATOM     16  N   UNL A   1      30.777  25.772  26.576  1.00  0.00    -0.351 N 
ATOM     17  H   UNL A   1      29.803  25.884  26.662  1.00  0.00     0.163 HD
BRANCH  16  18
ATOM     18  C   UNL A   1      31.495  27.003  26.288  1.00  0.00     0.116 C 
BRANCH  18  19
ATOM     19  C   UNL A   1      31.712  27.861  27.529  1.00  0.00     0.018 C 
ATOM     20  C   UNL A   1      31.940  29.325  27.182  1.00  0.00     0.006 C 
ENDBRANCH  18  19
ENDBRANCH  16  18
ENDBRANCH  12  14
ENDBRANCH   7  12
ENDBRANCH   6   7
ENDBRANCH   3   6
ENDBRANCH   1   2
BRANCH   1  21
ATOM     21  C   UNL A   1      37.449  20.894  24.489  1.00  0.00     0.023 C 
BRANCH  21  22
ATOM     22  C   UNL A   1      38.018  20.131  25.666  1.00  0.00     0.023 C 
BRANCH  22  23
ATOM     23  C   UNL A   1      39.379  20.620  26.092  1.00  0.00     0.116 C 
BRANCH  23  24
ATOM     24  N   UNL A   1      40.377  19.557  26.101  1.00  0.00    -0.352 N 
ATOM     25  C   UNL A   1      41.743  19.675  26.174  1.00  0.00     0.251 C 
ATOM     26  H   UNL A   1      40.027  18.638  26.048  1.00  0.00     0.163 HD
ATOM     27  O   UNL A   1      42.458  18.697  25.987  1.00  0.00    -0.269 OA
BRANCH  25  28
ATOM     28  C   UNL A   1      42.320  21.002  26.457  1.00  0.00     0.039 A 
ATOM     29  C   UNL A   1      42.442  21.929  25.424  1.00  0.00     0.014 A 
ATOM     30  C   UNL A   1      42.683  21.341  27.763  1.00  0.00     0.014 A 
ATOM     31  C   UNL A   1      42.899  23.212  25.718  1.00  0.00     0.010 A 
ATOM     32  C   UNL A   1      42.990  22.654  28.073  1.00  0.00     0.010 A 
ATOM     33  C   UNL A   1      43.153  23.591  27.047  1.00  0.00    -0.014 A 
BRANCH  33  34
ATOM     34  C   UNL A   1      43.668  24.939  27.378  1.00  0.00     0.031 A 
ATOM     35  C   UNL A   1      45.107  25.278  27.080  1.00  0.00     0.074 A 
ATOM     36  C   UNL A   1      42.854  25.842  27.958  1.00  0.00     0.049 A 
ATOM     37  N   UNL A   1      45.743  26.403  27.273  1.00  0.00    -0.248 NA
ATOM     38  C   UNL A   1      45.953  24.207  26.518  1.00  0.00     0.031 C 
ATOM     39  C   UNL A   1      41.461  25.606  28.344  1.00  0.00     0.029 A 
ATOM     40  N   UNL A   1      43.079  27.147  28.313  1.00  0.00    -0.354 N 
ATOM     41  C   UNL A   1      47.054  26.169  26.872  1.00  0.00     0.074 A 
ATOM     42  C   UNL A   1      47.146  24.778  26.500  1.00  0.00     0.031 C 
ATOM     43  C   UNL A   1      40.941  26.744  28.831  1.00  0.00     0.029 A 
ATOM     44  C   UNL A   1      41.974  27.773  28.837  1.00  0.00     0.049 A 
ATOM     45  H   UNL A   1      43.950  27.592  28.202  1.00  0.00     0.167 HD
ATOM     46  C   UNL A   1      48.083  27.042  26.790  1.00  0.00     0.031 A 
ATOM     47  C   UNL A   1      41.814  29.039  29.270  1.00  0.00     0.031 A 
ATOM     48  C   UNL A   1      47.979  28.430  27.149  1.00  0.00     0.049 A 
ATOM     49  C   UNL A   1      42.977  29.989  29.170  1.00  0.00     0.074 A 
ATOM     50  C   UNL A   1      48.944  29.416  27.052  1.00  0.00     0.029 A 
ATOM     51  N   UNL A   1      46.844  29.026  27.675  1.00  0.00    -0.354 N 
ATOM     52  N   UNL A   1      44.190  29.768  28.719  1.00  0.00    -0.248 NA
ATOM     53  C   UNL A   1      42.740  31.367  29.615  1.00  0.00     0.031 C 
ATOM     54  C   UNL A   1      48.414  30.592  27.589  1.00  0.00     0.029 A 
ATOM     55  C   UNL A   1      47.091  30.362  27.935  1.00  0.00     0.049 A 
ATOM     56  H   UNL A   1      45.988  28.568  27.839  1.00  0.00     0.167 HD
ATOM     57  C   UNL A   1      44.848  30.991  28.789  1.00  0.00     0.074 A 
ATOM     58  C   UNL A   1      43.890  31.948  29.305  1.00  0.00     0.031 C 
ATOM     59  C   UNL A   1      46.126  31.299  28.452  1.00  0.00     0.031 A 
BRANCH  46  60
ATOM     60  C   UNL A   1      49.409  26.521  26.299  1.00  0.00    -0.014 A 
ATOM     61  C   UNL A   1      49.872  26.802  24.999  1.00  0.00     0.010 A 
ATOM     62  C   UNL A   1      50.228  25.777  27.168  1.00  0.00     0.010 A 
ATOM     63  C   UNL A   1      51.114  26.324  24.571  1.00  0.00     0.020 A 
ATOM     64  C   UNL A   1      51.485  25.330  26.756  1.00  0.00     0.020 A 
ATOM     65  C   UNL A   1      51.916  25.596  25.454  1.00  0.00     0.054 A 
BRANCH  65  66
ATOM     66  S   UNL A   1      53.544  25.037  24.888  1.00  0.00     0.124 S 
ATOM     67  O   UNL A   1      54.443  25.866  25.687  1.00  0.00    -0.237 OA
ATOM     68  O   UNL A   1      53.529  23.617  25.232  1.00  0.00    -0.237 OA
ATOM     69  O   UNL A   1      53.535  25.330  23.457  1.00  0.00    -0.744 OA
ENDBRANCH  65  66
ENDBRANCH  46  60
BRANCH  47  70
ATOM     70  C   UNL A   1      40.502  29.483  29.821  1.00  0.00    -0.014 A 
ATOM     71  C   UNL A   1      39.540  30.096  28.997  1.00  0.00     0.010 A 
ATOM     72  C   UNL A   1      40.214  29.303  31.186  1.00  0.00     0.010 A 
ATOM     73  C   UNL A   1      38.334  30.554  29.535  1.00  0.00     0.020 A 
ATOM     74  C   UNL A   1      38.994  29.724  31.720  1.00  0.00     0.020 A 
ATOM     75  C   UNL A   1      38.067  30.363  30.893  1.00  0.00     0.054 A 
BRANCH  75  76
ATOM     76  S   UNL A   1      36.484  30.942  31.564  1.00  0.00     0.124 S 
ATOM     77  O   UNL A   1      35.612  29.800  31.312  1.00  0.00    -0.237 OA
ATOM     78  O   UNL A   1      36.812  31.194  32.965  1.00  0.00    -0.237 OA
ATOM     79  O   UNL A   1      36.196  32.138  30.775  1.00  0.00    -0.744 OA
ENDBRANCH  75  76
ENDBRANCH  47  70
BRANCH  59  80
ATOM     80  C   UNL A   1      46.542  32.743  28.570  1.00  0.00    -0.014 A 
ATOM     81  C   UNL A   1      47.090  33.265  29.755  1.00  0.00     0.010 A 
ATOM     82  C   UNL A   1      46.389  33.590  27.456  1.00  0.00     0.010 A 
ATOM     83  C   UNL A   1      47.410  34.621  29.845  1.00  0.00     0.020 A 
ATOM     84  C   UNL A   1      46.749  34.937  27.528  1.00  0.00     0.020 A 
ATOM     85  C   UNL A   1      47.232  35.450  28.732  1.00  0.00     0.054 A 
BRANCH  85  86
ATOM     86  S   UNL A   1      47.648  37.208  28.877  1.00  0.00     0.124 S 
ATOM     87  O   UNL A   1      48.477  37.421  27.694  1.00  0.00    -0.237 OA
ATOM     88  O   UNL A   1      46.335  37.848  28.850  1.00  0.00    -0.237 OA
ATOM     89  O   UNL A   1      48.351  37.294  30.154  1.00  0.00    -0.744 OA
ENDBRANCH  85  86
ENDBRANCH  59  80
ENDBRANCH  33  34
ENDBRANCH  25  28
ENDBRANCH  23  24
ENDBRANCH  22  23
ENDBRANCH  21  22
ENDBRANCH   1  21
TORSDOF 21
ENDMDL
