MODEL 1
REMARK VINA RESULT:      -9.7      0.000      0.000
REMARK SMILES C#CCN(CC(=O)NCCCCNC(=O)c1ccc(-c2c3nc(c(-c4ccc(S(=O)(=O)[O-])cc4)c4ccc([nH]4)c(-c4ccc(S(=O)(=O)[O-])cc4)c4nc(c(-c5ccc(S(=O)(=O)[O-])cc5)c5ccc2[nH]5)C=C4)C=C3)cc1)c1ncccc1C(=O)OCC
REMARK SMILES IDX 9 1 8 2 6 3 7 4 5 6 4 7 3 8 2 9 1 10 76 11 77 12 81 13 78 14
REMARK SMILES IDX 80 15 79 16 82 17 83 18 84 19 85 20 86 21 10 22 11 23 12 24
REMARK SMILES IDX 13 25 14 26 15 28 16 29 17 30 75 31 18 32 74 33 19 34 20 35
REMARK SMILES IDX 21 36 68 37 22 38 73 39 67 40 69 41 23 42 72 43 66 44 65 45
REMARK SMILES IDX 24 47 54 48 35 49 53 50 36 51 39 52 52 53 70 54 37 55 38 56
REMARK SMILES IDX 51 58 71 59 40 60 25 61 26 62 34 63 27 64 33 65 28 66 29 67
REMARK SMILES IDX 30 68 31 69 32 70 55 71 56 72 64 73 57 74 63 75 58 76 59 77
REMARK SMILES IDX 60 78 61 79 62 80 41 81 42 82 50 83 43 84 49 85 44 86 45 87
REMARK SMILES IDX 46 88 47 89 48 90
REMARK H PARENT 8 5 13 27 69 46 39 57
REMARK Flexibility Score: inf
ROOT
ATOM      1  C   UNL A   1      30.715  26.488  25.721  1.00  0.00     0.116 C 
ENDROOT
BRANCH   1   2
ATOM      2  N   UNL A   1      31.056  25.483  26.700  1.00  0.00    -0.355 N 
ATOM      3  C   UNL A   1      31.367  24.163  26.521  1.00  0.00     0.239 C 
ATOM      4  O   UNL A   1      31.693  23.517  27.523  1.00  0.00    -0.273 OA
ATOM      5  H   UNL A   1      31.066  25.794  27.634  1.00  0.00     0.163 HD
BRANCH   3   6
ATOM      6  C   UNL A   1      31.452  23.539  25.118  1.00  0.00     0.219 C 
BRANCH   6   7
ATOM      7  N   UNL A   1      32.796  23.203  24.611  1.00  0.00    -0.335 N 
BRANCH   7   8
ATOM      8  C   UNL A   1      33.628  24.308  24.090  1.00  0.00     0.208 C 
BRANCH   8   9
ATOM      9  C   UNL A   1      32.738  24.974  23.053  1.00  0.00    -0.085 C 
ATOM     10  C   UNL A   1      31.974  25.546  22.164  1.00  0.00     0.006 C 
ENDBRANCH   8   9
ENDBRANCH   7   8
BRANCH   7  11
ATOM     11  C   UNL A   1      33.090  21.848  24.502  1.00  0.00     0.144 A 
ATOM     12  N   UNL A   1      32.229  21.176  23.694  1.00  0.00    -0.238 NA
ATOM     13  C   UNL A   1      34.118  21.102  25.126  1.00  0.00     0.102 A 
ATOM     14  C   UNL A   1      32.348  19.843  23.495  1.00  0.00     0.113 A 
ATOM     15  C   UNL A   1      34.236  19.715  24.876  1.00  0.00     0.021 A 
ATOM     16  C   UNL A   1      33.340  19.072  24.048  1.00  0.00     0.021 A 
BRANCH  13  17
ATOM     17  C   UNL A   1      35.019  21.523  26.225  1.00  0.00     0.341 C 
ATOM     18  O   UNL A   1      34.648  21.858  27.335  1.00  0.00    -0.246 OA
BRANCH  17  19
ATOM     19  O   UNL A   1      36.317  21.317  25.825  1.00  0.00    -0.462 OA
BRANCH  19  20
ATOM     20  C   UNL A   1      36.892  22.277  24.913  1.00  0.00     0.230 C 
ATOM     21  C   UNL A   1      36.990  23.637  25.599  1.00  0.00     0.049 C 
ENDBRANCH  19  20
ENDBRANCH  17  19
ENDBRANCH  13  17
ENDBRANCH   7  11
ENDBRANCH   6   7
ENDBRANCH   3   6
ENDBRANCH   1   2
BRANCH   1  22
ATOM     22  C   UNL A   1      31.582  27.742  25.827  1.00  0.00     0.023 C 
BRANCH  22  23
ATOM     23  C   UNL A   1      32.932  27.537  26.514  1.00  0.00     0.023 C 
BRANCH  23  24
ATOM     24  C   UNL A   1      34.029  28.489  26.061  1.00  0.00     0.116 C 
BRANCH  24  25
ATOM     25  N   UNL A   1      33.790  29.869  26.460  1.00  0.00    -0.352 N 
ATOM     26  C   UNL A   1      34.513  30.648  27.330  1.00  0.00     0.251 C 
ATOM     27  H   UNL A   1      33.005  30.301  26.052  1.00  0.00     0.163 HD
ATOM     28  O   UNL A   1      34.105  31.762  27.643  1.00  0.00    -0.269 OA
BRANCH  26  29
ATOM     29  C   UNL A   1      35.762  30.116  27.915  1.00  0.00     0.039 A 
ATOM     30  C   UNL A   1      36.957  30.274  27.207  1.00  0.00     0.014 A 
ATOM     31  C   UNL A   1      35.759  29.499  29.168  1.00  0.00     0.014 A 
ATOM     32  C   UNL A   1      38.160  29.872  27.790  1.00  0.00     0.010 A 
ATOM     33  C   UNL A   1      36.967  29.161  29.773  1.00  0.00     0.010 A 
ATOM     34  C   UNL A   1      38.179  29.348  29.092  1.00  0.00    -0.014 A 
BRANCH  34  35
ATOM     35  C   UNL A   1      39.456  29.005  29.767  1.00  0.00     0.031 A 
ATOM     36  C   UNL A   1      39.962  29.850  30.903  1.00  0.00     0.074 A 
ATOM     37  C   UNL A   1      40.199  27.980  29.301  1.00  0.00     0.049 A 
ATOM     38  N   UNL A   1      41.084  29.748  31.567  1.00  0.00    -0.248 NA
ATOM     39  C   UNL A   1      39.110  30.972  31.332  1.00  0.00     0.031 C 
ATOM     40  C   UNL A   1      39.845  27.121  28.168  1.00  0.00     0.029 A 
ATOM     41  N   UNL A   1      41.416  27.497  29.715  1.00  0.00    -0.354 N 
ATOM     42  C   UNL A   1      41.087  30.805  32.470  1.00  0.00     0.074 A 
ATOM     43  C   UNL A   1      39.871  31.556  32.246  1.00  0.00     0.031 C 
ATOM     44  C   UNL A   1      40.816  26.211  27.986  1.00  0.00     0.029 A 
ATOM     45  C   UNL A   1      41.875  26.440  28.964  1.00  0.00     0.049 A 
ATOM     46  H   UNL A   1      41.913  27.872  30.478  1.00  0.00     0.167 HD
ATOM     47  C   UNL A   1      42.012  31.114  33.411  1.00  0.00     0.031 A 
ATOM     48  C   UNL A   1      43.023  25.741  29.045  1.00  0.00     0.031 A 
ATOM     49  C   UNL A   1      43.205  30.348  33.650  1.00  0.00     0.049 A 
ATOM     50  C   UNL A   1      44.020  26.086  30.117  1.00  0.00     0.074 A 
ATOM     51  C   UNL A   1      44.158  30.531  34.637  1.00  0.00     0.029 A 
ATOM     52  N   UNL A   1      43.613  29.259  32.897  1.00  0.00    -0.354 N 
ATOM     53  N   UNL A   1      43.959  27.034  31.021  1.00  0.00    -0.248 NA
ATOM     54  C   UNL A   1      45.232  25.258  30.189  1.00  0.00     0.031 C 
ATOM     55  C   UNL A   1      45.167  29.581  34.451  1.00  0.00     0.029 A 
ATOM     56  C   UNL A   1      44.816  28.774  33.380  1.00  0.00     0.049 A 
ATOM     57  H   UNL A   1      43.120  28.885  32.130  1.00  0.00     0.167 HD
ATOM     58  C   UNL A   1      45.113  26.901  31.785  1.00  0.00     0.074 A 
ATOM     59  C   UNL A   1      45.844  25.772  31.247  1.00  0.00     0.031 C 
ATOM     60  C   UNL A   1      45.530  27.647  32.836  1.00  0.00     0.031 A 
BRANCH  47  61
ATOM     61  C   UNL A   1      41.771  32.337  34.254  1.00  0.00    -0.014 A 
ATOM     62  C   UNL A   1      42.202  33.607  33.832  1.00  0.00     0.010 A 
ATOM     63  C   UNL A   1      41.050  32.221  35.457  1.00  0.00     0.010 A 
ATOM     64  C   UNL A   1      41.945  34.736  34.615  1.00  0.00     0.020 A 
ATOM     65  C   UNL A   1      40.769  33.352  36.230  1.00  0.00     0.020 A 
ATOM     66  C   UNL A   1      41.231  34.601  35.810  1.00  0.00     0.054 A 
BRANCH  66  67
ATOM     67  S   UNL A   1      40.880  36.089  36.786  1.00  0.00     0.124 S 
ATOM     68  O   UNL A   1      40.592  35.524  38.102  1.00  0.00    -0.237 OA
ATOM     69  O   UNL A   1      42.128  36.841  36.686  1.00  0.00    -0.237 OA
ATOM     70  O   UNL A   1      39.737  36.690  36.103  1.00  0.00    -0.744 OA
ENDBRANCH  66  67
ENDBRANCH  47  61
BRANCH  48  71
ATOM     71  C   UNL A   1      43.293  24.638  28.080  1.00  0.00    -0.014 A 
ATOM     72  C   UNL A   1      43.973  24.891  26.877  1.00  0.00     0.010 A 
ATOM     73  C   UNL A   1      42.869  23.328  28.366  1.00  0.00     0.010 A 
ATOM     74  C   UNL A   1      44.203  23.857  25.964  1.00  0.00     0.020 A 
ATOM     75  C   UNL A   1      43.121  22.287  27.467  1.00  0.00     0.020 A 
ATOM     76  C   UNL A   1      43.774  22.562  26.265  1.00  0.00     0.054 A 
BRANCH  76  77
ATOM     77  S   UNL A   1      44.120  21.227  25.086  1.00  0.00     0.124 S 
ATOM     78  O   UNL A   1      44.094  21.934  23.811  1.00  0.00    -0.237 OA
ATOM     79  O   UNL A   1      45.431  20.751  25.520  1.00  0.00    -0.237 OA
ATOM     80  O   UNL A   1      43.022  20.287  25.305  1.00  0.00    -0.744 OA
ENDBRANCH  76  77
ENDBRANCH  48  71
BRANCH  60  81
ATOM     81  C   UNL A   1      46.821  27.249  33.501  1.00  0.00    -0.014 A 
ATOM     82  C   UNL A   1      48.053  27.764  33.063  1.00  0.00     0.010 A 
ATOM     83  C   UNL A   1      46.791  26.393  34.617  1.00  0.00     0.010 A 
ATOM     84  C   UNL A   1      49.237  27.405  33.712  1.00  0.00     0.020 A 
ATOM     85  C   UNL A   1      47.970  26.053  35.284  1.00  0.00     0.020 A 
ATOM     86  C   UNL A   1      49.188  26.550  34.818  1.00  0.00     0.054 A 
BRANCH  86  87
ATOM     87  S   UNL A   1      50.734  26.134  35.671  1.00  0.00     0.124 S 
ATOM     88  O   UNL A   1      51.418  27.424  35.706  1.00  0.00    -0.237 OA
ATOM     89  O   UNL A   1      50.266  25.636  36.962  1.00  0.00    -0.237 OA
ATOM     90  O   UNL A   1      51.345  25.127  34.808  1.00  0.00    -0.744 OA
ENDBRANCH  86  87
ENDBRANCH  60  81
ENDBRANCH  34  35
ENDBRANCH  26  29
ENDBRANCH  24  25
ENDBRANCH  23  24
ENDBRANCH  22  23
ENDBRANCH   1  22
TORSDOF 21
ENDMDL
MODEL 2
REMARK VINA RESULT:      -9.6      0.970      2.054
REMARK SMILES C#CCN(CC(=O)NCCCCNC(=O)c1ccc(-c2c3nc(c(-c4ccc(S(=O)(=O)[O-])cc4)c4ccc([nH]4)c(-c4ccc(S(=O)(=O)[O-])cc4)c4nc(c(-c5ccc(S(=O)(=O)[O-])cc5)c5ccc2[nH]5)C=C4)C=C3)cc1)c1ncccc1C(=O)OCC
REMARK SMILES IDX 9 1 8 2 6 3 7 4 5 6 4 7 3 8 2 9 1 10 76 11 77 12 81 13 78 14
REMARK SMILES IDX 80 15 79 16 82 17 83 18 84 19 85 20 86 21 10 22 11 23 12 24
REMARK SMILES IDX 13 25 14 26 15 28 16 29 17 30 75 31 18 32 74 33 19 34 20 35
REMARK SMILES IDX 21 36 68 37 22 38 73 39 67 40 69 41 23 42 72 43 66 44 65 45
REMARK SMILES IDX 24 47 54 48 35 49 53 50 36 51 39 52 52 53 70 54 37 55 38 56
REMARK SMILES IDX 51 58 71 59 40 60 25 61 26 62 34 63 27 64 33 65 28 66 29 67
REMARK SMILES IDX 30 68 31 69 32 70 55 71 56 72 64 73 57 74 63 75 58 76 59 77
REMARK SMILES IDX 60 78 61 79 62 80 41 81 42 82 50 83 43 84 49 85 44 86 45 87
REMARK SMILES IDX 46 88 47 89 48 90
REMARK H PARENT 8 5 13 27 69 46 39 57
REMARK Flexibility Score: inf
ROOT
ATOM      1  C   UNL A   1      31.049  26.409  26.035  1.00  0.00     0.116 C 
ENDROOT
BRANCH   1   2
ATOM      2  N   UNL A   1      31.411  25.305  26.892  1.00  0.00    -0.355 N 
ATOM      3  C   UNL A   1      31.306  23.960  26.670  1.00  0.00     0.239 C 
ATOM      4  O   UNL A   1      31.752  23.205  27.542  1.00  0.00    -0.273 OA
ATOM      5  H   UNL A   1      31.789  25.558  27.766  1.00  0.00     0.163 HD
BRANCH   3   6
ATOM      6  C   UNL A   1      30.791  23.402  25.333  1.00  0.00     0.219 C 
BRANCH   6   7
ATOM      7  N   UNL A   1      31.797  23.107  24.295  1.00  0.00    -0.335 N 
BRANCH   7   8
ATOM      8  C   UNL A   1      32.399  21.758  24.288  1.00  0.00     0.208 C 
BRANCH   8   9
ATOM      9  C   UNL A   1      32.132  21.248  22.881  1.00  0.00    -0.085 C 
ATOM     10  C   UNL A   1      31.903  20.811  21.674  1.00  0.00     0.006 C 
ENDBRANCH   8   9
ENDBRANCH   7   8
BRANCH   7  11
ATOM     11  C   UNL A   1      32.221  24.187  23.527  1.00  0.00     0.144 A 
ATOM     12  N   UNL A   1      31.199  24.853  22.928  1.00  0.00    -0.238 NA
ATOM     13  C   UNL A   1      33.536  24.646  23.277  1.00  0.00     0.102 A 
ATOM     14  C   UNL A   1      31.430  25.914  22.121  1.00  0.00     0.113 A 
ATOM     15  C   UNL A   1      33.745  25.776  22.452  1.00  0.00     0.021 A 
ATOM     16  C   UNL A   1      32.678  26.424  21.864  1.00  0.00     0.021 A 
BRANCH  13  17
ATOM     17  C   UNL A   1      34.818  23.971  23.590  1.00  0.00     0.341 C 
ATOM     18  O   UNL A   1      35.495  23.362  22.783  1.00  0.00    -0.246 OA
BRANCH  17  19
ATOM     19  O   UNL A   1      35.171  24.287  24.879  1.00  0.00    -0.462 OA
BRANCH  19  20
ATOM     20  C   UNL A   1      35.878  23.285  25.639  1.00  0.00     0.230 C 
ATOM     21  C   UNL A   1      37.207  23.857  26.125  1.00  0.00     0.049 C 
ENDBRANCH  19  20
ENDBRANCH  17  19
ENDBRANCH  13  17
ENDBRANCH   7  11
ENDBRANCH   6   7
ENDBRANCH   3   6
ENDBRANCH   1   2
BRANCH   1  22
ATOM     22  C   UNL A   1      31.662  27.736  26.482  1.00  0.00     0.023 C 
BRANCH  22  23
ATOM     23  C   UNL A   1      33.167  27.696  26.743  1.00  0.00     0.023 C 
BRANCH  23  24
ATOM     24  C   UNL A   1      33.978  28.725  25.968  1.00  0.00     0.116 C 
BRANCH  24  25
ATOM     25  N   UNL A   1      33.730  30.093  26.401  1.00  0.00    -0.352 N 
ATOM     26  C   UNL A   1      34.421  30.838  27.325  1.00  0.00     0.251 C 
ATOM     27  H   UNL A   1      32.965  30.543  25.974  1.00  0.00     0.163 HD
ATOM     28  O   UNL A   1      34.007  31.944  27.657  1.00  0.00    -0.269 OA
BRANCH  26  29
ATOM     29  C   UNL A   1      35.641  30.278  27.943  1.00  0.00     0.039 A 
ATOM     30  C   UNL A   1      36.867  30.464  27.300  1.00  0.00     0.014 A 
ATOM     31  C   UNL A   1      35.579  29.606  29.167  1.00  0.00     0.014 A 
ATOM     32  C   UNL A   1      38.042  30.035  27.920  1.00  0.00     0.010 A 
ATOM     33  C   UNL A   1      36.757  29.240  29.813  1.00  0.00     0.010 A 
ATOM     34  C   UNL A   1      38.000  29.454  29.198  1.00  0.00    -0.014 A 
BRANCH  34  35
ATOM     35  C   UNL A   1      39.244  29.079  29.916  1.00  0.00     0.031 A 
ATOM     36  C   UNL A   1      39.691  29.867  31.117  1.00  0.00     0.074 A 
ATOM     37  C   UNL A   1      40.012  28.080  29.437  1.00  0.00     0.049 A 
ATOM     38  N   UNL A   1      40.781  29.734  31.828  1.00  0.00    -0.248 NA
ATOM     39  C   UNL A   1      38.815  30.966  31.559  1.00  0.00     0.031 C 
ATOM     40  C   UNL A   1      39.717  27.278  28.247  1.00  0.00     0.029 A 
ATOM     41  N   UNL A   1      41.209  27.578  29.885  1.00  0.00    -0.354 N 
ATOM     42  C   UNL A   1      40.736  30.744  32.782  1.00  0.00     0.074 A 
ATOM     43  C   UNL A   1      39.530  31.505  32.537  1.00  0.00     0.031 C 
ATOM     44  C   UNL A   1      40.698  26.379  28.067  1.00  0.00     0.029 A 
ATOM     45  C   UNL A   1      41.707  26.560  29.106  1.00  0.00     0.049 A 
ATOM     46  H   UNL A   1      41.667  27.915  30.689  1.00  0.00     0.167 HD
ATOM     47  C   UNL A   1      41.613  31.007  33.780  1.00  0.00     0.031 A 
ATOM     48  C   UNL A   1      42.853  25.859  29.207  1.00  0.00     0.031 A 
ATOM     49  C   UNL A   1      42.796  30.231  34.039  1.00  0.00     0.049 A 
ATOM     50  C   UNL A   1      43.795  26.151  30.342  1.00  0.00     0.074 A 
ATOM     51  C   UNL A   1      43.699  30.366  35.079  1.00  0.00     0.029 A 
ATOM     52  N   UNL A   1      43.244  29.182  33.253  1.00  0.00    -0.354 N 
ATOM     53  N   UNL A   1      43.687  27.053  31.289  1.00  0.00    -0.248 NA
ATOM     54  C   UNL A   1      45.005  25.322  30.432  1.00  0.00     0.031 C 
ATOM     55  C   UNL A   1      44.719  29.427  34.895  1.00  0.00     0.029 A 
ATOM     56  C   UNL A   1      44.423  28.674  33.770  1.00  0.00     0.049 A 
ATOM     57  H   UNL A   1      42.789  28.846  32.446  1.00  0.00     0.167 HD
ATOM     58  C   UNL A   1      44.804  26.883  32.100  1.00  0.00     0.074 A 
ATOM     59  C   UNL A   1      45.564  25.783  31.543  1.00  0.00     0.031 C 
ATOM     60  C   UNL A   1      45.167  27.577  33.206  1.00  0.00     0.031 A 
BRANCH  47  61
ATOM     61  C   UNL A   1      41.327  32.186  34.671  1.00  0.00    -0.014 A 
ATOM     62  C   UNL A   1      41.800  33.472  34.349  1.00  0.00     0.010 A 
ATOM     63  C   UNL A   1      40.523  32.017  35.813  1.00  0.00     0.010 A 
ATOM     64  C   UNL A   1      41.501  34.560  35.173  1.00  0.00     0.020 A 
ATOM     65  C   UNL A   1      40.201  33.109  36.625  1.00  0.00     0.020 A 
ATOM     66  C   UNL A   1      40.705  34.372  36.307  1.00  0.00     0.054 A 
BRANCH  66  67
ATOM     67  S   UNL A   1      40.303  35.810  37.336  1.00  0.00     0.124 S 
ATOM     68  O   UNL A   1      39.827  36.768  36.341  1.00  0.00    -0.237 OA
ATOM     69  O   UNL A   1      39.281  35.283  38.238  1.00  0.00    -0.237 OA
ATOM     70  O   UNL A   1      41.574  36.150  37.969  1.00  0.00    -0.744 OA
ENDBRANCH  66  67
ENDBRANCH  47  61
BRANCH  48  71
ATOM     71  C   UNL A   1      43.173  24.806  28.204  1.00  0.00    -0.014 A 
ATOM     72  C   UNL A   1      42.674  23.501  28.354  1.00  0.00     0.010 A 
ATOM     73  C   UNL A   1      43.979  25.108  27.091  1.00  0.00     0.010 A 
ATOM     74  C   UNL A   1      42.996  22.509  27.421  1.00  0.00     0.020 A 
ATOM     75  C   UNL A   1      44.280  24.126  26.144  1.00  0.00     0.020 A 
ATOM     76  C   UNL A   1      43.798  22.828  26.323  1.00  0.00     0.054 A 
BRANCH  76  77
ATOM     77  S   UNL A   1      44.170  21.538  25.103  1.00  0.00     0.124 S 
ATOM     78  O   UNL A   1      45.526  21.152  25.474  1.00  0.00    -0.237 OA
ATOM     79  O   UNL A   1      43.133  20.543  25.366  1.00  0.00    -0.237 OA
ATOM     80  O   UNL A   1      44.042  22.233  23.824  1.00  0.00    -0.744 OA
ENDBRANCH  76  77
ENDBRANCH  48  71
BRANCH  60  81
ATOM     81  C   UNL A   1      46.425  27.148  33.912  1.00  0.00    -0.014 A 
ATOM     82  C   UNL A   1      47.667  27.730  33.604  1.00  0.00     0.010 A 
ATOM     83  C   UNL A   1      46.351  26.189  34.939  1.00  0.00     0.010 A 
ATOM     84  C   UNL A   1      48.819  27.338  34.291  1.00  0.00     0.020 A 
ATOM     85  C   UNL A   1      47.496  25.815  35.646  1.00  0.00     0.020 A 
ATOM     86  C   UNL A   1      48.726  26.382  35.307  1.00  0.00     0.054 A 
BRANCH  86  87
ATOM     87  S   UNL A   1      50.228  25.923  36.216  1.00  0.00     0.124 S 
ATOM     88  O   UNL A   1      50.339  27.009  37.185  1.00  0.00    -0.237 OA
ATOM     89  O   UNL A   1      49.882  24.617  36.771  1.00  0.00    -0.237 OA
ATOM     90  O   UNL A   1      51.262  25.899  35.183  1.00  0.00    -0.744 OA
ENDBRANCH  86  87
ENDBRANCH  60  81
ENDBRANCH  34  35
ENDBRANCH  26  29
ENDBRANCH  24  25
ENDBRANCH  23  24
ENDBRANCH  22  23
ENDBRANCH   1  22
TORSDOF 21
ENDMDL
MODEL 3
REMARK VINA RESULT:      -9.5      1.872      2.812
REMARK SMILES C#CCN(CC(=O)NCCCCNC(=O)c1ccc(-c2c3nc(c(-c4ccc(S(=O)(=O)[O-])cc4)c4ccc([nH]4)c(-c4ccc(S(=O)(=O)[O-])cc4)c4nc(c(-c5ccc(S(=O)(=O)[O-])cc5)c5ccc2[nH]5)C=C4)C=C3)cc1)c1ncccc1C(=O)OCC
REMARK SMILES IDX 9 1 8 2 6 3 7 4 5 6 4 7 3 8 2 9 1 10 76 11 77 12 81 13 78 14
REMARK SMILES IDX 80 15 79 16 82 17 83 18 84 19 85 20 86 21 10 22 11 23 12 24
REMARK SMILES IDX 13 25 14 26 15 28 16 29 17 30 75 31 18 32 74 33 19 34 20 35
REMARK SMILES IDX 21 36 68 37 22 38 73 39 67 40 69 41 23 42 72 43 66 44 65 45
REMARK SMILES IDX 24 47 54 48 35 49 53 50 36 51 39 52 52 53 70 54 37 55 38 56
REMARK SMILES IDX 51 58 71 59 40 60 25 61 26 62 34 63 27 64 33 65 28 66 29 67
REMARK SMILES IDX 30 68 31 69 32 70 55 71 56 72 64 73 57 74 63 75 58 76 59 77
REMARK SMILES IDX 60 78 61 79 62 80 41 81 42 82 50 83 43 84 49 85 44 86 45 87
REMARK SMILES IDX 46 88 47 89 48 90
REMARK H PARENT 8 5 13 27 69 46 39 57
REMARK Flexibility Score: inf
ROOT
ATOM      1  C   UNL A   1      31.218  26.329  26.033  1.00  0.00     0.116 C 
ENDROOT
BRANCH   1   2
ATOM      2  N   UNL A   1      31.476  25.201  26.895  1.00  0.00    -0.355 N 
ATOM      3  C   UNL A   1      31.280  23.867  26.666  1.00  0.00     0.239 C 
ATOM      4  O   UNL A   1      31.648  23.081  27.546  1.00  0.00    -0.273 OA
ATOM      5  H   UNL A   1      31.849  25.425  27.779  1.00  0.00     0.163 HD
BRANCH   3   6
ATOM      6  C   UNL A   1      30.761  23.350  25.314  1.00  0.00     0.219 C 
BRANCH   6   7
ATOM      7  N   UNL A   1      31.767  23.040  24.280  1.00  0.00    -0.335 N 
BRANCH   7   8
ATOM      8  C   UNL A   1      32.325  21.673  24.256  1.00  0.00     0.208 C 
BRANCH   8   9
ATOM      9  C   UNL A   1      32.069  21.201  22.834  1.00  0.00    -0.085 C 
ATOM     10  C   UNL A   1      31.850  20.796  21.614  1.00  0.00     0.006 C 
ENDBRANCH   8   9
ENDBRANCH   7   8
BRANCH   7  11
ATOM     11  C   UNL A   1      32.233  24.118  23.535  1.00  0.00     0.144 A 
ATOM     12  N   UNL A   1      31.247  24.775  22.868  1.00  0.00    -0.238 NA
ATOM     13  C   UNL A   1      33.558  24.584  23.366  1.00  0.00     0.102 A 
ATOM     14  C   UNL A   1      31.523  25.833  22.071  1.00  0.00     0.113 A 
ATOM     15  C   UNL A   1      33.813  25.711  22.549  1.00  0.00     0.021 A 
ATOM     16  C   UNL A   1      32.782  26.348  21.891  1.00  0.00     0.021 A 
BRANCH  13  17
ATOM     17  C   UNL A   1      34.821  23.918  23.763  1.00  0.00     0.341 C 
ATOM     18  O   UNL A   1      35.672  23.526  22.986  1.00  0.00    -0.246 OA
BRANCH  17  19
ATOM     19  O   UNL A   1      34.926  23.969  25.132  1.00  0.00    -0.462 OA
BRANCH  19  20
ATOM     20  C   UNL A   1      35.868  23.075  25.761  1.00  0.00     0.230 C 
ATOM     21  C   UNL A   1      37.188  23.805  25.993  1.00  0.00     0.049 C 
ENDBRANCH  19  20
ENDBRANCH  17  19
ENDBRANCH  13  17
ENDBRANCH   7  11
ENDBRANCH   6   7
ENDBRANCH   3   6
ENDBRANCH   1   2
BRANCH   1  22
ATOM     22  C   UNL A   1      31.778  27.641  26.583  1.00  0.00     0.023 C 
BRANCH  22  23
ATOM     23  C   UNL A   1      33.299  27.686  26.719  1.00  0.00     0.023 C 
BRANCH  23  24
ATOM     24  C   UNL A   1      33.961  28.907  26.097  1.00  0.00     0.116 C 
BRANCH  24  25
ATOM     25  N   UNL A   1      33.689  30.138  26.826  1.00  0.00    -0.352 N 
ATOM     26  C   UNL A   1      34.454  30.750  27.789  1.00  0.00     0.251 C 
ATOM     27  H   UNL A   1      32.846  30.592  26.597  1.00  0.00     0.163 HD
ATOM     28  O   UNL A   1      34.020  31.730  28.388  1.00  0.00    -0.269 OA
BRANCH  26  29
ATOM     29  C   UNL A   1      35.781  30.193  28.126  1.00  0.00     0.039 A 
ATOM     30  C   UNL A   1      36.807  30.285  27.182  1.00  0.00     0.014 A 
ATOM     31  C   UNL A   1      36.019  29.618  29.376  1.00  0.00     0.014 A 
ATOM     32  C   UNL A   1      38.093  29.860  27.521  1.00  0.00     0.010 A 
ATOM     33  C   UNL A   1      37.315  29.258  29.734  1.00  0.00     0.010 A 
ATOM     34  C   UNL A   1      38.366  29.379  28.812  1.00  0.00    -0.014 A 
BRANCH  34  35
ATOM     35  C   UNL A   1      39.745  29.012  29.223  1.00  0.00     0.031 A 
ATOM     36  C   UNL A   1      40.619  30.019  29.919  1.00  0.00     0.074 A 
ATOM     37  C   UNL A   1      40.235  27.800  28.897  1.00  0.00     0.049 A 
ATOM     38  N   UNL A   1      41.868  29.906  30.290  1.00  0.00    -0.248 NA
ATOM     39  C   UNL A   1      40.022  31.333  30.211  1.00  0.00     0.031 C 
ATOM     40  C   UNL A   1      39.506  26.756  28.171  1.00  0.00     0.029 A 
ATOM     41  N   UNL A   1      41.471  27.245  29.120  1.00  0.00    -0.354 N 
ATOM     42  C   UNL A   1      42.214  31.138  30.833  1.00  0.00     0.074 A 
ATOM     43  C   UNL A   1      41.056  31.996  30.711  1.00  0.00     0.031 C 
ATOM     44  C   UNL A   1      40.303  25.686  28.020  1.00  0.00     0.029 A 
ATOM     45  C   UNL A   1      41.609  25.977  28.606  1.00  0.00     0.049 A 
ATOM     46  H   UNL A   1      42.192  27.712  29.602  1.00  0.00     0.167 HD
ATOM     47  C   UNL A   1      43.387  31.517  31.395  1.00  0.00     0.031 A 
ATOM     48  C   UNL A   1      42.668  25.145  28.597  1.00  0.00     0.031 A 
ATOM     49  C   UNL A   1      44.528  30.653  31.540  1.00  0.00     0.049 A 
ATOM     50  C   UNL A   1      43.949  25.579  29.253  1.00  0.00     0.074 A 
ATOM     51  C   UNL A   1      45.730  30.919  32.174  1.00  0.00     0.029 A 
ATOM     52  N   UNL A   1      44.613  29.361  31.046  1.00  0.00    -0.354 N 
ATOM     53  N   UNL A   1      44.226  26.718  29.842  1.00  0.00    -0.248 NA
ATOM     54  C   UNL A   1      45.056  24.612  29.256  1.00  0.00     0.031 C 
ATOM     55  C   UNL A   1      46.559  29.803  32.020  1.00  0.00     0.029 A 
ATOM     56  C   UNL A   1      45.854  28.825  31.338  1.00  0.00     0.049 A 
ATOM     57  H   UNL A   1      43.895  28.894  30.559  1.00  0.00     0.167 HD
ATOM     58  C   UNL A   1      45.531  26.594  30.308  1.00  0.00     0.074 A 
ATOM     59  C   UNL A   1      45.980  25.265  29.946  1.00  0.00     0.031 C 
ATOM     60  C   UNL A   1      46.287  27.499  30.974  1.00  0.00     0.031 A 
BRANCH  47  61
ATOM     61  C   UNL A   1      43.499  32.932  31.895  1.00  0.00    -0.014 A 
ATOM     62  C   UNL A   1      44.065  33.943  31.096  1.00  0.00     0.010 A 
ATOM     63  C   UNL A   1      42.976  33.268  33.157  1.00  0.00     0.010 A 
ATOM     64  C   UNL A   1      44.135  35.257  31.565  1.00  0.00     0.020 A 
ATOM     65  C   UNL A   1      43.021  34.587  33.619  1.00  0.00     0.020 A 
ATOM     66  C   UNL A   1      43.615  35.571  32.824  1.00  0.00     0.054 A 
BRANCH  66  67
ATOM     67  S   UNL A   1      43.685  37.292  33.391  1.00  0.00     0.124 S 
ATOM     68  O   UNL A   1      44.946  37.314  34.128  1.00  0.00    -0.237 OA
ATOM     69  O   UNL A   1      43.678  38.043  32.138  1.00  0.00    -0.237 OA
ATOM     70  O   UNL A   1      42.484  37.438  34.208  1.00  0.00    -0.744 OA
ENDBRANCH  66  67
ENDBRANCH  47  61
BRANCH  48  71
ATOM     71  C   UNL A   1      42.560  23.810  27.944  1.00  0.00    -0.014 A 
ATOM     72  C   UNL A   1      42.163  22.683  28.683  1.00  0.00     0.010 A 
ATOM     73  C   UNL A   1      42.855  23.664  26.576  1.00  0.00     0.010 A 
ATOM     74  C   UNL A   1      42.086  21.427  28.071  1.00  0.00     0.020 A 
ATOM     75  C   UNL A   1      42.753  22.416  25.956  1.00  0.00     0.020 A 
ATOM     76  C   UNL A   1      42.383  21.302  26.712  1.00  0.00     0.054 A 
BRANCH  76  77
ATOM     77  S   UNL A   1      42.237  19.673  25.928  1.00  0.00     0.124 S 
ATOM     78  O   UNL A   1      42.561  18.775  27.031  1.00  0.00    -0.237 OA
ATOM     79  O   UNL A   1      40.844  19.656  25.486  1.00  0.00    -0.237 OA
ATOM     80  O   UNL A   1      43.222  19.724  24.850  1.00  0.00    -0.744 OA
ENDBRANCH  76  77
ENDBRANCH  48  71
BRANCH  60  81
ATOM     81  C   UNL A   1      47.671  27.076  31.388  1.00  0.00    -0.014 A 
ATOM     82  C   UNL A   1      48.776  27.278  30.543  1.00  0.00     0.010 A 
ATOM     83  C   UNL A   1      47.874  26.523  32.665  1.00  0.00     0.010 A 
ATOM     84  C   UNL A   1      50.057  26.904  30.957  1.00  0.00     0.020 A 
ATOM     85  C   UNL A   1      49.157  26.174  33.093  1.00  0.00     0.020 A 
ATOM     86  C   UNL A   1      50.239  26.353  32.230  1.00  0.00     0.054 A 
BRANCH  86  87
ATOM     87  S   UNL A   1      51.918  25.918  32.763  1.00  0.00     0.124 S 
ATOM     88  O   UNL A   1      52.689  27.071  32.306  1.00  0.00    -0.237 OA
ATOM     89  O   UNL A   1      51.773  25.792  34.211  1.00  0.00    -0.237 OA
ATOM     90  O   UNL A   1      52.190  24.667  32.060  1.00  0.00    -0.744 OA
ENDBRANCH  86  87
ENDBRANCH  60  81
ENDBRANCH  34  35
ENDBRANCH  26  29
ENDBRANCH  24  25
ENDBRANCH  23  24
ENDBRANCH  22  23
ENDBRANCH   1  22
TORSDOF 21
ENDMDL
