MODEL 1
REMARK VINA RESULT:     -10.6      0.000      0.000
REMARK SMILES CCN(CC(C)(C)O)C(=O)Nc1ccc(C(=O)NCCCCNC(=O)c2ccc(-c3c4nc(c(-c5ccc(S(=O)(=O)[O-])cc5)c5ccc([nH]5)c(-c5ccc(S(=O)(=O)[O-])cc5)c5nc(c(-c6ccc(S(=O)(=O)[O-])cc6)c6ccc3[nH]6)C=C5)C=C4)cc2)c(O)c1
REMARK SMILES IDX 19 1 18 2 16 3 17 4 15 6 12 7 13 8 88 9 14 10 86 11 11 12
REMARK SMILES IDX 9 13 10 14 3 16 2 17 1 18 4 19 5 20 6 21 7 22 8 23 87 25
REMARK SMILES IDX 20 27 21 28 22 29 23 30 24 31 25 33 26 34 27 35 85 36 28 37
REMARK SMILES IDX 84 38 29 39 30 40 31 41 78 42 32 43 83 44 77 45 79 46 33 47
REMARK SMILES IDX 82 48 76 49 75 50 34 52 64 53 45 54 63 55 46 56 49 57 62 58
REMARK SMILES IDX 80 59 47 60 48 61 61 63 81 64 50 65 35 66 36 67 44 68 37 69
REMARK SMILES IDX 43 70 38 71 39 72 40 73 41 74 42 75 65 76 66 77 74 78 67 79
REMARK SMILES IDX 73 80 68 81 69 82 70 83 71 84 72 85 51 86 52 87 60 88 53 89
REMARK SMILES IDX 59 90 54 91 55 92 56 93 57 94 58 95
REMARK H PARENT 18 5 11 15 8 24 87 26 23 32 79 51 49 62
REMARK Flexibility Score: inf
ROOT
ATOM      1  C   UNL A   1      34.227  28.842  26.271  1.00  0.00     0.116 C 
ENDROOT
BRANCH   1   2
ATOM      2  N   UNL A   1      33.258  29.700  25.615  1.00  0.00    -0.352 N 
ATOM      3  C   UNL A   1      31.922  29.474  25.381  1.00  0.00     0.255 C 
ATOM      4  O   UNL A   1      31.231  30.373  24.908  1.00  0.00    -0.269 OA
ATOM      5  H   UNL A   1      33.604  30.564  25.293  1.00  0.00     0.163 HD
BRANCH   3   6
ATOM      6  C   UNL A   1      31.344  28.122  25.553  1.00  0.00     0.081 A 
ATOM      7  C   UNL A   1      30.831  25.353  25.469  1.00  0.00     0.046 A 
ATOM      8  C   UNL A   1      30.545  26.167  24.389  1.00  0.00     0.027 A 
ATOM      9  C   UNL A   1      31.122  25.992  26.680  1.00  0.00     0.073 A 
ATOM     10  C   UNL A   1      30.849  27.528  24.397  1.00  0.00     0.020 A 
ATOM     11  C   UNL A   1      31.324  27.375  26.728  1.00  0.00     0.130 A 
BRANCH   7  12
ATOM     12  N   UNL A   1      30.775  23.954  25.477  1.00  0.00    -0.308 N 
ATOM     13  C   UNL A   1      31.560  22.858  25.390  1.00  0.00     0.321 C 
ATOM     14  O   UNL A   1      30.910  21.806  25.278  1.00  0.00    -0.248 OA
ATOM     15  H   UNL A   1      29.838  23.670  25.584  1.00  0.00     0.171 HD
BRANCH  13  16
ATOM     16  N   UNL A   1      32.921  22.808  25.524  1.00  0.00    -0.322 N 
BRANCH  16  17
ATOM     17  C   UNL A   1      33.460  23.129  26.858  1.00  0.00     0.118 C 
ATOM     18  C   UNL A   1      34.823  22.494  27.114  1.00  0.00     0.027 C 
ENDBRANCH  16  17
BRANCH  16  19
ATOM     19  C   UNL A   1      33.956  22.472  24.540  1.00  0.00     0.155 C 
BRANCH  19  20
ATOM     20  C   UNL A   1      34.120  23.548  23.407  1.00  0.00     0.077 C 
ATOM     21  C   UNL A   1      33.084  23.427  22.269  1.00  0.00     0.043 C 
ATOM     22  C   UNL A   1      34.166  24.965  24.012  1.00  0.00     0.043 C 
BRANCH  20  23
ATOM     23  O   UNL A   1      35.403  23.352  22.775  1.00  0.00    -0.389 OA
ATOM     24  H   UNL A   1      35.409  23.790  21.911  1.00  0.00     0.211 HD
ENDBRANCH  20  23
ENDBRANCH  19  20
ENDBRANCH  16  19
ENDBRANCH  13  16
ENDBRANCH   7  12
BRANCH  11  25
ATOM     25  O   UNL A   1      31.475  27.919  27.972  1.00  0.00    -0.507 OA
ATOM     26  H   UNL A   1      31.208  27.438  28.730  1.00  0.00     0.293 HD
ENDBRANCH  11  25
ENDBRANCH   3   6
ENDBRANCH   1   2
BRANCH   1  27
ATOM     27  C   UNL A   1      34.904  29.430  27.500  1.00  0.00     0.023 C 
BRANCH  27  28
ATOM     28  C   UNL A   1      34.854  30.948  27.650  1.00  0.00     0.023 C 
BRANCH  28  29
ATOM     29  C   UNL A   1      35.777  31.572  28.689  1.00  0.00     0.116 C 
BRANCH  29  30
ATOM     30  N   UNL A   1      35.614  31.039  30.032  1.00  0.00    -0.352 N 
ATOM     31  C   UNL A   1      36.539  30.417  30.837  1.00  0.00     0.251 C 
ATOM     32  H   UNL A   1      34.715  31.137  30.419  1.00  0.00     0.163 HD
ATOM     33  O   UNL A   1      36.206  29.982  31.937  1.00  0.00    -0.269 OA
BRANCH  31  34
ATOM     34  C   UNL A   1      37.917  30.226  30.344  1.00  0.00     0.039 A 
ATOM     35  C   UNL A   1      38.938  30.023  31.272  1.00  0.00     0.014 A 
ATOM     36  C   UNL A   1      38.183  30.176  28.973  1.00  0.00     0.014 A 
ATOM     37  C   UNL A   1      40.216  29.685  30.824  1.00  0.00     0.010 A 
ATOM     38  C   UNL A   1      39.428  29.742  28.534  1.00  0.00     0.010 A 
ATOM     39  C   UNL A   1      40.460  29.499  29.453  1.00  0.00    -0.014 A 
BRANCH  39  40
ATOM     40  C   UNL A   1      41.796  29.075  28.959  1.00  0.00     0.031 A 
ATOM     41  C   UNL A   1      42.917  30.076  28.886  1.00  0.00     0.074 A 
ATOM     42  C   UNL A   1      41.983  27.812  28.524  1.00  0.00     0.049 A 
ATOM     43  N   UNL A   1      44.136  29.918  28.439  1.00  0.00    -0.248 NA
ATOM     44  C   UNL A   1      42.620  31.443  29.344  1.00  0.00     0.031 C 
ATOM     45  C   UNL A   1      40.961  26.762  28.488  1.00  0.00     0.029 A 
ATOM     46  N   UNL A   1      43.104  27.197  28.024  1.00  0.00    -0.354 N 
ATOM     47  C   UNL A   1      44.737  31.168  28.537  1.00  0.00     0.074 A 
ATOM     48  C   UNL A   1      43.734  32.085  29.028  1.00  0.00     0.031 C 
ATOM     49  C   UNL A   1      41.511  25.626  28.028  1.00  0.00     0.029 A 
ATOM     50  C   UNL A   1      42.912  25.873  27.704  1.00  0.00     0.049 A 
ATOM     51  H   UNL A   1      43.965  27.660  27.906  1.00  0.00     0.167 HD
ATOM     52  C   UNL A   1      46.017  31.518  28.269  1.00  0.00     0.031 A 
ATOM     53  C   UNL A   1      43.770  24.959  27.210  1.00  0.00     0.031 A 
ATOM     54  C   UNL A   1      47.022  30.597  27.812  1.00  0.00     0.049 A 
ATOM     55  C   UNL A   1      45.197  25.361  26.955  1.00  0.00     0.074 A 
ATOM     56  C   UNL A   1      48.362  30.836  27.568  1.00  0.00     0.029 A 
ATOM     57  N   UNL A   1      46.796  29.256  27.537  1.00  0.00    -0.354 N 
ATOM     58  N   UNL A   1      45.763  26.535  27.113  1.00  0.00    -0.248 NA
ATOM     59  C   UNL A   1      46.107  24.311  26.475  1.00  0.00     0.031 C 
ATOM     60  C   UNL A   1      48.940  29.646  27.110  1.00  0.00     0.029 A 
ATOM     61  C   UNL A   1      47.970  28.656  27.120  1.00  0.00     0.049 A 
ATOM     62  H   UNL A   1      45.928  28.800  27.627  1.00  0.00     0.167 HD
ATOM     63  C   UNL A   1      47.102  26.356  26.783  1.00  0.00     0.074 A 
ATOM     64  C   UNL A   1      47.263  24.959  26.430  1.00  0.00     0.031 C 
ATOM     65  C   UNL A   1      48.110  27.263  26.778  1.00  0.00     0.031 A 
BRANCH  52  66
ATOM     66  C   UNL A   1      46.398  32.961  28.475  1.00  0.00    -0.014 A 
ATOM     67  C   UNL A   1      46.284  33.897  27.430  1.00  0.00     0.010 A 
ATOM     68  C   UNL A   1      46.862  33.390  29.731  1.00  0.00     0.010 A 
ATOM     69  C   UNL A   1      46.674  35.225  27.623  1.00  0.00     0.020 A 
ATOM     70  C   UNL A   1      47.223  34.725  29.937  1.00  0.00     0.020 A 
ATOM     71  C   UNL A   1      47.146  35.629  28.875  1.00  0.00     0.054 A 
BRANCH  71  72
ATOM     72  S   UNL A   1      47.631  37.362  29.103  1.00  0.00     0.124 S 
ATOM     73  O   UNL A   1      48.681  37.514  28.098  1.00  0.00    -0.237 OA
ATOM     74  O   UNL A   1      46.390  38.081  28.827  1.00  0.00    -0.237 OA
ATOM     75  O   UNL A   1      48.083  37.415  30.490  1.00  0.00    -0.744 OA
ENDBRANCH  71  72
ENDBRANCH  52  66
BRANCH  53  76
ATOM     76  C   UNL A   1      43.313  23.563  26.963  1.00  0.00    -0.014 A 
ATOM     77  C   UNL A   1      43.088  23.109  25.651  1.00  0.00     0.010 A 
ATOM     78  C   UNL A   1      43.111  22.678  28.036  1.00  0.00     0.010 A 
ATOM     79  C   UNL A   1      42.649  21.803  25.418  1.00  0.00     0.020 A 
ATOM     80  C   UNL A   1      42.697  21.361  27.806  1.00  0.00     0.020 A 
ATOM     81  C   UNL A   1      42.457  20.936  26.498  1.00  0.00     0.054 A 
BRANCH  81  82
ATOM     82  S   UNL A   1      41.933  19.230  26.169  1.00  0.00     0.124 S 
ATOM     83  O   UNL A   1      40.504  19.391  25.924  1.00  0.00    -0.237 OA
ATOM     84  O   UNL A   1      42.740  18.870  25.006  1.00  0.00    -0.237 OA
ATOM     85  O   UNL A   1      42.284  18.523  27.401  1.00  0.00    -0.744 OA
ENDBRANCH  81  82
ENDBRANCH  53  76
BRANCH  65  86
ATOM     86  C   UNL A   1      49.486  26.766  26.425  1.00  0.00    -0.014 A 
ATOM     87  C   UNL A   1      50.302  26.131  27.377  1.00  0.00     0.010 A 
ATOM     88  C   UNL A   1      49.948  26.901  25.103  1.00  0.00     0.010 A 
ATOM     89  C   UNL A   1      51.573  25.673  27.021  1.00  0.00     0.020 A 
ATOM     90  C   UNL A   1      51.207  26.419  24.737  1.00  0.00     0.020 A 
ATOM     91  C   UNL A   1      52.019  25.823  25.704  1.00  0.00     0.054 A 
BRANCH  91  92
ATOM     92  S   UNL A   1      53.660  25.196  25.258  1.00  0.00     0.124 S 
ATOM     93  O   UNL A   1      53.842  25.749  23.919  1.00  0.00    -0.237 OA
ATOM     94  O   UNL A   1      54.516  25.766  26.295  1.00  0.00    -0.237 OA
ATOM     95  O   UNL A   1      53.504  23.744  25.318  1.00  0.00    -0.744 OA
ENDBRANCH  91  92
ENDBRANCH  65  86
ENDBRANCH  39  40
ENDBRANCH  31  34
ENDBRANCH  29  30
ENDBRANCH  28  29
ENDBRANCH  27  28
ENDBRANCH   1  27
TORSDOF 21
ENDMDL
MODEL 2
REMARK VINA RESULT:     -10.6      4.273     10.108
REMARK SMILES CCN(CC(C)(C)O)C(=O)Nc1ccc(C(=O)NCCCCNC(=O)c2ccc(-c3c4nc(c(-c5ccc(S(=O)(=O)[O-])cc5)c5ccc([nH]5)c(-c5ccc(S(=O)(=O)[O-])cc5)c5nc(c(-c6ccc(S(=O)(=O)[O-])cc6)c6ccc3[nH]6)C=C5)C=C4)cc2)c(O)c1
REMARK SMILES IDX 19 1 18 2 16 3 17 4 15 6 12 7 13 8 88 9 14 10 86 11 11 12
REMARK SMILES IDX 9 13 10 14 3 16 2 17 1 18 4 19 5 20 6 21 7 22 8 23 87 25
REMARK SMILES IDX 20 27 21 28 22 29 23 30 24 31 25 33 26 34 27 35 85 36 28 37
REMARK SMILES IDX 84 38 29 39 30 40 31 41 78 42 32 43 83 44 77 45 79 46 33 47
REMARK SMILES IDX 82 48 76 49 75 50 34 52 64 53 45 54 63 55 46 56 49 57 62 58
REMARK SMILES IDX 80 59 47 60 48 61 61 63 81 64 50 65 35 66 36 67 44 68 37 69
REMARK SMILES IDX 43 70 38 71 39 72 40 73 41 74 42 75 65 76 66 77 74 78 67 79
REMARK SMILES IDX 73 80 68 81 69 82 70 83 71 84 72 85 51 86 52 87 60 88 53 89
REMARK SMILES IDX 59 90 54 91 55 92 56 93 57 94 58 95
REMARK H PARENT 18 5 11 15 8 24 87 26 23 32 79 51 49 62
REMARK Flexibility Score: inf
ROOT
ATOM      1  C   UNL A   1      34.217  23.358  24.971  1.00  0.00     0.116 C 
ENDROOT
BRANCH   1   2
ATOM      2  N   UNL A   1      33.215  22.397  25.397  1.00  0.00    -0.352 N 
ATOM      3  C   UNL A   1      31.847  22.466  25.282  1.00  0.00     0.255 C 
ATOM      4  O   UNL A   1      31.164  21.496  25.602  1.00  0.00    -0.269 OA
ATOM      5  H   UNL A   1      33.564  21.584  25.829  1.00  0.00     0.163 HD
BRANCH   3   6
ATOM      6  C   UNL A   1      31.183  23.737  24.917  1.00  0.00     0.081 A 
ATOM      7  C   UNL A   1      29.342  25.705  24.095  1.00  0.00     0.046 A 
ATOM      8  C   UNL A   1      29.979  24.892  23.176  1.00  0.00     0.027 A 
ATOM      9  C   UNL A   1      29.847  25.695  25.401  1.00  0.00     0.073 A 
ATOM     10  C   UNL A   1      30.847  23.876  23.575  1.00  0.00     0.020 A 
ATOM     11  C   UNL A   1      30.800  24.751  25.792  1.00  0.00     0.130 A 
BRANCH   7  12
ATOM     12  N   UNL A   1      28.295  26.592  23.815  1.00  0.00    -0.308 N 
ATOM     13  C   UNL A   1      28.054  27.858  23.410  1.00  0.00     0.321 C 
ATOM     14  O   UNL A   1      26.859  28.178  23.509  1.00  0.00    -0.248 OA
ATOM     15  H   UNL A   1      27.436  26.135  23.967  1.00  0.00     0.171 HD
BRANCH  13  16
ATOM     16  N   UNL A   1      28.945  28.719  22.826  1.00  0.00    -0.322 N 
BRANCH  16  17
ATOM     17  C   UNL A   1      28.622  30.154  22.913  1.00  0.00     0.118 C 
ATOM     18  C   UNL A   1      28.204  30.749  21.572  1.00  0.00     0.027 C 
ENDBRANCH  16  17
BRANCH  16  19
ATOM     19  C   UNL A   1      30.201  28.443  22.120  1.00  0.00     0.155 C 
BRANCH  19  20
ATOM     20  C   UNL A   1      31.480  28.623  23.016  1.00  0.00     0.077 C 
ATOM     21  C   UNL A   1      31.191  29.217  24.412  1.00  0.00     0.043 C 
ATOM     22  C   UNL A   1      32.275  27.305  23.091  1.00  0.00     0.043 C 
BRANCH  20  23
ATOM     23  O   UNL A   1      32.356  29.572  22.372  1.00  0.00    -0.389 OA
ATOM     24  H   UNL A   1      32.673  30.215  23.025  1.00  0.00     0.211 HD
ENDBRANCH  20  23
ENDBRANCH  19  20
ENDBRANCH  16  19
ENDBRANCH  13  16
ENDBRANCH   7  12
BRANCH  11  25
ATOM     25  O   UNL A   1      31.322  24.904  27.044  1.00  0.00    -0.507 OA
ATOM     26  H   UNL A   1      31.107  24.291  27.720  1.00  0.00     0.293 HD
ENDBRANCH  11  25
ENDBRANCH   3   6
ENDBRANCH   1   2
BRANCH   1  27
ATOM     27  C   UNL A   1      35.128  22.903  23.840  1.00  0.00     0.023 C 
BRANCH  27  28
ATOM     28  C   UNL A   1      36.566  23.412  23.871  1.00  0.00     0.023 C 
BRANCH  28  29
ATOM     29  C   UNL A   1      37.204  23.603  25.240  1.00  0.00     0.116 C 
BRANCH  29  30
ATOM     30  N   UNL A   1      38.333  22.725  25.502  1.00  0.00    -0.352 N 
ATOM     31  C   UNL A   1      39.475  22.970  26.228  1.00  0.00     0.251 C 
ATOM     32  H   UNL A   1      38.271  21.827  25.103  1.00  0.00     0.163 HD
ATOM     33  O   UNL A   1      40.354  22.117  26.303  1.00  0.00    -0.269 OA
BRANCH  31  34
ATOM     34  C   UNL A   1      39.656  24.289  26.867  1.00  0.00     0.039 A 
ATOM     35  C   UNL A   1      39.148  24.486  28.151  1.00  0.00     0.014 A 
ATOM     36  C   UNL A   1      40.387  25.295  26.230  1.00  0.00     0.014 A 
ATOM     37  C   UNL A   1      39.444  25.667  28.833  1.00  0.00     0.010 A 
ATOM     38  C   UNL A   1      40.764  26.424  26.947  1.00  0.00     0.010 A 
ATOM     39  C   UNL A   1      40.291  26.627  28.253  1.00  0.00    -0.014 A 
BRANCH  39  40
ATOM     40  C   UNL A   1      40.673  27.860  28.987  1.00  0.00     0.031 A 
ATOM     41  C   UNL A   1      42.022  27.947  29.651  1.00  0.00     0.074 A 
ATOM     42  C   UNL A   1      39.791  28.873  29.108  1.00  0.00     0.049 A 
ATOM     43  N   UNL A   1      42.522  28.910  30.379  1.00  0.00    -0.248 NA
ATOM     44  C   UNL A   1      42.911  26.782  29.505  1.00  0.00     0.031 C 
ATOM     45  C   UNL A   1      38.431  28.889  28.561  1.00  0.00     0.029 A 
ATOM     46  N   UNL A   1      39.907  30.089  29.735  1.00  0.00    -0.354 N 
ATOM     47  C   UNL A   1      43.767  28.457  30.798  1.00  0.00     0.074 A 
ATOM     48  C   UNL A   1      43.922  27.112  30.294  1.00  0.00     0.031 C 
ATOM     49  C   UNL A   1      37.855  30.069  28.845  1.00  0.00     0.029 A 
ATOM     50  C   UNL A   1      38.787  30.880  29.621  1.00  0.00     0.049 A 
ATOM     51  H   UNL A   1      40.716  30.370  30.221  1.00  0.00     0.167 HD
ATOM     52  C   UNL A   1      44.712  29.111  31.514  1.00  0.00     0.031 A 
ATOM     53  C   UNL A   1      38.540  32.120  30.086  1.00  0.00     0.031 A 
ATOM     54  C   UNL A   1      44.570  30.461  31.987  1.00  0.00     0.049 A 
ATOM     55  C   UNL A   1      39.619  32.841  30.848  1.00  0.00     0.074 A 
ATOM     56  C   UNL A   1      45.490  31.236  32.670  1.00  0.00     0.029 A 
ATOM     57  N   UNL A   1      43.435  31.240  31.817  1.00  0.00    -0.354 N 
ATOM     58  N   UNL A   1      40.816  32.417  31.181  1.00  0.00    -0.248 NA
ATOM     59  C   UNL A   1      39.322  34.214  31.279  1.00  0.00     0.031 C 
ATOM     60  C   UNL A   1      44.897  32.473  32.945  1.00  0.00     0.029 A 
ATOM     61  C   UNL A   1      43.628  32.485  32.388  1.00  0.00     0.049 A 
ATOM     62  H   UNL A   1      42.614  30.949  31.358  1.00  0.00     0.167 HD
ATOM     63  C   UNL A   1      41.426  33.484  31.832  1.00  0.00     0.074 A 
ATOM     64  C   UNL A   1      40.471  34.575  31.834  1.00  0.00     0.031 C 
ATOM     65  C   UNL A   1      42.667  33.558  32.374  1.00  0.00     0.031 A 
BRANCH  52  66
ATOM     66  C   UNL A   1      45.987  28.367  31.820  1.00  0.00    -0.014 A 
ATOM     67  C   UNL A   1      47.077  28.401  30.931  1.00  0.00     0.010 A 
ATOM     68  C   UNL A   1      46.101  27.637  33.016  1.00  0.00     0.010 A 
ATOM     69  C   UNL A   1      48.240  27.678  31.209  1.00  0.00     0.020 A 
ATOM     70  C   UNL A   1      47.276  26.939  33.313  1.00  0.00     0.020 A 
ATOM     71  C   UNL A   1      48.330  26.947  32.396  1.00  0.00     0.054 A 
BRANCH  71  72
ATOM     72  S   UNL A   1      49.857  26.031  32.740  1.00  0.00     0.124 S 
ATOM     73  O   UNL A   1      50.385  26.751  33.897  1.00  0.00    -0.237 OA
ATOM     74  O   UNL A   1      49.367  24.682  33.013  1.00  0.00    -0.237 OA
ATOM     75  O   UNL A   1      50.631  26.173  31.511  1.00  0.00    -0.744 OA
ENDBRANCH  71  72
ENDBRANCH  52  66
BRANCH  53  76
ATOM     76  C   UNL A   1      37.232  32.775  29.809  1.00  0.00    -0.014 A 
ATOM     77  C   UNL A   1      37.025  33.470  28.604  1.00  0.00     0.010 A 
ATOM     78  C   UNL A   1      36.184  32.700  30.743  1.00  0.00     0.010 A 
ATOM     79  C   UNL A   1      35.801  34.095  28.347  1.00  0.00     0.020 A 
ATOM     80  C   UNL A   1      34.949  33.301  30.478  1.00  0.00     0.020 A 
ATOM     81  C   UNL A   1      34.770  34.006  29.286  1.00  0.00     0.054 A 
BRANCH  81  82
ATOM     82  S   UNL A   1      33.173  34.783  28.911  1.00  0.00     0.124 S 
ATOM     83  O   UNL A   1      32.523  34.789  30.218  1.00  0.00    -0.237 OA
ATOM     84  O   UNL A   1      33.571  36.091  28.395  1.00  0.00    -0.237 OA
ATOM     85  O   UNL A   1      32.583  33.886  27.919  1.00  0.00    -0.744 OA
ENDBRANCH  81  82
ENDBRANCH  53  76
BRANCH  65  86
ATOM     86  C   UNL A   1      43.082  34.875  32.973  1.00  0.00    -0.014 A 
ATOM     87  C   UNL A   1      42.856  35.167  34.329  1.00  0.00     0.010 A 
ATOM     88  C   UNL A   1      43.750  35.816  32.169  1.00  0.00     0.010 A 
ATOM     89  C   UNL A   1      43.256  36.395  34.862  1.00  0.00     0.020 A 
ATOM     90  C   UNL A   1      44.177  37.034  32.705  1.00  0.00     0.020 A 
ATOM     91  C   UNL A   1      43.911  37.322  34.045  1.00  0.00     0.054 A 
BRANCH  91  92
ATOM     92  S   UNL A   1      44.448  38.897  34.765  1.00  0.00     0.124 S 
ATOM     93  O   UNL A   1      45.826  38.992  34.291  1.00  0.00    -0.237 OA
ATOM     94  O   UNL A   1      43.514  39.855  34.177  1.00  0.00    -0.237 OA
ATOM     95  O   UNL A   1      44.295  38.690  36.203  1.00  0.00    -0.744 OA
ENDBRANCH  91  92
ENDBRANCH  65  86
ENDBRANCH  39  40
ENDBRANCH  31  34
ENDBRANCH  29  30
ENDBRANCH  28  29
ENDBRANCH  27  28
ENDBRANCH   1  27
TORSDOF 21
ENDMDL
MODEL 3
REMARK VINA RESULT:     -10.6      2.963      9.406
REMARK SMILES CCN(CC(C)(C)O)C(=O)Nc1ccc(C(=O)NCCCCNC(=O)c2ccc(-c3c4nc(c(-c5ccc(S(=O)(=O)[O-])cc5)c5ccc([nH]5)c(-c5ccc(S(=O)(=O)[O-])cc5)c5nc(c(-c6ccc(S(=O)(=O)[O-])cc6)c6ccc3[nH]6)C=C5)C=C4)cc2)c(O)c1
REMARK SMILES IDX 19 1 18 2 16 3 17 4 15 6 12 7 13 8 88 9 14 10 86 11 11 12
REMARK SMILES IDX 9 13 10 14 3 16 2 17 1 18 4 19 5 20 6 21 7 22 8 23 87 25
REMARK SMILES IDX 20 27 21 28 22 29 23 30 24 31 25 33 26 34 27 35 85 36 28 37
REMARK SMILES IDX 84 38 29 39 30 40 31 41 78 42 32 43 83 44 77 45 79 46 33 47
REMARK SMILES IDX 82 48 76 49 75 50 34 52 64 53 45 54 63 55 46 56 49 57 62 58
REMARK SMILES IDX 80 59 47 60 48 61 61 63 81 64 50 65 35 66 36 67 44 68 37 69
REMARK SMILES IDX 43 70 38 71 39 72 40 73 41 74 42 75 65 76 66 77 74 78 67 79
REMARK SMILES IDX 73 80 68 81 69 82 70 83 71 84 72 85 51 86 52 87 60 88 53 89
REMARK SMILES IDX 59 90 54 91 55 92 56 93 57 94 58 95
REMARK H PARENT 18 5 11 15 8 24 87 26 23 32 79 51 49 62
REMARK Flexibility Score: inf
ROOT
ATOM      1  C   UNL A   1      33.984  23.407  25.130  1.00  0.00     0.116 C 
ENDROOT
BRANCH   1   2
ATOM      2  N   UNL A   1      32.899  22.547  25.566  1.00  0.00    -0.352 N 
ATOM      3  C   UNL A   1      31.546  22.702  25.382  1.00  0.00     0.255 C 
ATOM      4  O   UNL A   1      30.782  21.804  25.728  1.00  0.00    -0.269 OA
ATOM      5  H   UNL A   1      33.170  21.740  26.062  1.00  0.00     0.163 HD
BRANCH   3   6
ATOM      6  C   UNL A   1      30.991  23.991  24.911  1.00  0.00     0.081 A 
ATOM      7  C   UNL A   1      29.324  26.031  23.915  1.00  0.00     0.046 A 
ATOM      8  C   UNL A   1      29.896  25.099  23.071  1.00  0.00     0.027 A 
ATOM      9  C   UNL A   1      29.819  26.085  25.223  1.00  0.00     0.073 A 
ATOM     10  C   UNL A   1      30.674  24.050  23.558  1.00  0.00     0.020 A 
ATOM     11  C   UNL A   1      30.689  25.099  25.699  1.00  0.00     0.130 A 
BRANCH   7  12
ATOM     12  N   UNL A   1      28.355  26.977  23.555  1.00  0.00    -0.308 N 
ATOM     13  C   UNL A   1      28.192  28.299  23.332  1.00  0.00     0.321 C 
ATOM     14  O   UNL A   1      27.001  28.624  23.198  1.00  0.00    -0.248 OA
ATOM     15  H   UNL A   1      27.494  26.520  23.415  1.00  0.00     0.171 HD
BRANCH  13  16
ATOM     16  N   UNL A   1      29.178  29.229  23.137  1.00  0.00    -0.322 N 
BRANCH  16  17
ATOM     17  C   UNL A   1      30.296  28.825  22.266  1.00  0.00     0.118 C 
ATOM     18  C   UNL A   1      31.637  28.811  22.992  1.00  0.00     0.027 C 
ENDBRANCH  16  17
BRANCH  16  19
ATOM     19  C   UNL A   1      29.305  30.595  23.656  1.00  0.00     0.155 C 
BRANCH  19  20
ATOM     20  C   UNL A   1      28.423  31.645  22.888  1.00  0.00     0.077 C 
ATOM     21  C   UNL A   1      28.900  33.105  23.049  1.00  0.00     0.043 C 
ATOM     22  C   UNL A   1      28.265  31.237  21.410  1.00  0.00     0.043 C 
BRANCH  20  23
ATOM     23  O   UNL A   1      27.092  31.616  23.446  1.00  0.00    -0.389 OA
ATOM     24  H   UNL A   1      26.444  31.783  22.745  1.00  0.00     0.211 HD
ENDBRANCH  20  23
ENDBRANCH  19  20
ENDBRANCH  16  19
ENDBRANCH  13  16
ENDBRANCH   7  12
BRANCH  11  25
ATOM     25  O   UNL A   1      31.216  25.308  26.941  1.00  0.00    -0.507 OA
ATOM     26  H   UNL A   1      31.474  26.170  27.201  1.00  0.00     0.293 HD
ENDBRANCH  11  25
ENDBRANCH   3   6
ENDBRANCH   1   2
BRANCH   1  27
ATOM     27  C   UNL A   1      35.052  22.740  24.276  1.00  0.00     0.023 C 
BRANCH  27  28
ATOM     28  C   UNL A   1      36.491  23.199  24.494  1.00  0.00     0.023 C 
BRANCH  28  29
ATOM     29  C   UNL A   1      37.070  23.025  25.892  1.00  0.00     0.116 C 
BRANCH  29  30
ATOM     30  N   UNL A   1      38.170  22.078  25.970  1.00  0.00    -0.352 N 
ATOM     31  C   UNL A   1      39.453  22.273  26.424  1.00  0.00     0.251 C 
ATOM     32  H   UNL A   1      37.968  21.168  25.654  1.00  0.00     0.163 HD
ATOM     33  O   UNL A   1      40.273  21.360  26.370  1.00  0.00    -0.269 OA
BRANCH  31  34
ATOM     34  C   UNL A   1      39.850  23.605  26.922  1.00  0.00     0.039 A 
ATOM     35  C   UNL A   1      40.499  23.694  28.153  1.00  0.00     0.014 A 
ATOM     36  C   UNL A   1      39.646  24.747  26.143  1.00  0.00     0.014 A 
ATOM     37  C   UNL A   1      41.021  24.920  28.568  1.00  0.00     0.010 A 
ATOM     38  C   UNL A   1      40.254  25.942  26.510  1.00  0.00     0.010 A 
ATOM     39  C   UNL A   1      40.941  26.045  27.729  1.00  0.00    -0.014 A 
BRANCH  39  40
ATOM     40  C   UNL A   1      41.548  27.342  28.122  1.00  0.00     0.031 A 
ATOM     41  C   UNL A   1      43.032  27.547  27.976  1.00  0.00     0.074 A 
ATOM     42  C   UNL A   1      40.779  28.310  28.662  1.00  0.00     0.049 A 
ATOM     43  N   UNL A   1      43.759  28.582  28.308  1.00  0.00    -0.248 NA
ATOM     44  C   UNL A   1      43.806  26.427  27.415  1.00  0.00     0.031 C 
ATOM     45  C   UNL A   1      39.337  28.214  28.910  1.00  0.00     0.029 A 
ATOM     46  N   UNL A   1      41.105  29.569  29.103  1.00  0.00    -0.354 N 
ATOM     47  C   UNL A   1      45.071  28.228  28.022  1.00  0.00     0.074 A 
ATOM     48  C   UNL A   1      45.049  26.863  27.547  1.00  0.00     0.031 C 
ATOM     49  C   UNL A   1      38.900  29.376  29.424  1.00  0.00     0.029 A 
ATOM     50  C   UNL A   1      40.030  30.286  29.574  1.00  0.00     0.049 A 
ATOM     51  H   UNL A   1      42.023  29.925  29.084  1.00  0.00     0.167 HD
ATOM     52  C   UNL A   1      46.194  28.978  28.118  1.00  0.00     0.031 A 
ATOM     53  C   UNL A   1      39.962  31.538  30.067  1.00  0.00     0.031 A 
ATOM     54  C   UNL A   1      46.210  30.346  28.560  1.00  0.00     0.049 A 
ATOM     55  C   UNL A   1      41.217  32.366  30.130  1.00  0.00     0.074 A 
ATOM     56  C   UNL A   1      47.284  31.213  28.638  1.00  0.00     0.029 A 
ATOM     57  N   UNL A   1      45.094  31.047  28.992  1.00  0.00    -0.354 N 
ATOM     58  N   UNL A   1      42.442  32.033  29.796  1.00  0.00    -0.248 NA
ATOM     59  C   UNL A   1      41.077  33.746  30.617  1.00  0.00     0.031 C 
ATOM     60  C   UNL A   1      46.823  32.431  29.152  1.00  0.00     0.029 A 
ATOM     61  C   UNL A   1      45.454  32.336  29.344  1.00  0.00     0.049 A 
ATOM     62  H   UNL A   1      44.181  30.682  29.040  1.00  0.00     0.167 HD
ATOM     63  C   UNL A   1      43.212  33.172  30.001  1.00  0.00     0.074 A 
ATOM     64  C   UNL A   1      42.313  34.205  30.476  1.00  0.00     0.031 C 
ATOM     65  C   UNL A   1      44.543  33.350  29.809  1.00  0.00     0.031 A 
BRANCH  52  66
ATOM     66  C   UNL A   1      47.496  28.328  27.729  1.00  0.00    -0.014 A 
ATOM     67  C   UNL A   1      47.988  28.420  26.413  1.00  0.00     0.010 A 
ATOM     68  C   UNL A   1      48.246  27.629  28.691  1.00  0.00     0.010 A 
ATOM     69  C   UNL A   1      49.179  27.783  26.055  1.00  0.00     0.020 A 
ATOM     70  C   UNL A   1      49.454  27.017  28.344  1.00  0.00     0.020 A 
ATOM     71  C   UNL A   1      49.902  27.081  27.023  1.00  0.00     0.054 A 
BRANCH  71  72
ATOM     72  S   UNL A   1      51.453  26.276  26.536  1.00  0.00     0.124 S 
ATOM     73  O   UNL A   1      51.478  26.521  25.095  1.00  0.00    -0.237 OA
ATOM     74  O   UNL A   1      52.451  27.006  27.312  1.00  0.00    -0.237 OA
ATOM     75  O   UNL A   1      51.258  24.883  26.927  1.00  0.00    -0.744 OA
ENDBRANCH  71  72
ENDBRANCH  52  66
BRANCH  53  76
ATOM     76  C   UNL A   1      38.653  32.100  30.501  1.00  0.00    -0.014 A 
ATOM     77  C   UNL A   1      37.792  32.704  29.567  1.00  0.00     0.010 A 
ATOM     78  C   UNL A   1      38.256  32.025  31.848  1.00  0.00     0.010 A 
ATOM     79  C   UNL A   1      36.568  33.241  29.975  1.00  0.00     0.020 A 
ATOM     80  C   UNL A   1      37.020  32.539  32.255  1.00  0.00     0.020 A 
ATOM     81  C   UNL A   1      36.189  33.155  31.318  1.00  0.00     0.054 A 
BRANCH  81  82
ATOM     82  S   UNL A   1      34.574  33.815  31.817  1.00  0.00     0.124 S 
ATOM     83  O   UNL A   1      33.995  32.689  32.541  1.00  0.00    -0.237 OA
ATOM     84  O   UNL A   1      34.943  34.971  32.631  1.00  0.00    -0.237 OA
ATOM     85  O   UNL A   1      33.932  34.142  30.545  1.00  0.00    -0.744 OA
ENDBRANCH  81  82
ENDBRANCH  53  76
BRANCH  65  86
ATOM     86  C   UNL A   1      45.101  34.724  30.067  1.00  0.00    -0.014 A 
ATOM     87  C   UNL A   1      45.135  35.702  29.057  1.00  0.00     0.010 A 
ATOM     88  C   UNL A   1      45.557  35.051  31.357  1.00  0.00     0.010 A 
ATOM     89  C   UNL A   1      45.653  36.972  29.324  1.00  0.00     0.020 A 
ATOM     90  C   UNL A   1      46.049  36.328  31.634  1.00  0.00     0.020 A 
ATOM     91  C   UNL A   1      46.110  37.276  30.610  1.00  0.00     0.054 A 
BRANCH  91  92
ATOM     92  S   UNL A   1      46.750  38.939  30.941  1.00  0.00     0.124 S 
ATOM     93  O   UNL A   1      48.099  38.654  31.423  1.00  0.00    -0.237 OA
ATOM     94  O   UNL A   1      46.674  39.580  29.632  1.00  0.00    -0.237 OA
ATOM     95  O   UNL A   1      45.829  39.471  31.943  1.00  0.00    -0.744 OA
ENDBRANCH  91  92
ENDBRANCH  65  86
ENDBRANCH  39  40
ENDBRANCH  31  34
ENDBRANCH  29  30
ENDBRANCH  28  29
ENDBRANCH  27  28
ENDBRANCH   1  27
TORSDOF 21
ENDMDL
