MODEL 1
REMARK VINA RESULT:     -11.0      0.000      0.000
REMARK SMILES C=Cc1cccc(-c2ccc([C@@H](C)C(=O)NCCCCNC(=O)c3ccc(-c4c5nc(c(-c6ccc(S(=O)(=O)[O-])cc6)c6ccc([nH]6)c(-c6ccc(S(=O)(=O)[O-])cc6)c6nc(c(-c7ccc(S(=O)(=O)[O-])cc7)c7ccc4[nH]7)C=C6)C=C5)cc3)cc2)c1
REMARK SMILES IDX 18 1 17 2 16 3 14 4 15 5 12 7 13 8 11 9 8 10 9 11 85 12
REMARK SMILES IDX 10 13 84 14 7 15 3 16 4 17 86 18 5 19 6 20 2 21 1 22 19 23
REMARK SMILES IDX 20 24 21 25 22 26 23 28 24 29 25 30 83 31 26 32 82 33 27 34
REMARK SMILES IDX 28 35 29 36 76 37 30 38 81 39 75 40 77 41 31 42 80 43 74 44
REMARK SMILES IDX 73 45 32 47 62 48 43 49 61 50 44 51 47 52 60 53 78 54 45 55
REMARK SMILES IDX 46 56 59 58 79 59 48 60 33 61 34 62 42 63 35 64 41 65 36 66
REMARK SMILES IDX 37 67 38 68 39 69 40 70 63 71 64 72 72 73 65 74 71 75 66 76
REMARK SMILES IDX 67 77 68 78 69 79 70 80 49 81 50 82 58 83 51 84 57 85 52 86
REMARK SMILES IDX 53 87 54 88 55 89 56 90
REMARK H PARENT 16 6 21 27 77 46 47 57
REMARK Flexibility Score: inf
ROOT
ATOM      1  C   UNL A   1      35.785  21.609  25.763  1.00  0.00     0.023 C 
ENDROOT
BRANCH   1   2
ATOM      2  C   UNL A   1      35.332  20.546  24.762  1.00  0.00     0.116 C 
BRANCH   2   3
ATOM      3  N   UNL A   1      34.366  19.629  25.331  1.00  0.00    -0.356 N 
ATOM      4  C   UNL A   1      33.011  19.559  25.206  1.00  0.00     0.227 C 
ATOM      5  O   UNL A   1      32.437  18.685  25.866  1.00  0.00    -0.274 OA
ATOM      6  H   UNL A   1      34.757  18.935  25.910  1.00  0.00     0.163 HD
BRANCH   4   7
ATOM      7  C   UNL A   1      32.192  20.485  24.294  1.00  0.00     0.105 C 
ATOM      8  C   UNL A   1      32.272  20.122  22.811  1.00  0.00     0.023 C 
BRANCH   7   9
ATOM      9  C   UNL A   1      32.340  21.958  24.643  1.00  0.00    -0.036 A 
ATOM     10  C   UNL A   1      32.436  24.775  25.154  1.00  0.00    -0.018 A 
ATOM     11  C   UNL A   1      32.178  23.844  26.174  1.00  0.00     0.009 A 
ATOM     12  C   UNL A   1      32.689  24.250  23.877  1.00  0.00     0.009 A 
ATOM     13  C   UNL A   1      32.163  22.463  25.932  1.00  0.00     0.005 A 
ATOM     14  C   UNL A   1      32.622  22.874  23.620  1.00  0.00     0.005 A 
BRANCH  10  15
ATOM     15  C   UNL A   1      32.422  26.238  25.414  1.00  0.00    -0.018 A 
ATOM     16  C   UNL A   1      33.516  28.277  26.266  1.00  0.00    -0.026 A 
ATOM     17  C   UNL A   1      32.403  29.031  25.891  1.00  0.00     0.008 A 
ATOM     18  C   UNL A   1      33.514  26.892  26.023  1.00  0.00     0.016 A 
ATOM     19  C   UNL A   1      31.314  28.417  25.277  1.00  0.00     0.001 A 
ATOM     20  C   UNL A   1      31.323  27.038  25.051  1.00  0.00     0.009 A 
BRANCH  16  21
ATOM     21  C   UNL A   1      34.624  28.950  26.956  1.00  0.00     0.000 C 
ATOM     22  C   UNL A   1      34.515  30.119  27.600  1.00  0.00     0.009 C 
ENDBRANCH  16  21
ENDBRANCH  10  15
ENDBRANCH   7   9
ENDBRANCH   4   7
ENDBRANCH   2   3
ENDBRANCH   1   2
BRANCH   1  23
ATOM     23  C   UNL A   1      35.844  23.034  25.213  1.00  0.00     0.023 C 
BRANCH  23  24
ATOM     24  C   UNL A   1      37.231  23.666  25.189  1.00  0.00     0.116 C 
BRANCH  24  25
ATOM     25  N   UNL A   1      38.313  22.742  25.499  1.00  0.00    -0.352 N 
ATOM     26  C   UNL A   1      39.438  22.985  26.260  1.00  0.00     0.251 C 
ATOM     27  H   UNL A   1      38.232  21.836  25.120  1.00  0.00     0.163 HD
ATOM     28  O   UNL A   1      40.308  22.137  26.382  1.00  0.00    -0.269 OA
BRANCH  26  29
ATOM     29  C   UNL A   1      39.589  24.319  26.881  1.00  0.00     0.039 A 
ATOM     30  C   UNL A   1      39.044  24.541  28.148  1.00  0.00     0.014 A 
ATOM     31  C   UNL A   1      40.348  25.305  26.249  1.00  0.00     0.014 A 
ATOM     32  C   UNL A   1      39.339  25.728  28.824  1.00  0.00     0.010 A 
ATOM     33  C   UNL A   1      40.693  26.454  26.949  1.00  0.00     0.010 A 
ATOM     34  C   UNL A   1      40.204  26.672  28.248  1.00  0.00    -0.014 A 
BRANCH  34  35
ATOM     35  C   UNL A   1      40.630  27.895  28.973  1.00  0.00     0.031 A 
ATOM     36  C   UNL A   1      41.954  27.911  29.684  1.00  0.00     0.074 A 
ATOM     37  C   UNL A   1      39.784  28.938  29.090  1.00  0.00     0.049 A 
ATOM     38  N   UNL A   1      42.433  28.798  30.516  1.00  0.00    -0.248 NA
ATOM     39  C   UNL A   1      42.842  26.759  29.452  1.00  0.00     0.031 C 
ATOM     40  C   UNL A   1      38.457  29.031  28.477  1.00  0.00     0.029 A 
ATOM     41  N   UNL A   1      39.910  30.115  29.786  1.00  0.00    -0.354 N 
ATOM     42  C   UNL A   1      43.656  28.294  30.940  1.00  0.00     0.074 A 
ATOM     43  C   UNL A   1      43.832  27.011  30.294  1.00  0.00     0.031 C 
ATOM     44  C   UNL A   1      37.897  30.205  28.815  1.00  0.00     0.029 A 
ATOM     45  C   UNL A   1      38.804  30.929  29.701  1.00  0.00     0.049 A 
ATOM     46  H   UNL A   1      40.715  30.354  30.299  1.00  0.00     0.167 HD
ATOM     47  C   UNL A   1      44.558  28.852  31.782  1.00  0.00     0.031 A 
ATOM     48  C   UNL A   1      38.542  32.115  30.283  1.00  0.00     0.031 A 
ATOM     49  C   UNL A   1      44.394  30.141  32.397  1.00  0.00     0.049 A 
ATOM     50  C   UNL A   1      39.571  32.731  31.191  1.00  0.00     0.074 A 
ATOM     51  C   UNL A   1      45.271  30.817  33.226  1.00  0.00     0.029 A 
ATOM     52  N   UNL A   1      43.284  30.956  32.236  1.00  0.00    -0.354 N 
ATOM     53  N   UNL A   1      40.737  32.254  31.554  1.00  0.00    -0.248 NA
ATOM     54  C   UNL A   1      39.252  34.047  31.761  1.00  0.00     0.031 C 
ATOM     55  C   UNL A   1      44.680  32.032  33.588  1.00  0.00     0.029 A 
ATOM     56  C   UNL A   1      43.453  32.128  32.953  1.00  0.00     0.049 A 
ATOM     57  H   UNL A   1      42.493  30.734  31.695  1.00  0.00     0.167 HD
ATOM     58  C   UNL A   1      41.304  33.224  32.371  1.00  0.00     0.074 A 
ATOM     59  C   UNL A   1      40.357  34.317  32.447  1.00  0.00     0.031 C 
ATOM     60  C   UNL A   1      42.505  33.212  32.998  1.00  0.00     0.031 A 
BRANCH  47  61
ATOM     61  C   UNL A   1      45.798  28.060  32.090  1.00  0.00    -0.014 A 
ATOM     62  C   UNL A   1      46.961  28.204  31.311  1.00  0.00     0.010 A 
ATOM     63  C   UNL A   1      45.807  27.170  33.179  1.00  0.00     0.010 A 
ATOM     64  C   UNL A   1      48.094  27.436  31.586  1.00  0.00     0.020 A 
ATOM     65  C   UNL A   1      46.948  26.418  33.473  1.00  0.00     0.020 A 
ATOM     66  C   UNL A   1      48.078  26.541  32.660  1.00  0.00     0.054 A 
BRANCH  66  67
ATOM     67  S   UNL A   1      49.562  25.555  32.999  1.00  0.00     0.124 S 
ATOM     68  O   UNL A   1      49.918  25.082  31.664  1.00  0.00    -0.237 OA
ATOM     69  O   UNL A   1      50.476  26.537  33.580  1.00  0.00    -0.237 OA
ATOM     70  O   UNL A   1      49.091  24.526  33.920  1.00  0.00    -0.744 OA
ENDBRANCH  66  67
ENDBRANCH  47  61
BRANCH  48  71
ATOM     71  C   UNL A   1      37.257  32.809  30.007  1.00  0.00    -0.014 A 
ATOM     72  C   UNL A   1      37.128  33.640  28.881  1.00  0.00     0.010 A 
ATOM     73  C   UNL A   1      36.149  32.631  30.857  1.00  0.00     0.010 A 
ATOM     74  C   UNL A   1      35.921  34.293  28.616  1.00  0.00     0.020 A 
ATOM     75  C   UNL A   1      34.933  33.264  30.581  1.00  0.00     0.020 A 
ATOM     76  C   UNL A   1      34.830  34.101  29.468  1.00  0.00     0.054 A 
BRANCH  76  77
ATOM     77  S   UNL A   1      33.255  34.910  29.073  1.00  0.00     0.124 S 
ATOM     78  O   UNL A   1      32.686  33.999  28.086  1.00  0.00    -0.237 OA
ATOM     79  O   UNL A   1      32.580  34.943  30.368  1.00  0.00    -0.237 OA
ATOM     80  O   UNL A   1      33.664  36.217  28.560  1.00  0.00    -0.744 OA
ENDBRANCH  76  77
ENDBRANCH  48  71
BRANCH  60  81
ATOM     81  C   UNL A   1      42.897  34.434  33.780  1.00  0.00    -0.014 A 
ATOM     82  C   UNL A   1      42.623  34.537  35.154  1.00  0.00     0.010 A 
ATOM     83  C   UNL A   1      43.630  35.453  33.144  1.00  0.00     0.010 A 
ATOM     84  C   UNL A   1      43.069  35.646  35.878  1.00  0.00     0.020 A 
ATOM     85  C   UNL A   1      44.093  36.553  33.869  1.00  0.00     0.020 A 
ATOM     86  C   UNL A   1      43.803  36.646  35.232  1.00  0.00     0.054 A 
BRANCH  86  87
ATOM     87  S   UNL A   1      44.440  38.036  36.207  1.00  0.00     0.124 S 
ATOM     88  O   UNL A   1      45.830  37.644  36.423  1.00  0.00    -0.237 OA
ATOM     89  O   UNL A   1      44.240  39.176  35.314  1.00  0.00    -0.237 OA
ATOM     90  O   UNL A   1      43.598  38.035  37.401  1.00  0.00    -0.744 OA
ENDBRANCH  86  87
ENDBRANCH  60  81
ENDBRANCH  34  35
ENDBRANCH  26  29
ENDBRANCH  24  25
ENDBRANCH  23  24
ENDBRANCH   1  23
TORSDOF 17
ENDMDL
MODEL 2
REMARK VINA RESULT:     -10.9      4.421     11.312
REMARK SMILES C=Cc1cccc(-c2ccc([C@@H](C)C(=O)NCCCCNC(=O)c3ccc(-c4c5nc(c(-c6ccc(S(=O)(=O)[O-])cc6)c6ccc([nH]6)c(-c6ccc(S(=O)(=O)[O-])cc6)c6nc(c(-c7ccc(S(=O)(=O)[O-])cc7)c7ccc4[nH]7)C=C6)C=C5)cc3)cc2)c1
REMARK SMILES IDX 18 1 17 2 16 3 14 4 15 5 12 7 13 8 11 9 8 10 9 11 85 12
REMARK SMILES IDX 10 13 84 14 7 15 3 16 4 17 86 18 5 19 6 20 2 21 1 22 19 23
REMARK SMILES IDX 20 24 21 25 22 26 23 28 24 29 25 30 83 31 26 32 82 33 27 34
REMARK SMILES IDX 28 35 29 36 76 37 30 38 81 39 75 40 77 41 31 42 80 43 74 44
REMARK SMILES IDX 73 45 32 47 62 48 43 49 61 50 44 51 47 52 60 53 78 54 45 55
REMARK SMILES IDX 46 56 59 58 79 59 48 60 33 61 34 62 42 63 35 64 41 65 36 66
REMARK SMILES IDX 37 67 38 68 39 69 40 70 63 71 64 72 72 73 65 74 71 75 66 76
REMARK SMILES IDX 67 77 68 78 69 79 70 80 49 81 50 82 58 83 51 84 57 85 52 86
REMARK SMILES IDX 53 87 54 88 55 89 56 90
REMARK H PARENT 16 6 21 27 77 46 47 57
REMARK Flexibility Score: inf
ROOT
ATOM      1  C   UNL A   1      34.035  35.021  28.709  1.00  0.00     0.023 C 
ENDROOT
BRANCH   1   2
ATOM      2  C   UNL A   1      33.024  36.167  28.744  1.00  0.00     0.116 C 
BRANCH   2   3
ATOM      3  N   UNL A   1      33.272  37.088  29.834  1.00  0.00    -0.356 N 
ATOM      4  C   UNL A   1      33.140  36.942  31.182  1.00  0.00     0.227 C 
ATOM      5  O   UNL A   1      33.378  37.939  31.875  1.00  0.00    -0.274 OA
ATOM      6  H   UNL A   1      33.591  37.975  29.551  1.00  0.00     0.163 HD
BRANCH   4   7
ATOM      7  C   UNL A   1      32.735  35.624  31.859  1.00  0.00     0.105 C 
ATOM      8  C   UNL A   1      31.562  35.762  32.831  1.00  0.00     0.023 C 
BRANCH   7   9
ATOM      9  C   UNL A   1      33.921  34.803  32.338  1.00  0.00    -0.036 A 
ATOM     10  C   UNL A   1      36.199  33.202  33.013  1.00  0.00    -0.018 A 
ATOM     11  C   UNL A   1      36.152  34.578  33.289  1.00  0.00     0.009 A 
ATOM     12  C   UNL A   1      35.052  32.640  32.430  1.00  0.00     0.009 A 
ATOM     13  C   UNL A   1      35.026  35.358  32.989  1.00  0.00     0.005 A 
ATOM     14  C   UNL A   1      33.946  33.426  32.079  1.00  0.00     0.005 A 
BRANCH  10  15
ATOM     15  C   UNL A   1      37.408  32.389  33.310  1.00  0.00    -0.018 A 
ATOM     16  C   UNL A   1      39.720  32.208  34.148  1.00  0.00    -0.026 A 
ATOM     17  C   UNL A   1      39.704  30.836  33.893  1.00  0.00     0.008 A 
ATOM     18  C   UNL A   1      38.573  32.968  33.856  1.00  0.00     0.016 A 
ATOM     19  C   UNL A   1      38.565  30.233  33.366  1.00  0.00     0.001 A 
ATOM     20  C   UNL A   1      37.437  31.003  33.071  1.00  0.00     0.009 A 
BRANCH  16  21
ATOM     21  C   UNL A   1      40.955  32.817  34.657  1.00  0.00     0.000 C 
ATOM     22  C   UNL A   1      41.988  32.127  35.158  1.00  0.00     0.009 C 
ENDBRANCH  16  21
ENDBRANCH  10  15
ENDBRANCH   7   9
ENDBRANCH   4   7
ENDBRANCH   2   3
ENDBRANCH   1   2
BRANCH   1  23
ATOM     23  C   UNL A   1      33.473  33.674  28.254  1.00  0.00     0.023 C 
BRANCH  23  24
ATOM     24  C   UNL A   1      34.390  32.477  28.476  1.00  0.00     0.116 C 
BRANCH  24  25
ATOM     25  N   UNL A   1      33.819  31.203  28.062  1.00  0.00    -0.352 N 
ATOM     26  C   UNL A   1      34.461  29.987  27.951  1.00  0.00     0.251 C 
ATOM     27  H   UNL A   1      32.860  31.210  27.835  1.00  0.00     0.163 HD
ATOM     28  O   UNL A   1      33.876  29.005  27.521  1.00  0.00    -0.269 OA
BRANCH  26  29
ATOM     29  C   UNL A   1      35.893  29.915  28.315  1.00  0.00     0.039 A 
ATOM     30  C   UNL A   1      36.241  29.588  29.628  1.00  0.00     0.014 A 
ATOM     31  C   UNL A   1      36.875  30.076  27.336  1.00  0.00     0.014 A 
ATOM     32  C   UNL A   1      37.580  29.333  29.940  1.00  0.00     0.010 A 
ATOM     33  C   UNL A   1      38.194  29.757  27.634  1.00  0.00     0.010 A 
ATOM     34  C   UNL A   1      38.559  29.369  28.934  1.00  0.00    -0.014 A 
BRANCH  34  35
ATOM     35  C   UNL A   1      39.972  29.000  29.196  1.00  0.00     0.031 A 
ATOM     36  C   UNL A   1      40.922  30.038  29.724  1.00  0.00     0.074 A 
ATOM     37  C   UNL A   1      40.423  27.777  28.854  1.00  0.00     0.049 A 
ATOM     38  N   UNL A   1      42.222  29.978  29.849  1.00  0.00    -0.248 NA
ATOM     39  C   UNL A   1      40.334  31.325  30.131  1.00  0.00     0.031 C 
ATOM     40  C   UNL A   1      39.609  26.692  28.301  1.00  0.00     0.029 A 
ATOM     41  N   UNL A   1      41.690  27.248  28.902  1.00  0.00    -0.354 N 
ATOM     42  C   UNL A   1      42.613  31.230  30.309  1.00  0.00     0.074 A 
ATOM     43  C   UNL A   1      41.416  32.036  30.414  1.00  0.00     0.031 C 
ATOM     44  C   UNL A   1      40.394  25.625  28.072  1.00  0.00     0.029 A 
ATOM     45  C   UNL A   1      41.770  25.962  28.421  1.00  0.00     0.049 A 
ATOM     46  H   UNL A   1      42.467  27.743  29.248  1.00  0.00     0.167 HD
ATOM     47  C   UNL A   1      43.855  31.666  30.627  1.00  0.00     0.031 A 
ATOM     48  C   UNL A   1      42.834  25.151  28.262  1.00  0.00     0.031 A 
ATOM     49  C   UNL A   1      45.037  30.853  30.553  1.00  0.00     0.049 A 
ATOM     50  C   UNL A   1      44.200  25.647  28.651  1.00  0.00     0.074 A 
ATOM     51  C   UNL A   1      46.334  31.186  30.900  1.00  0.00     0.029 A 
ATOM     52  N   UNL A   1      45.063  29.537  30.115  1.00  0.00    -0.354 N 
ATOM     53  N   UNL A   1      44.546  26.823  29.115  1.00  0.00    -0.248 NA
ATOM     54  C   UNL A   1      45.318  24.704  28.501  1.00  0.00     0.031 C 
ATOM     55  C   UNL A   1      47.151  30.079  30.647  1.00  0.00     0.029 A 
ATOM     56  C   UNL A   1      46.355  29.045  30.180  1.00  0.00     0.049 A 
ATOM     57  H   UNL A   1      44.281  29.030  29.803  1.00  0.00     0.167 HD
ATOM     58  C   UNL A   1      45.915  26.752  29.342  1.00  0.00     0.074 A 
ATOM     59  C   UNL A   1      46.335  25.418  28.967  1.00  0.00     0.031 C 
ATOM     60  C   UNL A   1      46.749  27.706  29.822  1.00  0.00     0.031 A 
BRANCH  47  61
ATOM     61  C   UNL A   1      43.990  33.094  31.077  1.00  0.00    -0.014 A 
ATOM     62  C   UNL A   1      43.894  33.437  32.438  1.00  0.00     0.010 A 
ATOM     63  C   UNL A   1      44.231  34.106  30.130  1.00  0.00     0.010 A 
ATOM     64  C   UNL A   1      43.986  34.772  32.838  1.00  0.00     0.020 A 
ATOM     65  C   UNL A   1      44.349  35.440  30.529  1.00  0.00     0.020 A 
ATOM     66  C   UNL A   1      44.204  35.767  31.879  1.00  0.00     0.054 A 
BRANCH  66  67
ATOM     67  S   UNL A   1      44.322  37.493  32.423  1.00  0.00     0.124 S 
ATOM     68  O   UNL A   1      43.527  37.476  33.648  1.00  0.00    -0.237 OA
ATOM     69  O   UNL A   1      45.760  37.675  32.611  1.00  0.00    -0.237 OA
ATOM     70  O   UNL A   1      43.742  38.245  31.314  1.00  0.00    -0.744 OA
ENDBRANCH  66  67
ENDBRANCH  47  61
BRANCH  48  71
ATOM     71  C   UNL A   1      42.646  23.776  27.729  1.00  0.00    -0.014 A 
ATOM     72  C   UNL A   1      42.255  22.732  28.584  1.00  0.00     0.010 A 
ATOM     73  C   UNL A   1      42.839  23.505  26.361  1.00  0.00     0.010 A 
ATOM     74  C   UNL A   1      42.075  21.438  28.087  1.00  0.00     0.020 A 
ATOM     75  C   UNL A   1      42.636  22.217  25.857  1.00  0.00     0.020 A 
ATOM     76  C   UNL A   1      42.266  21.188  26.726  1.00  0.00     0.054 A 
BRANCH  76  77
ATOM     77  S   UNL A   1      41.969  19.515  26.090  1.00  0.00     0.124 S 
ATOM     78  O   UNL A   1      42.892  19.452  24.962  1.00  0.00    -0.237 OA
ATOM     79  O   UNL A   1      42.309  18.674  27.235  1.00  0.00    -0.237 OA
ATOM     80  O   UNL A   1      40.550  19.532  25.740  1.00  0.00    -0.744 OA
ENDBRANCH  76  77
ENDBRANCH  48  71
BRANCH  60  81
ATOM     81  C   UNL A   1      48.191  27.336  30.024  1.00  0.00    -0.014 A 
ATOM     82  C   UNL A   1      49.137  27.512  29.001  1.00  0.00     0.010 A 
ATOM     83  C   UNL A   1      48.616  26.891  31.289  1.00  0.00     0.010 A 
ATOM     84  C   UNL A   1      50.487  27.239  29.238  1.00  0.00     0.020 A 
ATOM     85  C   UNL A   1      49.967  26.635  31.534  1.00  0.00     0.020 A 
ATOM     86  C   UNL A   1      50.894  26.805  30.504  1.00  0.00     0.054 A 
BRANCH  86  87
ATOM     87  S   UNL A   1      52.660  26.533  30.813  1.00  0.00     0.124 S 
ATOM     88  O   UNL A   1      53.166  26.268  29.468  1.00  0.00    -0.237 OA
ATOM     89  O   UNL A   1      53.084  27.799  31.406  1.00  0.00    -0.237 OA
ATOM     90  O   UNL A   1      52.680  25.390  31.723  1.00  0.00    -0.744 OA
ENDBRANCH  86  87
ENDBRANCH  60  81
ENDBRANCH  34  35
ENDBRANCH  26  29
ENDBRANCH  24  25
ENDBRANCH  23  24
ENDBRANCH   1  23
TORSDOF 17
ENDMDL
MODEL 3
REMARK VINA RESULT:     -10.4      3.232      6.575
REMARK SMILES C=Cc1cccc(-c2ccc([C@@H](C)C(=O)NCCCCNC(=O)c3ccc(-c4c5nc(c(-c6ccc(S(=O)(=O)[O-])cc6)c6ccc([nH]6)c(-c6ccc(S(=O)(=O)[O-])cc6)c6nc(c(-c7ccc(S(=O)(=O)[O-])cc7)c7ccc4[nH]7)C=C6)C=C5)cc3)cc2)c1
REMARK SMILES IDX 18 1 17 2 16 3 14 4 15 5 12 7 13 8 11 9 8 10 9 11 85 12
REMARK SMILES IDX 10 13 84 14 7 15 3 16 4 17 86 18 5 19 6 20 2 21 1 22 19 23
REMARK SMILES IDX 20 24 21 25 22 26 23 28 24 29 25 30 83 31 26 32 82 33 27 34
REMARK SMILES IDX 28 35 29 36 76 37 30 38 81 39 75 40 77 41 31 42 80 43 74 44
REMARK SMILES IDX 73 45 32 47 62 48 43 49 61 50 44 51 47 52 60 53 78 54 45 55
REMARK SMILES IDX 46 56 59 58 79 59 48 60 33 61 34 62 42 63 35 64 41 65 36 66
REMARK SMILES IDX 37 67 38 68 39 69 40 70 63 71 64 72 72 73 65 74 71 75 66 76
REMARK SMILES IDX 67 77 68 78 69 79 70 80 49 81 50 82 58 83 51 84 57 85 52 86
REMARK SMILES IDX 53 87 54 88 55 89 56 90
REMARK H PARENT 16 6 21 27 77 46 47 57
REMARK Flexibility Score: inf
ROOT
ATOM      1  C   UNL A   1      42.389  23.010  25.836  1.00  0.00     0.023 C 
ENDROOT
BRANCH   1   2
ATOM      2  C   UNL A   1      43.045  23.540  27.111  1.00  0.00     0.116 C 
BRANCH   2   3
ATOM      3  N   UNL A   1      44.372  24.070  26.869  1.00  0.00    -0.356 N 
ATOM      4  C   UNL A   1      44.787  25.294  26.442  1.00  0.00     0.227 C 
ATOM      5  O   UNL A   1      46.003  25.441  26.273  1.00  0.00    -0.274 OA
ATOM      6  H   UNL A   1      45.101  23.432  27.045  1.00  0.00     0.163 HD
BRANCH   4   7
ATOM      7  C   UNL A   1      43.835  26.472  26.181  1.00  0.00     0.105 C 
ATOM      8  C   UNL A   1      43.472  26.660  24.708  1.00  0.00     0.023 C 
BRANCH   7   9
ATOM      9  C   UNL A   1      44.205  27.727  26.955  1.00  0.00    -0.036 A 
ATOM     10  C   UNL A   1      44.700  30.064  28.537  1.00  0.00    -0.018 A 
ATOM     11  C   UNL A   1      45.562  28.956  28.561  1.00  0.00     0.009 A 
ATOM     12  C   UNL A   1      43.605  29.987  27.662  1.00  0.00     0.009 A 
ATOM     13  C   UNL A   1      45.340  27.824  27.764  1.00  0.00     0.005 A 
ATOM     14  C   UNL A   1      43.349  28.835  26.904  1.00  0.00     0.005 A 
BRANCH  10  15
ATOM     15  C   UNL A   1      44.929  31.248  29.406  1.00  0.00    -0.018 A 
ATOM     16  C   UNL A   1      44.214  33.440  30.279  1.00  0.00    -0.026 A 
ATOM     17  C   UNL A   1      45.358  33.495  31.077  1.00  0.00     0.008 A 
ATOM     18  C   UNL A   1      44.012  32.319  29.455  1.00  0.00     0.016 A 
ATOM     19  C   UNL A   1      46.276  32.448  31.060  1.00  0.00     0.001 A 
ATOM     20  C   UNL A   1      46.066  31.345  30.228  1.00  0.00     0.009 A 
BRANCH  16  21
ATOM     21  C   UNL A   1      43.294  34.584  30.286  1.00  0.00     0.000 C 
ATOM     22  C   UNL A   1      42.070  34.574  29.742  1.00  0.00     0.009 C 
ENDBRANCH  16  21
ENDBRANCH  10  15
ENDBRANCH   7   9
ENDBRANCH   4   7
ENDBRANCH   2   3
ENDBRANCH   1   2
BRANCH   1  23
ATOM     23  C   UNL A   1      41.591  21.717  26.007  1.00  0.00     0.023 C 
BRANCH  23  24
ATOM     24  C   UNL A   1      40.325  21.840  26.847  1.00  0.00     0.116 C 
BRANCH  24  25
ATOM     25  N   UNL A   1      39.165  22.323  26.110  1.00  0.00    -0.352 N 
ATOM     26  C   UNL A   1      38.618  23.589  26.137  1.00  0.00     0.251 C 
ATOM     27  H   UNL A   1      38.719  21.669  25.524  1.00  0.00     0.163 HD
ATOM     28  O   UNL A   1      37.594  23.843  25.520  1.00  0.00    -0.269 OA
BRANCH  26  29
ATOM     29  C   UNL A   1      39.271  24.619  26.974  1.00  0.00     0.039 A 
ATOM     30  C   UNL A   1      40.067  25.587  26.356  1.00  0.00     0.014 A 
ATOM     31  C   UNL A   1      39.016  24.674  28.345  1.00  0.00     0.014 A 
ATOM     32  C   UNL A   1      40.535  26.670  27.105  1.00  0.00     0.010 A 
ATOM     33  C   UNL A   1      39.427  25.785  29.071  1.00  0.00     0.010 A 
ATOM     34  C   UNL A   1      40.179  26.801  28.457  1.00  0.00    -0.014 A 
BRANCH  34  35
ATOM     35  C   UNL A   1      40.563  27.988  29.261  1.00  0.00     0.031 A 
ATOM     36  C   UNL A   1      41.836  27.961  30.059  1.00  0.00     0.074 A 
ATOM     37  C   UNL A   1      39.717  29.032  29.366  1.00  0.00     0.049 A 
ATOM     38  N   UNL A   1      42.263  28.806  30.960  1.00  0.00    -0.248 NA
ATOM     39  C   UNL A   1      42.729  26.811  29.838  1.00  0.00     0.031 C 
ATOM     40  C   UNL A   1      38.436  29.165  28.669  1.00  0.00     0.029 A 
ATOM     41  N   UNL A   1      39.803  30.177  30.120  1.00  0.00    -0.354 N 
ATOM     42  C   UNL A   1      43.451  28.272  31.443  1.00  0.00     0.074 A 
ATOM     43  C   UNL A   1      43.662  27.017  30.755  1.00  0.00     0.031 C 
ATOM     44  C   UNL A   1      37.862  30.328  29.020  1.00  0.00     0.029 A 
ATOM     45  C   UNL A   1      38.711  31.004  29.995  1.00  0.00     0.049 A 
ATOM     46  H   UNL A   1      40.574  30.386  30.696  1.00  0.00     0.167 HD
ATOM     47  C   UNL A   1      44.297  28.786  32.368  1.00  0.00     0.031 A 
ATOM     48  C   UNL A   1      38.419  32.166  30.610  1.00  0.00     0.031 A 
ATOM     49  C   UNL A   1      44.101  30.048  33.025  1.00  0.00     0.049 A 
ATOM     50  C   UNL A   1      39.387  32.733  31.611  1.00  0.00     0.074 A 
ATOM     51  C   UNL A   1      44.924  30.679  33.940  1.00  0.00     0.029 A 
ATOM     52  N   UNL A   1      43.009  30.880  32.826  1.00  0.00    -0.354 N 
ATOM     53  N   UNL A   1      40.523  32.230  32.031  1.00  0.00    -0.248 NA
ATOM     54  C   UNL A   1      39.039  34.027  32.215  1.00  0.00     0.031 C 
ATOM     55  C   UNL A   1      44.318  31.883  34.315  1.00  0.00     0.029 A 
ATOM     56  C   UNL A   1      43.137  32.018  33.602  1.00  0.00     0.049 A 
ATOM     57  H   UNL A   1      42.256  30.689  32.223  1.00  0.00     0.167 HD
ATOM     58  C   UNL A   1      41.040  33.159  32.925  1.00  0.00     0.074 A 
ATOM     59  C   UNL A   1      40.097  34.256  32.985  1.00  0.00     0.031 C 
ATOM     60  C   UNL A   1      42.196  33.109  33.631  1.00  0.00     0.031 A 
BRANCH  47  61
ATOM     61  C   UNL A   1      45.508  27.969  32.723  1.00  0.00    -0.014 A 
ATOM     62  C   UNL A   1      45.445  26.974  33.716  1.00  0.00     0.010 A 
ATOM     63  C   UNL A   1      46.722  28.188  32.047  1.00  0.00     0.010 A 
ATOM     64  C   UNL A   1      46.587  26.248  34.061  1.00  0.00     0.020 A 
ATOM     65  C   UNL A   1      47.860  27.445  32.372  1.00  0.00     0.020 A 
ATOM     66  C   UNL A   1      47.790  26.493  33.393  1.00  0.00     0.054 A 
BRANCH  66  67
ATOM     67  S   UNL A   1      49.258  25.536  33.857  1.00  0.00     0.124 S 
ATOM     68  O   UNL A   1      49.659  24.963  32.575  1.00  0.00    -0.237 OA
ATOM     69  O   UNL A   1      50.154  26.557  34.394  1.00  0.00    -0.237 OA
ATOM     70  O   UNL A   1      48.751  24.579  34.836  1.00  0.00    -0.744 OA
ENDBRANCH  66  67
ENDBRANCH  47  61
BRANCH  48  71
ATOM     71  C   UNL A   1      37.159  32.885  30.279  1.00  0.00    -0.014 A 
ATOM     72  C   UNL A   1      37.101  33.731  29.158  1.00  0.00     0.010 A 
ATOM     73  C   UNL A   1      36.007  32.712  31.068  1.00  0.00     0.010 A 
ATOM     74  C   UNL A   1      35.918  34.407  28.841  1.00  0.00     0.020 A 
ATOM     75  C   UNL A   1      34.817  33.368  30.740  1.00  0.00     0.020 A 
ATOM     76  C   UNL A   1      34.783  34.220  29.634  1.00  0.00     0.054 A 
BRANCH  76  77
ATOM     77  S   UNL A   1      33.243  35.059  29.171  1.00  0.00     0.124 S 
ATOM     78  O   UNL A   1      33.732  36.352  28.702  1.00  0.00    -0.237 OA
ATOM     79  O   UNL A   1      32.696  34.178  28.143  1.00  0.00    -0.237 OA
ATOM     80  O   UNL A   1      32.484  35.091  30.420  1.00  0.00    -0.744 OA
ENDBRANCH  76  77
ENDBRANCH  48  71
BRANCH  60  81
ATOM     81  C   UNL A   1      42.541  34.292  34.490  1.00  0.00    -0.014 A 
ATOM     82  C   UNL A   1      41.995  34.442  35.775  1.00  0.00     0.010 A 
ATOM     83  C   UNL A   1      43.497  35.218  34.034  1.00  0.00     0.010 A 
ATOM     84  C   UNL A   1      42.394  35.507  36.589  1.00  0.00     0.020 A 
ATOM     85  C   UNL A   1      43.911  36.272  34.852  1.00  0.00     0.020 A 
ATOM     86  C   UNL A   1      43.351  36.413  36.123  1.00  0.00     0.054 A 
BRANCH  86  87
ATOM     87  S   UNL A   1      43.912  37.740  37.224  1.00  0.00     0.124 S 
ATOM     88  O   UNL A   1      45.202  37.230  37.683  1.00  0.00    -0.237 OA
ATOM     89  O   UNL A   1      43.976  38.896  36.332  1.00  0.00    -0.237 OA
ATOM     90  O   UNL A   1      42.869  37.807  38.245  1.00  0.00    -0.744 OA
ENDBRANCH  86  87
ENDBRANCH  60  81
ENDBRANCH  34  35
ENDBRANCH  26  29
ENDBRANCH  24  25
ENDBRANCH  23  24
ENDBRANCH   1  23
TORSDOF 17
ENDMDL
