MODEL 1
REMARK VINA RESULT:     -12.8      0.000      0.000
REMARK SMILES Cc1ccccc1C(=O)Nc1ccc(OCC(=O)NCCCCNC(=O)c2ccc(-c3c4nc(c(-c5ccc(S(=O)(=O)[O-])cc5)c5ccc([nH]5)c(-c5ccc(S(=O)(=O)[O-])cc5)c5nc(c(-c6ccc(S(=O)(=O)[O-])cc6)c6ccc3[nH]6)C=C5)C=C4)cc2)c(-c2nc3ccccc3s2)c1
REMARK SMILES IDX 21 1 20 2 19 3 17 4 18 5 16 7 15 8 14 9 11 10 12 11 97 12
REMARK SMILES IDX 13 13 87 14 10 15 8 16 9 17 7 19 1 20 2 21 3 22 4 23 6 24
REMARK SMILES IDX 5 25 88 26 89 27 96 28 90 29 95 30 91 31 94 32 92 33 93 34
REMARK SMILES IDX 22 35 23 36 24 37 25 38 26 40 27 41 28 42 86 43 29 44 85 45
REMARK SMILES IDX 30 46 31 47 32 48 79 49 33 50 84 51 78 52 80 53 34 54 83 55
REMARK SMILES IDX 77 56 76 57 35 59 65 60 46 61 64 62 47 63 50 64 63 65 81 66
REMARK SMILES IDX 48 67 49 68 62 70 82 71 51 72 36 73 37 74 45 75 38 76 44 77
REMARK SMILES IDX 39 78 40 79 41 80 42 81 43 82 66 83 67 84 75 85 68 86 74 87
REMARK SMILES IDX 69 88 70 89 71 90 72 91 73 92 52 93 53 94 61 95 54 96 60 97
REMARK SMILES IDX 55 98 56 99 57 100 58 101 59 102
REMARK H PARENT 19 6 10 18 24 39 80 58 50 69
REMARK Flexibility Score: inf
ROOT
ATOM      1  C   UNL A   1      36.309  30.125  27.410  1.00  0.00     0.023 C 
ENDROOT
BRANCH   1   2
ATOM      2  C   UNL A   1      34.848  29.665  27.461  1.00  0.00     0.116 C 
BRANCH   2   3
ATOM      3  N   UNL A   1      34.362  29.374  26.122  1.00  0.00    -0.353 N 
ATOM      4  C   UNL A   1      33.685  28.275  25.674  1.00  0.00     0.257 C 
ATOM      5  O   UNL A   1      33.706  28.072  24.460  1.00  0.00    -0.271 OA
ATOM      6  H   UNL A   1      34.546  30.063  25.444  1.00  0.00     0.163 HD
BRANCH   4   7
ATOM      7  C   UNL A   1      32.877  27.408  26.680  1.00  0.00     0.329 C 
BRANCH   7   8
ATOM      8  O   UNL A   1      31.536  26.968  26.469  1.00  0.00    -0.483 OA
BRANCH   8   9
ATOM      9  C   UNL A   1      31.432  25.673  26.043  1.00  0.00     0.130 A 
ATOM     10  C   UNL A   1      31.388  23.007  25.222  1.00  0.00     0.042 A 
ATOM     11  C   UNL A   1      31.890  23.333  26.483  1.00  0.00     0.030 A 
ATOM     12  C   UNL A   1      30.773  23.993  24.448  1.00  0.00     0.041 A 
ATOM     13  C   UNL A   1      31.952  24.671  26.873  1.00  0.00     0.049 A 
ATOM     14  C   UNL A   1      30.737  25.345  24.862  1.00  0.00     0.055 A 
BRANCH  10  15
ATOM     15  N   UNL A   1      31.587  21.695  24.770  1.00  0.00    -0.322 N 
ATOM     16  C   UNL A   1      32.683  21.110  24.167  1.00  0.00     0.255 C 
ATOM     17  O   UNL A   1      32.545  19.992  23.663  1.00  0.00    -0.269 OA
ATOM     18  H   UNL A   1      30.819  21.092  24.902  1.00  0.00     0.170 HD
BRANCH  16  19
ATOM     19  C   UNL A   1      34.048  21.725  24.168  1.00  0.00     0.043 A 
ATOM     20  C   UNL A   1      33.634  23.453  22.296  1.00  0.00     0.045 C 
ATOM     21  C   UNL A   1      34.495  22.735  23.292  1.00  0.00    -0.038 A 
ATOM     22  C   UNL A   1      35.831  23.175  23.380  1.00  0.00     0.004 A 
ATOM     23  C   UNL A   1      36.667  22.739  24.404  1.00  0.00     0.000 A 
ATOM     24  C   UNL A   1      34.893  21.328  25.222  1.00  0.00     0.014 A 
ATOM     25  C   UNL A   1      36.185  21.844  25.351  1.00  0.00     0.001 A 
ENDBRANCH  16  19
ENDBRANCH  10  15
BRANCH  14  26
ATOM     26  C   UNL A   1      30.039  26.305  23.974  1.00  0.00     0.128 A 
ATOM     27  N   UNL A   1      30.671  27.137  23.162  1.00  0.00    -0.236 NA
ATOM     28  S   UNL A   1      28.322  26.463  23.891  1.00  0.00    -0.114 S 
ATOM     29  C   UNL A   1      29.814  28.150  22.769  1.00  0.00     0.082 A 
ATOM     30  C   UNL A   1      28.497  28.015  23.200  1.00  0.00     0.055 A 
ATOM     31  C   UNL A   1      30.165  29.298  22.035  1.00  0.00     0.030 A 
ATOM     32  C   UNL A   1      27.542  29.026  23.035  1.00  0.00     0.021 A 
ATOM     33  C   UNL A   1      29.220  30.311  21.848  1.00  0.00     0.002 A 
ATOM     34  C   UNL A   1      27.934  30.188  22.370  1.00  0.00     0.002 A 
ENDBRANCH  14  26
ENDBRANCH   8   9
ENDBRANCH   7   8
ENDBRANCH   4   7
ENDBRANCH   2   3
ENDBRANCH   1   2
BRANCH   1  35
ATOM     35  C   UNL A   1      36.615  31.400  28.196  1.00  0.00     0.023 C 
BRANCH  35  36
ATOM     36  C   UNL A   1      37.642  31.256  29.305  1.00  0.00     0.116 C 
BRANCH  36  37
ATOM     37  N   UNL A   1      37.129  30.870  30.608  1.00  0.00    -0.352 N 
ATOM     38  C   UNL A   1      37.208  29.617  31.216  1.00  0.00     0.251 C 
ATOM     39  H   UNL A   1      36.674  31.575  31.122  1.00  0.00     0.163 HD
ATOM     40  O   UNL A   1      36.573  29.312  32.196  1.00  0.00    -0.269 OA
BRANCH  38  41
ATOM     41  C   UNL A   1      38.264  28.700  30.714  1.00  0.00     0.039 A 
ATOM     42  C   UNL A   1      39.449  28.653  31.459  1.00  0.00     0.014 A 
ATOM     43  C   UNL A   1      38.204  28.189  29.422  1.00  0.00     0.014 A 
ATOM     44  C   UNL A   1      40.630  28.304  30.818  1.00  0.00     0.010 A 
ATOM     45  C   UNL A   1      39.386  27.976  28.751  1.00  0.00     0.010 A 
ATOM     46  C   UNL A   1      40.592  28.082  29.442  1.00  0.00    -0.014 A 
BRANCH  46  47
ATOM     47  C   UNL A   1      41.791  27.919  28.644  1.00  0.00     0.031 A 
ATOM     48  C   UNL A   1      42.248  26.543  28.396  1.00  0.00     0.074 A 
ATOM     49  C   UNL A   1      42.488  28.993  28.225  1.00  0.00     0.049 A 
ATOM     50  N   UNL A   1      43.483  26.187  28.366  1.00  0.00    -0.248 NA
ATOM     51  C   UNL A   1      41.312  25.429  28.247  1.00  0.00     0.031 C 
ATOM     52  C   UNL A   1      43.660  29.013  27.358  1.00  0.00     0.029 A 
ATOM     53  N   UNL A   1      42.394  30.299  28.675  1.00  0.00    -0.354 N 
ATOM     54  C   UNL A   1      43.509  24.887  27.919  1.00  0.00     0.074 A 
ATOM     55  C   UNL A   1      42.143  24.424  27.963  1.00  0.00     0.031 C 
ATOM     56  C   UNL A   1      44.314  30.175  27.547  1.00  0.00     0.029 A 
ATOM     57  C   UNL A   1      43.652  30.890  28.631  1.00  0.00     0.049 A 
ATOM     58  H   UNL A   1      41.568  30.739  28.978  1.00  0.00     0.167 HD
ATOM     59  C   UNL A   1      44.650  24.382  27.381  1.00  0.00     0.031 A 
ATOM     60  C   UNL A   1      44.275  31.288  29.780  1.00  0.00     0.031 A 
ATOM     61  C   UNL A   1      45.718  25.373  27.398  1.00  0.00     0.049 A 
ATOM     62  C   UNL A   1      45.514  30.471  30.092  1.00  0.00     0.074 A 
ATOM     63  C   UNL A   1      46.150  26.283  26.445  1.00  0.00     0.029 A 
ATOM     64  N   UNL A   1      46.228  25.806  28.617  1.00  0.00    -0.354 N 
ATOM     65  N   UNL A   1      45.753  29.285  29.599  1.00  0.00    -0.248 NA
ATOM     66  C   UNL A   1      46.597  30.942  30.949  1.00  0.00     0.031 C 
ATOM     67  C   UNL A   1      46.849  27.320  27.117  1.00  0.00     0.029 A 
ATOM     68  C   UNL A   1      46.876  27.018  28.468  1.00  0.00     0.049 A 
ATOM     69  H   UNL A   1      46.139  25.317  29.466  1.00  0.00     0.167 HD
ATOM     70  C   UNL A   1      46.989  28.850  30.010  1.00  0.00     0.074 A 
ATOM     71  C   UNL A   1      47.476  29.927  30.857  1.00  0.00     0.031 C 
ATOM     72  C   UNL A   1      47.523  27.656  29.609  1.00  0.00     0.031 A 
BRANCH  59  73
ATOM     73  C   UNL A   1      44.624  23.143  26.527  1.00  0.00    -0.014 A 
ATOM     74  C   UNL A   1      43.534  22.259  26.625  1.00  0.00     0.010 A 
ATOM     75  C   UNL A   1      45.675  22.768  25.666  1.00  0.00     0.010 A 
ATOM     76  C   UNL A   1      43.527  21.022  25.968  1.00  0.00     0.020 A 
ATOM     77  C   UNL A   1      45.697  21.516  25.031  1.00  0.00     0.020 A 
ATOM     78  C   UNL A   1      44.620  20.648  25.190  1.00  0.00     0.054 A 
BRANCH  78  79
ATOM     79  S   UNL A   1      44.606  19.019  24.395  1.00  0.00     0.124 S 
ATOM     80  O   UNL A   1      43.432  18.386  24.990  1.00  0.00    -0.237 OA
ATOM     81  O   UNL A   1      44.487  19.365  22.982  1.00  0.00    -0.237 OA
ATOM     82  O   UNL A   1      45.886  18.431  24.787  1.00  0.00    -0.744 OA
ENDBRANCH  78  79
ENDBRANCH  59  73
BRANCH  60  83
ATOM     83  C   UNL A   1      43.385  31.982  30.757  1.00  0.00    -0.014 A 
ATOM     84  C   UNL A   1      42.958  33.281  30.416  1.00  0.00     0.010 A 
ATOM     85  C   UNL A   1      42.659  31.281  31.738  1.00  0.00     0.010 A 
ATOM     86  C   UNL A   1      41.774  33.813  30.937  1.00  0.00     0.020 A 
ATOM     87  C   UNL A   1      41.456  31.805  32.253  1.00  0.00     0.020 A 
ATOM     88  C   UNL A   1      41.002  33.054  31.817  1.00  0.00     0.054 A 
BRANCH  88  89
ATOM     89  S   UNL A   1      39.313  33.624  32.196  1.00  0.00     0.124 S 
ATOM     90  O   UNL A   1      39.543  34.623  33.230  1.00  0.00    -0.237 OA
ATOM     91  O   UNL A   1      38.855  34.145  30.908  1.00  0.00    -0.237 OA
ATOM     92  O   UNL A   1      38.626  32.405  32.613  1.00  0.00    -0.744 OA
ENDBRANCH  88  89
ENDBRANCH  60  83
BRANCH  72  93
ATOM     93  C   UNL A   1      48.763  26.983  30.163  1.00  0.00    -0.014 A 
ATOM     94  C   UNL A   1      50.072  27.250  29.742  1.00  0.00     0.010 A 
ATOM     95  C   UNL A   1      48.624  26.113  31.278  1.00  0.00     0.010 A 
ATOM     96  C   UNL A   1      51.177  26.648  30.363  1.00  0.00     0.020 A 
ATOM     97  C   UNL A   1      49.716  25.554  31.941  1.00  0.00     0.020 A 
ATOM     98  C   UNL A   1      50.993  25.808  31.462  1.00  0.00     0.054 A 
BRANCH  98  99
ATOM     99  S   UNL A   1      52.431  25.108  32.305  1.00  0.00     0.124 S 
ATOM    100  O   UNL A   1      52.415  25.831  33.574  1.00  0.00    -0.237 OA
ATOM    101  O   UNL A   1      52.100  23.688  32.388  1.00  0.00    -0.237 OA
ATOM    102  O   UNL A   1      53.544  25.430  31.414  1.00  0.00    -0.744 OA
ENDBRANCH  98  99
ENDBRANCH  72  93
ENDBRANCH  46  47
ENDBRANCH  38  41
ENDBRANCH  36  37
ENDBRANCH  35  36
ENDBRANCH   1  35
TORSDOF 19
ENDMDL
MODEL 2
REMARK VINA RESULT:     -12.8      1.575      2.069
REMARK SMILES Cc1ccccc1C(=O)Nc1ccc(OCC(=O)NCCCCNC(=O)c2ccc(-c3c4nc(c(-c5ccc(S(=O)(=O)[O-])cc5)c5ccc([nH]5)c(-c5ccc(S(=O)(=O)[O-])cc5)c5nc(c(-c6ccc(S(=O)(=O)[O-])cc6)c6ccc3[nH]6)C=C5)C=C4)cc2)c(-c2nc3ccccc3s2)c1
REMARK SMILES IDX 21 1 20 2 19 3 17 4 18 5 16 7 15 8 14 9 11 10 12 11 97 12
REMARK SMILES IDX 13 13 87 14 10 15 8 16 9 17 7 19 1 20 2 21 3 22 4 23 6 24
REMARK SMILES IDX 5 25 88 26 89 27 96 28 90 29 95 30 91 31 94 32 92 33 93 34
REMARK SMILES IDX 22 35 23 36 24 37 25 38 26 40 27 41 28 42 86 43 29 44 85 45
REMARK SMILES IDX 30 46 31 47 32 48 79 49 33 50 84 51 78 52 80 53 34 54 83 55
REMARK SMILES IDX 77 56 76 57 35 59 65 60 46 61 64 62 47 63 50 64 63 65 81 66
REMARK SMILES IDX 48 67 49 68 62 70 82 71 51 72 36 73 37 74 45 75 38 76 44 77
REMARK SMILES IDX 39 78 40 79 41 80 42 81 43 82 66 83 67 84 75 85 68 86 74 87
REMARK SMILES IDX 69 88 70 89 71 90 72 91 73 92 52 93 53 94 61 95 54 96 60 97
REMARK SMILES IDX 55 98 56 99 57 100 58 101 59 102
REMARK H PARENT 19 6 10 18 24 39 80 58 50 69
REMARK Flexibility Score: inf
ROOT
ATOM      1  C   UNL A   1      36.148  29.885  27.822  1.00  0.00     0.023 C 
ENDROOT
BRANCH   1   2
ATOM      2  C   UNL A   1      34.949  29.180  27.179  1.00  0.00     0.116 C 
BRANCH   2   3
ATOM      3  N   UNL A   1      33.841  30.109  27.020  1.00  0.00    -0.353 N 
ATOM      4  C   UNL A   1      32.510  29.841  26.872  1.00  0.00     0.257 C 
ATOM      5  O   UNL A   1      31.818  30.737  26.386  1.00  0.00    -0.271 OA
ATOM      6  H   UNL A   1      34.084  31.062  27.018  1.00  0.00     0.163 HD
BRANCH   4   7
ATOM      7  C   UNL A   1      31.937  28.491  27.385  1.00  0.00     0.329 C 
BRANCH   7   8
ATOM      8  O   UNL A   1      31.256  27.541  26.566  1.00  0.00    -0.483 OA
BRANCH   8   9
ATOM      9  C   UNL A   1      32.082  26.772  25.795  1.00  0.00     0.130 A 
ATOM     10  C   UNL A   1      33.902  25.257  24.321  1.00  0.00     0.042 A 
ATOM     11  C   UNL A   1      33.919  25.192  25.714  1.00  0.00     0.030 A 
ATOM     12  C   UNL A   1      32.881  25.956  23.675  1.00  0.00     0.041 A 
ATOM     13  C   UNL A   1      33.037  25.985  26.450  1.00  0.00     0.049 A 
ATOM     14  C   UNL A   1      31.914  26.692  24.398  1.00  0.00     0.055 A 
BRANCH  10  15
ATOM     15  N   UNL A   1      34.968  24.655  23.635  1.00  0.00    -0.322 N 
ATOM     16  C   UNL A   1      35.315  23.325  23.508  1.00  0.00     0.255 C 
ATOM     17  O   UNL A   1      36.420  23.053  23.030  1.00  0.00    -0.269 OA
ATOM     18  H   UNL A   1      35.566  25.284  23.168  1.00  0.00     0.170 HD
BRANCH  16  19
ATOM     19  C   UNL A   1      34.389  22.197  23.842  1.00  0.00     0.043 A 
ATOM     20  C   UNL A   1      32.653  22.634  21.983  1.00  0.00     0.045 C 
ATOM     21  C   UNL A   1      33.166  21.920  23.198  1.00  0.00    -0.038 A 
ATOM     22  C   UNL A   1      32.374  20.851  23.664  1.00  0.00     0.004 A 
ATOM     23  C   UNL A   1      32.843  19.981  24.644  1.00  0.00     0.000 A 
ATOM     24  C   UNL A   1      34.865  21.283  24.801  1.00  0.00     0.014 A 
ATOM     25  C   UNL A   1      34.107  20.173  25.186  1.00  0.00     0.001 A 
ENDBRANCH  16  19
ENDBRANCH  10  15
BRANCH  14  26
ATOM     26  C   UNL A   1      30.860  27.378  23.613  1.00  0.00     0.128 A 
ATOM     27  N   UNL A   1      31.113  28.335  22.734  1.00  0.00    -0.236 NA
ATOM     28  S   UNL A   1      29.176  27.021  23.749  1.00  0.00    -0.114 S 
ATOM     29  C   UNL A   1      29.953  29.038  22.460  1.00  0.00     0.082 A 
ATOM     30  C   UNL A   1      28.799  28.534  23.054  1.00  0.00     0.055 A 
ATOM     31  C   UNL A   1      29.857  30.216  21.697  1.00  0.00     0.030 A 
ATOM     32  C   UNL A   1      27.575  29.215  23.018  1.00  0.00     0.021 A 
ATOM     33  C   UNL A   1      28.638  30.901  21.639  1.00  0.00     0.002 A 
ATOM     34  C   UNL A   1      27.521  30.421  22.318  1.00  0.00     0.002 A 
ENDBRANCH  14  26
ENDBRANCH   8   9
ENDBRANCH   7   8
ENDBRANCH   4   7
ENDBRANCH   2   3
ENDBRANCH   1   2
BRANCH   1  35
ATOM     35  C   UNL A   1      36.037  30.105  29.331  1.00  0.00     0.023 C 
BRANCH  35  36
ATOM     36  C   UNL A   1      37.354  30.147  30.086  1.00  0.00     0.116 C 
BRANCH  36  37
ATOM     37  N   UNL A   1      37.288  29.863  31.508  1.00  0.00    -0.352 N 
ATOM     38  C   UNL A   1      37.790  28.745  32.176  1.00  0.00     0.251 C 
ATOM     39  H   UNL A   1      36.838  30.537  32.066  1.00  0.00     0.163 HD
ATOM     40  O   UNL A   1      37.510  28.471  33.317  1.00  0.00    -0.269 OA
BRANCH  38  41
ATOM     41  C   UNL A   1      38.855  27.978  31.480  1.00  0.00     0.039 A 
ATOM     42  C   UNL A   1      40.172  28.251  31.871  1.00  0.00     0.014 A 
ATOM     43  C   UNL A   1      38.581  27.294  30.300  1.00  0.00     0.014 A 
ATOM     44  C   UNL A   1      41.199  28.040  30.961  1.00  0.00     0.010 A 
ATOM     45  C   UNL A   1      39.572  27.212  29.350  1.00  0.00     0.010 A 
ATOM     46  C   UNL A   1      40.863  27.630  29.671  1.00  0.00    -0.014 A 
BRANCH  46  47
ATOM     47  C   UNL A   1      41.828  27.583  28.591  1.00  0.00     0.031 A 
ATOM     48  C   UNL A   1      42.466  26.286  28.320  1.00  0.00     0.074 A 
ATOM     49  C   UNL A   1      42.170  28.704  27.927  1.00  0.00     0.049 A 
ATOM     50  N   UNL A   1      43.698  26.146  27.980  1.00  0.00    -0.248 NA
ATOM     51  C   UNL A   1      41.760  25.019  28.506  1.00  0.00     0.031 C 
ATOM     52  C   UNL A   1      43.056  28.824  26.775  1.00  0.00     0.029 A 
ATOM     53  N   UNL A   1      41.940  30.018  28.297  1.00  0.00    -0.354 N 
ATOM     54  C   UNL A   1      43.864  24.826  27.631  1.00  0.00     0.074 A 
ATOM     55  C   UNL A   1      42.672  24.145  28.074  1.00  0.00     0.031 C 
ATOM     56  C   UNL A   1      43.495  30.094  26.701  1.00  0.00     0.029 A 
ATOM     57  C   UNL A   1      43.005  30.806  27.874  1.00  0.00     0.049 A 
ATOM     58  H   UNL A   1      41.148  30.343  28.783  1.00  0.00     0.167 HD
ATOM     59  C   UNL A   1      44.907  24.464  26.838  1.00  0.00     0.031 A 
ATOM     60  C   UNL A   1      43.808  31.436  28.781  1.00  0.00     0.031 A 
ATOM     61  C   UNL A   1      45.728  25.619  26.498  1.00  0.00     0.049 A 
ATOM     62  C   UNL A   1      45.221  30.886  28.799  1.00  0.00     0.074 A 
ATOM     63  C   UNL A   1      45.717  26.472  25.405  1.00  0.00     0.029 A 
ATOM     64  N   UNL A   1      46.436  26.271  27.501  1.00  0.00    -0.354 N 
ATOM     65  N   UNL A   1      45.555  29.708  28.340  1.00  0.00    -0.248 NA
ATOM     66  C   UNL A   1      46.373  31.632  29.296  1.00  0.00     0.031 C 
ATOM     67  C   UNL A   1      46.347  27.684  25.791  1.00  0.00     0.029 A 
ATOM     68  C   UNL A   1      46.775  27.551  27.100  1.00  0.00     0.049 A 
ATOM     69  H   UNL A   1      46.664  25.877  28.373  1.00  0.00     0.167 HD
ATOM     70  C   UNL A   1      46.915  29.542  28.428  1.00  0.00     0.074 A 
ATOM     71  C   UNL A   1      47.380  30.778  29.036  1.00  0.00     0.031 C 
ATOM     72  C   UNL A   1      47.553  28.419  27.977  1.00  0.00     0.031 A 
BRANCH  59  73
ATOM     73  C   UNL A   1      44.908  23.149  26.109  1.00  0.00    -0.014 A 
ATOM     74  C   UNL A   1      43.768  22.326  26.164  1.00  0.00     0.010 A 
ATOM     75  C   UNL A   1      46.025  22.644  25.413  1.00  0.00     0.010 A 
ATOM     76  C   UNL A   1      43.766  21.031  25.631  1.00  0.00     0.020 A 
ATOM     77  C   UNL A   1      46.049  21.335  24.906  1.00  0.00     0.020 A 
ATOM     78  C   UNL A   1      44.916  20.534  25.022  1.00  0.00     0.054 A 
BRANCH  78  79
ATOM     79  S   UNL A   1      44.901  18.836  24.390  1.00  0.00     0.124 S 
ATOM     80  O   UNL A   1      43.634  18.319  24.898  1.00  0.00    -0.237 OA
ATOM     81  O   UNL A   1      44.963  19.043  22.945  1.00  0.00    -0.237 OA
ATOM     82  O   UNL A   1      46.093  18.234  24.984  1.00  0.00    -0.744 OA
ENDBRANCH  78  79
ENDBRANCH  59  73
BRANCH  60  83
ATOM     83  C   UNL A   1      43.078  32.077  29.914  1.00  0.00    -0.014 A 
ATOM     84  C   UNL A   1      42.348  33.246  29.620  1.00  0.00     0.010 A 
ATOM     85  C   UNL A   1      42.762  31.376  31.093  1.00  0.00     0.010 A 
ATOM     86  C   UNL A   1      41.254  33.631  30.402  1.00  0.00     0.020 A 
ATOM     87  C   UNL A   1      41.650  31.750  31.875  1.00  0.00     0.020 A 
ATOM     88  C   UNL A   1      40.879  32.855  31.499  1.00  0.00     0.054 A 
BRANCH  88  89
ATOM     89  S   UNL A   1      39.263  33.180  32.275  1.00  0.00     0.124 S 
ATOM     90  O   UNL A   1      39.153  32.095  33.241  1.00  0.00    -0.237 OA
ATOM     91  O   UNL A   1      39.446  34.515  32.846  1.00  0.00    -0.237 OA
ATOM     92  O   UNL A   1      38.331  33.146  31.152  1.00  0.00    -0.744 OA
ENDBRANCH  88  89
ENDBRANCH  60  83
BRANCH  72  93
ATOM     93  C   UNL A   1      49.000  28.037  28.218  1.00  0.00    -0.014 A 
ATOM     94  C   UNL A   1      49.478  27.411  29.377  1.00  0.00     0.010 A 
ATOM     95  C   UNL A   1      49.931  28.196  27.156  1.00  0.00     0.010 A 
ATOM     96  C   UNL A   1      50.818  27.010  29.491  1.00  0.00     0.020 A 
ATOM     97  C   UNL A   1      51.251  27.750  27.236  1.00  0.00     0.020 A 
ATOM     98  C   UNL A   1      51.695  27.177  28.418  1.00  0.00     0.054 A 
BRANCH  98  99
ATOM     99  S   UNL A   1      53.395  26.577  28.550  1.00  0.00     0.124 S 
ATOM    100  O   UNL A   1      53.438  25.565  27.498  1.00  0.00    -0.237 OA
ATOM    101  O   UNL A   1      54.184  27.780  28.294  1.00  0.00    -0.237 OA
ATOM    102  O   UNL A   1      53.477  26.068  29.916  1.00  0.00    -0.744 OA
ENDBRANCH  98  99
ENDBRANCH  72  93
ENDBRANCH  46  47
ENDBRANCH  38  41
ENDBRANCH  36  37
ENDBRANCH  35  36
ENDBRANCH   1  35
TORSDOF 19
ENDMDL
MODEL 3
REMARK VINA RESULT:     -10.9      6.553     12.414
REMARK SMILES Cc1ccccc1C(=O)Nc1ccc(OCC(=O)NCCCCNC(=O)c2ccc(-c3c4nc(c(-c5ccc(S(=O)(=O)[O-])cc5)c5ccc([nH]5)c(-c5ccc(S(=O)(=O)[O-])cc5)c5nc(c(-c6ccc(S(=O)(=O)[O-])cc6)c6ccc3[nH]6)C=C5)C=C4)cc2)c(-c2nc3ccccc3s2)c1
REMARK SMILES IDX 21 1 20 2 19 3 17 4 18 5 16 7 15 8 14 9 11 10 12 11 97 12
REMARK SMILES IDX 13 13 87 14 10 15 8 16 9 17 7 19 1 20 2 21 3 22 4 23 6 24
REMARK SMILES IDX 5 25 88 26 89 27 96 28 90 29 95 30 91 31 94 32 92 33 93 34
REMARK SMILES IDX 22 35 23 36 24 37 25 38 26 40 27 41 28 42 86 43 29 44 85 45
REMARK SMILES IDX 30 46 31 47 32 48 79 49 33 50 84 51 78 52 80 53 34 54 83 55
REMARK SMILES IDX 77 56 76 57 35 59 65 60 46 61 64 62 47 63 50 64 63 65 81 66
REMARK SMILES IDX 48 67 49 68 62 70 82 71 51 72 36 73 37 74 45 75 38 76 44 77
REMARK SMILES IDX 39 78 40 79 41 80 42 81 43 82 66 83 67 84 75 85 68 86 74 87
REMARK SMILES IDX 69 88 70 89 71 90 72 91 73 92 52 93 53 94 61 95 54 96 60 97
REMARK SMILES IDX 55 98 56 99 57 100 58 101 59 102
REMARK H PARENT 19 6 10 18 24 39 80 58 50 69
REMARK Flexibility Score: inf
ROOT
ATOM      1  C   UNL A   1      47.135  26.003  32.365  1.00  0.00     0.023 C 
ENDROOT
BRANCH   1   2
ATOM      2  C   UNL A   1      46.409  27.352  32.315  1.00  0.00     0.116 C 
BRANCH   2   3
ATOM      3  N   UNL A   1      46.729  28.053  31.081  1.00  0.00    -0.353 N 
ATOM      4  C   UNL A   1      46.288  29.269  30.645  1.00  0.00     0.257 C 
ATOM      5  O   UNL A   1      46.385  29.490  29.437  1.00  0.00    -0.271 OA
ATOM      6  H   UNL A   1      47.350  27.585  30.477  1.00  0.00     0.163 HD
BRANCH   4   7
ATOM      7  C   UNL A   1      45.778  30.315  31.675  1.00  0.00     0.329 C 
BRANCH   7   8
ATOM      8  O   UNL A   1      44.401  30.596  31.925  1.00  0.00    -0.483 OA
BRANCH   8   9
ATOM      9  C   UNL A   1      43.536  29.948  31.088  1.00  0.00     0.130 A 
ATOM     10  C   UNL A   1      41.878  28.484  29.388  1.00  0.00     0.042 A 
ATOM     11  C   UNL A   1      42.325  27.911  30.579  1.00  0.00     0.030 A 
ATOM     12  C   UNL A   1      42.136  29.832  29.133  1.00  0.00     0.041 A 
ATOM     13  C   UNL A   1      43.190  28.628  31.405  1.00  0.00     0.049 A 
ATOM     14  C   UNL A   1      42.932  30.612  30.002  1.00  0.00     0.055 A 
BRANCH  10  15
ATOM     15  N   UNL A   1      41.233  27.643  28.470  1.00  0.00    -0.322 N 
ATOM     16  C   UNL A   1      39.888  27.426  28.243  1.00  0.00     0.255 C 
ATOM     17  O   UNL A   1      39.563  26.477  27.525  1.00  0.00    -0.269 OA
ATOM     18  H   UNL A   1      41.837  27.121  27.894  1.00  0.00     0.170 HD
BRANCH  16  19
ATOM     19  C   UNL A   1      38.811  28.332  28.754  1.00  0.00     0.043 A 
ATOM     20  C   UNL A   1      38.648  27.343  31.133  1.00  0.00     0.045 C 
ATOM     21  C   UNL A   1      38.213  28.260  30.028  1.00  0.00    -0.038 A 
ATOM     22  C   UNL A   1      37.168  29.152  30.345  1.00  0.00     0.004 A 
ATOM     23  C   UNL A   1      36.819  30.188  29.484  1.00  0.00     0.000 A 
ATOM     24  C   UNL A   1      38.476  29.412  27.915  1.00  0.00     0.014 A 
ATOM     25  C   UNL A   1      37.501  30.343  28.284  1.00  0.00     0.001 A 
ENDBRANCH  16  19
ENDBRANCH  10  15
BRANCH  14  26
ATOM     26  C   UNL A   1      43.124  32.039  29.647  1.00  0.00     0.128 A 
ATOM     27  N   UNL A   1      42.306  33.003  30.040  1.00  0.00    -0.236 NA
ATOM     28  S   UNL A   1      44.429  32.621  28.679  1.00  0.00    -0.114 S 
ATOM     29  C   UNL A   1      42.499  34.129  29.259  1.00  0.00     0.082 A 
ATOM     30  C   UNL A   1      43.548  34.046  28.347  1.00  0.00     0.055 A 
ATOM     31  C   UNL A   1      41.713  35.295  29.274  1.00  0.00     0.030 A 
ATOM     32  C   UNL A   1      43.776  35.023  27.369  1.00  0.00     0.021 A 
ATOM     33  C   UNL A   1      41.937  36.288  28.315  1.00  0.00     0.002 A 
ATOM     34  C   UNL A   1      42.936  36.137  27.356  1.00  0.00     0.002 A 
ENDBRANCH  14  26
ENDBRANCH   8   9
ENDBRANCH   7   8
ENDBRANCH   4   7
ENDBRANCH   2   3
ENDBRANCH   1   2
BRANCH   1  35
ATOM     35  C   UNL A   1      46.733  25.095  33.528  1.00  0.00     0.023 C 
BRANCH  35  36
ATOM     36  C   UNL A   1      45.259  24.740  33.602  1.00  0.00     0.116 C 
BRANCH  36  37
ATOM     37  N   UNL A   1      44.714  24.533  34.932  1.00  0.00    -0.352 N 
ATOM     38  C   UNL A   1      44.059  25.466  35.737  1.00  0.00     0.251 C 
ATOM     39  H   UNL A   1      44.820  23.631  35.310  1.00  0.00     0.163 HD
ATOM     40  O   UNL A   1      43.829  25.290  36.909  1.00  0.00    -0.269 OA
BRANCH  38  41
ATOM     41  C   UNL A   1      43.471  26.643  35.047  1.00  0.00     0.039 A 
ATOM     42  C   UNL A   1      44.286  27.778  34.954  1.00  0.00     0.014 A 
ATOM     43  C   UNL A   1      42.102  26.719  34.813  1.00  0.00     0.014 A 
ATOM     44  C   UNL A   1      43.688  29.027  34.857  1.00  0.00     0.010 A 
ATOM     45  C   UNL A   1      41.501  27.956  34.855  1.00  0.00     0.010 A 
ATOM     46  C   UNL A   1      42.297  29.099  34.925  1.00  0.00    -0.014 A 
BRANCH  46  47
ATOM     47  C   UNL A   1      41.584  30.355  35.043  1.00  0.00     0.031 A 
ATOM     48  C   UNL A   1      40.910  30.859  33.836  1.00  0.00     0.074 A 
ATOM     49  C   UNL A   1      41.616  31.056  36.193  1.00  0.00     0.049 A 
ATOM     50  N   UNL A   1      40.853  32.100  33.508  1.00  0.00    -0.248 NA
ATOM     51  C   UNL A   1      40.316  29.960  32.847  1.00  0.00     0.031 C 
ATOM     52  C   UNL A   1      40.901  32.287  36.507  1.00  0.00     0.029 A 
ATOM     53  N   UNL A   1      42.481  30.902  37.262  1.00  0.00    -0.354 N 
ATOM     54  C   UNL A   1      39.987  32.186  32.443  1.00  0.00     0.074 A 
ATOM     55  C   UNL A   1      39.765  30.832  32.000  1.00  0.00     0.031 C 
ATOM     56  C   UNL A   1      41.528  32.900  37.529  1.00  0.00     0.029 A 
ATOM     57  C   UNL A   1      42.739  32.147  37.826  1.00  0.00     0.049 A 
ATOM     58  H   UNL A   1      42.855  30.046  37.574  1.00  0.00     0.167 HD
ATOM     59  C   UNL A   1      39.395  33.374  32.150  1.00  0.00     0.031 A 
ATOM     60  C   UNL A   1      43.998  32.676  37.799  1.00  0.00     0.031 A 
ATOM     61  C   UNL A   1      39.833  34.416  33.070  1.00  0.00     0.049 A 
ATOM     62  C   UNL A   1      44.101  33.907  36.919  1.00  0.00     0.074 A 
ATOM     63  C   UNL A   1      39.289  34.896  34.251  1.00  0.00     0.029 A 
ATOM     64  N   UNL A   1      41.161  34.827  33.051  1.00  0.00    -0.354 N 
ATOM     65  N   UNL A   1      43.247  34.207  35.976  1.00  0.00    -0.248 NA
ATOM     66  C   UNL A   1      45.147  34.915  37.059  1.00  0.00     0.031 C 
ATOM     67  C   UNL A   1      40.329  35.521  34.988  1.00  0.00     0.029 A 
ATOM     68  C   UNL A   1      41.490  35.458  34.237  1.00  0.00     0.049 A 
ATOM     69  H   UNL A   1      41.780  34.689  32.298  1.00  0.00     0.167 HD
ATOM     70  C   UNL A   1      43.575  35.419  35.420  1.00  0.00     0.074 A 
ATOM     71  C   UNL A   1      44.775  35.820  36.136  1.00  0.00     0.031 C 
ATOM     72  C   UNL A   1      42.826  36.007  34.437  1.00  0.00     0.031 A 
BRANCH  59  73
ATOM     73  C   UNL A   1      38.166  33.437  31.284  1.00  0.00    -0.014 A 
ATOM     74  C   UNL A   1      38.292  33.793  29.929  1.00  0.00     0.010 A 
ATOM     75  C   UNL A   1      36.860  33.223  31.769  1.00  0.00     0.010 A 
ATOM     76  C   UNL A   1      37.172  34.011  29.117  1.00  0.00     0.020 A 
ATOM     77  C   UNL A   1      35.728  33.473  30.976  1.00  0.00     0.020 A 
ATOM     78  C   UNL A   1      35.894  33.870  29.652  1.00  0.00     0.054 A 
BRANCH  78  79
ATOM     79  S   UNL A   1      34.464  34.211  28.591  1.00  0.00     0.124 S 
ATOM     80  O   UNL A   1      34.745  35.559  28.104  1.00  0.00    -0.237 OA
ATOM     81  O   UNL A   1      34.558  33.148  27.594  1.00  0.00    -0.237 OA
ATOM     82  O   UNL A   1      33.325  34.112  29.502  1.00  0.00    -0.744 OA
ENDBRANCH  78  79
ENDBRANCH  59  73
BRANCH  60  83
ATOM     83  C   UNL A   1      45.085  31.703  38.116  1.00  0.00    -0.014 A 
ATOM     84  C   UNL A   1      45.005  31.043  39.358  1.00  0.00     0.010 A 
ATOM     85  C   UNL A   1      45.901  31.141  37.116  1.00  0.00     0.010 A 
ATOM     86  C   UNL A   1      45.610  29.797  39.555  1.00  0.00     0.020 A 
ATOM     87  C   UNL A   1      46.498  29.877  37.303  1.00  0.00     0.020 A 
ATOM     88  C   UNL A   1      46.315  29.197  38.510  1.00  0.00     0.054 A 
BRANCH  88  89
ATOM     89  S   UNL A   1      46.784  27.444  38.681  1.00  0.00     0.124 S 
ATOM     90  O   UNL A   1      45.647  26.882  39.398  1.00  0.00    -0.237 OA
ATOM     91  O   UNL A   1      46.926  27.014  37.290  1.00  0.00    -0.237 OA
ATOM     92  O   UNL A   1      48.047  27.497  39.410  1.00  0.00    -0.744 OA
ENDBRANCH  88  89
ENDBRANCH  60  83
BRANCH  72  93
ATOM     93  C   UNL A   1      43.205  37.218  33.608  1.00  0.00    -0.014 A 
ATOM     94  C   UNL A   1      42.972  38.547  33.985  1.00  0.00     0.010 A 
ATOM     95  C   UNL A   1      43.967  37.021  32.425  1.00  0.00     0.010 A 
ATOM     96  C   UNL A   1      43.430  39.620  33.202  1.00  0.00     0.020 A 
ATOM     97  C   UNL A   1      44.476  38.078  31.670  1.00  0.00     0.020 A 
ATOM     98  C   UNL A   1      44.183  39.378  32.053  1.00  0.00     0.054 A 
BRANCH  98  99
ATOM     99  S   UNL A   1      44.838  40.771  31.103  1.00  0.00     0.124 S 
ATOM    100  O   UNL A   1      43.680  41.157  30.302  1.00  0.00    -0.237 OA
ATOM    101  O   UNL A   1      45.225  41.720  32.145  1.00  0.00    -0.237 OA
ATOM    102  O   UNL A   1      45.951  40.187  30.358  1.00  0.00    -0.744 OA
ENDBRANCH  98  99
ENDBRANCH  72  93
ENDBRANCH  46  47
ENDBRANCH  38  41
ENDBRANCH  36  37
ENDBRANCH  35  36
ENDBRANCH   1  35
TORSDOF 19
ENDMDL
