MODEL 1
REMARK VINA RESULT:     -10.6      0.000      0.000
REMARK SMILES CN(C)c1oc(/C=N/c2ccc(O)c(C(=O)NCCCCNC(=O)c3ccc(-c4c5nc(c(-c6ccc(S(=O)(=O)[O-])cc6)c6ccc([nH]6)c(-c6ccc(S(=O)(=O)[O-])cc6)c6nc(c(-c7ccc(S(=O)(=O)[O-])cc7)c7ccc4[nH]7)C=C6)C=C5)cc3)c2)cc1Br
REMARK SMILES IDX 19 1 18 2 17 3 15 4 16 5 14 7 9 8 10 9 85 10 11 11 12 12
REMARK SMILES IDX 8 13 7 14 6 15 4 16 5 17 87 18 86 19 88 20 2 21 1 22 3 23
REMARK SMILES IDX 13 24 20 26 21 27 22 28 23 29 24 31 25 32 26 33 84 34 27 35
REMARK SMILES IDX 83 36 28 37 29 38 30 39 77 40 31 41 82 42 76 43 78 44 32 45
REMARK SMILES IDX 81 46 75 47 74 48 33 50 63 51 44 52 62 53 45 54 48 55 61 56
REMARK SMILES IDX 79 57 46 58 47 59 60 61 80 62 49 63 34 64 35 65 43 66 36 67
REMARK SMILES IDX 42 68 37 69 38 70 39 71 40 72 41 73 64 74 65 75 73 76 66 77
REMARK SMILES IDX 72 78 67 79 68 80 69 81 70 82 71 83 50 84 51 85 59 86 52 87
REMARK SMILES IDX 58 88 53 89 54 90 55 91 56 92 57 93
REMARK H PARENT 17 6 13 25 22 30 78 49 48 60
REMARK Flexibility Score: inf
ROOT
ATOM      1  C   UNL A   1      35.593  21.513  25.732  1.00  0.00     0.023 C 
ENDROOT
BRANCH   1   2
ATOM      2  C   UNL A   1      35.573  20.170  24.993  1.00  0.00     0.116 C 
BRANCH   2   3
ATOM      3  N   UNL A   1      34.411  19.401  25.377  1.00  0.00    -0.352 N 
ATOM      4  C   UNL A   1      33.094  19.459  25.010  1.00  0.00     0.255 C 
ATOM      5  O   UNL A   1      32.349  18.653  25.578  1.00  0.00    -0.269 OA
ATOM      6  H   UNL A   1      34.606  18.694  26.033  1.00  0.00     0.163 HD
BRANCH   4   7
ATOM      7  C   UNL A   1      32.499  20.348  23.958  1.00  0.00     0.083 A 
ATOM      8  C   UNL A   1      31.952  22.701  23.475  1.00  0.00     0.064 A 
ATOM      9  C   UNL A   1      31.575  22.348  22.183  1.00  0.00     0.032 A 
ATOM     10  C   UNL A   1      32.385  21.700  24.349  1.00  0.00     0.046 A 
ATOM     11  C   UNL A   1      31.670  21.023  21.765  1.00  0.00     0.049 A 
ATOM     12  C   UNL A   1      32.166  20.039  22.633  1.00  0.00     0.128 A 
BRANCH   8  13
ATOM     13  N   UNL A   1      32.109  24.034  23.864  1.00  0.00    -0.253 NA
ATOM     14  C   UNL A   1      32.978  24.356  24.763  1.00  0.00     0.158 C 
BRANCH  14  15
ATOM     15  C   UNL A   1      32.996  25.710  25.238  1.00  0.00     0.149 A 
ATOM     16  C   UNL A   1      32.355  27.820  25.286  1.00  0.00     0.210 A 
ATOM     17  O   UNL A   1      32.016  26.570  24.834  1.00  0.00    -0.438 OA
ATOM     18  C   UNL A   1      33.511  27.722  26.032  1.00  0.00     0.082 A 
ATOM     19  C   UNL A   1      33.914  26.375  26.025  1.00  0.00     0.070 A 
ATOM     20  Br  UNL A   1      34.455  29.049  26.961  1.00  0.00    -0.045 Br
BRANCH  16  21
ATOM     21  N   UNL A   1      31.559  28.843  24.892  1.00  0.00    -0.348 N 
ATOM     22  C   UNL A   1      30.585  28.656  23.834  1.00  0.00     0.146 C 
ATOM     23  C   UNL A   1      31.603  30.107  25.603  1.00  0.00     0.146 C 
ENDBRANCH  16  21
ENDBRANCH  14  15
ENDBRANCH   8  13
BRANCH  12  24
ATOM     24  O   UNL A   1      32.377  18.808  22.090  1.00  0.00    -0.507 OA
ATOM     25  H   UNL A   1      32.674  18.731  21.204  1.00  0.00     0.293 HD
ENDBRANCH  12  24
ENDBRANCH   4   7
ENDBRANCH   2   3
ENDBRANCH   1   2
BRANCH   1  26
ATOM     26  C   UNL A   1      35.860  22.729  24.843  1.00  0.00     0.023 C 
BRANCH  26  27
ATOM     27  C   UNL A   1      37.190  23.432  25.096  1.00  0.00     0.116 C 
BRANCH  27  28
ATOM     28  N   UNL A   1      38.256  22.526  25.499  1.00  0.00    -0.352 N 
ATOM     29  C   UNL A   1      39.376  22.796  26.251  1.00  0.00     0.251 C 
ATOM     30  H   UNL A   1      38.163  21.595  25.193  1.00  0.00     0.163 HD
ATOM     31  O   UNL A   1      40.225  21.933  26.430  1.00  0.00    -0.269 OA
BRANCH  29  32
ATOM     32  C   UNL A   1      39.560  24.157  26.796  1.00  0.00     0.039 A 
ATOM     33  C   UNL A   1      39.106  24.427  28.090  1.00  0.00     0.014 A 
ATOM     34  C   UNL A   1      40.233  25.136  26.061  1.00  0.00     0.014 A 
ATOM     35  C   UNL A   1      39.409  25.655  28.681  1.00  0.00     0.010 A 
ATOM     36  C   UNL A   1      40.585  26.335  26.673  1.00  0.00     0.010 A 
ATOM     37  C   UNL A   1      40.194  26.596  27.995  1.00  0.00    -0.014 A 
BRANCH  37  38
ATOM     38  C   UNL A   1      40.668  27.833  28.665  1.00  0.00     0.031 A 
ATOM     39  C   UNL A   1      42.049  27.899  29.253  1.00  0.00     0.074 A 
ATOM     40  C   UNL A   1      39.815  28.867  28.813  1.00  0.00     0.049 A 
ATOM     41  N   UNL A   1      42.606  28.870  29.929  1.00  0.00    -0.248 NA
ATOM     42  C   UNL A   1      42.907  26.716  29.079  1.00  0.00     0.031 C 
ATOM     43  C   UNL A   1      38.431  28.903  28.328  1.00  0.00     0.029 A 
ATOM     44  N   UNL A   1      39.982  30.084  29.424  1.00  0.00    -0.354 N 
ATOM     45  C   UNL A   1      43.871  28.412  30.275  1.00  0.00     0.074 A 
ATOM     46  C   UNL A   1      43.986  27.063  29.766  1.00  0.00     0.031 C 
ATOM     47  C   UNL A   1      37.885  30.089  28.643  1.00  0.00     0.029 A 
ATOM     48  C   UNL A   1      38.861  30.882  29.381  1.00  0.00     0.049 A 
ATOM     49  H   UNL A   1      40.824  30.361  29.852  1.00  0.00     0.167 HD
ATOM     50  C   UNL A   1      44.851  29.062  30.946  1.00  0.00     0.031 A 
ATOM     51  C   UNL A   1      38.641  32.110  29.889  1.00  0.00     0.031 A 
ATOM     52  C   UNL A   1      44.740  30.411  31.435  1.00  0.00     0.049 A 
ATOM     53  C   UNL A   1      39.745  32.803  30.636  1.00  0.00     0.074 A 
ATOM     54  C   UNL A   1      45.707  31.182  32.055  1.00  0.00     0.029 A 
ATOM     55  N   UNL A   1      43.593  31.187  31.368  1.00  0.00    -0.354 N 
ATOM     56  N   UNL A   1      40.964  32.384  30.881  1.00  0.00    -0.248 NA
ATOM     57  C   UNL A   1      39.446  34.139  31.173  1.00  0.00     0.031 C 
ATOM     58  C   UNL A   1      45.132  32.408  32.405  1.00  0.00     0.029 A 
ATOM     59  C   UNL A   1      43.820  32.416  31.962  1.00  0.00     0.049 A 
ATOM     60  H   UNL A   1      42.744  30.905  30.958  1.00  0.00     0.167 HD
ATOM     61  C   UNL A   1      41.582  33.412  31.583  1.00  0.00     0.074 A 
ATOM     62  C   UNL A   1      40.610  34.479  31.709  1.00  0.00     0.031 C 
ATOM     63  C   UNL A   1      42.840  33.466  32.082  1.00  0.00     0.031 A 
BRANCH  50  64
ATOM     64  C   UNL A   1      46.138  28.325  31.192  1.00  0.00    -0.014 A 
ATOM     65  C   UNL A   1      47.214  28.425  30.291  1.00  0.00     0.010 A 
ATOM     66  C   UNL A   1      46.301  27.580  32.375  1.00  0.00     0.010 A 
ATOM     67  C   UNL A   1      48.419  27.771  30.555  1.00  0.00     0.020 A 
ATOM     68  C   UNL A   1      47.514  26.942  32.652  1.00  0.00     0.020 A 
ATOM     69  C   UNL A   1      48.562  27.033  31.734  1.00  0.00     0.054 A 
BRANCH  69  70
ATOM     70  S   UNL A   1      50.155  26.232  32.071  1.00  0.00     0.124 S 
ATOM     71  O   UNL A   1      50.855  26.409  30.802  1.00  0.00    -0.237 OA
ATOM     72  O   UNL A   1      50.677  27.014  33.189  1.00  0.00    -0.237 OA
ATOM     73  O   UNL A   1      49.788  24.856  32.395  1.00  0.00    -0.744 OA
ENDBRANCH  69  70
ENDBRANCH  50  64
BRANCH  51  74
ATOM     74  C   UNL A   1      37.319  32.768  29.709  1.00  0.00    -0.014 A 
ATOM     75  C   UNL A   1      37.092  33.617  28.611  1.00  0.00     0.010 A 
ATOM     76  C   UNL A   1      36.285  32.561  30.639  1.00  0.00     0.010 A 
ATOM     77  C   UNL A   1      35.864  34.268  28.461  1.00  0.00     0.020 A 
ATOM     78  C   UNL A   1      35.048  33.191  30.479  1.00  0.00     0.020 A 
ATOM     79  C   UNL A   1      34.850  34.053  29.399  1.00  0.00     0.054 A 
BRANCH  79  80
ATOM     80  S   UNL A   1      33.254  34.883  29.170  1.00  0.00     0.124 S 
ATOM     81  O   UNL A   1      33.661  36.189  28.664  1.00  0.00    -0.237 OA
ATOM     82  O   UNL A   1      32.577  34.014  28.210  1.00  0.00    -0.237 OA
ATOM     83  O   UNL A   1      32.675  34.883  30.512  1.00  0.00    -0.744 OA
ENDBRANCH  79  80
ENDBRANCH  51  74
BRANCH  63  84
ATOM     84  C   UNL A   1      43.246  34.726  32.794  1.00  0.00    -0.014 A 
ATOM     85  C   UNL A   1      43.852  35.785  32.096  1.00  0.00     0.010 A 
ATOM     86  C   UNL A   1      42.975  34.872  34.166  1.00  0.00     0.010 A 
ATOM     87  C   UNL A   1      44.204  36.961  32.765  1.00  0.00     0.020 A 
ATOM     88  C   UNL A   1      43.304  36.054  34.834  1.00  0.00     0.020 A 
ATOM     89  C   UNL A   1      43.929  37.087  34.131  1.00  0.00     0.054 A 
BRANCH  89  90
ATOM     90  S   UNL A   1      44.354  38.638  34.969  1.00  0.00     0.124 S 
ATOM     91  O   UNL A   1      44.021  38.335  36.357  1.00  0.00    -0.237 OA
ATOM     92  O   UNL A   1      45.780  38.781  34.680  1.00  0.00    -0.237 OA
ATOM     93  O   UNL A   1      43.493  39.626  34.322  1.00  0.00    -0.744 OA
ENDBRANCH  89  90
ENDBRANCH  63  84
ENDBRANCH  37  38
ENDBRANCH  29  32
ENDBRANCH  27  28
ENDBRANCH  26  27
ENDBRANCH   1  26
TORSDOF 18
ENDMDL
MODEL 2
REMARK VINA RESULT:     -10.4      4.251     10.503
REMARK SMILES CN(C)c1oc(/C=N/c2ccc(O)c(C(=O)NCCCCNC(=O)c3ccc(-c4c5nc(c(-c6ccc(S(=O)(=O)[O-])cc6)c6ccc([nH]6)c(-c6ccc(S(=O)(=O)[O-])cc6)c6nc(c(-c7ccc(S(=O)(=O)[O-])cc7)c7ccc4[nH]7)C=C6)C=C5)cc3)c2)cc1Br
REMARK SMILES IDX 19 1 18 2 17 3 15 4 16 5 14 7 9 8 10 9 85 10 11 11 12 12
REMARK SMILES IDX 8 13 7 14 6 15 4 16 5 17 87 18 86 19 88 20 2 21 1 22 3 23
REMARK SMILES IDX 13 24 20 26 21 27 22 28 23 29 24 31 25 32 26 33 84 34 27 35
REMARK SMILES IDX 83 36 28 37 29 38 30 39 77 40 31 41 82 42 76 43 78 44 32 45
REMARK SMILES IDX 81 46 75 47 74 48 33 50 63 51 44 52 62 53 45 54 48 55 61 56
REMARK SMILES IDX 79 57 46 58 47 59 60 61 80 62 49 63 34 64 35 65 43 66 36 67
REMARK SMILES IDX 42 68 37 69 38 70 39 71 40 72 41 73 64 74 65 75 73 76 66 77
REMARK SMILES IDX 72 78 67 79 68 80 69 81 70 82 71 83 50 84 51 85 59 86 52 87
REMARK SMILES IDX 58 88 53 89 54 90 55 91 56 92 57 93
REMARK H PARENT 17 6 13 25 22 30 78 49 48 60
REMARK Flexibility Score: inf
ROOT
ATOM      1  C   UNL A   1      33.093  28.930  27.013  1.00  0.00     0.023 C 
ENDROOT
BRANCH   1   2
ATOM      2  C   UNL A   1      32.700  30.001  25.990  1.00  0.00     0.116 C 
BRANCH   2   3
ATOM      3  N   UNL A   1      33.281  29.703  24.699  1.00  0.00    -0.352 N 
ATOM      4  C   UNL A   1      32.950  28.816  23.712  1.00  0.00     0.255 C 
ATOM      5  O   UNL A   1      33.707  28.803  22.735  1.00  0.00    -0.269 OA
ATOM      6  H   UNL A   1      34.073  30.249  24.490  1.00  0.00     0.163 HD
BRANCH   4   7
ATOM      7  C   UNL A   1      31.744  27.926  23.680  1.00  0.00     0.083 A 
ATOM      8  C   UNL A   1      31.056  25.567  23.865  1.00  0.00     0.064 A 
ATOM      9  C   UNL A   1      29.719  25.953  23.817  1.00  0.00     0.032 A 
ATOM     10  C   UNL A   1      32.046  26.549  23.774  1.00  0.00     0.046 A 
ATOM     11  C   UNL A   1      29.386  27.302  23.719  1.00  0.00     0.049 A 
ATOM     12  C   UNL A   1      30.389  28.282  23.692  1.00  0.00     0.128 A 
BRANCH   8  13
ATOM     13  N   UNL A   1      31.440  24.268  24.207  1.00  0.00    -0.253 NA
ATOM     14  C   UNL A   1      32.669  23.895  24.084  1.00  0.00     0.158 C 
BRANCH  14  15
ATOM     15  C   UNL A   1      32.987  22.512  24.300  1.00  0.00     0.149 A 
ATOM     16  C   UNL A   1      34.337  20.802  24.642  1.00  0.00     0.210 A 
ATOM     17  O   UNL A   1      34.258  22.171  24.665  1.00  0.00    -0.438 OA
ATOM     18  C   UNL A   1      33.094  20.292  24.330  1.00  0.00     0.082 A 
ATOM     19  C   UNL A   1      32.222  21.377  24.132  1.00  0.00     0.070 A 
ATOM     20  Br  UNL A   1      32.529  18.509  24.193  1.00  0.00    -0.045 Br
BRANCH  16  21
ATOM     21  N   UNL A   1      35.559  20.262  24.870  1.00  0.00    -0.348 N 
ATOM     22  C   UNL A   1      36.645  21.080  25.374  1.00  0.00     0.146 C 
ATOM     23  C   UNL A   1      35.758  18.834  24.712  1.00  0.00     0.146 C 
ENDBRANCH  16  21
ENDBRANCH  14  15
ENDBRANCH   8  13
BRANCH  12  24
ATOM     24  O   UNL A   1      29.970  29.576  23.761  1.00  0.00    -0.507 OA
ATOM     25  H   UNL A   1      29.440  29.858  24.480  1.00  0.00     0.293 HD
ENDBRANCH  12  24
ENDBRANCH   4   7
ENDBRANCH   2   3
ENDBRANCH   1   2
BRANCH   1  26
ATOM     26  C   UNL A   1      34.598  28.782  27.240  1.00  0.00     0.023 C 
BRANCH  26  27
ATOM     27  C   UNL A   1      35.327  30.076  27.588  1.00  0.00     0.116 C 
BRANCH  27  28
ATOM     28  N   UNL A   1      35.311  30.384  29.012  1.00  0.00    -0.352 N 
ATOM     29  C   UNL A   1      36.279  30.135  29.957  1.00  0.00     0.251 C 
ATOM     30  H   UNL A   1      34.498  30.831  29.343  1.00  0.00     0.163 HD
ATOM     31  O   UNL A   1      36.071  30.382  31.137  1.00  0.00    -0.269 OA
BRANCH  29  32
ATOM     32  C   UNL A   1      37.553  29.517  29.531  1.00  0.00     0.039 A 
ATOM     33  C   UNL A   1      38.018  29.767  28.237  1.00  0.00     0.014 A 
ATOM     34  C   UNL A   1      38.309  28.755  30.423  1.00  0.00     0.014 A 
ATOM     35  C   UNL A   1      39.289  29.326  27.868  1.00  0.00     0.010 A 
ATOM     36  C   UNL A   1      39.600  28.367  30.073  1.00  0.00     0.010 A 
ATOM     37  C   UNL A   1      40.108  28.667  28.800  1.00  0.00    -0.014 A 
BRANCH  37  38
ATOM     38  C   UNL A   1      41.520  28.340  28.483  1.00  0.00     0.031 A 
ATOM     39  C   UNL A   1      42.565  29.419  28.456  1.00  0.00     0.074 A 
ATOM     40  C   UNL A   1      41.840  27.075  28.140  1.00  0.00     0.049 A 
ATOM     41  N   UNL A   1      43.830  29.327  28.137  1.00  0.00    -0.248 NA
ATOM     42  C   UNL A   1      42.130  30.780  28.810  1.00  0.00     0.031 C 
ATOM     43  C   UNL A   1      40.902  25.948  28.081  1.00  0.00     0.029 A 
ATOM     44  N   UNL A   1      43.039  26.526  27.762  1.00  0.00    -0.354 N 
ATOM     45  C   UNL A   1      44.339  30.616  28.235  1.00  0.00     0.074 A 
ATOM     46  C   UNL A   1      43.238  31.478  28.609  1.00  0.00     0.031 C 
ATOM     47  C   UNL A   1      41.567  24.842  27.712  1.00  0.00     0.029 A 
ATOM     48  C   UNL A   1      42.964  25.183  27.471  1.00  0.00     0.049 A 
ATOM     49  H   UNL A   1      43.874  27.044  27.705  1.00  0.00     0.167 HD
ATOM     50  C   UNL A   1      45.610  31.040  28.043  1.00  0.00     0.031 A 
ATOM     51  C   UNL A   1      43.912  24.325  27.048  1.00  0.00     0.031 A 
ATOM     52  C   UNL A   1      46.707  30.177  27.689  1.00  0.00     0.049 A 
ATOM     53  C   UNL A   1      45.313  24.826  26.836  1.00  0.00     0.074 A 
ATOM     54  C   UNL A   1      48.045  30.501  27.553  1.00  0.00     0.029 A 
ATOM     55  N   UNL A   1      46.592  28.825  27.410  1.00  0.00    -0.354 N 
ATOM     56  N   UNL A   1      45.791  26.034  27.015  1.00  0.00    -0.248 NA
ATOM     57  C   UNL A   1      46.304  23.846  26.367  1.00  0.00     0.031 C 
ATOM     58  C   UNL A   1      48.733  29.354  27.144  1.00  0.00     0.029 A 
ATOM     59  C   UNL A   1      47.830  28.306  27.071  1.00  0.00     0.049 A 
ATOM     60  H   UNL A   1      45.755  28.309  27.447  1.00  0.00     0.167 HD
ATOM     61  C   UNL A   1      47.143  25.955  26.700  1.00  0.00     0.074 A 
ATOM     62  C   UNL A   1      47.409  24.578  26.336  1.00  0.00     0.031 C 
ATOM     63  C   UNL A   1      48.078  26.935  26.707  1.00  0.00     0.031 A 
BRANCH  50  64
ATOM     64  C   UNL A   1      45.893  32.507  28.213  1.00  0.00    -0.014 A 
ATOM     65  C   UNL A   1      46.274  33.031  29.462  1.00  0.00     0.010 A 
ATOM     66  C   UNL A   1      45.844  33.362  27.097  1.00  0.00     0.010 A 
ATOM     67  C   UNL A   1      46.577  34.388  29.596  1.00  0.00     0.020 A 
ATOM     68  C   UNL A   1      46.168  34.716  27.223  1.00  0.00     0.020 A 
ATOM     69  C   UNL A   1      46.521  35.223  28.475  1.00  0.00     0.054 A 
BRANCH  69  70
ATOM     70  S   UNL A   1      46.964  36.971  28.671  1.00  0.00     0.124 S 
ATOM     71  O   UNL A   1      46.058  37.393  29.736  1.00  0.00    -0.237 OA
ATOM     72  O   UNL A   1      48.376  36.906  29.038  1.00  0.00    -0.237 OA
ATOM     73  O   UNL A   1      46.691  37.546  27.356  1.00  0.00    -0.744 OA
ENDBRANCH  69  70
ENDBRANCH  50  64
BRANCH  51  74
ATOM     74  C   UNL A   1      43.572  22.898  26.795  1.00  0.00    -0.014 A 
ATOM     75  C   UNL A   1      42.835  22.166  27.743  1.00  0.00     0.010 A 
ATOM     76  C   UNL A   1      43.992  22.262  25.614  1.00  0.00     0.010 A 
ATOM     77  C   UNL A   1      42.549  20.815  27.526  1.00  0.00     0.020 A 
ATOM     78  C   UNL A   1      43.686  20.918  25.382  1.00  0.00     0.020 A 
ATOM     79  C   UNL A   1      42.980  20.199  26.348  1.00  0.00     0.054 A 
BRANCH  79  80
ATOM     80  S   UNL A   1      42.571  18.453  26.072  1.00  0.00     0.124 S 
ATOM     81  O   UNL A   1      41.149  18.522  25.751  1.00  0.00    -0.237 OA
ATOM     82  O   UNL A   1      43.453  18.089  24.966  1.00  0.00    -0.237 OA
ATOM     83  O   UNL A   1      42.896  17.822  27.349  1.00  0.00    -0.744 OA
ENDBRANCH  79  80
ENDBRANCH  51  74
BRANCH  63  84
ATOM     84  C   UNL A   1      49.482  26.551  26.330  1.00  0.00    -0.014 A 
ATOM     85  C   UNL A   1      50.358  25.996  27.278  1.00  0.00     0.010 A 
ATOM     86  C   UNL A   1      49.914  26.704  25.000  1.00  0.00     0.010 A 
ATOM     87  C   UNL A   1      51.653  25.622  26.908  1.00  0.00     0.020 A 
ATOM     88  C   UNL A   1      51.199  26.310  24.621  1.00  0.00     0.020 A 
ATOM     89  C   UNL A   1      52.066  25.784  25.582  1.00  0.00     0.054 A 
BRANCH  89  90
ATOM     90  S   UNL A   1      53.735  25.251  25.115  1.00  0.00     0.124 S 
ATOM     91  O   UNL A   1      53.937  25.955  23.852  1.00  0.00    -0.237 OA
ATOM     92  O   UNL A   1      54.549  25.721  26.234  1.00  0.00    -0.237 OA
ATOM     93  O   UNL A   1      53.616  23.798  25.008  1.00  0.00    -0.744 OA
ENDBRANCH  89  90
ENDBRANCH  63  84
ENDBRANCH  37  38
ENDBRANCH  29  32
ENDBRANCH  27  28
ENDBRANCH  26  27
ENDBRANCH   1  26
TORSDOF 18
ENDMDL
MODEL 3
REMARK VINA RESULT:     -10.3      5.744     12.105
REMARK SMILES CN(C)c1oc(/C=N/c2ccc(O)c(C(=O)NCCCCNC(=O)c3ccc(-c4c5nc(c(-c6ccc(S(=O)(=O)[O-])cc6)c6ccc([nH]6)c(-c6ccc(S(=O)(=O)[O-])cc6)c6nc(c(-c7ccc(S(=O)(=O)[O-])cc7)c7ccc4[nH]7)C=C6)C=C5)cc3)c2)cc1Br
REMARK SMILES IDX 19 1 18 2 17 3 15 4 16 5 14 7 9 8 10 9 85 10 11 11 12 12
REMARK SMILES IDX 8 13 7 14 6 15 4 16 5 17 87 18 86 19 88 20 2 21 1 22 3 23
REMARK SMILES IDX 13 24 20 26 21 27 22 28 23 29 24 31 25 32 26 33 84 34 27 35
REMARK SMILES IDX 83 36 28 37 29 38 30 39 77 40 31 41 82 42 76 43 78 44 32 45
REMARK SMILES IDX 81 46 75 47 74 48 33 50 63 51 44 52 62 53 45 54 48 55 61 56
REMARK SMILES IDX 79 57 46 58 47 59 60 61 80 62 49 63 34 64 35 65 43 66 36 67
REMARK SMILES IDX 42 68 37 69 38 70 39 71 40 72 41 73 64 74 65 75 73 76 66 77
REMARK SMILES IDX 72 78 67 79 68 80 69 81 70 82 71 83 50 84 51 85 59 86 52 87
REMARK SMILES IDX 58 88 53 89 54 90 55 91 56 92 57 93
REMARK H PARENT 17 6 13 25 22 30 78 49 48 60
REMARK Flexibility Score: inf
ROOT
ATOM      1  C   UNL A   1      35.110  32.175  27.938  1.00  0.00     0.023 C 
ENDROOT
BRANCH   1   2
ATOM      2  C   UNL A   1      33.774  32.860  28.240  1.00  0.00     0.116 C 
BRANCH   2   3
ATOM      3  N   UNL A   1      33.876  34.286  28.019  1.00  0.00    -0.352 N 
ATOM      4  C   UNL A   1      33.910  35.359  28.867  1.00  0.00     0.255 C 
ATOM      5  O   UNL A   1      33.966  36.465  28.319  1.00  0.00    -0.269 OA
ATOM      6  H   UNL A   1      33.933  34.532  27.068  1.00  0.00     0.163 HD
BRANCH   4   7
ATOM      7  C   UNL A   1      33.951  35.311  30.365  1.00  0.00     0.083 A 
ATOM      8  C   UNL A   1      35.390  34.658  32.255  1.00  0.00     0.064 A 
ATOM      9  C   UNL A   1      34.459  35.185  33.146  1.00  0.00     0.032 A 
ATOM     10  C   UNL A   1      35.117  34.706  30.886  1.00  0.00     0.046 A 
ATOM     11  C   UNL A   1      33.296  35.784  32.667  1.00  0.00     0.049 A 
ATOM     12  C   UNL A   1      33.064  35.881  31.287  1.00  0.00     0.128 A 
BRANCH   8  13
ATOM     13  N   UNL A   1      36.670  34.273  32.663  1.00  0.00    -0.253 NA
ATOM     14  C   UNL A   1      37.373  33.468  31.939  1.00  0.00     0.158 C 
BRANCH  14  15
ATOM     15  C   UNL A   1      38.614  32.982  32.470  1.00  0.00     0.149 A 
ATOM     16  C   UNL A   1      39.911  32.075  34.007  1.00  0.00     0.210 A 
ATOM     17  O   UNL A   1      38.605  32.273  33.637  1.00  0.00    -0.438 OA
ATOM     18  C   UNL A   1      40.732  32.602  33.031  1.00  0.00     0.082 A 
ATOM     19  C   UNL A   1      39.911  33.162  32.037  1.00  0.00     0.070 A 
ATOM     20  Br  UNL A   1      42.603  32.609  32.913  1.00  0.00    -0.045 Br
BRANCH  16  21
ATOM     21  N   UNL A   1      40.118  31.480  35.207  1.00  0.00    -0.348 N 
ATOM     22  C   UNL A   1      40.216  30.037  35.308  1.00  0.00     0.146 C 
ATOM     23  C   UNL A   1      40.349  32.293  36.385  1.00  0.00     0.146 C 
ENDBRANCH  16  21
ENDBRANCH  14  15
ENDBRANCH   8  13
BRANCH  12  24
ATOM     24  O   UNL A   1      31.987  36.624  30.908  1.00  0.00    -0.507 OA
ATOM     25  H   UNL A   1      31.771  36.706  30.000  1.00  0.00     0.293 HD
ENDBRANCH  12  24
ENDBRANCH   4   7
ENDBRANCH   2   3
ENDBRANCH   1   2
BRANCH   1  26
ATOM     26  C   UNL A   1      34.995  30.723  27.471  1.00  0.00     0.023 C 
BRANCH  26  27
ATOM     27  C   UNL A   1      35.728  29.706  28.341  1.00  0.00     0.116 C 
BRANCH  27  28
ATOM     28  N   UNL A   1      35.567  29.944  29.769  1.00  0.00    -0.352 N 
ATOM     29  C   UNL A   1      36.538  30.050  30.737  1.00  0.00     0.251 C 
ATOM     30  H   UNL A   1      34.640  30.040  30.083  1.00  0.00     0.163 HD
ATOM     31  O   UNL A   1      36.228  30.166  31.916  1.00  0.00    -0.269 OA
BRANCH  29  32
ATOM     32  C   UNL A   1      37.959  29.973  30.338  1.00  0.00     0.039 A 
ATOM     33  C   UNL A   1      38.903  29.592  31.294  1.00  0.00     0.014 A 
ATOM     34  C   UNL A   1      38.343  30.210  29.016  1.00  0.00     0.014 A 
ATOM     35  C   UNL A   1      40.223  29.361  30.902  1.00  0.00     0.010 A 
ATOM     36  C   UNL A   1      39.644  29.922  28.616  1.00  0.00     0.010 A 
ATOM     37  C   UNL A   1      40.590  29.475  29.551  1.00  0.00    -0.014 A 
BRANCH  37  38
ATOM     38  C   UNL A   1      41.940  29.072  29.087  1.00  0.00     0.031 A 
ATOM     39  C   UNL A   1      43.052  30.080  29.008  1.00  0.00     0.074 A 
ATOM     40  C   UNL A   1      42.137  27.808  28.659  1.00  0.00     0.049 A 
ATOM     41  N   UNL A   1      44.272  29.921  28.566  1.00  0.00    -0.248 NA
ATOM     42  C   UNL A   1      42.748  31.447  29.462  1.00  0.00     0.031 C 
ATOM     43  C   UNL A   1      41.121  26.750  28.640  1.00  0.00     0.029 A 
ATOM     44  N   UNL A   1      43.255  27.201  28.145  1.00  0.00    -0.354 N 
ATOM     45  C   UNL A   1      44.877  31.167  28.673  1.00  0.00     0.074 A 
ATOM     46  C   UNL A   1      43.879  32.079  29.187  1.00  0.00     0.031 C 
ATOM     47  C   UNL A   1      41.669  25.622  28.161  1.00  0.00     0.029 A 
ATOM     48  C   UNL A   1      43.059  25.882  27.803  1.00  0.00     0.049 A 
ATOM     49  H   UNL A   1      44.116  27.664  28.032  1.00  0.00     0.167 HD
ATOM     50  C   UNL A   1      46.153  31.515  28.380  1.00  0.00     0.031 A 
ATOM     51  C   UNL A   1      43.902  24.986  27.253  1.00  0.00     0.031 A 
ATOM     52  C   UNL A   1      47.148  30.601  27.885  1.00  0.00     0.049 A 
ATOM     53  C   UNL A   1      45.308  25.404  26.931  1.00  0.00     0.074 A 
ATOM     54  C   UNL A   1      48.488  30.843  27.636  1.00  0.00     0.029 A 
ATOM     55  N   UNL A   1      46.914  29.275  27.558  1.00  0.00    -0.354 N 
ATOM     56  N   UNL A   1      45.885  26.567  27.118  1.00  0.00    -0.248 NA
ATOM     57  C   UNL A   1      46.181  24.386  26.328  1.00  0.00     0.031 C 
ATOM     58  C   UNL A   1      49.053  29.675  27.113  1.00  0.00     0.029 A 
ATOM     59  C   UNL A   1      48.076  28.694  27.080  1.00  0.00     0.049 A 
ATOM     60  H   UNL A   1      46.049  28.814  27.652  1.00  0.00     0.167 HD
ATOM     61  C   UNL A   1      47.193  26.415  26.672  1.00  0.00     0.074 A 
ATOM     62  C   UNL A   1      47.327  25.044  26.224  1.00  0.00     0.031 C 
ATOM     63  C   UNL A   1      48.191  27.329  26.634  1.00  0.00     0.031 A 
BRANCH  50  64
ATOM     64  C   UNL A   1      46.552  32.950  28.587  1.00  0.00    -0.014 A 
ATOM     65  C   UNL A   1      47.105  33.379  29.808  1.00  0.00     0.010 A 
ATOM     66  C   UNL A   1      46.439  33.867  27.526  1.00  0.00     0.010 A 
ATOM     67  C   UNL A   1      47.513  34.704  29.972  1.00  0.00     0.020 A 
ATOM     68  C   UNL A   1      46.867  35.189  27.680  1.00  0.00     0.020 A 
ATOM     69  C   UNL A   1      47.391  35.602  28.906  1.00  0.00     0.054 A 
BRANCH  69  70
ATOM     70  S   UNL A   1      47.971  37.305  29.135  1.00  0.00     0.124 S 
ATOM     71  O   UNL A   1      49.205  37.310  28.354  1.00  0.00    -0.237 OA
ATOM     72  O   UNL A   1      46.875  38.096  28.579  1.00  0.00    -0.237 OA
ATOM     73  O   UNL A   1      48.147  37.420  30.580  1.00  0.00    -0.744 OA
ENDBRANCH  69  70
ENDBRANCH  50  64
BRANCH  51  74
ATOM     74  C   UNL A   1      43.440  23.600  26.971  1.00  0.00    -0.014 A 
ATOM     75  C   UNL A   1      43.268  22.681  28.023  1.00  0.00     0.010 A 
ATOM     76  C   UNL A   1      43.181  23.187  25.652  1.00  0.00     0.010 A 
ATOM     77  C   UNL A   1      42.873  21.367  27.756  1.00  0.00     0.020 A 
ATOM     78  C   UNL A   1      42.762  21.881  25.385  1.00  0.00     0.020 A 
ATOM     79  C   UNL A   1      42.626  20.975  26.438  1.00  0.00     0.054 A 
BRANCH  79  80
ATOM     80  S   UNL A   1      42.084  19.273  26.116  1.00  0.00     0.124 S 
ATOM     81  O   UNL A   1      42.850  18.932  24.923  1.00  0.00    -0.237 OA
ATOM     82  O   UNL A   1      42.475  18.577  27.340  1.00  0.00    -0.237 OA
ATOM     83  O   UNL A   1      40.642  19.407  25.920  1.00  0.00    -0.744 OA
ENDBRANCH  79  80
ENDBRANCH  51  74
BRANCH  63  84
ATOM     84  C   UNL A   1      49.524  26.874  26.108  1.00  0.00    -0.014 A 
ATOM     85  C   UNL A   1      49.853  27.025  24.749  1.00  0.00     0.010 A 
ATOM     86  C   UNL A   1      50.476  26.333  26.990  1.00  0.00     0.010 A 
ATOM     87  C   UNL A   1      51.104  26.618  24.277  1.00  0.00     0.020 A 
ATOM     88  C   UNL A   1      51.736  25.947  26.527  1.00  0.00     0.020 A 
ATOM     89  C   UNL A   1      52.037  26.079  25.169  1.00  0.00     0.054 A 
BRANCH  89  90
ATOM     90  S   UNL A   1      53.670  25.600  24.543  1.00  0.00     0.124 S 
ATOM     91  O   UNL A   1      53.603  24.143  24.604  1.00  0.00    -0.237 OA
ATOM     92  O   UNL A   1      53.681  26.173  23.198  1.00  0.00    -0.237 OA
ATOM     93  O   UNL A   1      54.597  26.223  25.485  1.00  0.00    -0.744 OA
ENDBRANCH  89  90
ENDBRANCH  63  84
ENDBRANCH  37  38
ENDBRANCH  29  32
ENDBRANCH  27  28
ENDBRANCH  26  27
ENDBRANCH   1  26
TORSDOF 18
ENDMDL
