MODEL 1
REMARK VINA RESULT:      -8.8      0.000      0.000
REMARK SMILES O=C(NCCCCNC(=O)c1ccc(-c2c3nc(c(-c4ccc(S(=O)(=O)[O-])cc4)c4ccc([nH]4)c(-c4ccc(S(=O)(=O)[O-])cc4)c4nc(c(-c5ccc(S(=O)(=O)[O-])cc5)c5ccc2[nH]5)C=C4)C=C3)cc1)c1ccc(/C=C/c2ccnc(-c3cccc([N+](=O)[O-])c3)[n+]2[O-])cc1
REMARK SMILES IDX 5 1 4 2 3 3 1 4 2 5 71 7 72 8 94 9 73 10 93 11 74 12 75 13
REMARK SMILES IDX 76 14 77 15 78 16 91 17 79 18 81 19 92 20 80 21 82 22 83 23
REMARK SMILES IDX 90 24 84 25 86 26 85 27 87 28 88 29 89 30 6 31 7 32 8 33
REMARK SMILES IDX 9 34 10 36 11 37 12 38 70 39 13 40 69 41 14 42 15 43 16 44
REMARK SMILES IDX 63 45 17 46 68 47 62 48 64 49 18 50 67 51 61 52 60 53 19 55
REMARK SMILES IDX 49 56 30 57 48 58 31 59 34 60 47 61 65 62 32 63 33 64 46 66
REMARK SMILES IDX 66 67 35 68 20 69 21 70 29 71 22 72 28 73 23 74 24 75 25 76
REMARK SMILES IDX 26 77 27 78 50 79 51 80 59 81 52 82 58 83 53 84 54 85 55 86
REMARK SMILES IDX 56 87 57 88 36 89 37 90 45 91 38 92 44 93 39 94 40 95 41 96
REMARK SMILES IDX 42 97 43 98
REMARK H PARENT 3 6 8 35 64 54 34 65
REMARK Flexibility Score: inf
ROOT
ATOM      1  C   UNL A   1      41.324  19.455  26.468  1.00  0.00     0.023 C 
ENDROOT
BRANCH   1   2
ATOM      2  C   UNL A   1      42.767  19.947  26.535  1.00  0.00     0.116 C 
BRANCH   2   3
ATOM      3  N   UNL A   1      43.136  20.761  25.387  1.00  0.00    -0.352 N 
ATOM      4  O   UNL A   1      43.670  22.673  24.293  1.00  0.00    -0.269 OA
ATOM      5  C   UNL A   1      43.505  22.084  25.355  1.00  0.00     0.251 C 
ATOM      6  H   UNL A   1      43.119  20.303  24.516  1.00  0.00     0.163 HD
BRANCH   5   7
ATOM      7  C   UNL A   1      43.684  22.807  26.627  1.00  0.00     0.039 A 
ATOM      8  C   UNL A   1      44.964  23.113  27.091  1.00  0.00     0.014 A 
ATOM      9  C   UNL A   1      42.557  23.158  27.370  1.00  0.00     0.014 A 
ATOM     10  C   UNL A   1      45.120  23.689  28.351  1.00  0.00     0.009 A 
ATOM     11  C   UNL A   1      42.721  23.741  28.629  1.00  0.00     0.009 A 
ATOM     12  C   UNL A   1      44.003  23.979  29.150  1.00  0.00    -0.025 A 
BRANCH  12  13
ATOM     13  C   UNL A   1      44.122  24.564  30.495  1.00  0.00     0.012 C 
ATOM     14  C   UNL A   1      44.128  25.881  30.756  1.00  0.00     0.053 C 
BRANCH  14  15
ATOM     15  C   UNL A   1      44.200  26.408  32.125  1.00  0.00     0.134 A 
ATOM     16  C   UNL A   1      44.767  25.605  33.115  1.00  0.00     0.100 A 
ATOM     17  N   UNL A   1      43.706  27.685  32.437  1.00  0.00    -0.228 N 
ATOM     18  C   UNL A   1      44.854  26.115  34.386  1.00  0.00     0.259 A 
ATOM     19  C   UNL A   1      43.820  28.117  33.760  1.00  0.00     0.333 A 
ATOM     20  O   UNL A   1      43.171  28.424  31.537  1.00  0.00    -0.710 OA
ATOM     21  N   UNL A   1      44.410  27.337  34.723  1.00  0.00    -0.049 NA
BRANCH  19  22
ATOM     22  C   UNL A   1      43.290  29.412  34.196  1.00  0.00     0.076 A 
ATOM     23  C   UNL A   1      44.082  30.572  34.108  1.00  0.00     0.017 A 
ATOM     24  C   UNL A   1      42.008  29.523  34.762  1.00  0.00     0.102 A 
ATOM     25  C   UNL A   1      43.610  31.810  34.555  1.00  0.00     0.008 A 
ATOM     26  C   UNL A   1      41.546  30.762  35.230  1.00  0.00     0.270 A 
ATOM     27  C   UNL A   1      42.342  31.910  35.122  1.00  0.00     0.085 A 
BRANCH  26  28
ATOM     28  N   UNL A   1      40.229  30.852  35.871  1.00  0.00     0.062 N 
ATOM     29  O   UNL A   1      39.641  29.792  36.130  1.00  0.00    -0.258 OA
ATOM     30  O   UNL A   1      39.769  31.982  36.090  1.00  0.00    -0.258 OA
ENDBRANCH  26  28
ENDBRANCH  19  22
ENDBRANCH  14  15
ENDBRANCH  12  13
ENDBRANCH   5   7
ENDBRANCH   2   3
ENDBRANCH   1   2
BRANCH   1  31
ATOM     31  C   UNL A   1      40.342  20.409  25.791  1.00  0.00     0.023 C 
BRANCH  31  32
ATOM     32  C   UNL A   1      39.820  21.544  26.664  1.00  0.00     0.116 C 
BRANCH  32  33
ATOM     33  N   UNL A   1      38.571  22.117  26.184  1.00  0.00    -0.352 N 
ATOM     34  C   UNL A   1      38.165  23.431  26.208  1.00  0.00     0.251 C 
ATOM     35  H   UNL A   1      37.933  21.479  25.791  1.00  0.00     0.163 HD
ATOM     36  O   UNL A   1      37.032  23.737  25.850  1.00  0.00    -0.269 OA
BRANCH  34  37
ATOM     37  C   UNL A   1      39.094  24.466  26.709  1.00  0.00     0.039 A 
ATOM     38  C   UNL A   1      39.909  25.145  25.799  1.00  0.00     0.014 A 
ATOM     39  C   UNL A   1      39.117  24.800  28.066  1.00  0.00     0.014 A 
ATOM     40  C   UNL A   1      40.690  26.218  26.239  1.00  0.00     0.010 A 
ATOM     41  C   UNL A   1      39.844  25.909  28.489  1.00  0.00     0.010 A 
ATOM     42  C   UNL A   1      40.631  26.634  27.578  1.00  0.00    -0.014 A 
BRANCH  42  43
ATOM     43  C   UNL A   1      41.376  27.824  28.066  1.00  0.00     0.031 A 
ATOM     44  C   UNL A   1      42.869  27.890  27.890  1.00  0.00     0.074 A 
ATOM     45  C   UNL A   1      40.732  28.787  28.757  1.00  0.00     0.049 A 
ATOM     46  N   UNL A   1      43.721  28.747  28.390  1.00  0.00    -0.248 NA
ATOM     47  C   UNL A   1      43.489  26.835  27.071  1.00  0.00     0.031 C 
ATOM     48  C   UNL A   1      39.293  28.825  29.027  1.00  0.00     0.029 A 
ATOM     49  N   UNL A   1      41.214  29.912  29.380  1.00  0.00    -0.354 N 
ATOM     50  C   UNL A   1      44.976  28.312  27.983  1.00  0.00     0.074 A 
ATOM     51  C   UNL A   1      44.778  27.103  27.213  1.00  0.00     0.031 C 
ATOM     52  C   UNL A   1      39.010  29.919  29.755  1.00  0.00     0.029 A 
ATOM     53  C   UNL A   1      40.248  30.636  30.040  1.00  0.00     0.049 A 
ATOM     54  H   UNL A   1      42.162  30.176  29.358  1.00  0.00     0.167 HD
ATOM     55  C   UNL A   1      46.184  28.874  28.220  1.00  0.00     0.031 A 
ATOM     56  C   UNL A   1      40.349  31.741  30.805  1.00  0.00     0.031 A 
ATOM     57  C   UNL A   1      46.376  30.100  28.945  1.00  0.00     0.049 A 
ATOM     58  C   UNL A   1      41.703  32.362  31.028  1.00  0.00     0.074 A 
ATOM     59  C   UNL A   1      47.557  30.785  29.177  1.00  0.00     0.029 A 
ATOM     60  N   UNL A   1      45.363  30.832  29.544  1.00  0.00    -0.354 N 
ATOM     61  N   UNL A   1      42.872  31.963  30.589  1.00  0.00    -0.248 NA
ATOM     62  C   UNL A   1      41.749  33.586  31.842  1.00  0.00     0.031 C 
ATOM     63  C   UNL A   1      47.262  31.916  29.944  1.00  0.00     0.029 A 
ATOM     64  C   UNL A   1      45.892  31.957  30.152  1.00  0.00     0.049 A 
ATOM     65  H   UNL A   1      44.410  30.589  29.538  1.00  0.00     0.167 HD
ATOM     66  C   UNL A   1      43.786  32.907  31.044  1.00  0.00     0.074 A 
ATOM     67  C   UNL A   1      43.037  33.897  31.787  1.00  0.00     0.031 C 
ATOM     68  C   UNL A   1      45.128  32.949  30.860  1.00  0.00     0.031 A 
BRANCH  55  69
ATOM     69  C   UNL A   1      47.403  28.172  27.688  1.00  0.00    -0.014 A 
ATOM     70  C   UNL A   1      48.091  28.665  26.566  1.00  0.00     0.010 A 
ATOM     71  C   UNL A   1      47.906  27.044  28.362  1.00  0.00     0.010 A 
ATOM     72  C   UNL A   1      49.249  28.028  26.112  1.00  0.00     0.020 A 
ATOM     73  C   UNL A   1      49.076  26.418  27.926  1.00  0.00     0.020 A 
ATOM     74  C   UNL A   1      49.734  26.907  26.795  1.00  0.00     0.054 A 
BRANCH  74  75
ATOM     75  S   UNL A   1      51.265  26.128  26.214  1.00  0.00     0.124 S 
ATOM     76  O   UNL A   1      52.275  27.090  26.650  1.00  0.00    -0.237 OA
ATOM     77  O   UNL A   1      51.265  24.852  26.924  1.00  0.00    -0.237 OA
ATOM     78  O   UNL A   1      51.078  26.034  24.768  1.00  0.00    -0.744 OA
ENDBRANCH  74  75
ENDBRANCH  55  69
BRANCH  56  79
ATOM     79  C   UNL A   1      39.136  32.340  31.427  1.00  0.00    -0.014 A 
ATOM     80  C   UNL A   1      38.742  31.963  32.723  1.00  0.00     0.010 A 
ATOM     81  C   UNL A   1      38.355  33.270  30.719  1.00  0.00     0.010 A 
ATOM     82  C   UNL A   1      37.569  32.475  33.285  1.00  0.00     0.020 A 
ATOM     83  C   UNL A   1      37.195  33.804  31.287  1.00  0.00     0.020 A 
ATOM     84  C   UNL A   1      36.799  33.388  32.560  1.00  0.00     0.054 A 
BRANCH  84  85
ATOM     85  S   UNL A   1      35.287  34.056  33.309  1.00  0.00     0.124 S 
ATOM     86  O   UNL A   1      35.291  33.411  34.619  1.00  0.00    -0.237 OA
ATOM     87  O   UNL A   1      35.540  35.494  33.310  1.00  0.00    -0.237 OA
ATOM     88  O   UNL A   1      34.234  33.617  32.396  1.00  0.00    -0.744 OA
ENDBRANCH  84  85
ENDBRANCH  56  79
BRANCH  68  89
ATOM     89  C   UNL A   1      45.875  34.131  31.412  1.00  0.00    -0.014 A 
ATOM     90  C   UNL A   1      46.432  34.103  32.701  1.00  0.00     0.010 A 
ATOM     91  C   UNL A   1      46.094  35.251  30.588  1.00  0.00     0.010 A 
ATOM     92  C   UNL A   1      47.189  35.183  33.162  1.00  0.00     0.020 A 
ATOM     93  C   UNL A   1      46.868  36.322  31.039  1.00  0.00     0.020 A 
ATOM     94  C   UNL A   1      47.406  36.285  32.327  1.00  0.00     0.054 A 
BRANCH  94  95
ATOM     95  S   UNL A   1      48.455  37.642  32.918  1.00  0.00     0.124 S 
ATOM     96  O   UNL A   1      48.657  38.421  31.700  1.00  0.00    -0.237 OA
ATOM     97  O   UNL A   1      47.620  38.274  33.938  1.00  0.00    -0.237 OA
ATOM     98  O   UNL A   1      49.643  36.962  33.430  1.00  0.00    -0.744 OA
ENDBRANCH  94  95
ENDBRANCH  68  89
ENDBRANCH  42  43
ENDBRANCH  34  37
ENDBRANCH  32  33
ENDBRANCH  31  32
ENDBRANCH   1  31
TORSDOF 18
ENDMDL
MODEL 2
REMARK VINA RESULT:      -8.7      4.424     12.365
REMARK SMILES O=C(NCCCCNC(=O)c1ccc(-c2c3nc(c(-c4ccc(S(=O)(=O)[O-])cc4)c4ccc([nH]4)c(-c4ccc(S(=O)(=O)[O-])cc4)c4nc(c(-c5ccc(S(=O)(=O)[O-])cc5)c5ccc2[nH]5)C=C4)C=C3)cc1)c1ccc(/C=C/c2ccnc(-c3cccc([N+](=O)[O-])c3)[n+]2[O-])cc1
REMARK SMILES IDX 5 1 4 2 3 3 1 4 2 5 71 7 72 8 94 9 73 10 93 11 74 12 75 13
REMARK SMILES IDX 76 14 77 15 78 16 91 17 79 18 81 19 92 20 80 21 82 22 83 23
REMARK SMILES IDX 90 24 84 25 86 26 85 27 87 28 88 29 89 30 6 31 7 32 8 33
REMARK SMILES IDX 9 34 10 36 11 37 12 38 70 39 13 40 69 41 14 42 15 43 16 44
REMARK SMILES IDX 63 45 17 46 68 47 62 48 64 49 18 50 67 51 61 52 60 53 19 55
REMARK SMILES IDX 49 56 30 57 48 58 31 59 34 60 47 61 65 62 32 63 33 64 46 66
REMARK SMILES IDX 66 67 35 68 20 69 21 70 29 71 22 72 28 73 23 74 24 75 25 76
REMARK SMILES IDX 26 77 27 78 50 79 51 80 59 81 52 82 58 83 53 84 54 85 55 86
REMARK SMILES IDX 56 87 57 88 36 89 37 90 45 91 38 92 44 93 39 94 40 95 41 96
REMARK SMILES IDX 42 97 43 98
REMARK H PARENT 3 6 8 35 64 54 34 65
REMARK Flexibility Score: inf
ROOT
ATOM      1  C   UNL A   1      37.800  33.342  29.446  1.00  0.00     0.023 C 
ENDROOT
BRANCH   1   2
ATOM      2  C   UNL A   1      36.634  33.629  28.504  1.00  0.00     0.116 C 
BRANCH   2   3
ATOM      3  N   UNL A   1      35.695  34.596  29.053  1.00  0.00    -0.352 N 
ATOM      4  O   UNL A   1      33.673  35.577  29.351  1.00  0.00    -0.269 OA
ATOM      5  C   UNL A   1      34.326  34.626  28.936  1.00  0.00     0.251 C 
ATOM      6  H   UNL A   1      36.093  35.327  29.578  1.00  0.00     0.163 HD
BRANCH   5   7
ATOM      7  C   UNL A   1      33.640  33.499  28.279  1.00  0.00     0.039 A 
ATOM      8  C   UNL A   1      34.179  32.213  28.340  1.00  0.00     0.014 A 
ATOM      9  C   UNL A   1      32.460  33.742  27.578  1.00  0.00     0.014 A 
ATOM     10  C   UNL A   1      33.583  31.182  27.615  1.00  0.00     0.009 A 
ATOM     11  C   UNL A   1      31.864  32.702  26.858  1.00  0.00     0.009 A 
ATOM     12  C   UNL A   1      32.438  31.421  26.838  1.00  0.00    -0.025 A 
BRANCH  12  13
ATOM     13  C   UNL A   1      31.791  30.369  26.037  1.00  0.00     0.012 C 
ATOM     14  C   UNL A   1      32.423  29.599  25.138  1.00  0.00     0.053 C 
BRANCH  14  15
ATOM     15  C   UNL A   1      31.737  28.529  24.402  1.00  0.00     0.134 A 
ATOM     16  C   UNL A   1      30.506  28.816  23.811  1.00  0.00     0.100 A 
ATOM     17  N   UNL A   1      32.299  27.246  24.298  1.00  0.00    -0.228 N 
ATOM     18  C   UNL A   1      29.884  27.818  23.103  1.00  0.00     0.259 A 
ATOM     19  C   UNL A   1      31.587  26.286  23.574  1.00  0.00     0.333 A 
ATOM     20  O   UNL A   1      33.421  26.969  24.850  1.00  0.00    -0.710 OA
ATOM     21  N   UNL A   1      30.394  26.583  22.965  1.00  0.00    -0.049 NA
BRANCH  19  22
ATOM     22  C   UNL A   1      32.064  24.906  23.450  1.00  0.00     0.076 A 
ATOM     23  C   UNL A   1      32.833  24.514  22.339  1.00  0.00     0.017 A 
ATOM     24  C   UNL A   1      31.722  23.927  24.401  1.00  0.00     0.102 A 
ATOM     25  C   UNL A   1      33.263  23.192  22.181  1.00  0.00     0.008 A 
ATOM     26  C   UNL A   1      32.136  22.599  24.229  1.00  0.00     0.270 A 
ATOM     27  C   UNL A   1      32.913  22.228  23.124  1.00  0.00     0.085 A 
BRANCH  26  28
ATOM     28  N   UNL A   1      31.723  21.577  25.199  1.00  0.00     0.062 N 
ATOM     29  O   UNL A   1      30.673  21.771  25.828  1.00  0.00    -0.258 OA
ATOM     30  O   UNL A   1      32.463  20.594  25.353  1.00  0.00    -0.258 OA
ENDBRANCH  26  28
ENDBRANCH  19  22
ENDBRANCH  14  15
ENDBRANCH  12  13
ENDBRANCH   5   7
ENDBRANCH   2   3
ENDBRANCH   1   2
BRANCH   1  31
ATOM     31  C   UNL A   1      37.415  32.726  30.790  1.00  0.00     0.023 C 
BRANCH  31  32
ATOM     32  C   UNL A   1      37.624  31.221  30.907  1.00  0.00     0.116 C 
BRANCH  32  33
ATOM     33  N   UNL A   1      36.644  30.442  30.164  1.00  0.00    -0.352 N 
ATOM     34  C   UNL A   1      36.861  29.489  29.195  1.00  0.00     0.251 C 
ATOM     35  H   UNL A   1      35.701  30.620  30.385  1.00  0.00     0.163 HD
ATOM     36  O   UNL A   1      35.915  28.991  28.593  1.00  0.00    -0.269 OA
BRANCH  34  37
ATOM     37  C   UNL A   1      38.247  29.103  28.859  1.00  0.00     0.039 A 
ATOM     38  C   UNL A   1      38.744  29.395  27.585  1.00  0.00     0.014 A 
ATOM     39  C   UNL A   1      39.068  28.504  29.818  1.00  0.00     0.014 A 
ATOM     40  C   UNL A   1      40.092  29.161  27.300  1.00  0.00     0.010 A 
ATOM     41  C   UNL A   1      40.423  28.332  29.552  1.00  0.00     0.010 A 
ATOM     42  C   UNL A   1      40.951  28.667  28.294  1.00  0.00    -0.014 A 
BRANCH  42  43
ATOM     43  C   UNL A   1      42.407  28.488  28.058  1.00  0.00     0.031 A 
ATOM     44  C   UNL A   1      43.342  29.648  28.267  1.00  0.00     0.074 A 
ATOM     45  C   UNL A   1      42.872  27.324  27.557  1.00  0.00     0.049 A 
ATOM     46  N   UNL A   1      44.608  29.752  27.956  1.00  0.00    -0.248 NA
ATOM     47  C   UNL A   1      42.770  30.860  28.875  1.00  0.00     0.031 C 
ATOM     48  C   UNL A   1      42.065  26.134  27.276  1.00  0.00     0.029 A 
ATOM     49  N   UNL A   1      44.139  26.962  27.171  1.00  0.00    -0.354 N 
ATOM     50  C   UNL A   1      44.972  31.051  28.290  1.00  0.00     0.074 A 
ATOM     51  C   UNL A   1      43.790  31.704  28.808  1.00  0.00     0.031 C 
ATOM     52  C   UNL A   1      42.857  25.174  26.770  1.00  0.00     0.029 A 
ATOM     53  C   UNL A   1      44.216  25.691  26.649  1.00  0.00     0.049 A 
ATOM     54  H   UNL A   1      44.919  27.555  27.259  1.00  0.00     0.167 HD
ATOM     55  C   UNL A   1      46.185  31.643  28.185  1.00  0.00     0.031 A 
ATOM     56  C   UNL A   1      45.258  25.024  26.114  1.00  0.00     0.031 A 
ATOM     57  C   UNL A   1      47.370  30.979  27.715  1.00  0.00     0.049 A 
ATOM     58  C   UNL A   1      46.603  25.698  26.037  1.00  0.00     0.074 A 
ATOM     59  C   UNL A   1      48.660  31.476  27.639  1.00  0.00     0.029 A 
ATOM     60  N   UNL A   1      47.414  29.673  27.254  1.00  0.00    -0.354 N 
ATOM     61  N   UNL A   1      46.937  26.910  26.409  1.00  0.00    -0.248 NA
ATOM     62  C   UNL A   1      47.712  24.911  25.477  1.00  0.00     0.031 C 
ATOM     63  C   UNL A   1      49.480  30.480  27.101  1.00  0.00     0.029 A 
ATOM     64  C   UNL A   1      48.708  29.350  26.884  1.00  0.00     0.049 A 
ATOM     65  H   UNL A   1      46.642  29.066  27.198  1.00  0.00     0.167 HD
ATOM     66  C   UNL A   1      48.302  27.016  26.160  1.00  0.00     0.074 A 
ATOM     67  C   UNL A   1      48.731  25.748  25.611  1.00  0.00     0.031 C 
ATOM     68  C   UNL A   1      49.124  28.072  26.370  1.00  0.00     0.031 A 
BRANCH  55  69
ATOM     69  C   UNL A   1      46.300  33.087  28.590  1.00  0.00    -0.014 A 
ATOM     70  C   UNL A   1      45.979  34.119  27.693  1.00  0.00     0.010 A 
ATOM     71  C   UNL A   1      46.665  33.411  29.910  1.00  0.00     0.010 A 
ATOM     72  C   UNL A   1      46.045  35.454  28.099  1.00  0.00     0.020 A 
ATOM     73  C   UNL A   1      46.710  34.744  30.327  1.00  0.00     0.020 A 
ATOM     74  C   UNL A   1      46.411  35.758  29.415  1.00  0.00     0.054 A 
BRANCH  74  75
ATOM     75  S   UNL A   1      46.442  37.496  29.931  1.00  0.00     0.124 S 
ATOM     76  O   UNL A   1      46.171  37.390  31.362  1.00  0.00    -0.237 OA
ATOM     77  O   UNL A   1      47.797  37.912  29.577  1.00  0.00    -0.237 OA
ATOM     78  O   UNL A   1      45.379  38.112  29.139  1.00  0.00    -0.744 OA
ENDBRANCH  74  75
ENDBRANCH  55  69
BRANCH  56  79
ATOM     79  C   UNL A   1      45.083  23.638  25.601  1.00  0.00    -0.014 A 
ATOM     80  C   UNL A   1      45.299  22.535  26.446  1.00  0.00     0.010 A 
ATOM     81  C   UNL A   1      44.725  23.412  24.261  1.00  0.00     0.010 A 
ATOM     82  C   UNL A   1      45.198  21.232  25.951  1.00  0.00     0.020 A 
ATOM     83  C   UNL A   1      44.598  22.110  23.768  1.00  0.00     0.020 A 
ATOM     84  C   UNL A   1      44.854  21.028  24.612  1.00  0.00     0.054 A 
BRANCH  84  85
ATOM     85  S   UNL A   1      44.712  19.330  23.988  1.00  0.00     0.124 S 
ATOM     86  O   UNL A   1      43.491  18.870  24.644  1.00  0.00    -0.237 OA
ATOM     87  O   UNL A   1      44.619  19.527  22.544  1.00  0.00    -0.237 OA
ATOM     88  O   UNL A   1      45.947  18.696  24.444  1.00  0.00    -0.744 OA
ENDBRANCH  84  85
ENDBRANCH  56  79
BRANCH  68  89
ATOM     89  C   UNL A   1      50.586  27.892  26.069  1.00  0.00    -0.014 A 
ATOM     90  C   UNL A   1      51.484  27.452  27.056  1.00  0.00     0.010 A 
ATOM     91  C   UNL A   1      51.045  28.081  24.752  1.00  0.00     0.010 A 
ATOM     92  C   UNL A   1      52.823  27.217  26.733  1.00  0.00     0.020 A 
ATOM     93  C   UNL A   1      52.378  27.826  24.422  1.00  0.00     0.020 A 
ATOM     94  C   UNL A   1      53.261  27.401  25.417  1.00  0.00     0.054 A 
BRANCH  94  95
ATOM     95  S   UNL A   1      54.985  27.016  25.003  1.00  0.00     0.124 S 
ATOM     96  O   UNL A   1      55.319  28.087  24.069  1.00  0.00    -0.237 OA
ATOM     97  O   UNL A   1      55.651  27.084  26.302  1.00  0.00    -0.237 OA
ATOM     98  O   UNL A   1      54.909  25.679  24.419  1.00  0.00    -0.744 OA
ENDBRANCH  94  95
ENDBRANCH  68  89
ENDBRANCH  42  43
ENDBRANCH  34  37
ENDBRANCH  32  33
ENDBRANCH  31  32
ENDBRANCH   1  31
TORSDOF 18
ENDMDL
MODEL 3
REMARK VINA RESULT:      -8.6      4.387     11.716
REMARK SMILES O=C(NCCCCNC(=O)c1ccc(-c2c3nc(c(-c4ccc(S(=O)(=O)[O-])cc4)c4ccc([nH]4)c(-c4ccc(S(=O)(=O)[O-])cc4)c4nc(c(-c5ccc(S(=O)(=O)[O-])cc5)c5ccc2[nH]5)C=C4)C=C3)cc1)c1ccc(/C=C/c2ccnc(-c3cccc([N+](=O)[O-])c3)[n+]2[O-])cc1
REMARK SMILES IDX 5 1 4 2 3 3 1 4 2 5 71 7 72 8 94 9 73 10 93 11 74 12 75 13
REMARK SMILES IDX 76 14 77 15 78 16 91 17 79 18 81 19 92 20 80 21 82 22 83 23
REMARK SMILES IDX 90 24 84 25 86 26 85 27 87 28 88 29 89 30 6 31 7 32 8 33
REMARK SMILES IDX 9 34 10 36 11 37 12 38 70 39 13 40 69 41 14 42 15 43 16 44
REMARK SMILES IDX 63 45 17 46 68 47 62 48 64 49 18 50 67 51 61 52 60 53 19 55
REMARK SMILES IDX 49 56 30 57 48 58 31 59 34 60 47 61 65 62 32 63 33 64 46 66
REMARK SMILES IDX 66 67 35 68 20 69 21 70 29 71 22 72 28 73 23 74 24 75 25 76
REMARK SMILES IDX 26 77 27 78 50 79 51 80 59 81 52 82 58 83 53 84 54 85 55 86
REMARK SMILES IDX 56 87 57 88 36 89 37 90 45 91 38 92 44 93 39 94 40 95 41 96
REMARK SMILES IDX 42 97 43 98
REMARK H PARENT 3 6 8 35 64 54 34 65
REMARK Flexibility Score: inf
ROOT
ATOM      1  C   UNL A   1      37.988  33.516  29.370  1.00  0.00     0.023 C 
ENDROOT
BRANCH   1   2
ATOM      2  C   UNL A   1      36.732  33.563  28.503  1.00  0.00     0.116 C 
BRANCH   2   3
ATOM      3  N   UNL A   1      35.827  34.637  28.883  1.00  0.00    -0.352 N 
ATOM      4  O   UNL A   1      33.850  35.742  28.972  1.00  0.00    -0.269 OA
ATOM      5  C   UNL A   1      34.467  34.716  28.711  1.00  0.00     0.251 C 
ATOM      6  H   UNL A   1      36.246  35.412  29.323  1.00  0.00     0.163 HD
BRANCH   5   7
ATOM      7  C   UNL A   1      33.745  33.544  28.183  1.00  0.00     0.039 A 
ATOM      8  C   UNL A   1      34.318  32.273  28.249  1.00  0.00     0.014 A 
ATOM      9  C   UNL A   1      32.494  33.728  27.595  1.00  0.00     0.014 A 
ATOM     10  C   UNL A   1      33.676  31.196  27.638  1.00  0.00     0.009 A 
ATOM     11  C   UNL A   1      31.854  32.643  26.991  1.00  0.00     0.009 A 
ATOM     12  C   UNL A   1      32.453  31.374  26.973  1.00  0.00    -0.025 A 
BRANCH  12  13
ATOM     13  C   UNL A   1      31.754  30.271  26.294  1.00  0.00     0.012 C 
ATOM     14  C   UNL A   1      32.268  29.549  25.285  1.00  0.00     0.053 C 
BRANCH  14  15
ATOM     15  C   UNL A   1      31.544  28.425  24.677  1.00  0.00     0.134 A 
ATOM     16  C   UNL A   1      30.643  28.698  23.647  1.00  0.00     0.100 A 
ATOM     17  N   UNL A   1      31.744  27.108  25.122  1.00  0.00    -0.228 N 
ATOM     18  C   UNL A   1      29.990  27.640  23.066  1.00  0.00     0.259 A 
ATOM     19  C   UNL A   1      31.023  26.095  24.486  1.00  0.00     0.333 A 
ATOM     20  O   UNL A   1      32.558  26.850  26.077  1.00  0.00    -0.710 OA
ATOM     21  N   UNL A   1      30.165  26.364  23.449  1.00  0.00    -0.049 NA
BRANCH  19  22
ATOM     22  C   UNL A   1      31.124  24.696  24.910  1.00  0.00     0.076 A 
ATOM     23  C   UNL A   1      30.480  24.258  26.082  1.00  0.00     0.017 A 
ATOM     24  C   UNL A   1      31.907  23.771  24.196  1.00  0.00     0.102 A 
ATOM     25  C   UNL A   1      30.597  22.937  26.527  1.00  0.00     0.008 A 
ATOM     26  C   UNL A   1      32.040  22.453  24.656  1.00  0.00     0.270 A 
ATOM     27  C   UNL A   1      31.380  22.030  25.817  1.00  0.00     0.085 A 
BRANCH  26  28
ATOM     28  N   UNL A   1      32.906  21.514  23.933  1.00  0.00     0.062 N 
ATOM     29  O   UNL A   1      32.360  20.614  23.279  1.00  0.00    -0.258 OA
ATOM     30  O   UNL A   1      34.132  21.658  24.041  1.00  0.00    -0.258 OA
ENDBRANCH  26  28
ENDBRANCH  19  22
ENDBRANCH  14  15
ENDBRANCH  12  13
ENDBRANCH   5   7
ENDBRANCH   2   3
ENDBRANCH   1   2
BRANCH   1  31
ATOM     31  C   UNL A   1      37.807  34.010  30.805  1.00  0.00     0.023 C 
BRANCH  31  32
ATOM     32  C   UNL A   1      38.051  32.971  31.893  1.00  0.00     0.116 C 
BRANCH  32  33
ATOM     33  N   UNL A   1      37.009  31.958  31.969  1.00  0.00    -0.352 N 
ATOM     34  C   UNL A   1      37.019  30.677  31.467  1.00  0.00     0.251 C 
ATOM     35  H   UNL A   1      36.188  32.224  32.443  1.00  0.00     0.163 HD
ATOM     36  O   UNL A   1      36.013  29.977  31.533  1.00  0.00    -0.269 OA
BRANCH  34  37
ATOM     37  C   UNL A   1      38.242  30.167  30.810  1.00  0.00     0.039 A 
ATOM     38  C   UNL A   1      38.324  30.192  29.415  1.00  0.00     0.014 A 
ATOM     39  C   UNL A   1      39.322  29.720  31.575  1.00  0.00     0.014 A 
ATOM     40  C   UNL A   1      39.523  29.843  28.789  1.00  0.00     0.010 A 
ATOM     41  C   UNL A   1      40.534  29.436  30.953  1.00  0.00     0.010 A 
ATOM     42  C   UNL A   1      40.650  29.503  29.554  1.00  0.00    -0.014 A 
BRANCH  42  43
ATOM     43  C   UNL A   1      41.967  29.212  28.930  1.00  0.00     0.031 A 
ATOM     44  C   UNL A   1      42.247  27.835  28.393  1.00  0.00     0.074 A 
ATOM     45  C   UNL A   1      42.941  30.146  28.943  1.00  0.00     0.049 A 
ATOM     46  N   UNL A   1      43.377  27.330  27.972  1.00  0.00    -0.248 NA
ATOM     47  C   UNL A   1      41.116  26.893  28.356  1.00  0.00     0.031 C 
ATOM     48  C   UNL A   1      42.809  31.508  29.465  1.00  0.00     0.029 A 
ATOM     49  N   UNL A   1      44.247  30.079  28.523  1.00  0.00    -0.354 N 
ATOM     50  C   UNL A   1      43.104  26.003  27.660  1.00  0.00     0.074 A 
ATOM     51  C   UNL A   1      41.707  25.775  27.961  1.00  0.00     0.031 C 
ATOM     52  C   UNL A   1      43.983  32.148  29.330  1.00  0.00     0.029 A 
ATOM     53  C   UNL A   1      44.961  31.233  28.752  1.00  0.00     0.049 A 
ATOM     54  H   UNL A   1      44.636  29.281  28.099  1.00  0.00     0.167 HD
ATOM     55  C   UNL A   1      43.938  25.062  27.159  1.00  0.00     0.031 A 
ATOM     56  C   UNL A   1      46.262  31.516  28.540  1.00  0.00     0.031 A 
ATOM     57  C   UNL A   1      45.313  25.302  26.816  1.00  0.00     0.049 A 
ATOM     58  C   UNL A   1      47.160  30.459  27.954  1.00  0.00     0.074 A 
ATOM     59  C   UNL A   1      46.218  24.429  26.237  1.00  0.00     0.029 A 
ATOM     60  N   UNL A   1      45.978  26.502  27.008  1.00  0.00    -0.354 N 
ATOM     61  N   UNL A   1      46.867  29.226  27.617  1.00  0.00    -0.248 NA
ATOM     62  C   UNL A   1      48.561  30.834  27.711  1.00  0.00     0.031 C 
ATOM     63  C   UNL A   1      47.441  25.093  26.107  1.00  0.00     0.029 A 
ATOM     64  C   UNL A   1      47.284  26.392  26.565  1.00  0.00     0.049 A 
ATOM     65  H   UNL A   1      45.581  27.313  27.399  1.00  0.00     0.167 HD
ATOM     66  C   UNL A   1      48.038  28.692  27.090  1.00  0.00     0.074 A 
ATOM     67  C   UNL A   1      49.041  29.733  27.149  1.00  0.00     0.031 C 
ATOM     68  C   UNL A   1      48.260  27.448  26.601  1.00  0.00     0.031 A 
BRANCH  55  69
ATOM     69  C   UNL A   1      43.389  23.679  26.944  1.00  0.00    -0.014 A 
ATOM     70  C   UNL A   1      43.102  23.205  25.652  1.00  0.00     0.010 A 
ATOM     71  C   UNL A   1      43.225  22.817  28.044  1.00  0.00     0.010 A 
ATOM     72  C   UNL A   1      42.637  21.901  25.466  1.00  0.00     0.020 A 
ATOM     73  C   UNL A   1      42.782  21.505  27.860  1.00  0.00     0.020 A 
ATOM     74  C   UNL A   1      42.480  21.059  26.571  1.00  0.00     0.054 A 
BRANCH  74  75
ATOM     75  S   UNL A   1      41.921  19.356  26.296  1.00  0.00     0.124 S 
ATOM     76  O   UNL A   1      40.473  19.525  26.209  1.00  0.00    -0.237 OA
ATOM     77  O   UNL A   1      42.587  18.997  25.047  1.00  0.00    -0.237 OA
ATOM     78  O   UNL A   1      42.394  18.641  27.479  1.00  0.00    -0.744 OA
ENDBRANCH  74  75
ENDBRANCH  55  69
BRANCH  56  79
ATOM     79  C   UNL A   1      46.807  32.858  28.885  1.00  0.00    -0.014 A 
ATOM     80  C   UNL A   1      47.248  33.131  30.192  1.00  0.00     0.010 A 
ATOM     81  C   UNL A   1      46.863  33.876  27.917  1.00  0.00     0.010 A 
ATOM     82  C   UNL A   1      47.700  34.408  30.535  1.00  0.00     0.020 A 
ATOM     83  C   UNL A   1      47.338  35.148  28.250  1.00  0.00     0.020 A 
ATOM     84  C   UNL A   1      47.736  35.411  29.562  1.00  0.00     0.054 A 
BRANCH  84  85
ATOM     85  S   UNL A   1      48.340  37.060  30.020  1.00  0.00     0.124 S 
ATOM     86  O   UNL A   1      49.786  36.889  29.917  1.00  0.00    -0.237 OA
ATOM     87  O   UNL A   1      47.730  37.916  29.006  1.00  0.00    -0.237 OA
ATOM     88  O   UNL A   1      47.824  37.247  31.374  1.00  0.00    -0.744 OA
ENDBRANCH  84  85
ENDBRANCH  56  79
BRANCH  68  89
ATOM     89  C   UNL A   1      49.619  27.153  26.027  1.00  0.00    -0.014 A 
ATOM     90  C   UNL A   1      50.669  26.697  26.841  1.00  0.00     0.010 A 
ATOM     91  C   UNL A   1      49.813  27.251  24.637  1.00  0.00     0.010 A 
ATOM     92  C   UNL A   1      51.899  26.354  26.272  1.00  0.00     0.020 A 
ATOM     93  C   UNL A   1      51.034  26.889  24.064  1.00  0.00     0.020 A 
ATOM     94  C   UNL A   1      52.073  26.448  24.888  1.00  0.00     0.054 A 
BRANCH  94  95
ATOM     95  S   UNL A   1      53.652  25.926  24.164  1.00  0.00     0.124 S 
ATOM     96  O   UNL A   1      53.727  24.527  24.576  1.00  0.00    -0.237 OA
ATOM     97  O   UNL A   1      53.441  26.150  22.735  1.00  0.00    -0.237 OA
ATOM     98  O   UNL A   1      54.629  26.814  24.788  1.00  0.00    -0.744 OA
ENDBRANCH  94  95
ENDBRANCH  68  89
ENDBRANCH  42  43
ENDBRANCH  34  37
ENDBRANCH  32  33
ENDBRANCH  31  32
ENDBRANCH   1  31
TORSDOF 18
ENDMDL
