MODEL 1
REMARK VINA RESULT:     -11.5      0.000      0.000
REMARK SMILES CC[C@H](C)[C@H](NC(=O)N1CCc2cc(OC)c(OC)cc2[C@@H]1c1ccc(F)cc1)C(=O)NCCCCNC(=O)c1ccc(-c2c3nc(c(-c4ccc(S(=O)(=O)[O-])cc4)c4ccc([nH]4)c(-c4ccc(S(=O)(=O)[O-])cc4)c4nc(c(-c5ccc(S(=O)(=O)[O-])cc5)c5ccc2[nH]5)C=C4)C=C3)cc1
REMARK SMILES IDX 34 1 33 2 32 3 30 4 31 5 5 7 3 8 4 9 2 10 1 11 6 12 7 13
REMARK SMILES IDX 8 15 9 16 10 17 22 18 11 19 21 20 12 21 20 22 13 23 17 24
REMARK SMILES IDX 14 25 23 26 24 27 29 28 25 29 28 30 26 31 27 32 18 33 19 34
REMARK SMILES IDX 15 35 16 36 35 37 36 38 37 39 38 40 39 42 40 43 41 44 99 45
REMARK SMILES IDX 42 46 98 47 43 48 44 49 45 50 92 51 46 52 97 53 91 54 93 55
REMARK SMILES IDX 47 56 96 57 90 58 89 59 48 61 78 62 59 63 77 64 60 65 63 66
REMARK SMILES IDX 76 67 94 68 61 69 62 70 75 72 95 73 64 74 49 75 50 76 58 77
REMARK SMILES IDX 51 78 57 79 52 80 53 81 54 82 55 83 56 84 79 85 80 86 88 87
REMARK SMILES IDX 81 88 87 89 82 90 83 91 84 92 85 93 86 94 65 95 66 96 74 97
REMARK SMILES IDX 67 98 73 99 68 100 69 101 70 102 71 103 72 104
REMARK H PARENT 32 6 6 14 37 41 93 60 63 71
REMARK Flexibility Score: inf
ROOT
ATOM      1  C   UNL A   1      31.558  30.926  26.659  1.00  0.00     0.023 C 
ENDROOT
BRANCH   1   2
ATOM      2  C   UNL A   1      32.715  30.231  27.363  1.00  0.00     0.116 C 
BRANCH   2   3
ATOM      3  N   UNL A   1      32.544  28.815  27.255  1.00  0.00    -0.354 N 
ATOM      4  C   UNL A   1      33.288  28.027  26.420  1.00  0.00     0.242 C 
ATOM      5  O   UNL A   1      34.509  28.055  26.372  1.00  0.00    -0.273 OA
ATOM      6  H   UNL A   1      31.856  28.385  27.811  1.00  0.00     0.163 HD
BRANCH   4   7
ATOM      7  C   UNL A   1      32.390  27.185  25.474  1.00  0.00     0.176 C 
BRANCH   7   8
ATOM      8  C   UNL A   1      31.285  28.121  24.876  1.00  0.00     0.018 C 
ATOM      9  C   UNL A   1      31.781  28.908  23.643  1.00  0.00     0.010 C 
BRANCH   8  10
ATOM     10  C   UNL A   1      29.995  27.365  24.480  1.00  0.00     0.002 C 
ATOM     11  C   UNL A   1      29.292  27.926  23.254  1.00  0.00     0.004 C 
ENDBRANCH   8  10
ENDBRANCH   7   8
BRANCH   7  12
ATOM     12  N   UNL A   1      31.768  26.038  26.191  1.00  0.00    -0.326 N 
ATOM     13  C   UNL A   1      31.982  24.706  26.285  1.00  0.00     0.318 C 
ATOM     14  H   UNL A   1      31.000  26.323  26.738  1.00  0.00     0.166 HD
ATOM     15  O   UNL A   1      31.249  24.117  27.082  1.00  0.00    -0.249 OA
BRANCH  13  16
ATOM     16  N   UNL A   1      33.012  24.078  25.633  1.00  0.00    -0.313 N 
ATOM     17  C   UNL A   1      34.454  24.380  25.755  1.00  0.00     0.127 C 
ATOM     18  C   UNL A   1      32.640  23.078  24.581  1.00  0.00     0.148 C 
ATOM     19  C   UNL A   1      35.376  23.685  24.752  1.00  0.00     0.057 C 
ATOM     20  C   UNL A   1      33.641  21.911  24.640  1.00  0.00    -0.014 A 
ATOM     21  C   UNL A   1      35.006  22.235  24.713  1.00  0.00    -0.037 A 
ATOM     22  C   UNL A   1      33.258  20.557  24.648  1.00  0.00     0.057 A 
ATOM     23  C   UNL A   1      35.968  21.235  24.793  1.00  0.00     0.054 A 
ATOM     24  C   UNL A   1      34.229  19.542  24.737  1.00  0.00     0.161 A 
ATOM     25  C   UNL A   1      35.589  19.894  24.809  1.00  0.00     0.161 A 
BRANCH  18  26
ATOM     26  C   UNL A   1      32.582  23.739  23.188  1.00  0.00    -0.021 A 
ATOM     27  C   UNL A   1      33.196  23.131  22.077  1.00  0.00     0.009 A 
ATOM     28  C   UNL A   1      31.957  24.989  22.991  1.00  0.00     0.009 A 
ATOM     29  C   UNL A   1      33.258  23.791  20.846  1.00  0.00     0.039 A 
ATOM     30  C   UNL A   1      32.029  25.651  21.768  1.00  0.00     0.039 A 
ATOM     31  C   UNL A   1      32.691  25.051  20.711  1.00  0.00     0.123 A 
ATOM     32  F   UNL A   1      32.786  25.703  19.544  1.00  0.00    -0.207 F 
ENDBRANCH  18  26
BRANCH  24  33
ATOM     33  O   UNL A   1      33.900  18.217  24.868  1.00  0.00    -0.493 OA
ATOM     34  C   UNL A   1      33.840  17.444  23.675  1.00  0.00     0.278 C 
ENDBRANCH  24  33
BRANCH  25  35
ATOM     35  O   UNL A   1      36.660  19.055  24.970  1.00  0.00    -0.493 OA
ATOM     36  C   UNL A   1      37.933  19.677  24.900  1.00  0.00     0.278 C 
ENDBRANCH  25  35
ENDBRANCH  13  16
ENDBRANCH   7  12
ENDBRANCH   4   7
ENDBRANCH   2   3
ENDBRANCH   1   2
BRANCH   1  37
ATOM     37  C   UNL A   1      31.614  32.459  26.720  1.00  0.00     0.023 C 
BRANCH  37  38
ATOM     38  C   UNL A   1      32.902  33.033  27.302  1.00  0.00     0.116 C 
BRANCH  38  39
ATOM     39  N   UNL A   1      32.646  34.294  27.973  1.00  0.00    -0.352 N 
ATOM     40  C   UNL A   1      33.172  34.794  29.133  1.00  0.00     0.251 C 
ATOM     41  H   UNL A   1      31.994  34.880  27.523  1.00  0.00     0.163 HD
ATOM     42  O   UNL A   1      32.603  35.736  29.682  1.00  0.00    -0.269 OA
BRANCH  40  43
ATOM     43  C   UNL A   1      34.404  34.228  29.730  1.00  0.00     0.039 A 
ATOM     44  C   UNL A   1      34.289  33.493  30.915  1.00  0.00     0.014 A 
ATOM     45  C   UNL A   1      35.670  34.489  29.203  1.00  0.00     0.014 A 
ATOM     46  C   UNL A   1      35.432  33.007  31.561  1.00  0.00     0.010 A 
ATOM     47  C   UNL A   1      36.806  33.951  29.816  1.00  0.00     0.010 A 
ATOM     48  C   UNL A   1      36.704  33.215  31.010  1.00  0.00    -0.014 A 
BRANCH  48  49
ATOM     49  C   UNL A   1      37.940  32.671  31.642  1.00  0.00     0.031 A 
ATOM     50  C   UNL A   1      38.531  31.366  31.167  1.00  0.00     0.074 A 
ATOM     51  C   UNL A   1      38.470  33.277  32.726  1.00  0.00     0.049 A 
ATOM     52  N   UNL A   1      39.503  30.663  31.694  1.00  0.00    -0.248 NA
ATOM     53  C   UNL A   1      37.968  30.780  29.939  1.00  0.00     0.031 C 
ATOM     54  C   UNL A   1      38.017  34.540  33.311  1.00  0.00     0.029 A 
ATOM     55  N   UNL A   1      39.443  32.843  33.597  1.00  0.00    -0.354 N 
ATOM     56  C   UNL A   1      39.694  29.579  30.846  1.00  0.00     0.074 A 
ATOM     57  C   UNL A   1      38.683  29.669  29.813  1.00  0.00     0.031 C 
ATOM     58  C   UNL A   1      38.601  34.705  34.510  1.00  0.00     0.029 A 
ATOM     59  C   UNL A   1      39.482  33.571  34.764  1.00  0.00     0.049 A 
ATOM     60  H   UNL A   1      40.048  32.090  33.406  1.00  0.00     0.167 HD
ATOM     61  C   UNL A   1      40.656  28.624  30.891  1.00  0.00     0.031 A 
ATOM     62  C   UNL A   1      40.106  33.332  35.933  1.00  0.00     0.031 A 
ATOM     63  C   UNL A   1      41.666  28.536  31.913  1.00  0.00     0.049 A 
ATOM     64  C   UNL A   1      41.061  32.180  36.047  1.00  0.00     0.074 A 
ATOM     65  C   UNL A   1      42.767  27.698  31.967  1.00  0.00     0.029 A 
ATOM     66  N   UNL A   1      41.685  29.292  33.074  1.00  0.00    -0.354 N 
ATOM     67  N   UNL A   1      41.331  31.250  35.165  1.00  0.00    -0.248 NA
ATOM     68  C   UNL A   1      41.839  32.083  37.290  1.00  0.00     0.031 C 
ATOM     69  C   UNL A   1      43.419  27.906  33.187  1.00  0.00     0.029 A 
ATOM     70  C   UNL A   1      42.752  28.909  33.870  1.00  0.00     0.049 A 
ATOM     71  H   UNL A   1      41.036  29.996  33.299  1.00  0.00     0.167 HD
ATOM     72  C   UNL A   1      42.368  30.504  35.716  1.00  0.00     0.074 A 
ATOM     73  C   UNL A   1      42.651  31.070  37.017  1.00  0.00     0.031 C 
ATOM     74  C   UNL A   1      43.045  29.467  35.164  1.00  0.00     0.031 A 
BRANCH  61  75
ATOM     75  C   UNL A   1      40.710  27.619  29.772  1.00  0.00    -0.014 A 
ATOM     76  C   UNL A   1      39.690  26.659  29.628  1.00  0.00     0.010 A 
ATOM     77  C   UNL A   1      41.713  27.701  28.790  1.00  0.00     0.010 A 
ATOM     78  C   UNL A   1      39.684  25.788  28.536  1.00  0.00     0.020 A 
ATOM     79  C   UNL A   1      41.699  26.845  27.684  1.00  0.00     0.020 A 
ATOM     80  C   UNL A   1      40.688  25.889  27.568  1.00  0.00     0.054 A 
BRANCH  80  81
ATOM     81  S   UNL A   1      40.616  24.788  26.128  1.00  0.00     0.124 S 
ATOM     82  O   UNL A   1      41.499  23.698  26.536  1.00  0.00    -0.237 OA
ATOM     83  O   UNL A   1      39.196  24.451  26.053  1.00  0.00    -0.237 OA
ATOM     84  O   UNL A   1      41.114  25.615  25.032  1.00  0.00    -0.744 OA
ENDBRANCH  80  81
ENDBRANCH  61  75
BRANCH  62  85
ATOM     85  C   UNL A   1      39.839  34.203  37.107  1.00  0.00    -0.014 A 
ATOM     86  C   UNL A   1      38.898  33.829  38.080  1.00  0.00     0.010 A 
ATOM     87  C   UNL A   1      40.521  35.426  37.238  1.00  0.00     0.010 A 
ATOM     88  C   UNL A   1      38.621  34.680  39.151  1.00  0.00     0.020 A 
ATOM     89  C   UNL A   1      40.259  36.272  38.318  1.00  0.00     0.020 A 
ATOM     90  C   UNL A   1      39.300  35.899  39.261  1.00  0.00     0.054 A 
BRANCH  90  91
ATOM     91  S   UNL A   1      38.936  36.974  40.676  1.00  0.00     0.124 S 
ATOM     92  O   UNL A   1      40.268  37.234  41.211  1.00  0.00    -0.237 OA
ATOM     93  O   UNL A   1      38.273  38.112  40.042  1.00  0.00    -0.237 OA
ATOM     94  O   UNL A   1      38.070  36.150  41.516  1.00  0.00    -0.744 OA
ENDBRANCH  90  91
ENDBRANCH  62  85
BRANCH  74  95
ATOM     95  C   UNL A   1      44.214  28.916  35.933  1.00  0.00    -0.014 A 
ATOM     96  C   UNL A   1      45.496  29.482  35.829  1.00  0.00     0.010 A 
ATOM     97  C   UNL A   1      44.015  27.825  36.800  1.00  0.00     0.010 A 
ATOM     98  C   UNL A   1      46.564  28.947  36.556  1.00  0.00     0.020 A 
ATOM     99  C   UNL A   1      45.072  27.305  37.549  1.00  0.00     0.020 A 
ATOM    100  C   UNL A   1      46.345  27.861  37.410  1.00  0.00     0.054 A 
BRANCH 100 101
ATOM    101  S   UNL A   1      47.739  27.211  38.374  1.00  0.00     0.124 S 
ATOM    102  O   UNL A   1      47.067  26.657  39.544  1.00  0.00    -0.237 OA
ATOM    103  O   UNL A   1      48.332  26.235  37.465  1.00  0.00    -0.237 OA
ATOM    104  O   UNL A   1      48.562  28.394  38.630  1.00  0.00    -0.744 OA
ENDBRANCH 100 101
ENDBRANCH  74  95
ENDBRANCH  48  49
ENDBRANCH  40  43
ENDBRANCH  38  39
ENDBRANCH  37  38
ENDBRANCH   1  37
TORSDOF 21
ENDMDL
MODEL 2
REMARK VINA RESULT:     -11.0      1.058      7.649
REMARK SMILES CC[C@H](C)[C@H](NC(=O)N1CCc2cc(OC)c(OC)cc2[C@@H]1c1ccc(F)cc1)C(=O)NCCCCNC(=O)c1ccc(-c2c3nc(c(-c4ccc(S(=O)(=O)[O-])cc4)c4ccc([nH]4)c(-c4ccc(S(=O)(=O)[O-])cc4)c4nc(c(-c5ccc(S(=O)(=O)[O-])cc5)c5ccc2[nH]5)C=C4)C=C3)cc1
REMARK SMILES IDX 34 1 33 2 32 3 30 4 31 5 5 7 3 8 4 9 2 10 1 11 6 12 7 13
REMARK SMILES IDX 8 15 9 16 10 17 22 18 11 19 21 20 12 21 20 22 13 23 17 24
REMARK SMILES IDX 14 25 23 26 24 27 29 28 25 29 28 30 26 31 27 32 18 33 19 34
REMARK SMILES IDX 15 35 16 36 35 37 36 38 37 39 38 40 39 42 40 43 41 44 99 45
REMARK SMILES IDX 42 46 98 47 43 48 44 49 45 50 92 51 46 52 97 53 91 54 93 55
REMARK SMILES IDX 47 56 96 57 90 58 89 59 48 61 78 62 59 63 77 64 60 65 63 66
REMARK SMILES IDX 76 67 94 68 61 69 62 70 75 72 95 73 64 74 49 75 50 76 58 77
REMARK SMILES IDX 51 78 57 79 52 80 53 81 54 82 55 83 56 84 79 85 80 86 88 87
REMARK SMILES IDX 81 88 87 89 82 90 83 91 84 92 85 93 86 94 65 95 66 96 74 97
REMARK SMILES IDX 67 98 73 99 68 100 69 101 70 102 71 103 72 104
REMARK H PARENT 32 6 6 14 37 41 93 60 63 71
REMARK Flexibility Score: inf
ROOT
ATOM      1  C   UNL A   1      31.654  31.549  26.590  1.00  0.00     0.023 C 
ENDROOT
BRANCH   1   2
ATOM      2  C   UNL A   1      32.834  30.757  27.138  1.00  0.00     0.116 C 
BRANCH   2   3
ATOM      3  N   UNL A   1      32.524  29.362  27.086  1.00  0.00    -0.354 N 
ATOM      4  C   UNL A   1      33.364  28.421  26.556  1.00  0.00     0.242 C 
ATOM      5  O   UNL A   1      34.546  28.322  26.857  1.00  0.00    -0.273 OA
ATOM      6  H   UNL A   1      31.661  29.062  27.453  1.00  0.00     0.163 HD
BRANCH   4   7
ATOM      7  C   UNL A   1      32.664  27.580  25.456  1.00  0.00     0.176 C 
BRANCH   7   8
ATOM      8  C   UNL A   1      31.732  28.527  24.625  1.00  0.00     0.018 C 
ATOM      9  C   UNL A   1      32.412  29.047  23.341  1.00  0.00     0.010 C 
BRANCH   8  10
ATOM     10  C   UNL A   1      30.390  27.867  24.229  1.00  0.00     0.002 C 
ATOM     11  C   UNL A   1      29.691  28.528  23.052  1.00  0.00     0.004 C 
ENDBRANCH   8  10
ENDBRANCH   7   8
BRANCH   7  12
ATOM     12  N   UNL A   1      31.877  26.461  26.044  1.00  0.00    -0.326 N 
ATOM     13  C   UNL A   1      31.948  25.110  26.056  1.00  0.00     0.318 C 
ATOM     14  H   UNL A   1      31.104  26.789  26.557  1.00  0.00     0.166 HD
ATOM     15  O   UNL A   1      31.102  24.551  26.756  1.00  0.00    -0.249 OA
BRANCH  13  16
ATOM     16  N   UNL A   1      32.956  24.421  25.431  1.00  0.00    -0.313 N 
ATOM     17  C   UNL A   1      34.407  24.685  25.532  1.00  0.00     0.127 C 
ATOM     18  C   UNL A   1      32.549  23.382  24.430  1.00  0.00     0.148 C 
ATOM     19  C   UNL A   1      35.303  23.915  24.560  1.00  0.00     0.057 C 
ATOM     20  C   UNL A   1      33.515  22.191  24.541  1.00  0.00    -0.014 A 
ATOM     21  C   UNL A   1      34.890  22.476  24.594  1.00  0.00    -0.037 A 
ATOM     22  C   UNL A   1      33.092  20.851  24.617  1.00  0.00     0.057 A 
ATOM     23  C   UNL A   1      35.821  21.453  24.718  1.00  0.00     0.054 A 
ATOM     24  C   UNL A   1      34.033  19.812  24.751  1.00  0.00     0.161 A 
ATOM     25  C   UNL A   1      35.403  20.126  24.800  1.00  0.00     0.161 A 
BRANCH  18  26
ATOM     26  C   UNL A   1      32.503  23.977  23.006  1.00  0.00    -0.021 A 
ATOM     27  C   UNL A   1      33.121  23.313  21.929  1.00  0.00     0.009 A 
ATOM     28  C   UNL A   1      31.887  25.220  22.747  1.00  0.00     0.009 A 
ATOM     29  C   UNL A   1      33.194  23.914  20.669  1.00  0.00     0.039 A 
ATOM     30  C   UNL A   1      31.970  25.822  21.494  1.00  0.00     0.039 A 
ATOM     31  C   UNL A   1      32.635  25.169  20.470  1.00  0.00     0.123 A 
ATOM     32  F   UNL A   1      32.741  25.765  19.274  1.00  0.00    -0.207 F 
ENDBRANCH  18  26
BRANCH  24  33
ATOM     33  O   UNL A   1      33.665  18.506  24.946  1.00  0.00    -0.493 OA
ATOM     34  C   UNL A   1      33.753  17.633  23.826  1.00  0.00     0.278 C 
ENDBRANCH  24  33
BRANCH  25  35
ATOM     35  O   UNL A   1      36.449  19.264  24.998  1.00  0.00    -0.493 OA
ATOM     36  C   UNL A   1      37.739  19.850  24.918  1.00  0.00     0.278 C 
ENDBRANCH  25  35
ENDBRANCH  13  16
ENDBRANCH   7  12
ENDBRANCH   4   7
ENDBRANCH   2   3
ENDBRANCH   1   2
BRANCH   1  37
ATOM     37  C   UNL A   1      31.732  33.058  26.856  1.00  0.00     0.023 C 
BRANCH  37  38
ATOM     38  C   UNL A   1      33.030  33.533  27.501  1.00  0.00     0.116 C 
BRANCH  38  39
ATOM     39  N   UNL A   1      32.828  34.784  28.206  1.00  0.00    -0.352 N 
ATOM     40  C   UNL A   1      33.329  35.206  29.407  1.00  0.00     0.251 C 
ATOM     41  H   UNL A   1      32.239  35.428  27.750  1.00  0.00     0.163 HD
ATOM     42  O   UNL A   1      32.800  36.166  29.965  1.00  0.00    -0.269 OA
BRANCH  40  43
ATOM     43  C   UNL A   1      34.491  34.537  30.037  1.00  0.00     0.039 A 
ATOM     44  C   UNL A   1      34.418  34.226  31.399  1.00  0.00     0.014 A 
ATOM     45  C   UNL A   1      35.679  34.301  29.342  1.00  0.00     0.014 A 
ATOM     46  C   UNL A   1      35.519  33.666  32.058  1.00  0.00     0.010 A 
ATOM     47  C   UNL A   1      36.756  33.687  29.987  1.00  0.00     0.010 A 
ATOM     48  C   UNL A   1      36.697  33.375  31.356  1.00  0.00    -0.014 A 
BRANCH  48  49
ATOM     49  C   UNL A   1      37.873  32.734  32.013  1.00  0.00     0.031 A 
ATOM     50  C   UNL A   1      38.484  33.345  33.249  1.00  0.00     0.074 A 
ATOM     51  C   UNL A   1      38.475  31.672  31.437  1.00  0.00     0.049 A 
ATOM     52  N   UNL A   1      39.595  33.020  33.864  1.00  0.00    -0.248 NA
ATOM     53  C   UNL A   1      37.753  34.454  33.885  1.00  0.00     0.031 C 
ATOM     54  C   UNL A   1      38.012  30.966  30.241  1.00  0.00     0.029 A 
ATOM     55  N   UNL A   1      39.680  31.073  31.726  1.00  0.00    -0.354 N 
ATOM     56  C   UNL A   1      39.675  33.854  34.974  1.00  0.00     0.074 A 
ATOM     57  C   UNL A   1      38.545  34.756  34.906  1.00  0.00     0.031 C 
ATOM     58  C   UNL A   1      38.980  30.137  29.816  1.00  0.00     0.029 A 
ATOM     59  C   UNL A   1      40.119  30.240  30.721  1.00  0.00     0.049 A 
ATOM     60  H   UNL A   1      40.176  31.223  32.563  1.00  0.00     0.167 HD
ATOM     61  C   UNL A   1      40.577  33.835  35.986  1.00  0.00     0.031 A 
ATOM     62  C   UNL A   1      41.319  29.667  30.513  1.00  0.00     0.031 A 
ATOM     63  C   UNL A   1      41.698  32.934  36.059  1.00  0.00     0.049 A 
ATOM     64  C   UNL A   1      42.387  29.770  31.561  1.00  0.00     0.074 A 
ATOM     65  C   UNL A   1      42.579  32.739  37.110  1.00  0.00     0.029 A 
ATOM     66  N   UNL A   1      42.110  32.099  35.034  1.00  0.00    -0.354 N 
ATOM     67  N   UNL A   1      42.375  30.452  32.679  1.00  0.00    -0.248 NA
ATOM     68  C   UNL A   1      43.605  28.975  31.348  1.00  0.00     0.031 C 
ATOM     69  C   UNL A   1      43.559  31.828  36.699  1.00  0.00     0.029 A 
ATOM     70  C   UNL A   1      43.257  31.420  35.410  1.00  0.00     0.049 A 
ATOM     71  H   UNL A   1      41.654  32.002  34.168  1.00  0.00     0.167 HD
ATOM     72  C   UNL A   1      43.549  30.106  33.340  1.00  0.00     0.074 A 
ATOM     73  C   UNL A   1      44.261  29.182  32.483  1.00  0.00     0.031 C 
ATOM     74  C   UNL A   1      43.971  30.496  34.567  1.00  0.00     0.031 A 
BRANCH  61  75
ATOM     75  C   UNL A   1      40.367  34.780  37.140  1.00  0.00    -0.014 A 
ATOM     76  C   UNL A   1      41.138  35.953  37.247  1.00  0.00     0.010 A 
ATOM     77  C   UNL A   1      39.323  34.563  38.055  1.00  0.00     0.010 A 
ATOM     78  C   UNL A   1      40.881  36.880  38.258  1.00  0.00     0.020 A 
ATOM     79  C   UNL A   1      39.048  35.500  39.058  1.00  0.00     0.020 A 
ATOM     80  C   UNL A   1      39.834  36.649  39.157  1.00  0.00     0.054 A 
BRANCH  80  81
ATOM     81  S   UNL A   1      39.484  37.905  40.420  1.00  0.00     0.124 S 
ATOM     82  O   UNL A   1      38.145  38.350  40.040  1.00  0.00    -0.237 OA
ATOM     83  O   UNL A   1      39.562  37.140  41.661  1.00  0.00    -0.237 OA
ATOM     84  O   UNL A   1      40.544  38.891  40.232  1.00  0.00    -0.744 OA
ENDBRANCH  80  81
ENDBRANCH  61  75
BRANCH  62  85
ATOM     85  C   UNL A   1      41.584  28.945  29.241  1.00  0.00    -0.014 A 
ATOM     86  C   UNL A   1      41.258  27.585  29.106  1.00  0.00     0.010 A 
ATOM     87  C   UNL A   1      42.185  29.623  28.166  1.00  0.00     0.010 A 
ATOM     88  C   UNL A   1      41.559  26.907  27.923  1.00  0.00     0.020 A 
ATOM     89  C   UNL A   1      42.471  28.951  26.975  1.00  0.00     0.020 A 
ATOM     90  C   UNL A   1      42.167  27.593  26.866  1.00  0.00     0.054 A 
BRANCH  90  91
ATOM     91  S   UNL A   1      42.525  26.692  25.333  1.00  0.00     0.124 S 
ATOM     92  O   UNL A   1      42.778  27.779  24.393  1.00  0.00    -0.237 OA
ATOM     93  O   UNL A   1      43.688  25.891  25.704  1.00  0.00    -0.237 OA
ATOM     94  O   UNL A   1      41.303  25.926  25.095  1.00  0.00    -0.744 OA
ENDBRANCH  90  91
ENDBRANCH  62  85
BRANCH  74  95
ATOM     95  C   UNL A   1      45.231  29.870  35.099  1.00  0.00    -0.014 A 
ATOM     96  C   UNL A   1      45.207  28.653  35.803  1.00  0.00     0.010 A 
ATOM     97  C   UNL A   1      46.466  30.501  34.861  1.00  0.00     0.010 A 
ATOM     98  C   UNL A   1      46.395  28.095  36.285  1.00  0.00     0.020 A 
ATOM     99  C   UNL A   1      47.657  29.933  35.318  1.00  0.00     0.020 A 
ATOM    100  C   UNL A   1      47.612  28.740  36.040  1.00  0.00     0.054 A 
BRANCH 100 101
ATOM    101  S   UNL A   1      49.144  27.974  36.642  1.00  0.00     0.124 S 
ATOM    102  O   UNL A   1      48.742  27.482  37.955  1.00  0.00    -0.237 OA
ATOM    103  O   UNL A   1      49.408  26.948  35.638  1.00  0.00    -0.237 OA
ATOM    104  O   UNL A   1      50.100  29.081  36.657  1.00  0.00    -0.744 OA
ENDBRANCH 100 101
ENDBRANCH  74  95
ENDBRANCH  48  49
ENDBRANCH  40  43
ENDBRANCH  38  39
ENDBRANCH  37  38
ENDBRANCH   1  37
TORSDOF 21
ENDMDL
MODEL 3
REMARK VINA RESULT:     -10.6      6.395      8.475
REMARK SMILES CC[C@H](C)[C@H](NC(=O)N1CCc2cc(OC)c(OC)cc2[C@@H]1c1ccc(F)cc1)C(=O)NCCCCNC(=O)c1ccc(-c2c3nc(c(-c4ccc(S(=O)(=O)[O-])cc4)c4ccc([nH]4)c(-c4ccc(S(=O)(=O)[O-])cc4)c4nc(c(-c5ccc(S(=O)(=O)[O-])cc5)c5ccc2[nH]5)C=C4)C=C3)cc1
REMARK SMILES IDX 34 1 33 2 32 3 30 4 31 5 5 7 3 8 4 9 2 10 1 11 6 12 7 13
REMARK SMILES IDX 8 15 9 16 10 17 22 18 11 19 21 20 12 21 20 22 13 23 17 24
REMARK SMILES IDX 14 25 23 26 24 27 29 28 25 29 28 30 26 31 27 32 18 33 19 34
REMARK SMILES IDX 15 35 16 36 35 37 36 38 37 39 38 40 39 42 40 43 41 44 99 45
REMARK SMILES IDX 42 46 98 47 43 48 44 49 45 50 92 51 46 52 97 53 91 54 93 55
REMARK SMILES IDX 47 56 96 57 90 58 89 59 48 61 78 62 59 63 77 64 60 65 63 66
REMARK SMILES IDX 76 67 94 68 61 69 62 70 75 72 95 73 64 74 49 75 50 76 58 77
REMARK SMILES IDX 51 78 57 79 52 80 53 81 54 82 55 83 56 84 79 85 80 86 88 87
REMARK SMILES IDX 81 88 87 89 82 90 83 91 84 92 85 93 86 94 65 95 66 96 74 97
REMARK SMILES IDX 67 98 73 99 68 100 69 101 70 102 71 103 72 104
REMARK H PARENT 32 6 6 14 37 41 93 60 63 71
REMARK Flexibility Score: inf
ROOT
ATOM      1  C   UNL A   1      34.281  30.347  27.241  1.00  0.00     0.023 C 
ENDROOT
BRANCH   1   2
ATOM      2  C   UNL A   1      34.147  28.962  26.620  1.00  0.00     0.116 C 
BRANCH   2   3
ATOM      3  N   UNL A   1      32.818  28.805  26.114  1.00  0.00    -0.354 N 
ATOM      4  C   UNL A   1      31.925  27.895  26.611  1.00  0.00     0.242 C 
ATOM      5  O   UNL A   1      31.670  27.778  27.801  1.00  0.00    -0.273 OA
ATOM      6  H   UNL A   1      32.531  29.382  25.371  1.00  0.00     0.163 HD
BRANCH   4   7
ATOM      7  C   UNL A   1      31.369  26.969  25.497  1.00  0.00     0.176 C 
BRANCH   7   8
ATOM      8  C   UNL A   1      30.278  27.757  24.694  1.00  0.00     0.018 C 
ATOM      9  C   UNL A   1      30.872  28.542  23.505  1.00  0.00     0.010 C 
BRANCH   8  10
ATOM     10  C   UNL A   1      29.144  26.854  24.159  1.00  0.00     0.002 C 
ATOM     11  C   UNL A   1      28.049  27.599  23.412  1.00  0.00     0.004 C 
ENDBRANCH   8  10
ENDBRANCH   7   8
BRANCH   7  12
ATOM     12  N   UNL A   1      30.794  25.719  26.065  1.00  0.00    -0.326 N 
ATOM     13  C   UNL A   1      31.144  24.413  26.120  1.00  0.00     0.318 C 
ATOM     14  H   UNL A   1      29.936  25.885  26.518  1.00  0.00     0.166 HD
ATOM     15  O   UNL A   1      30.386  23.699  26.780  1.00  0.00    -0.249 OA
BRANCH  13  16
ATOM     16  N   UNL A   1      32.313  23.941  25.581  1.00  0.00    -0.313 N 
ATOM     17  C   UNL A   1      33.684  24.383  25.912  1.00  0.00     0.127 C 
ATOM     18  C   UNL A   1      32.194  22.980  24.437  1.00  0.00     0.148 C 
ATOM     19  C   UNL A   1      34.800  23.857  25.007  1.00  0.00     0.057 C 
ATOM     20  C   UNL A   1      33.304  21.923  24.569  1.00  0.00    -0.014 A 
ATOM     21  C   UNL A   1      34.603  22.382  24.843  1.00  0.00    -0.037 A 
ATOM     22  C   UNL A   1      33.077  20.539  24.454  1.00  0.00     0.057 A 
ATOM     23  C   UNL A   1      35.653  21.484  24.999  1.00  0.00     0.054 A 
ATOM     24  C   UNL A   1      34.136  19.627  24.620  1.00  0.00     0.161 A 
ATOM     25  C   UNL A   1      35.428  20.113  24.893  1.00  0.00     0.161 A 
BRANCH  18  26
ATOM     26  C   UNL A   1      32.242  23.724  23.085  1.00  0.00    -0.021 A 
ATOM     27  C   UNL A   1      33.020  23.231  22.021  1.00  0.00     0.009 A 
ATOM     28  C   UNL A   1      31.549  24.938  22.887  1.00  0.00     0.009 A 
ATOM     29  C   UNL A   1      33.169  23.972  20.845  1.00  0.00     0.039 A 
ATOM     30  C   UNL A   1      31.707  25.679  21.720  1.00  0.00     0.039 A 
ATOM     31  C   UNL A   1      32.527  25.196  20.714  1.00  0.00     0.123 A 
ATOM     32  F   UNL A   1      32.701  25.926  19.604  1.00  0.00    -0.207 F 
ENDBRANCH  18  26
BRANCH  24  33
ATOM     33  O   UNL A   1      33.944  18.269  24.635  1.00  0.00    -0.493 OA
ATOM     34  C   UNL A   1      32.926  17.769  25.494  1.00  0.00     0.278 C 
ENDBRANCH  24  33
BRANCH  25  35
ATOM     35  O   UNL A   1      36.556  19.382  25.153  1.00  0.00    -0.493 OA
ATOM     36  C   UNL A   1      37.783  20.057  24.924  1.00  0.00     0.278 C 
ENDBRANCH  25  35
ENDBRANCH  13  16
ENDBRANCH   7  12
ENDBRANCH   4   7
ENDBRANCH   2   3
ENDBRANCH   1   2
BRANCH   1  37
ATOM     37  C   UNL A   1      35.640  30.609  27.906  1.00  0.00     0.023 C 
BRANCH  37  38
ATOM     38  C   UNL A   1      36.416  29.357  28.302  1.00  0.00     0.116 C 
BRANCH  38  39
ATOM     39  N   UNL A   1      36.647  29.326  29.733  1.00  0.00    -0.352 N 
ATOM     40  C   UNL A   1      37.767  28.969  30.434  1.00  0.00     0.251 C 
ATOM     41  H   UNL A   1      35.881  29.605  30.285  1.00  0.00     0.163 HD
ATOM     42  O   UNL A   1      37.661  28.723  31.634  1.00  0.00    -0.269 OA
BRANCH  40  43
ATOM     43  C   UNL A   1      39.092  28.878  29.778  1.00  0.00     0.039 A 
ATOM     44  C   UNL A   1      40.187  28.468  30.548  1.00  0.00     0.014 A 
ATOM     45  C   UNL A   1      39.296  29.281  28.457  1.00  0.00     0.014 A 
ATOM     46  C   UNL A   1      41.473  28.444  29.996  1.00  0.00     0.010 A 
ATOM     47  C   UNL A   1      40.570  29.199  27.889  1.00  0.00     0.010 A 
ATOM     48  C   UNL A   1      41.678  28.793  28.654  1.00  0.00    -0.014 A 
BRANCH  48  49
ATOM     49  C   UNL A   1      43.025  28.733  28.017  1.00  0.00     0.031 A 
ATOM     50  C   UNL A   1      43.568  27.424  27.499  1.00  0.00     0.074 A 
ATOM     51  C   UNL A   1      43.821  29.824  28.010  1.00  0.00     0.049 A 
ATOM     52  N   UNL A   1      44.771  27.148  27.060  1.00  0.00    -0.248 NA
ATOM     53  C   UNL A   1      42.641  26.280  27.457  1.00  0.00     0.031 C 
ATOM     54  C   UNL A   1      43.448  31.161  28.475  1.00  0.00     0.029 A 
ATOM     55  N   UNL A   1      45.156  29.945  27.698  1.00  0.00    -0.354 N 
ATOM     56  C   UNL A   1      44.735  25.819  26.656  1.00  0.00     0.074 A 
ATOM     57  C   UNL A   1      43.416  25.316  26.977  1.00  0.00     0.031 C 
ATOM     58  C   UNL A   1      44.553  31.923  28.555  1.00  0.00     0.029 A 
ATOM     59  C   UNL A   1      45.701  31.132  28.128  1.00  0.00     0.049 A 
ATOM     60  H   UNL A   1      45.667  29.254  27.217  1.00  0.00     0.167 HD
ATOM     61  C   UNL A   1      45.694  25.097  26.025  1.00  0.00     0.031 A 
ATOM     62  C   UNL A   1      46.985  31.529  28.228  1.00  0.00     0.031 A 
ATOM     63  C   UNL A   1      47.005  25.597  25.698  1.00  0.00     0.049 A 
ATOM     64  C   UNL A   1      48.078  30.664  27.672  1.00  0.00     0.074 A 
ATOM     65  C   UNL A   1      47.991  24.995  24.934  1.00  0.00     0.029 A 
ATOM     66  N   UNL A   1      47.523  26.803  26.138  1.00  0.00    -0.354 N 
ATOM     67  N   UNL A   1      47.990  29.464  27.157  1.00  0.00    -0.248 NA
ATOM     68  C   UNL A   1      49.432  31.235  27.654  1.00  0.00     0.031 C 
ATOM     69  C   UNL A   1      49.127  25.811  24.960  1.00  0.00     0.029 A 
ATOM     70  C   UNL A   1      48.830  26.944  25.699  1.00  0.00     0.049 A 
ATOM     71  H   UNL A   1      47.035  27.463  26.681  1.00  0.00     0.167 HD
ATOM     72  C   UNL A   1      49.264  29.168  26.682  1.00  0.00     0.074 A 
ATOM     73  C   UNL A   1      50.107  30.299  27.000  1.00  0.00     0.031 C 
ATOM     74  C   UNL A   1      49.677  28.067  26.007  1.00  0.00     0.031 A 
BRANCH  61  75
ATOM     75  C   UNL A   1      45.355  23.697  25.587  1.00  0.00    -0.014 A 
ATOM     76  C   UNL A   1      44.669  23.477  24.378  1.00  0.00     0.010 A 
ATOM     77  C   UNL A   1      45.821  22.591  26.319  1.00  0.00     0.010 A 
ATOM     78  C   UNL A   1      44.439  22.178  23.919  1.00  0.00     0.020 A 
ATOM     79  C   UNL A   1      45.611  21.288  25.853  1.00  0.00     0.020 A 
ATOM     80  C   UNL A   1      44.915  21.091  24.658  1.00  0.00     0.054 A 
BRANCH  80  81
ATOM     81  S   UNL A   1      44.657  19.418  24.003  1.00  0.00     0.124 S 
ATOM     82  O   UNL A   1      44.659  19.655  22.561  1.00  0.00    -0.237 OA
ATOM     83  O   UNL A   1      45.813  18.690  24.521  1.00  0.00    -0.237 OA
ATOM     84  O   UNL A   1      43.370  19.019  24.567  1.00  0.00    -0.744 OA
ENDBRANCH  80  81
ENDBRANCH  61  75
BRANCH  62  85
ATOM     85  C   UNL A   1      47.313  32.814  28.897  1.00  0.00    -0.014 A 
ATOM     86  C   UNL A   1      47.736  32.840  30.235  1.00  0.00     0.010 A 
ATOM     87  C   UNL A   1      47.180  34.023  28.189  1.00  0.00     0.010 A 
ATOM     88  C   UNL A   1      47.993  34.059  30.867  1.00  0.00     0.020 A 
ATOM     89  C   UNL A   1      47.453  35.243  28.812  1.00  0.00     0.020 A 
ATOM     90  C   UNL A   1      47.846  35.253  30.152  1.00  0.00     0.054 A 
BRANCH  90  91
ATOM     91  S   UNL A   1      48.208  36.820  30.991  1.00  0.00     0.124 S 
ATOM     92  O   UNL A   1      48.892  36.369  32.198  1.00  0.00    -0.237 OA
ATOM     93  O   UNL A   1      49.040  37.515  30.011  1.00  0.00    -0.237 OA
ATOM     94  O   UNL A   1      46.886  37.408  31.199  1.00  0.00    -0.744 OA
ENDBRANCH  90  91
ENDBRANCH  62  85
BRANCH  74  95
ATOM     95  C   UNL A   1      51.091  28.057  25.496  1.00  0.00    -0.014 A 
ATOM     96  C   UNL A   1      52.144  27.516  26.254  1.00  0.00     0.010 A 
ATOM     97  C   UNL A   1      51.364  28.574  24.215  1.00  0.00     0.010 A 
ATOM     98  C   UNL A   1      53.449  27.521  25.752  1.00  0.00     0.020 A 
ATOM     99  C   UNL A   1      52.661  28.556  23.700  1.00  0.00     0.020 A 
ATOM    100  C   UNL A   1      53.699  28.042  24.478  1.00  0.00     0.054 A 
BRANCH 100 101
ATOM    101  S   UNL A   1      55.395  28.000  23.833  1.00  0.00     0.124 S 
ATOM    102  O   UNL A   1      55.498  29.293  23.166  1.00  0.00    -0.237 OA
ATOM    103  O   UNL A   1      56.197  27.849  25.044  1.00  0.00    -0.237 OA
ATOM    104  O   UNL A   1      55.396  26.838  22.944  1.00  0.00    -0.744 OA
ENDBRANCH 100 101
ENDBRANCH  74  95
ENDBRANCH  48  49
ENDBRANCH  40  43
ENDBRANCH  38  39
ENDBRANCH  37  38
ENDBRANCH   1  37
TORSDOF 21
ENDMDL
