MODEL 1
REMARK VINA RESULT:     -13.1      0.000      0.000
REMARK SMILES CCN(CC)c1ncc(NC(=O)c2ccc(C)cc2)cc1C(=O)NCCCCNC(=O)c1ccc(-c2c3nc(c(-c4ccc(S(=O)(=O)[O-])cc4)c4ccc([nH]4)c(-c4ccc(S(=O)(=O)[O-])cc4)c4nc(c(-c5ccc(S(=O)(=O)[O-])cc5)c5ccc2[nH]5)C=C4)C=C3)cc1
REMARK SMILES IDX 27 1 26 2 25 3 24 4 22 5 23 6 21 8 6 9 7 10 8 11 20 12 9 13
REMARK SMILES IDX 3 14 2 15 1 16 4 17 5 18 10 19 11 20 12 22 13 23 14 24 19 25
REMARK SMILES IDX 15 26 18 27 16 28 17 29 28 30 29 31 30 32 31 34 32 35 33 36
REMARK SMILES IDX 91 37 34 38 90 39 35 40 36 41 37 42 84 43 38 44 89 45 83 46
REMARK SMILES IDX 85 47 39 48 88 49 82 50 81 51 40 53 70 54 51 55 69 56 52 57
REMARK SMILES IDX 55 58 68 59 86 60 53 61 54 62 67 64 87 65 56 66 41 67 42 68
REMARK SMILES IDX 50 69 43 70 49 71 44 72 45 73 46 74 47 75 48 76 71 77 72 78
REMARK SMILES IDX 80 79 73 80 79 81 74 82 75 83 76 84 77 85 78 86 57 87 58 88
REMARK SMILES IDX 66 89 59 90 65 91 60 92 61 93 62 94 63 95 64 96
REMARK H PARENT 24 7 10 21 29 33 85 52 55 63
REMARK Flexibility Score: inf
ROOT
ATOM      1  C   UNL A   1      33.227  29.800  26.657  1.00  0.00     0.023 C 
ENDROOT
BRANCH   1   2
ATOM      2  C   UNL A   1      32.062  28.972  27.217  1.00  0.00     0.023 C 
BRANCH   2   3
ATOM      3  C   UNL A   1      32.093  27.466  26.941  1.00  0.00     0.116 C 
BRANCH   3   4
ATOM      4  N   UNL A   1      30.789  26.806  26.848  1.00  0.00    -0.352 N 
ATOM      5  C   UNL A   1      30.233  25.744  26.162  1.00  0.00     0.255 C 
ATOM      6  O   UNL A   1      29.166  25.332  26.625  1.00  0.00    -0.269 OA
ATOM      7  H   UNL A   1      30.129  27.236  27.438  1.00  0.00     0.163 HD
BRANCH   5   8
ATOM      8  C   UNL A   1      30.809  25.083  24.950  1.00  0.00     0.084 A 
ATOM      9  C   UNL A   1      30.976  25.775  23.726  1.00  0.00     0.141 A 
ATOM     10  N   UNL A   1      31.362  25.115  22.599  1.00  0.00    -0.236 NA
ATOM     11  C   UNL A   1      31.617  23.791  22.653  1.00  0.00     0.139 A 
ATOM     12  C   UNL A   1      31.079  23.707  24.947  1.00  0.00     0.045 A 
ATOM     13  C   UNL A   1      31.552  23.050  23.811  1.00  0.00     0.060 A 
BRANCH   9  14
ATOM     14  N   UNL A   1      30.782  27.137  23.544  1.00  0.00    -0.357 N 
BRANCH  14  15
ATOM     15  C   UNL A   1      31.866  27.913  22.949  1.00  0.00     0.114 C 
ATOM     16  C   UNL A   1      33.211  27.618  23.589  1.00  0.00     0.027 C 
ENDBRANCH  14  15
BRANCH  14  17
ATOM     17  C   UNL A   1      29.405  27.596  23.327  1.00  0.00     0.114 C 
ATOM     18  C   UNL A   1      29.303  28.949  22.624  1.00  0.00     0.027 C 
ENDBRANCH  14  17
ENDBRANCH   9  14
BRANCH  13  19
ATOM     19  N   UNL A   1      31.868  21.685  23.933  1.00  0.00    -0.321 N 
ATOM     20  C   UNL A   1      33.063  21.011  24.048  1.00  0.00     0.255 C 
ATOM     21  H   UNL A   1      31.080  21.096  23.938  1.00  0.00     0.170 HD
ATOM     22  O   UNL A   1      33.080  19.795  23.859  1.00  0.00    -0.269 OA
BRANCH  20  23
ATOM     23  C   UNL A   1      34.328  21.671  24.455  1.00  0.00     0.040 A 
ATOM     24  C   UNL A   1      34.927  21.252  25.650  1.00  0.00     0.014 A 
ATOM     25  C   UNL A   1      34.884  22.739  23.745  1.00  0.00     0.014 A 
ATOM     26  C   UNL A   1      36.114  21.844  26.086  1.00  0.00     0.004 A 
ATOM     27  C   UNL A   1      36.089  23.310  24.168  1.00  0.00     0.004 A 
ATOM     28  C   UNL A   1      36.720  22.854  25.332  1.00  0.00    -0.051 A 
ATOM     29  C   UNL A   1      38.001  23.478  25.802  1.00  0.00     0.044 C 
ENDBRANCH  20  23
ENDBRANCH  13  19
ENDBRANCH   5   8
ENDBRANCH   3   4
ENDBRANCH   2   3
ENDBRANCH   1   2
BRANCH   1  30
ATOM     30  C   UNL A   1      34.425  29.970  27.580  1.00  0.00     0.116 C 
BRANCH  30  31
ATOM     31  N   UNL A   1      35.446  30.930  27.187  1.00  0.00    -0.352 N 
ATOM     32  C   UNL A   1      36.564  31.121  28.011  1.00  0.00     0.251 C 
ATOM     33  H   UNL A   1      35.353  31.439  26.350  1.00  0.00     0.163 HD
ATOM     34  O   UNL A   1      36.794  32.123  28.657  1.00  0.00    -0.269 OA
BRANCH  32  35
ATOM     35  C   UNL A   1      37.441  29.928  28.114  1.00  0.00     0.039 A 
ATOM     36  C   UNL A   1      37.434  29.130  29.258  1.00  0.00     0.014 A 
ATOM     37  C   UNL A   1      38.438  29.790  27.149  1.00  0.00     0.014 A 
ATOM     38  C   UNL A   1      38.535  28.311  29.520  1.00  0.00     0.010 A 
ATOM     39  C   UNL A   1      39.572  29.079  27.466  1.00  0.00     0.010 A 
ATOM     40  C   UNL A   1      39.637  28.365  28.666  1.00  0.00    -0.014 A 
BRANCH  40  41
ATOM     41  C   UNL A   1      40.933  27.756  28.937  1.00  0.00     0.031 A 
ATOM     42  C   UNL A   1      41.175  26.346  28.551  1.00  0.00     0.074 A 
ATOM     43  C   UNL A   1      41.956  28.524  29.376  1.00  0.00     0.049 A 
ATOM     44  N   UNL A   1      42.087  25.593  29.068  1.00  0.00    -0.248 NA
ATOM     45  C   UNL A   1      40.373  25.659  27.540  1.00  0.00     0.031 C 
ATOM     46  C   UNL A   1      43.374  28.173  29.386  1.00  0.00     0.029 A 
ATOM     47  N   UNL A   1      41.907  29.721  30.096  1.00  0.00    -0.354 N 
ATOM     48  C   UNL A   1      42.212  24.489  28.252  1.00  0.00     0.074 A 
ATOM     49  C   UNL A   1      41.068  24.530  27.374  1.00  0.00     0.031 C 
ATOM     50  C   UNL A   1      43.994  28.922  30.311  1.00  0.00     0.029 A 
ATOM     51  C   UNL A   1      42.960  29.655  31.023  1.00  0.00     0.049 A 
ATOM     52  H   UNL A   1      41.266  30.458  29.977  1.00  0.00     0.167 HD
ATOM     53  C   UNL A   1      43.353  23.746  28.282  1.00  0.00     0.031 A 
ATOM     54  C   UNL A   1      42.777  29.632  32.378  1.00  0.00     0.031 A 
ATOM     55  C   UNL A   1      44.293  24.239  29.286  1.00  0.00     0.049 A 
ATOM     56  C   UNL A   1      43.357  28.392  33.029  1.00  0.00     0.074 A 
ATOM     57  C   UNL A   1      45.431  25.023  29.204  1.00  0.00     0.029 A 
ATOM     58  N   UNL A   1      43.938  24.199  30.629  1.00  0.00    -0.354 N 
ATOM     59  N   UNL A   1      43.689  27.312  32.376  1.00  0.00    -0.248 NA
ATOM     60  C   UNL A   1      43.582  28.256  34.465  1.00  0.00     0.031 C 
ATOM     61  C   UNL A   1      45.718  25.517  30.502  1.00  0.00     0.029 A 
ATOM     62  C   UNL A   1      44.770  25.013  31.373  1.00  0.00     0.049 A 
ATOM     63  H   UNL A   1      43.197  23.666  30.998  1.00  0.00     0.167 HD
ATOM     64  C   UNL A   1      44.166  26.364  33.246  1.00  0.00     0.074 A 
ATOM     65  C   UNL A   1      44.083  27.008  34.545  1.00  0.00     0.031 C 
ATOM     66  C   UNL A   1      44.584  25.136  32.814  1.00  0.00     0.031 A 
BRANCH  53  67
ATOM     67  C   UNL A   1      43.730  22.775  27.185  1.00  0.00    -0.014 A 
ATOM     68  C   UNL A   1      42.885  21.681  26.902  1.00  0.00     0.010 A 
ATOM     69  C   UNL A   1      44.915  22.857  26.430  1.00  0.00     0.010 A 
ATOM     70  C   UNL A   1      43.245  20.674  25.995  1.00  0.00     0.020 A 
ATOM     71  C   UNL A   1      45.307  21.839  25.543  1.00  0.00     0.020 A 
ATOM     72  C   UNL A   1      44.470  20.746  25.338  1.00  0.00     0.054 A 
BRANCH  72  73
ATOM     73  S   UNL A   1      44.947  19.397  24.225  1.00  0.00     0.124 S 
ATOM     74  O   UNL A   1      44.495  19.885  22.925  1.00  0.00    -0.237 OA
ATOM     75  O   UNL A   1      46.394  19.337  24.407  1.00  0.00    -0.237 OA
ATOM     76  O   UNL A   1      44.208  18.245  24.740  1.00  0.00    -0.744 OA
ENDBRANCH  72  73
ENDBRANCH  53  67
BRANCH  54  77
ATOM     77  C   UNL A   1      41.560  30.361  32.839  1.00  0.00    -0.014 A 
ATOM     78  C   UNL A   1      40.393  29.594  33.044  1.00  0.00     0.010 A 
ATOM     79  C   UNL A   1      41.680  31.603  33.486  1.00  0.00     0.010 A 
ATOM     80  C   UNL A   1      39.473  29.953  34.034  1.00  0.00     0.020 A 
ATOM     81  C   UNL A   1      40.749  31.970  34.471  1.00  0.00     0.020 A 
ATOM     82  C   UNL A   1      39.707  31.097  34.796  1.00  0.00     0.054 A 
BRANCH  82  83
ATOM     83  S   UNL A   1      38.764  31.299  36.339  1.00  0.00     0.124 S 
ATOM     84  O   UNL A   1      39.698  32.031  37.187  1.00  0.00    -0.237 OA
ATOM     85  O   UNL A   1      37.593  32.056  35.883  1.00  0.00    -0.237 OA
ATOM     86  O   UNL A   1      38.487  29.925  36.745  1.00  0.00    -0.744 OA
ENDBRANCH  82  83
ENDBRANCH  54  77
BRANCH  66  87
ATOM     87  C   UNL A   1      44.942  23.939  33.672  1.00  0.00    -0.014 A 
ATOM     88  C   UNL A   1      44.054  22.914  34.025  1.00  0.00     0.010 A 
ATOM     89  C   UNL A   1      46.296  23.765  34.062  1.00  0.00     0.010 A 
ATOM     90  C   UNL A   1      44.478  21.803  34.772  1.00  0.00     0.020 A 
ATOM     91  C   UNL A   1      46.740  22.641  34.764  1.00  0.00     0.020 A 
ATOM     92  C   UNL A   1      45.819  21.674  35.138  1.00  0.00     0.054 A 
BRANCH  92  93
ATOM     93  S   UNL A   1      46.364  20.205  36.043  1.00  0.00     0.124 S 
ATOM     94  O   UNL A   1      45.830  19.127  35.216  1.00  0.00    -0.237 OA
ATOM     95  O   UNL A   1      47.820  20.339  36.034  1.00  0.00    -0.237 OA
ATOM     96  O   UNL A   1      45.741  20.358  37.355  1.00  0.00    -0.744 OA
ENDBRANCH  92  93
ENDBRANCH  66  87
ENDBRANCH  40  41
ENDBRANCH  32  35
ENDBRANCH  30  31
ENDBRANCH   1  30
TORSDOF 19
ENDMDL
MODEL 2
REMARK VINA RESULT:     -12.4      1.679      2.420
REMARK SMILES CCN(CC)c1ncc(NC(=O)c2ccc(C)cc2)cc1C(=O)NCCCCNC(=O)c1ccc(-c2c3nc(c(-c4ccc(S(=O)(=O)[O-])cc4)c4ccc([nH]4)c(-c4ccc(S(=O)(=O)[O-])cc4)c4nc(c(-c5ccc(S(=O)(=O)[O-])cc5)c5ccc2[nH]5)C=C4)C=C3)cc1
REMARK SMILES IDX 27 1 26 2 25 3 24 4 22 5 23 6 21 8 6 9 7 10 8 11 20 12 9 13
REMARK SMILES IDX 3 14 2 15 1 16 4 17 5 18 10 19 11 20 12 22 13 23 14 24 19 25
REMARK SMILES IDX 15 26 18 27 16 28 17 29 28 30 29 31 30 32 31 34 32 35 33 36
REMARK SMILES IDX 91 37 34 38 90 39 35 40 36 41 37 42 84 43 38 44 89 45 83 46
REMARK SMILES IDX 85 47 39 48 88 49 82 50 81 51 40 53 70 54 51 55 69 56 52 57
REMARK SMILES IDX 55 58 68 59 86 60 53 61 54 62 67 64 87 65 56 66 41 67 42 68
REMARK SMILES IDX 50 69 43 70 49 71 44 72 45 73 46 74 47 75 48 76 71 77 72 78
REMARK SMILES IDX 80 79 73 80 79 81 74 82 75 83 76 84 77 85 78 86 57 87 58 88
REMARK SMILES IDX 66 89 59 90 65 91 60 92 61 93 62 94 63 95 64 96
REMARK H PARENT 24 7 10 21 29 33 85 52 55 63
REMARK Flexibility Score: inf
ROOT
ATOM      1  C   UNL A   1      34.219  28.751  27.418  1.00  0.00     0.023 C 
ENDROOT
BRANCH   1   2
ATOM      2  C   UNL A   1      34.977  28.479  26.111  1.00  0.00     0.023 C 
BRANCH   2   3
ATOM      3  C   UNL A   1      34.248  28.820  24.808  1.00  0.00     0.116 C 
BRANCH   3   4
ATOM      4  N   UNL A   1      33.064  29.671  24.942  1.00  0.00    -0.352 N 
ATOM      5  C   UNL A   1      31.704  29.502  25.117  1.00  0.00     0.255 C 
ATOM      6  O   UNL A   1      31.104  30.511  25.499  1.00  0.00    -0.269 OA
ATOM      7  H   UNL A   1      33.303  30.625  24.895  1.00  0.00     0.163 HD
BRANCH   5   8
ATOM      8  C   UNL A   1      30.940  28.236  24.892  1.00  0.00     0.084 A 
ATOM      9  C   UNL A   1      30.069  28.072  23.788  1.00  0.00     0.141 A 
ATOM     10  N   UNL A   1      29.274  26.972  23.685  1.00  0.00    -0.236 NA
ATOM     11  C   UNL A   1      29.334  26.012  24.630  1.00  0.00     0.139 A 
ATOM     12  C   UNL A   1      30.956  27.211  25.849  1.00  0.00     0.045 A 
ATOM     13  C   UNL A   1      30.200  26.049  25.700  1.00  0.00     0.060 A 
BRANCH   9  14
ATOM     14  N   UNL A   1      29.938  28.965  22.733  1.00  0.00    -0.357 N 
BRANCH  14  15
ATOM     15  C   UNL A   1      28.959  30.041  22.859  1.00  0.00     0.114 C 
ATOM     16  C   UNL A   1      27.945  30.037  21.728  1.00  0.00     0.027 C 
ENDBRANCH  14  15
BRANCH  14  17
ATOM     17  C   UNL A   1      31.128  29.207  21.908  1.00  0.00     0.114 C 
ATOM     18  C   UNL A   1      32.088  28.021  21.835  1.00  0.00     0.027 C 
ENDBRANCH  14  17
ENDBRANCH   9  14
BRANCH  13  19
ATOM     19  N   UNL A   1      30.347  25.047  26.675  1.00  0.00    -0.321 N 
ATOM     20  C   UNL A   1      31.127  23.915  26.738  1.00  0.00     0.255 C 
ATOM     21  H   UNL A   1      29.781  25.182  27.468  1.00  0.00     0.170 HD
ATOM     22  O   UNL A   1      30.862  23.057  27.581  1.00  0.00    -0.269 OA
BRANCH  20  23
ATOM     23  C   UNL A   1      32.319  23.705  25.881  1.00  0.00     0.040 A 
ATOM     24  C   UNL A   1      33.455  24.482  26.140  1.00  0.00     0.014 A 
ATOM     25  C   UNL A   1      32.317  22.835  24.787  1.00  0.00     0.014 A 
ATOM     26  C   UNL A   1      34.602  24.333  25.360  1.00  0.00     0.004 A 
ATOM     27  C   UNL A   1      33.478  22.665  24.024  1.00  0.00     0.004 A 
ATOM     28  C   UNL A   1      34.633  23.400  24.318  1.00  0.00    -0.051 A 
ATOM     29  C   UNL A   1      35.874  23.239  23.490  1.00  0.00     0.044 C 
ENDBRANCH  20  23
ENDBRANCH  13  19
ENDBRANCH   5   8
ENDBRANCH   3   4
ENDBRANCH   2   3
ENDBRANCH   1   2
BRANCH   1  30
ATOM     30  C   UNL A   1      34.463  30.111  28.057  1.00  0.00     0.116 C 
BRANCH  30  31
ATOM     31  N   UNL A   1      35.465  30.972  27.447  1.00  0.00    -0.352 N 
ATOM     32  C   UNL A   1      36.682  31.188  28.109  1.00  0.00     0.251 C 
ATOM     33  H   UNL A   1      35.291  31.398  26.578  1.00  0.00     0.163 HD
ATOM     34  O   UNL A   1      37.027  32.236  28.613  1.00  0.00    -0.269 OA
BRANCH  32  35
ATOM     35  C   UNL A   1      37.517  29.968  28.235  1.00  0.00     0.039 A 
ATOM     36  C   UNL A   1      37.538  29.233  29.421  1.00  0.00     0.014 A 
ATOM     37  C   UNL A   1      38.458  29.739  27.232  1.00  0.00     0.014 A 
ATOM     38  C   UNL A   1      38.620  28.386  29.674  1.00  0.00     0.010 A 
ATOM     39  C   UNL A   1      39.580  29.002  27.533  1.00  0.00     0.010 A 
ATOM     40  C   UNL A   1      39.679  28.350  28.766  1.00  0.00    -0.014 A 
BRANCH  40  41
ATOM     41  C   UNL A   1      40.963  27.705  29.008  1.00  0.00     0.031 A 
ATOM     42  C   UNL A   1      41.153  26.286  28.629  1.00  0.00     0.074 A 
ATOM     43  C   UNL A   1      42.021  28.447  29.410  1.00  0.00     0.049 A 
ATOM     44  N   UNL A   1      42.057  25.510  29.129  1.00  0.00    -0.248 NA
ATOM     45  C   UNL A   1      40.303  25.613  27.648  1.00  0.00     0.031 C 
ATOM     46  C   UNL A   1      43.428  28.054  29.384  1.00  0.00     0.029 A 
ATOM     47  N   UNL A   1      42.027  29.651  30.119  1.00  0.00    -0.354 N 
ATOM     48  C   UNL A   1      42.126  24.396  28.321  1.00  0.00     0.074 A 
ATOM     49  C   UNL A   1      40.959  24.462  27.475  1.00  0.00     0.031 C 
ATOM     50  C   UNL A   1      44.095  28.793  30.284  1.00  0.00     0.029 A 
ATOM     51  C   UNL A   1      43.104  29.563  31.017  1.00  0.00     0.049 A 
ATOM     52  H   UNL A   1      41.405  30.406  30.010  1.00  0.00     0.167 HD
ATOM     53  C   UNL A   1      43.245  23.619  28.327  1.00  0.00     0.031 A 
ATOM     54  C   UNL A   1      42.958  29.558  32.376  1.00  0.00     0.031 A 
ATOM     55  C   UNL A   1      44.226  24.093  29.299  1.00  0.00     0.049 A 
ATOM     56  C   UNL A   1      43.519  28.307  33.024  1.00  0.00     0.074 A 
ATOM     57  C   UNL A   1      45.384  24.842  29.178  1.00  0.00     0.029 A 
ATOM     58  N   UNL A   1      43.908  24.077  30.652  1.00  0.00    -0.354 N 
ATOM     59  N   UNL A   1      43.800  27.212  32.373  1.00  0.00    -0.248 NA
ATOM     60  C   UNL A   1      43.779  28.178  34.455  1.00  0.00     0.031 C 
ATOM     61  C   UNL A   1      45.722  25.340  30.462  1.00  0.00     0.029 A 
ATOM     62  C   UNL A   1      44.784  24.872  31.364  1.00  0.00     0.049 A 
ATOM     63  H   UNL A   1      43.162  23.570  31.047  1.00  0.00     0.167 HD
ATOM     64  C   UNL A   1      44.273  26.258  33.239  1.00  0.00     0.074 A 
ATOM     65  C   UNL A   1      44.245  26.916  34.533  1.00  0.00     0.031 C 
ATOM     66  C   UNL A   1      44.642  25.014  32.809  1.00  0.00     0.031 A 
BRANCH  53  67
ATOM     67  C   UNL A   1      43.561  22.626  27.230  1.00  0.00    -0.014 A 
ATOM     68  C   UNL A   1      42.721  21.510  27.036  1.00  0.00     0.010 A 
ATOM     69  C   UNL A   1      44.688  22.712  26.389  1.00  0.00     0.010 A 
ATOM     70  C   UNL A   1      43.035  20.487  26.130  1.00  0.00     0.020 A 
ATOM     71  C   UNL A   1      45.035  21.678  25.502  1.00  0.00     0.020 A 
ATOM     72  C   UNL A   1      44.209  20.564  25.385  1.00  0.00     0.054 A 
BRANCH  72  73
ATOM     73  S   UNL A   1      44.632  19.195  24.275  1.00  0.00     0.124 S 
ATOM     74  O   UNL A   1      43.674  18.164  24.663  1.00  0.00    -0.237 OA
ATOM     75  O   UNL A   1      44.422  19.786  22.957  1.00  0.00    -0.237 OA
ATOM     76  O   UNL A   1      46.025  18.897  24.607  1.00  0.00    -0.744 OA
ENDBRANCH  72  73
ENDBRANCH  53  67
BRANCH  54  77
ATOM     77  C   UNL A   1      41.777  30.327  32.863  1.00  0.00    -0.014 A 
ATOM     78  C   UNL A   1      41.976  31.695  33.152  1.00  0.00     0.010 A 
ATOM     79  C   UNL A   1      40.474  29.873  32.592  1.00  0.00     0.010 A 
ATOM     80  C   UNL A   1      40.944  32.618  32.962  1.00  0.00     0.020 A 
ATOM     81  C   UNL A   1      39.434  30.799  32.414  1.00  0.00     0.020 A 
ATOM     82  C   UNL A   1      39.704  32.168  32.513  1.00  0.00     0.054 A 
BRANCH  82  83
ATOM     83  S   UNL A   1      38.537  33.400  31.855  1.00  0.00     0.124 S 
ATOM     84  O   UNL A   1      38.591  34.455  32.861  1.00  0.00    -0.237 OA
ATOM     85  O   UNL A   1      39.139  33.727  30.558  1.00  0.00    -0.237 OA
ATOM     86  O   UNL A   1      37.279  32.664  31.780  1.00  0.00    -0.744 OA
ENDBRANCH  82  83
ENDBRANCH  54  77
BRANCH  66  87
ATOM     87  C   UNL A   1      44.988  23.816  33.669  1.00  0.00    -0.014 A 
ATOM     88  C   UNL A   1      44.102  22.778  33.989  1.00  0.00     0.010 A 
ATOM     89  C   UNL A   1      46.332  23.653  34.096  1.00  0.00     0.010 A 
ATOM     90  C   UNL A   1      44.516  21.667  34.741  1.00  0.00     0.020 A 
ATOM     91  C   UNL A   1      46.769  22.528  34.803  1.00  0.00     0.020 A 
ATOM     92  C   UNL A   1      45.847  21.550  35.145  1.00  0.00     0.054 A 
BRANCH  92  93
ATOM     93  S   UNL A   1      46.382  20.080  36.055  1.00  0.00     0.124 S 
ATOM     94  O   UNL A   1      45.848  19.002  35.227  1.00  0.00    -0.237 OA
ATOM     95  O   UNL A   1      47.839  20.208  36.053  1.00  0.00    -0.237 OA
ATOM     96  O   UNL A   1      45.754  20.238  37.363  1.00  0.00    -0.744 OA
ENDBRANCH  92  93
ENDBRANCH  66  87
ENDBRANCH  40  41
ENDBRANCH  32  35
ENDBRANCH  30  31
ENDBRANCH   1  30
TORSDOF 19
ENDMDL
MODEL 3
REMARK VINA RESULT:     -12.4      1.259      2.058
REMARK SMILES CCN(CC)c1ncc(NC(=O)c2ccc(C)cc2)cc1C(=O)NCCCCNC(=O)c1ccc(-c2c3nc(c(-c4ccc(S(=O)(=O)[O-])cc4)c4ccc([nH]4)c(-c4ccc(S(=O)(=O)[O-])cc4)c4nc(c(-c5ccc(S(=O)(=O)[O-])cc5)c5ccc2[nH]5)C=C4)C=C3)cc1
REMARK SMILES IDX 27 1 26 2 25 3 24 4 22 5 23 6 21 8 6 9 7 10 8 11 20 12 9 13
REMARK SMILES IDX 3 14 2 15 1 16 4 17 5 18 10 19 11 20 12 22 13 23 14 24 19 25
REMARK SMILES IDX 15 26 18 27 16 28 17 29 28 30 29 31 30 32 31 34 32 35 33 36
REMARK SMILES IDX 91 37 34 38 90 39 35 40 36 41 37 42 84 43 38 44 89 45 83 46
REMARK SMILES IDX 85 47 39 48 88 49 82 50 81 51 40 53 70 54 51 55 69 56 52 57
REMARK SMILES IDX 55 58 68 59 86 60 53 61 54 62 67 64 87 65 56 66 41 67 42 68
REMARK SMILES IDX 50 69 43 70 49 71 44 72 45 73 46 74 47 75 48 76 71 77 72 78
REMARK SMILES IDX 80 79 73 80 79 81 74 82 75 83 76 84 77 85 78 86 57 87 58 88
REMARK SMILES IDX 66 89 59 90 65 91 60 92 61 93 62 94 63 95 64 96
REMARK H PARENT 24 7 10 21 29 33 85 52 55 63
REMARK Flexibility Score: inf
ROOT
ATOM      1  C   UNL A   1      33.065  30.239  26.254  1.00  0.00     0.023 C 
ENDROOT
BRANCH   1   2
ATOM      2  C   UNL A   1      31.822  29.555  26.839  1.00  0.00     0.023 C 
BRANCH   2   3
ATOM      3  C   UNL A   1      31.799  28.024  26.806  1.00  0.00     0.116 C 
BRANCH   3   4
ATOM      4  N   UNL A   1      31.063  27.419  25.693  1.00  0.00    -0.352 N 
ATOM      5  C   UNL A   1      31.223  26.356  24.827  1.00  0.00     0.255 C 
ATOM      6  O   UNL A   1      30.194  26.012  24.238  1.00  0.00    -0.269 OA
ATOM      7  H   UNL A   1      30.225  27.903  25.515  1.00  0.00     0.163 HD
BRANCH   5   8
ATOM      8  C   UNL A   1      32.498  25.618  24.566  1.00  0.00     0.084 A 
ATOM      9  C   UNL A   1      33.162  25.687  23.318  1.00  0.00     0.141 A 
ATOM     10  N   UNL A   1      34.237  24.894  23.055  1.00  0.00    -0.236 NA
ATOM     11  C   UNL A   1      34.693  24.050  24.004  1.00  0.00     0.139 A 
ATOM     12  C   UNL A   1      33.010  24.718  25.512  1.00  0.00     0.045 A 
ATOM     13  C   UNL A   1      34.158  23.965  25.270  1.00  0.00     0.060 A 
BRANCH   9  14
ATOM     14  N   UNL A   1      32.817  26.534  22.274  1.00  0.00    -0.357 N 
BRANCH  14  15
ATOM     15  C   UNL A   1      31.889  26.039  21.263  1.00  0.00     0.114 C 
ATOM     16  C   UNL A   1      32.596  25.580  20.000  1.00  0.00     0.027 C 
ENDBRANCH  14  15
BRANCH  14  17
ATOM     17  C   UNL A   1      32.834  27.977  22.547  1.00  0.00     0.114 C 
ATOM     18  C   UNL A   1      34.231  28.551  22.780  1.00  0.00     0.027 C 
ENDBRANCH  14  17
ENDBRANCH   9  14
BRANCH  13  19
ATOM     19  N   UNL A   1      34.636  23.152  26.312  1.00  0.00    -0.321 N 
ATOM     20  C   UNL A   1      34.457  21.820  26.613  1.00  0.00     0.255 C 
ATOM     21  H   UNL A   1      35.211  23.628  26.953  1.00  0.00     0.170 HD
ATOM     22  O   UNL A   1      34.759  21.419  27.737  1.00  0.00    -0.269 OA
BRANCH  20  23
ATOM     23  C   UNL A   1      33.980  20.825  25.622  1.00  0.00     0.040 A 
ATOM     24  C   UNL A   1      32.665  20.947  25.155  1.00  0.00     0.014 A 
ATOM     25  C   UNL A   1      34.755  19.736  25.213  1.00  0.00     0.014 A 
ATOM     26  C   UNL A   1      32.160  20.033  24.228  1.00  0.00     0.004 A 
ATOM     27  C   UNL A   1      34.258  18.838  24.263  1.00  0.00     0.004 A 
ATOM     28  C   UNL A   1      32.964  18.992  23.751  1.00  0.00    -0.051 A 
ATOM     29  C   UNL A   1      32.417  18.019  22.748  1.00  0.00     0.044 C 
ENDBRANCH  20  23
ENDBRANCH  13  19
ENDBRANCH   5   8
ENDBRANCH   3   4
ENDBRANCH   2   3
ENDBRANCH   1   2
BRANCH   1  30
ATOM     30  C   UNL A   1      34.392  29.877  26.905  1.00  0.00     0.116 C 
BRANCH  30  31
ATOM     31  N   UNL A   1      35.378  30.935  27.058  1.00  0.00    -0.352 N 
ATOM     32  C   UNL A   1      36.217  30.938  28.180  1.00  0.00     0.251 C 
ATOM     33  H   UNL A   1      35.456  31.643  26.378  1.00  0.00     0.163 HD
ATOM     34  O   UNL A   1      36.168  31.742  29.088  1.00  0.00    -0.269 OA
BRANCH  32  35
ATOM     35  C   UNL A   1      37.152  29.786  28.230  1.00  0.00     0.039 A 
ATOM     36  C   UNL A   1      37.192  28.943  29.341  1.00  0.00     0.014 A 
ATOM     37  C   UNL A   1      38.147  29.736  27.254  1.00  0.00     0.014 A 
ATOM     38  C   UNL A   1      38.334  28.169  29.563  1.00  0.00     0.010 A 
ATOM     39  C   UNL A   1      39.317  29.070  27.536  1.00  0.00     0.010 A 
ATOM     40  C   UNL A   1      39.426  28.312  28.705  1.00  0.00    -0.014 A 
BRANCH  40  41
ATOM     41  C   UNL A   1      40.752  27.757  28.944  1.00  0.00     0.031 A 
ATOM     42  C   UNL A   1      41.032  26.347  28.584  1.00  0.00     0.074 A 
ATOM     43  C   UNL A   1      41.761  28.573  29.325  1.00  0.00     0.049 A 
ATOM     44  N   UNL A   1      41.989  25.641  29.087  1.00  0.00    -0.248 NA
ATOM     45  C   UNL A   1      40.220  25.605  27.621  1.00  0.00     0.031 C 
ATOM     46  C   UNL A   1      43.191  28.273  29.292  1.00  0.00     0.029 A 
ATOM     47  N   UNL A   1      41.695  29.785  30.017  1.00  0.00    -0.354 N 
ATOM     48  C   UNL A   1      42.125  24.521  28.294  1.00  0.00     0.074 A 
ATOM     49  C   UNL A   1      40.949  24.498  27.459  1.00  0.00     0.031 C 
ATOM     50  C   UNL A   1      43.816  29.067  30.175  1.00  0.00     0.029 A 
ATOM     51  C   UNL A   1      42.782  29.781  30.906  1.00  0.00     0.049 A 
ATOM     52  H   UNL A   1      41.023  30.496  29.903  1.00  0.00     0.167 HD
ATOM     53  C   UNL A   1      43.292  23.819  28.302  1.00  0.00     0.031 A 
ATOM     54  C   UNL A   1      42.648  29.788  32.267  1.00  0.00     0.031 A 
ATOM     55  C   UNL A   1      44.248  24.372  29.258  1.00  0.00     0.049 A 
ATOM     56  C   UNL A   1      43.296  28.587  32.927  1.00  0.00     0.074 A 
ATOM     57  C   UNL A   1      45.354  25.194  29.114  1.00  0.00     0.029 A 
ATOM     58  N   UNL A   1      43.943  24.355  30.613  1.00  0.00    -0.354 N 
ATOM     59  N   UNL A   1      43.644  27.502  32.290  1.00  0.00    -0.248 NA
ATOM     60  C   UNL A   1      43.576  28.496  34.357  1.00  0.00     0.031 C 
ATOM     61  C   UNL A   1      45.669  25.732  30.388  1.00  0.00     0.029 A 
ATOM     62  C   UNL A   1      44.771  25.217  31.306  1.00  0.00     0.049 A 
ATOM     63  H   UNL A   1      43.236  23.806  31.022  1.00  0.00     0.167 HD
ATOM     64  C   UNL A   1      44.185  26.595  33.165  1.00  0.00     0.074 A 
ATOM     65  C   UNL A   1      44.125  27.270  34.450  1.00  0.00     0.031 C 
ATOM     66  C   UNL A   1      44.632  25.372  32.749  1.00  0.00     0.031 A 
BRANCH  53  67
ATOM     67  C   UNL A   1      43.665  22.834  27.217  1.00  0.00    -0.014 A 
ATOM     68  C   UNL A   1      42.833  21.721  26.970  1.00  0.00     0.010 A 
ATOM     69  C   UNL A   1      44.835  22.921  26.438  1.00  0.00     0.010 A 
ATOM     70  C   UNL A   1      43.193  20.703  26.075  1.00  0.00     0.020 A 
ATOM     71  C   UNL A   1      45.227  21.892  25.564  1.00  0.00     0.020 A 
ATOM     72  C   UNL A   1      44.405  20.782  25.395  1.00  0.00     0.054 A 
BRANCH  72  73
ATOM     73  S   UNL A   1      44.883  19.420  24.299  1.00  0.00     0.124 S 
ATOM     74  O   UNL A   1      44.127  18.294  24.843  1.00  0.00    -0.237 OA
ATOM     75  O   UNL A   1      44.444  19.900  22.992  1.00  0.00    -0.237 OA
ATOM     76  O   UNL A   1      46.333  19.328  24.472  1.00  0.00    -0.744 OA
ENDBRANCH  72  73
ENDBRANCH  53  67
BRANCH  54  77
ATOM     77  C   UNL A   1      41.423  30.485  32.753  1.00  0.00    -0.014 A 
ATOM     78  C   UNL A   1      40.281  29.687  32.988  1.00  0.00     0.010 A 
ATOM     79  C   UNL A   1      41.523  31.731  33.395  1.00  0.00     0.010 A 
ATOM     80  C   UNL A   1      39.375  30.024  33.997  1.00  0.00     0.020 A 
ATOM     81  C   UNL A   1      40.606  32.076  34.400  1.00  0.00     0.020 A 
ATOM     82  C   UNL A   1      39.595  31.176  34.750  1.00  0.00     0.054 A 
BRANCH  82  83
ATOM     83  S   UNL A   1      38.682  31.357  36.315  1.00  0.00     0.124 S 
ATOM     84  O   UNL A   1      38.275  29.987  36.604  1.00  0.00    -0.237 OA
ATOM     85  O   UNL A   1      39.707  31.917  37.202  1.00  0.00    -0.237 OA
ATOM     86  O   UNL A   1      37.602  32.275  35.967  1.00  0.00    -0.744 OA
ENDBRANCH  82  83
ENDBRANCH  54  77
BRANCH  66  87
ATOM     87  C   UNL A   1      45.064  24.212  33.624  1.00  0.00    -0.014 A 
ATOM     88  C   UNL A   1      44.234  23.152  34.014  1.00  0.00     0.010 A 
ATOM     89  C   UNL A   1      46.432  24.111  33.989  1.00  0.00     0.010 A 
ATOM     90  C   UNL A   1      44.725  22.079  34.775  1.00  0.00     0.020 A 
ATOM     91  C   UNL A   1      46.944  23.024  34.704  1.00  0.00     0.020 A 
ATOM     92  C   UNL A   1      46.077  22.022  35.116  1.00  0.00     0.054 A 
BRANCH  92  93
ATOM     93  S   UNL A   1      46.710  20.600  36.039  1.00  0.00     0.124 S 
ATOM     94  O   UNL A   1      47.684  20.043  35.103  1.00  0.00    -0.237 OA
ATOM     95  O   UNL A   1      47.277  21.215  37.238  1.00  0.00    -0.237 OA
ATOM     96  O   UNL A   1      45.523  19.783  36.270  1.00  0.00    -0.744 OA
ENDBRANCH  92  93
ENDBRANCH  66  87
ENDBRANCH  40  41
ENDBRANCH  32  35
ENDBRANCH  30  31
ENDBRANCH   1  30
TORSDOF 19
ENDMDL
