MODEL 1
REMARK VINA RESULT:     -11.2      0.000      0.000
REMARK SMILES CC1(C)CCSC[C@@H]1[N@@H+]1CCNC(=O)[C@@H]1CC(=O)NCCCCNC(=O)c1ccc(-c2c3nc(c(-c4ccc(S(=O)(=O)[O-])cc4)c4ccc([nH]4)c(-c4ccc(S(=O)(=O)[O-])cc4)c4nc(c(-c5ccc(S(=O)(=O)[O-])cc5)c5ccc2[nH]5)C=C4)C=C3)cc1
REMARK SMILES IDX 22 1 21 2 20 3 19 4 17 5 18 6 16 8 15 9 9 10 10 11 11 13
REMARK SMILES IDX 13 14 12 15 14 16 8 18 1 19 2 20 3 21 4 22 5 23 7 24 6 25
REMARK SMILES IDX 23 26 24 27 25 28 26 30 27 31 28 32 86 33 29 34 85 35 30 36
REMARK SMILES IDX 31 37 32 38 79 39 33 40 84 41 78 42 80 43 34 44 83 45 77 46
REMARK SMILES IDX 76 47 35 49 65 50 46 51 64 52 47 53 50 54 63 55 81 56 48 57
REMARK SMILES IDX 49 58 62 60 82 61 51 62 36 63 37 64 45 65 38 66 44 67 39 68
REMARK SMILES IDX 40 69 41 70 42 71 43 72 66 73 67 74 75 75 68 76 74 77 69 78
REMARK SMILES IDX 70 79 71 80 72 81 73 82 52 83 53 84 61 85 54 86 60 87 55 88
REMARK SMILES IDX 56 89 57 90 58 91 59 92
REMARK H PARENT 19 7 9 12 12 17 24 29 80 48 50 59
REMARK Flexibility Score: inf
ROOT
ATOM      1  C   UNL A   1      32.869  29.755  25.652  1.00  0.00     0.023 C 
ENDROOT
BRANCH   1   2
ATOM      2  C   UNL A   1      31.391  29.393  25.556  1.00  0.00     0.023 C 
BRANCH   2   3
ATOM      3  C   UNL A   1      31.017  28.154  24.704  1.00  0.00     0.116 C 
BRANCH   3   4
ATOM      4  N   UNL A   1      30.857  26.976  25.563  1.00  0.00    -0.356 N 
ATOM      5  C   UNL A   1      30.629  25.645  25.401  1.00  0.00     0.226 C 
ATOM      6  O   UNL A   1      30.354  25.022  26.433  1.00  0.00    -0.275 OA
ATOM      7  H   UNL A   1      30.936  27.213  26.515  1.00  0.00     0.163 HD
BRANCH   5   8
ATOM      8  C   UNL A   1      30.777  24.887  24.099  1.00  0.00     0.175 C 
BRANCH   8   9
ATOM      9  C   UNL A   1      32.150  24.360  23.619  1.00  0.00     0.283 C 
ATOM     10  N   UNL A   1      33.266  24.055  24.554  1.00  0.00    -0.319 N 
ATOM     11  C   UNL A   1      33.795  25.330  25.106  1.00  0.00     0.284 C 
ATOM     12  H   UNL A   1      33.984  23.597  23.993  1.00  0.00     0.349 HD
ATOM     13  C   UNL A   1      33.957  26.515  24.126  1.00  0.00     0.177 C 
ATOM     14  C   UNL A   1      32.682  25.239  22.454  1.00  0.00     0.279 C 
ATOM     15  N   UNL A   1      33.566  26.228  22.774  1.00  0.00    -0.345 N 
ATOM     16  O   UNL A   1      32.331  25.088  21.284  1.00  0.00    -0.268 OA
ATOM     17  H   UNL A   1      33.952  26.770  22.047  1.00  0.00     0.163 HD
BRANCH  10  18
ATOM     18  C   UNL A   1      33.047  22.980  25.574  1.00  0.00     0.200 C 
ATOM     19  C   UNL A   1      34.019  21.584  27.484  1.00  0.00     0.017 C 
ATOM     20  C   UNL A   1      34.354  22.262  26.125  1.00  0.00     0.018 C 
ATOM     21  C   UNL A   1      35.504  23.241  26.438  1.00  0.00     0.017 C 
ATOM     22  C   UNL A   1      34.899  21.212  25.123  1.00  0.00     0.023 C 
ATOM     23  C   UNL A   1      33.953  20.074  24.750  1.00  0.00     0.070 C 
ATOM     24  C   UNL A   1      31.979  21.876  25.279  1.00  0.00     0.135 C 
ATOM     25  S   UNL A   1      32.423  20.668  24.008  1.00  0.00    -0.156 SA
ENDBRANCH  10  18
ENDBRANCH   8   9
ENDBRANCH   5   8
ENDBRANCH   3   4
ENDBRANCH   2   3
ENDBRANCH   1   2
BRANCH   1  26
ATOM     26  C   UNL A   1      33.536  29.514  26.995  1.00  0.00     0.116 C 
BRANCH  26  27
ATOM     27  N   UNL A   1      33.674  30.694  27.841  1.00  0.00    -0.352 N 
ATOM     28  C   UNL A   1      34.788  31.124  28.547  1.00  0.00     0.251 C 
ATOM     29  H   UNL A   1      32.871  31.259  27.922  1.00  0.00     0.163 HD
ATOM     30  O   UNL A   1      34.761  32.158  29.190  1.00  0.00    -0.269 OA
BRANCH  28  31
ATOM     31  C   UNL A   1      35.978  30.241  28.578  1.00  0.00     0.039 A 
ATOM     32  C   UNL A   1      36.864  30.287  27.499  1.00  0.00     0.014 A 
ATOM     33  C   UNL A   1      36.310  29.549  29.742  1.00  0.00     0.014 A 
ATOM     34  C   UNL A   1      38.150  29.761  27.649  1.00  0.00     0.010 A 
ATOM     35  C   UNL A   1      37.623  29.129  29.924  1.00  0.00     0.010 A 
ATOM     36  C   UNL A   1      38.566  29.254  28.890  1.00  0.00    -0.014 A 
BRANCH  36  37
ATOM     37  C   UNL A   1      39.983  28.874  29.141  1.00  0.00     0.031 A 
ATOM     38  C   UNL A   1      40.929  29.876  29.747  1.00  0.00     0.074 A 
ATOM     39  C   UNL A   1      40.441  27.666  28.748  1.00  0.00     0.049 A 
ATOM     40  N   UNL A   1      42.216  29.775  29.953  1.00  0.00    -0.248 NA
ATOM     41  C   UNL A   1      40.360  31.178  30.134  1.00  0.00     0.031 C 
ATOM     42  C   UNL A   1      39.649  26.625  28.084  1.00  0.00     0.029 A 
ATOM     43  N   UNL A   1      41.693  27.107  28.843  1.00  0.00    -0.354 N 
ATOM     44  C   UNL A   1      42.613  31.006  30.461  1.00  0.00     0.074 A 
ATOM     45  C   UNL A   1      41.444  31.857  30.475  1.00  0.00     0.031 C 
ATOM     46  C   UNL A   1      40.420  25.545  27.873  1.00  0.00     0.029 A 
ATOM     47  C   UNL A   1      41.772  25.825  28.348  1.00  0.00     0.049 A 
ATOM     48  H   UNL A   1      42.464  27.582  29.231  1.00  0.00     0.167 HD
ATOM     49  C   UNL A   1      43.831  31.389  30.909  1.00  0.00     0.031 A 
ATOM     50  C   UNL A   1      42.811  24.970  28.287  1.00  0.00     0.031 A 
ATOM     51  C   UNL A   1      44.983  30.530  30.940  1.00  0.00     0.049 A 
ATOM     52  C   UNL A   1      44.146  25.402  28.833  1.00  0.00     0.074 A 
ATOM     53  C   UNL A   1      46.247  30.802  31.430  1.00  0.00     0.029 A 
ATOM     54  N   UNL A   1      45.004  29.223  30.476  1.00  0.00    -0.354 N 
ATOM     55  N   UNL A   1      44.484  26.553  29.364  1.00  0.00    -0.248 NA
ATOM     56  C   UNL A   1      45.236  24.417  28.785  1.00  0.00     0.031 C 
ATOM     57  C   UNL A   1      47.042  29.667  31.238  1.00  0.00     0.029 A 
ATOM     58  C   UNL A   1      46.259  28.677  30.667  1.00  0.00     0.049 A 
ATOM     59  H   UNL A   1      44.238  28.755  30.071  1.00  0.00     0.167 HD
ATOM     60  C   UNL A   1      45.815  26.419  29.741  1.00  0.00     0.074 A 
ATOM     61  C   UNL A   1      46.218  25.072  29.388  1.00  0.00     0.031 C 
ATOM     62  C   UNL A   1      46.633  27.329  30.324  1.00  0.00     0.031 A 
BRANCH  49  63
ATOM     63  C   UNL A   1      43.967  32.797  31.422  1.00  0.00    -0.014 A 
ATOM     64  C   UNL A   1      43.675  33.106  32.763  1.00  0.00     0.010 A 
ATOM     65  C   UNL A   1      44.406  33.819  30.562  1.00  0.00     0.010 A 
ATOM     66  C   UNL A   1      43.771  34.421  33.222  1.00  0.00     0.020 A 
ATOM     67  C   UNL A   1      44.533  35.132  31.026  1.00  0.00     0.020 A 
ATOM     68  C   UNL A   1      44.195  35.427  32.349  1.00  0.00     0.054 A 
BRANCH  68  69
ATOM     69  S   UNL A   1      44.326  37.123  32.977  1.00  0.00     0.124 S 
ATOM     70  O   UNL A   1      43.866  37.902  31.830  1.00  0.00    -0.237 OA
ATOM     71  O   UNL A   1      43.426  37.110  34.127  1.00  0.00    -0.237 OA
ATOM     72  O   UNL A   1      45.744  37.265  33.299  1.00  0.00    -0.744 OA
ENDBRANCH  68  69
ENDBRANCH  49  63
BRANCH  50  73
ATOM     73  C   UNL A   1      42.634  23.604  27.718  1.00  0.00    -0.014 A 
ATOM     74  C   UNL A   1      42.204  22.544  28.537  1.00  0.00     0.010 A 
ATOM     75  C   UNL A   1      42.908  23.350  26.362  1.00  0.00     0.010 A 
ATOM     76  C   UNL A   1      42.078  21.251  28.020  1.00  0.00     0.020 A 
ATOM     77  C   UNL A   1      42.758  22.063  25.834  1.00  0.00     0.020 A 
ATOM     78  C   UNL A   1      42.358  21.018  26.671  1.00  0.00     0.054 A 
BRANCH  78  79
ATOM     79  S   UNL A   1      42.157  19.340  26.009  1.00  0.00     0.124 S 
ATOM     80  O   UNL A   1      42.647  18.519  27.111  1.00  0.00    -0.237 OA
ATOM     81  O   UNL A   1      40.720  19.268  25.756  1.00  0.00    -0.237 OA
ATOM     82  O   UNL A   1      42.993  19.346  24.810  1.00  0.00    -0.744 OA
ENDBRANCH  78  79
ENDBRANCH  50  73
BRANCH  62  83
ATOM     83  C   UNL A   1      48.030  26.889  30.661  1.00  0.00    -0.014 A 
ATOM     84  C   UNL A   1      49.096  27.104  29.768  1.00  0.00     0.010 A 
ATOM     85  C   UNL A   1      48.290  26.314  31.918  1.00  0.00     0.010 A 
ATOM     86  C   UNL A   1      50.394  26.726  30.119  1.00  0.00     0.020 A 
ATOM     87  C   UNL A   1      49.590  25.958  32.281  1.00  0.00     0.020 A 
ATOM     88  C   UNL A   1      50.633  26.155  31.373  1.00  0.00     0.054 A 
BRANCH  88  89
ATOM     89  S   UNL A   1      52.335  25.724  31.828  1.00  0.00     0.124 S 
ATOM     90  O   UNL A   1      52.203  24.317  32.195  1.00  0.00    -0.237 OA
ATOM     91  O   UNL A   1      53.074  25.985  30.595  1.00  0.00    -0.237 OA
ATOM     92  O   UNL A   1      52.638  26.632  32.932  1.00  0.00    -0.744 OA
ENDBRANCH  88  89
ENDBRANCH  62  83
ENDBRANCH  36  37
ENDBRANCH  28  31
ENDBRANCH  26  27
ENDBRANCH   1  26
TORSDOF 16
ENDMDL
MODEL 2
REMARK VINA RESULT:     -11.2      2.631      9.385
REMARK SMILES CC1(C)CCSC[C@@H]1[N@@H+]1CCNC(=O)[C@@H]1CC(=O)NCCCCNC(=O)c1ccc(-c2c3nc(c(-c4ccc(S(=O)(=O)[O-])cc4)c4ccc([nH]4)c(-c4ccc(S(=O)(=O)[O-])cc4)c4nc(c(-c5ccc(S(=O)(=O)[O-])cc5)c5ccc2[nH]5)C=C4)C=C3)cc1
REMARK SMILES IDX 22 1 21 2 20 3 19 4 17 5 18 6 16 8 15 9 9 10 10 11 11 13
REMARK SMILES IDX 13 14 12 15 14 16 8 18 1 19 2 20 3 21 4 22 5 23 7 24 6 25
REMARK SMILES IDX 23 26 24 27 25 28 26 30 27 31 28 32 86 33 29 34 85 35 30 36
REMARK SMILES IDX 31 37 32 38 79 39 33 40 84 41 78 42 80 43 34 44 83 45 77 46
REMARK SMILES IDX 76 47 35 49 65 50 46 51 64 52 47 53 50 54 63 55 81 56 48 57
REMARK SMILES IDX 49 58 62 60 82 61 51 62 36 63 37 64 45 65 38 66 44 67 39 68
REMARK SMILES IDX 40 69 41 70 42 71 43 72 66 73 67 74 75 75 68 76 74 77 69 78
REMARK SMILES IDX 70 79 71 80 72 81 73 82 52 83 53 84 61 85 54 86 60 87 55 88
REMARK SMILES IDX 56 89 57 90 58 91 59 92
REMARK H PARENT 19 7 9 12 12 17 24 29 80 48 50 59
REMARK Flexibility Score: inf
ROOT
ATOM      1  C   UNL A   1      36.474  22.066  24.396  1.00  0.00     0.023 C 
ENDROOT
BRANCH   1   2
ATOM      2  C   UNL A   1      35.389  21.141  24.936  1.00  0.00     0.023 C 
BRANCH   2   3
ATOM      3  C   UNL A   1      33.969  21.285  24.331  1.00  0.00     0.116 C 
BRANCH   3   4
ATOM      4  N   UNL A   1      33.932  22.399  23.379  1.00  0.00    -0.356 N 
ATOM      5  C   UNL A   1      33.011  23.284  22.911  1.00  0.00     0.226 C 
ATOM      6  O   UNL A   1      33.363  23.952  21.932  1.00  0.00    -0.275 OA
ATOM      7  H   UNL A   1      34.813  22.548  22.966  1.00  0.00     0.163 HD
BRANCH   5   8
ATOM      8  C   UNL A   1      31.665  23.559  23.548  1.00  0.00     0.175 C 
BRANCH   8   9
ATOM      9  C   UNL A   1      31.499  24.610  24.671  1.00  0.00     0.283 C 
ATOM     10  N   UNL A   1      32.440  25.747  24.855  1.00  0.00    -0.319 N 
ATOM     11  C   UNL A   1      33.740  25.222  25.349  1.00  0.00     0.284 C 
ATOM     12  H   UNL A   1      32.018  26.348  25.562  1.00  0.00     0.349 HD
ATOM     13  C   UNL A   1      33.695  24.120  26.433  1.00  0.00     0.177 C 
ATOM     14  C   UNL A   1      31.277  23.901  26.035  1.00  0.00     0.279 C 
ATOM     15  N   UNL A   1      32.371  23.732  26.835  1.00  0.00    -0.345 N 
ATOM     16  O   UNL A   1      30.180  23.483  26.405  1.00  0.00    -0.268 OA
ATOM     17  H   UNL A   1      32.248  23.327  27.724  1.00  0.00     0.163 HD
BRANCH  10  18
ATOM     18  C   UNL A   1      32.555  26.743  23.742  1.00  0.00     0.200 C 
ATOM     19  C   UNL A   1      33.470  28.994  22.943  1.00  0.00     0.017 C 
ATOM     20  C   UNL A   1      32.890  28.236  24.171  1.00  0.00     0.018 C 
ATOM     21  C   UNL A   1      33.985  28.330  25.254  1.00  0.00     0.017 C 
ATOM     22  C   UNL A   1      31.639  28.974  24.713  1.00  0.00     0.023 C 
ATOM     23  C   UNL A   1      30.456  29.095  23.756  1.00  0.00     0.070 C 
ATOM     24  C   UNL A   1      31.422  26.794  22.665  1.00  0.00     0.135 C 
ATOM     25  S   UNL A   1      29.845  27.492  23.210  1.00  0.00    -0.156 SA
ENDBRANCH  10  18
ENDBRANCH   8   9
ENDBRANCH   5   8
ENDBRANCH   3   4
ENDBRANCH   2   3
ENDBRANCH   1   2
BRANCH   1  26
ATOM     26  C   UNL A   1      37.318  22.789  25.432  1.00  0.00     0.116 C 
BRANCH  26  27
ATOM     27  N   UNL A   1      38.626  22.200  25.689  1.00  0.00    -0.352 N 
ATOM     28  C   UNL A   1      39.694  22.740  26.391  1.00  0.00     0.251 C 
ATOM     29  H   UNL A   1      38.772  21.300  25.315  1.00  0.00     0.163 HD
ATOM     30  O   UNL A   1      40.723  22.108  26.552  1.00  0.00    -0.269 OA
BRANCH  28  31
ATOM     31  C   UNL A   1      39.586  24.145  26.853  1.00  0.00     0.039 A 
ATOM     32  C   UNL A   1      39.096  24.382  28.139  1.00  0.00     0.014 A 
ATOM     33  C   UNL A   1      40.154  25.176  26.107  1.00  0.00     0.014 A 
ATOM     34  C   UNL A   1      39.316  25.626  28.734  1.00  0.00     0.010 A 
ATOM     35  C   UNL A   1      40.470  26.372  26.743  1.00  0.00     0.010 A 
ATOM     36  C   UNL A   1      40.077  26.603  28.072  1.00  0.00    -0.014 A 
BRANCH  36  37
ATOM     37  C   UNL A   1      40.500  27.856  28.753  1.00  0.00     0.031 A 
ATOM     38  C   UNL A   1      41.877  27.952  29.355  1.00  0.00     0.074 A 
ATOM     39  C   UNL A   1      39.624  28.872  28.909  1.00  0.00     0.049 A 
ATOM     40  N   UNL A   1      42.398  28.913  30.071  1.00  0.00    -0.248 NA
ATOM     41  C   UNL A   1      42.769  26.797  29.160  1.00  0.00     0.031 C 
ATOM     42  C   UNL A   1      38.235  28.884  28.436  1.00  0.00     0.029 A 
ATOM     43  N   UNL A   1      39.770  30.096  29.516  1.00  0.00    -0.354 N 
ATOM     44  C   UNL A   1      43.663  28.466  30.437  1.00  0.00     0.074 A 
ATOM     45  C   UNL A   1      43.805  27.124  29.916  1.00  0.00     0.031 C 
ATOM     46  C   UNL A   1      37.675  30.069  28.733  1.00  0.00     0.029 A 
ATOM     47  C   UNL A   1      38.646  30.889  29.450  1.00  0.00     0.049 A 
ATOM     48  H   UNL A   1      40.602  30.381  29.958  1.00  0.00     0.167 HD
ATOM     49  C   UNL A   1      44.633  29.120  31.116  1.00  0.00     0.031 A 
ATOM     50  C   UNL A   1      38.423  32.136  29.911  1.00  0.00     0.031 A 
ATOM     51  C   UNL A   1      44.510  30.470  31.593  1.00  0.00     0.049 A 
ATOM     52  C   UNL A   1      39.533  32.861  30.624  1.00  0.00     0.074 A 
ATOM     53  C   UNL A   1      45.457  31.244  32.239  1.00  0.00     0.029 A 
ATOM     54  N   UNL A   1      43.374  31.252  31.460  1.00  0.00    -0.354 N 
ATOM     55  N   UNL A   1      40.742  32.438  30.907  1.00  0.00    -0.248 NA
ATOM     56  C   UNL A   1      39.254  34.234  31.067  1.00  0.00     0.031 C 
ATOM     57  C   UNL A   1      44.884  32.488  32.521  1.00  0.00     0.029 A 
ATOM     58  C   UNL A   1      43.594  32.500  32.012  1.00  0.00     0.049 A 
ATOM     59  H   UNL A   1      42.534  30.961  31.035  1.00  0.00     0.167 HD
ATOM     60  C   UNL A   1      41.378  33.505  31.533  1.00  0.00     0.074 A 
ATOM     61  C   UNL A   1      40.424  34.595  31.577  1.00  0.00     0.031 C 
ATOM     62  C   UNL A   1      42.636  33.576  32.030  1.00  0.00     0.031 A 
BRANCH  49  63
ATOM     63  C   UNL A   1      45.922  28.382  31.360  1.00  0.00    -0.014 A 
ATOM     64  C   UNL A   1      46.993  28.484  30.453  1.00  0.00     0.010 A 
ATOM     65  C   UNL A   1      46.073  27.593  32.514  1.00  0.00     0.010 A 
ATOM     66  C   UNL A   1      48.172  27.769  30.669  1.00  0.00     0.020 A 
ATOM     67  C   UNL A   1      47.264  26.901  32.749  1.00  0.00     0.020 A 
ATOM     68  C   UNL A   1      48.299  26.978  31.814  1.00  0.00     0.054 A 
BRANCH  68  69
ATOM     69  S   UNL A   1      49.849  26.074  32.078  1.00  0.00     0.124 S 
ATOM     70  O   UNL A   1      49.592  25.406  33.351  1.00  0.00    -0.237 OA
ATOM     71  O   UNL A   1      49.910  25.196  30.911  1.00  0.00    -0.237 OA
ATOM     72  O   UNL A   1      50.861  27.126  32.118  1.00  0.00    -0.744 OA
ENDBRANCH  68  69
ENDBRANCH  49  63
BRANCH  50  73
ATOM     73  C   UNL A   1      37.107  32.800  29.690  1.00  0.00    -0.014 A 
ATOM     74  C   UNL A   1      36.867  33.523  28.507  1.00  0.00     0.010 A 
ATOM     75  C   UNL A   1      36.093  32.727  30.662  1.00  0.00     0.010 A 
ATOM     76  C   UNL A   1      35.651  34.185  28.312  1.00  0.00     0.020 A 
ATOM     77  C   UNL A   1      34.865  33.367  30.460  1.00  0.00     0.020 A 
ATOM     78  C   UNL A   1      34.657  34.104  29.292  1.00  0.00     0.054 A 
BRANCH  78  79
ATOM     79  S   UNL A   1      33.073  34.942  29.006  1.00  0.00     0.124 S 
ATOM     80  O   UNL A   1      32.443  34.071  28.021  1.00  0.00    -0.237 OA
ATOM     81  O   UNL A   1      32.467  34.938  30.336  1.00  0.00    -0.237 OA
ATOM     82  O   UNL A   1      33.470  36.261  28.517  1.00  0.00    -0.744 OA
ENDBRANCH  78  79
ENDBRANCH  50  73
BRANCH  62  83
ATOM     83  C   UNL A   1      43.075  34.886  32.622  1.00  0.00    -0.014 A 
ATOM     84  C   UNL A   1      43.741  35.850  31.844  1.00  0.00     0.010 A 
ATOM     85  C   UNL A   1      42.754  35.182  33.960  1.00  0.00     0.010 A 
ATOM     86  C   UNL A   1      44.100  37.078  32.403  1.00  0.00     0.020 A 
ATOM     87  C   UNL A   1      43.091  36.418  34.513  1.00  0.00     0.020 A 
ATOM     88  C   UNL A   1      43.774  37.355  33.734  1.00  0.00     0.054 A 
BRANCH  88  89
ATOM     89  S   UNL A   1      44.203  38.977  34.421  1.00  0.00     0.124 S 
ATOM     90  O   UNL A   1      43.076  39.798  33.985  1.00  0.00    -0.237 OA
ATOM     91  O   UNL A   1      44.270  38.712  35.856  1.00  0.00    -0.237 OA
ATOM     92  O   UNL A   1      45.484  39.291  33.792  1.00  0.00    -0.744 OA
ENDBRANCH  88  89
ENDBRANCH  62  83
ENDBRANCH  36  37
ENDBRANCH  28  31
ENDBRANCH  26  27
ENDBRANCH   1  26
TORSDOF 16
ENDMDL
MODEL 3
REMARK VINA RESULT:     -11.0      2.985      3.821
REMARK SMILES CC1(C)CCSC[C@@H]1[N@@H+]1CCNC(=O)[C@@H]1CC(=O)NCCCCNC(=O)c1ccc(-c2c3nc(c(-c4ccc(S(=O)(=O)[O-])cc4)c4ccc([nH]4)c(-c4ccc(S(=O)(=O)[O-])cc4)c4nc(c(-c5ccc(S(=O)(=O)[O-])cc5)c5ccc2[nH]5)C=C4)C=C3)cc1
REMARK SMILES IDX 22 1 21 2 20 3 19 4 17 5 18 6 16 8 15 9 9 10 10 11 11 13
REMARK SMILES IDX 13 14 12 15 14 16 8 18 1 19 2 20 3 21 4 22 5 23 7 24 6 25
REMARK SMILES IDX 23 26 24 27 25 28 26 30 27 31 28 32 86 33 29 34 85 35 30 36
REMARK SMILES IDX 31 37 32 38 79 39 33 40 84 41 78 42 80 43 34 44 83 45 77 46
REMARK SMILES IDX 76 47 35 49 65 50 46 51 64 52 47 53 50 54 63 55 81 56 48 57
REMARK SMILES IDX 49 58 62 60 82 61 51 62 36 63 37 64 45 65 38 66 44 67 39 68
REMARK SMILES IDX 40 69 41 70 42 71 43 72 66 73 67 74 75 75 68 76 74 77 69 78
REMARK SMILES IDX 70 79 71 80 72 81 73 82 52 83 53 84 61 85 54 86 60 87 55 88
REMARK SMILES IDX 56 89 57 90 58 91 59 92
REMARK H PARENT 19 7 9 12 12 17 24 29 80 48 50 59
REMARK Flexibility Score: inf
ROOT
ATOM      1  C   UNL A   1      34.044  28.807  27.170  1.00  0.00     0.023 C 
ENDROOT
BRANCH   1   2
ATOM      2  C   UNL A   1      33.204  29.945  26.601  1.00  0.00     0.023 C 
BRANCH   2   3
ATOM      3  C   UNL A   1      32.228  29.599  25.448  1.00  0.00     0.116 C 
BRANCH   3   4
ATOM      4  N   UNL A   1      32.962  29.460  24.186  1.00  0.00    -0.356 N 
ATOM      5  C   UNL A   1      33.669  28.493  23.542  1.00  0.00     0.226 C 
ATOM      6  O   UNL A   1      34.313  28.870  22.556  1.00  0.00    -0.275 OA
ATOM      7  H   UNL A   1      32.934  30.293  23.661  1.00  0.00     0.163 HD
BRANCH   5   8
ATOM      8  C   UNL A   1      33.644  27.019  23.888  1.00  0.00     0.175 C 
BRANCH   8   9
ATOM      9  C   UNL A   1      32.425  26.128  23.552  1.00  0.00     0.283 C 
ATOM     10  N   UNL A   1      32.557  24.698  23.163  1.00  0.00    -0.319 N 
ATOM     11  C   UNL A   1      33.159  24.621  21.807  1.00  0.00     0.284 C 
ATOM     12  H   UNL A   1      31.607  24.326  23.141  1.00  0.00     0.349 HD
ATOM     13  C   UNL A   1      32.658  25.630  20.748  1.00  0.00     0.177 C 
ATOM     14  C   UNL A   1      31.497  26.853  22.539  1.00  0.00     0.279 C 
ATOM     15  N   UNL A   1      31.649  26.537  21.220  1.00  0.00    -0.345 N 
ATOM     16  O   UNL A   1      30.662  27.692  22.875  1.00  0.00    -0.268 OA
ATOM     17  H   UNL A   1      31.042  26.950  20.563  1.00  0.00     0.163 HD
BRANCH  10  18
ATOM     18  C   UNL A   1      33.153  23.756  24.163  1.00  0.00     0.200 C 
ATOM     19  C   UNL A   1      33.517  21.333  24.898  1.00  0.00     0.017 C 
ATOM     20  C   UNL A   1      32.503  22.307  24.232  1.00  0.00     0.018 C 
ATOM     21  C   UNL A   1      32.217  21.698  22.844  1.00  0.00     0.017 C 
ATOM     22  C   UNL A   1      31.169  22.311  25.021  1.00  0.00     0.023 C 
ATOM     23  C   UNL A   1      31.239  22.781  26.471  1.00  0.00     0.070 C 
ATOM     24  C   UNL A   1      33.367  24.258  25.629  1.00  0.00     0.135 C 
ATOM     25  S   UNL A   1      31.868  24.462  26.621  1.00  0.00    -0.156 SA
ENDBRANCH  10  18
ENDBRANCH   8   9
ENDBRANCH   5   8
ENDBRANCH   3   4
ENDBRANCH   2   3
ENDBRANCH   1   2
BRANCH   1  26
ATOM     26  C   UNL A   1      35.474  29.151  27.551  1.00  0.00     0.116 C 
BRANCH  26  27
ATOM     27  N   UNL A   1      35.658  29.607  28.924  1.00  0.00    -0.352 N 
ATOM     28  C   UNL A   1      36.828  29.655  29.668  1.00  0.00     0.251 C 
ATOM     29  H   UNL A   1      34.846  29.923  29.383  1.00  0.00     0.163 HD
ATOM     30  O   UNL A   1      36.832  30.097  30.802  1.00  0.00    -0.269 OA
BRANCH  28  31
ATOM     31  C   UNL A   1      38.054  29.062  29.079  1.00  0.00     0.039 A 
ATOM     32  C   UNL A   1      38.509  29.561  27.857  1.00  0.00     0.014 A 
ATOM     33  C   UNL A   1      38.839  28.187  29.827  1.00  0.00     0.014 A 
ATOM     34  C   UNL A   1      39.820  29.297  27.457  1.00  0.00     0.010 A 
ATOM     35  C   UNL A   1      40.176  28.020  29.482  1.00  0.00     0.010 A 
ATOM     36  C   UNL A   1      40.690  28.594  28.307  1.00  0.00    -0.014 A 
BRANCH  36  37
ATOM     37  C   UNL A   1      42.142  28.470  28.006  1.00  0.00     0.031 A 
ATOM     38  C   UNL A   1      43.057  29.643  28.237  1.00  0.00     0.074 A 
ATOM     39  C   UNL A   1      42.624  27.339  27.445  1.00  0.00     0.049 A 
ATOM     40  N   UNL A   1      44.326  29.768  27.948  1.00  0.00    -0.248 NA
ATOM     41  C   UNL A   1      42.455  30.846  28.835  1.00  0.00     0.031 C 
ATOM     42  C   UNL A   1      41.835  26.151  27.101  1.00  0.00     0.029 A 
ATOM     43  N   UNL A   1      43.899  27.004  27.057  1.00  0.00    -0.354 N 
ATOM     44  C   UNL A   1      44.663  31.071  28.298  1.00  0.00     0.074 A 
ATOM     45  C   UNL A   1      43.454  31.712  28.764  1.00  0.00     0.031 C 
ATOM     46  C   UNL A   1      42.649  25.208  26.596  1.00  0.00     0.029 A 
ATOM     47  C   UNL A   1      44.009  25.732  26.541  1.00  0.00     0.049 A 
ATOM     48  H   UNL A   1      44.664  27.618  27.140  1.00  0.00     0.167 HD
ATOM     49  C   UNL A   1      45.875  31.672  28.270  1.00  0.00     0.031 A 
ATOM     50  C   UNL A   1      45.084  25.062  26.081  1.00  0.00     0.031 A 
ATOM     51  C   UNL A   1      47.086  31.021  27.853  1.00  0.00     0.049 A 
ATOM     52  C   UNL A   1      46.429  25.736  26.100  1.00  0.00     0.074 A 
ATOM     53  C   UNL A   1      48.375  31.524  27.843  1.00  0.00     0.029 A 
ATOM     54  N   UNL A   1      47.160  29.717  27.387  1.00  0.00    -0.354 N 
ATOM     55  N   UNL A   1      46.735  26.950  26.492  1.00  0.00    -0.248 NA
ATOM     56  C   UNL A   1      47.577  24.947  25.630  1.00  0.00     0.031 C 
ATOM     57  C   UNL A   1      49.226  30.532  27.346  1.00  0.00     0.029 A 
ATOM     58  C   UNL A   1      48.471  29.399  27.087  1.00  0.00     0.049 A 
ATOM     59  H   UNL A   1      46.392  29.109  27.286  1.00  0.00     0.167 HD
ATOM     60  C   UNL A   1      48.114  27.059  26.344  1.00  0.00     0.074 A 
ATOM     61  C   UNL A   1      48.583  25.785  25.839  1.00  0.00     0.031 C 
ATOM     62  C   UNL A   1      48.918  28.119  26.601  1.00  0.00     0.031 A 
BRANCH  49  63
ATOM     63  C   UNL A   1      45.945  33.105  28.725  1.00  0.00    -0.014 A 
ATOM     64  C   UNL A   1      46.237  33.422  30.064  1.00  0.00     0.010 A 
ATOM     65  C   UNL A   1      45.734  34.147  27.804  1.00  0.00     0.010 A 
ATOM     66  C   UNL A   1      46.267  34.752  30.485  1.00  0.00     0.020 A 
ATOM     67  C   UNL A   1      45.793  35.481  28.216  1.00  0.00     0.020 A 
ATOM     68  C   UNL A   1      46.040  35.774  29.559  1.00  0.00     0.054 A 
BRANCH  68  69
ATOM     69  S   UNL A   1      46.101  37.494  30.131  1.00  0.00     0.124 S 
ATOM     70  O   UNL A   1      47.403  37.929  29.632  1.00  0.00    -0.237 OA
ATOM     71  O   UNL A   1      44.944  38.093  29.468  1.00  0.00    -0.237 OA
ATOM     72  O   UNL A   1      45.994  37.380  31.583  1.00  0.00    -0.744 OA
ENDBRANCH  68  69
ENDBRANCH  49  63
BRANCH  50  73
ATOM     73  C   UNL A   1      44.948  23.661  25.589  1.00  0.00    -0.014 A 
ATOM     74  C   UNL A   1      45.043  22.582  26.487  1.00  0.00     0.010 A 
ATOM     75  C   UNL A   1      44.738  23.396  24.224  1.00  0.00     0.010 A 
ATOM     76  C   UNL A   1      44.961  21.264  26.026  1.00  0.00     0.020 A 
ATOM     77  C   UNL A   1      44.629  22.080  23.763  1.00  0.00     0.020 A 
ATOM     78  C   UNL A   1      44.756  21.021  24.665  1.00  0.00     0.054 A 
BRANCH  78  79
ATOM     79  S   UNL A   1      44.618  19.305  24.091  1.00  0.00     0.124 S 
ATOM     80  O   UNL A   1      45.821  18.700  24.651  1.00  0.00    -0.237 OA
ATOM     81  O   UNL A   1      43.356  18.872  24.684  1.00  0.00    -0.237 OA
ATOM     82  O   UNL A   1      44.599  19.436  22.635  1.00  0.00    -0.744 OA
ENDBRANCH  78  79
ENDBRANCH  50  73
BRANCH  62  83
ATOM     83  C   UNL A   1      50.395  27.935  26.385  1.00  0.00    -0.014 A 
ATOM     84  C   UNL A   1      51.227  27.462  27.415  1.00  0.00     0.010 A 
ATOM     85  C   UNL A   1      50.943  28.176  25.112  1.00  0.00     0.010 A 
ATOM     86  C   UNL A   1      52.589  27.258  27.180  1.00  0.00     0.020 A 
ATOM     87  C   UNL A   1      52.299  27.949  24.868  1.00  0.00     0.020 A 
ATOM     88  C   UNL A   1      53.116  27.503  25.909  1.00  0.00     0.054 A 
BRANCH  88  89
ATOM     89  S   UNL A   1      54.876  27.178  25.614  1.00  0.00     0.124 S 
ATOM     90  O   UNL A   1      54.919  27.045  24.160  1.00  0.00    -0.237 OA
ATOM     91  O   UNL A   1      55.520  28.373  26.155  1.00  0.00    -0.237 OA
ATOM     92  O   UNL A   1      55.130  25.949  26.362  1.00  0.00    -0.744 OA
ENDBRANCH  88  89
ENDBRANCH  62  83
ENDBRANCH  36  37
ENDBRANCH  28  31
ENDBRANCH  26  27
ENDBRANCH   1  26
TORSDOF 16
ENDMDL
