MODEL 1
REMARK VINA RESULT:     -10.3      0.000      0.000
REMARK SMILES O=C(NCCCCNC(=O)[C@@H]([NH2+]Cc1ccc([N+](=O)[O-])c(F)c1)C1CC1)c1ccc(-c2c3nc(c(-c4ccc(S(=O)(=O)[O-])cc4)c4ccc([nH]4)c(-c4ccc(S(=O)(=O)[O-])cc4)c4nc(c(-c5ccc(S(=O)(=O)[O-])cc5)c5ccc2[nH]5)C=C4)C=C3)cc1
REMARK SMILES IDX 6 1 5 2 4 3 3 4 1 5 2 6 27 8 28 9 86 10 29 11 85 12 30 13
REMARK SMILES IDX 31 14 32 15 79 16 33 17 84 18 78 19 80 20 34 21 83 22 77 23
REMARK SMILES IDX 76 24 35 26 65 27 46 28 64 29 47 30 50 31 63 32 81 33 48 34
REMARK SMILES IDX 49 35 62 37 82 38 51 39 36 40 37 41 45 42 38 43 44 44 39 45
REMARK SMILES IDX 40 46 41 47 42 48 43 49 66 50 67 51 75 52 68 53 74 54 69 55
REMARK SMILES IDX 70 56 71 57 72 58 73 59 52 60 53 61 61 62 54 63 60 64 55 65
REMARK SMILES IDX 56 66 57 67 58 68 59 69 7 70 8 71 9 72 10 74 11 75 12 76
REMARK SMILES IDX 13 79 14 80 15 81 23 82 16 83 21 84 17 85 22 86 18 87 19 88
REMARK SMILES IDX 20 89 24 90 25 91 26 92
REMARK H PARENT 3 7 80 25 50 36 8 73 12 77 12 78
REMARK Flexibility Score: inf
ROOT
ATOM      1  C   UNL A   1      33.310  29.214  24.593  1.00  0.00     0.023 C 
ENDROOT
BRANCH   1   2
ATOM      2  C   UNL A   1      33.796  28.033  25.431  1.00  0.00     0.023 C 
BRANCH   2   3
ATOM      3  C   UNL A   1      33.816  28.269  26.936  1.00  0.00     0.116 C 
BRANCH   3   4
ATOM      4  N   UNL A   1      33.509  29.644  27.293  1.00  0.00    -0.352 N 
ATOM      5  O   UNL A   1      33.852  31.634  28.303  1.00  0.00    -0.269 OA
ATOM      6  C   UNL A   1      34.304  30.556  27.950  1.00  0.00     0.251 C 
ATOM      7  H   UNL A   1      32.616  29.965  27.031  1.00  0.00     0.163 HD
BRANCH   6   8
ATOM      8  C   UNL A   1      35.707  30.193  28.242  1.00  0.00     0.039 A 
ATOM      9  C   UNL A   1      36.685  30.319  27.252  1.00  0.00     0.014 A 
ATOM     10  C   UNL A   1      36.034  29.697  29.506  1.00  0.00     0.014 A 
ATOM     11  C   UNL A   1      37.965  29.837  27.486  1.00  0.00     0.010 A 
ATOM     12  C   UNL A   1      37.344  29.285  29.765  1.00  0.00     0.010 A 
ATOM     13  C   UNL A   1      38.314  29.338  28.753  1.00  0.00    -0.014 A 
BRANCH  13  14
ATOM     14  C   UNL A   1      39.730  28.993  29.026  1.00  0.00     0.031 A 
ATOM     15  C   UNL A   1      40.308  27.663  28.633  1.00  0.00     0.074 A 
ATOM     16  C   UNL A   1      40.494  29.919  29.640  1.00  0.00     0.049 A 
ATOM     17  N   UNL A   1      41.526  27.219  28.810  1.00  0.00    -0.248 NA
ATOM     18  C   UNL A   1      39.412  26.706  27.963  1.00  0.00     0.031 C 
ATOM     19  C   UNL A   1      40.025  31.237  30.083  1.00  0.00     0.029 A 
ATOM     20  N   UNL A   1      41.817  29.905  29.992  1.00  0.00    -0.354 N 
ATOM     21  C   UNL A   1      41.541  25.927  28.299  1.00  0.00     0.074 A 
ATOM     22  C   UNL A   1      40.207  25.653  27.808  1.00  0.00     0.031 C 
ATOM     23  C   UNL A   1      41.052  31.915  30.613  1.00  0.00     0.029 A 
ATOM     24  C   UNL A   1      42.231  31.060  30.609  1.00  0.00     0.049 A 
ATOM     25  H   UNL A   1      42.414  29.141  29.819  1.00  0.00     0.167 HD
ATOM     26  C   UNL A   1      42.576  25.054  28.249  1.00  0.00     0.031 A 
ATOM     27  C   UNL A   1      43.421  31.389  31.145  1.00  0.00     0.031 A 
ATOM     28  C   UNL A   1      43.903  25.345  28.729  1.00  0.00     0.049 A 
ATOM     29  C   UNL A   1      44.539  30.391  31.092  1.00  0.00     0.074 A 
ATOM     30  C   UNL A   1      45.034  24.550  28.663  1.00  0.00     0.029 A 
ATOM     31  N   UNL A   1      44.276  26.516  29.372  1.00  0.00    -0.354 N 
ATOM     32  N   UNL A   1      44.545  29.198  30.549  1.00  0.00    -0.248 NA
ATOM     33  C   UNL A   1      45.803  30.781  31.727  1.00  0.00     0.031 C 
ATOM     34  C   UNL A   1      46.076  25.215  29.316  1.00  0.00     0.029 A 
ATOM     35  C   UNL A   1      45.609  26.447  29.742  1.00  0.00     0.049 A 
ATOM     36  H   UNL A   1      43.682  27.283  29.539  1.00  0.00     0.167 HD
ATOM     37  C   UNL A   1      45.817  28.690  30.780  1.00  0.00     0.074 A 
ATOM     38  C   UNL A   1      46.560  29.720  31.480  1.00  0.00     0.031 C 
ATOM     39  C   UNL A   1      46.323  27.477  30.451  1.00  0.00     0.031 A 
BRANCH  26  40
ATOM     40  C   UNL A   1      42.329  23.684  27.676  1.00  0.00    -0.014 A 
ATOM     41  C   UNL A   1      42.497  23.426  26.305  1.00  0.00     0.010 A 
ATOM     42  C   UNL A   1      42.036  22.614  28.543  1.00  0.00     0.010 A 
ATOM     43  C   UNL A   1      42.368  22.124  25.809  1.00  0.00     0.020 A 
ATOM     44  C   UNL A   1      41.923  21.309  28.056  1.00  0.00     0.020 A 
ATOM     45  C   UNL A   1      42.084  21.072  26.689  1.00  0.00     0.054 A 
BRANCH  45  46
ATOM     46  S   UNL A   1      41.988  19.384  26.029  1.00  0.00     0.124 S 
ATOM     47  O   UNL A   1      42.514  18.596  27.140  1.00  0.00    -0.237 OA
ATOM     48  O   UNL A   1      40.559  19.224  25.767  1.00  0.00    -0.237 OA
ATOM     49  O   UNL A   1      42.834  19.427  24.840  1.00  0.00    -0.744 OA
ENDBRANCH  45  46
ENDBRANCH  26  40
BRANCH  27  50
ATOM     50  C   UNL A   1      43.589  32.701  31.823  1.00  0.00    -0.014 A 
ATOM     51  C   UNL A   1      43.299  32.849  33.190  1.00  0.00     0.010 A 
ATOM     52  C   UNL A   1      44.056  33.812  31.096  1.00  0.00     0.010 A 
ATOM     53  C   UNL A   1      43.448  34.092  33.811  1.00  0.00     0.020 A 
ATOM     54  C   UNL A   1      44.235  35.047  31.719  1.00  0.00     0.020 A 
ATOM     55  C   UNL A   1      43.911  35.184  33.070  1.00  0.00     0.054 A 
BRANCH  55  56
ATOM     56  S   UNL A   1      44.131  36.783  33.899  1.00  0.00     0.124 S 
ATOM     57  O   UNL A   1      42.909  36.883  34.689  1.00  0.00    -0.237 OA
ATOM     58  O   UNL A   1      45.363  36.583  34.659  1.00  0.00    -0.237 OA
ATOM     59  O   UNL A   1      44.241  37.728  32.789  1.00  0.00    -0.744 OA
ENDBRANCH  55  56
ENDBRANCH  27  50
BRANCH  39  60
ATOM     60  C   UNL A   1      47.747  27.205  30.848  1.00  0.00    -0.014 A 
ATOM     61  C   UNL A   1      48.812  27.610  30.025  1.00  0.00     0.010 A 
ATOM     62  C   UNL A   1      48.022  26.567  32.070  1.00  0.00     0.010 A 
ATOM     63  C   UNL A   1      50.131  27.352  30.403  1.00  0.00     0.020 A 
ATOM     64  C   UNL A   1      49.342  26.330  32.463  1.00  0.00     0.020 A 
ATOM     65  C   UNL A   1      50.387  26.712  31.620  1.00  0.00     0.054 A 
BRANCH  65  66
ATOM     66  S   UNL A   1      52.109  26.420  32.107  1.00  0.00     0.124 S 
ATOM     67  O   UNL A   1      52.340  27.498  33.064  1.00  0.00    -0.237 OA
ATOM     68  O   UNL A   1      52.061  25.074  32.674  1.00  0.00    -0.237 OA
ATOM     69  O   UNL A   1      52.846  26.535  30.850  1.00  0.00    -0.744 OA
ENDBRANCH  65  66
ENDBRANCH  39  60
ENDBRANCH  13  14
ENDBRANCH   6   8
ENDBRANCH   3   4
ENDBRANCH   2   3
ENDBRANCH   1   2
BRANCH   1  70
ATOM     70  C   UNL A   1      33.416  29.028  23.084  1.00  0.00     0.116 C 
BRANCH  70  71
ATOM     71  N   UNL A   1      32.191  29.370  22.390  1.00  0.00    -0.351 N 
ATOM     72  C   UNL A   1      31.019  28.680  22.309  1.00  0.00     0.278 C 
ATOM     73  H   UNL A   1      32.207  30.227  21.906  1.00  0.00     0.163 HD
ATOM     74  O   UNL A   1      30.056  29.263  21.797  1.00  0.00    -0.268 OA
BRANCH  72  75
ATOM     75  C   UNL A   1      30.867  27.229  22.830  1.00  0.00     0.275 C 
BRANCH  75  76
ATOM     76  N   UNL A   1      32.097  26.453  22.592  1.00  0.00    -0.332 N 
ATOM     77  H   UNL A   1      32.689  26.555  23.416  1.00  0.00     0.347 HD
ATOM     78  H   UNL A   1      32.482  26.836  21.728  1.00  0.00     0.347 HD
BRANCH  76  79
ATOM     79  C   UNL A   1      31.955  25.027  22.333  1.00  0.00     0.298 C 
BRANCH  79  80
ATOM     80  C   UNL A   1      32.781  24.100  23.201  1.00  0.00     0.010 A 
ATOM     81  C   UNL A   1      32.486  22.726  23.235  1.00  0.00     0.017 A 
ATOM     82  C   UNL A   1      33.910  24.555  23.901  1.00  0.00     0.056 A 
ATOM     83  C   UNL A   1      33.289  21.836  23.955  1.00  0.00     0.089 A 
ATOM     84  C   UNL A   1      34.702  23.677  24.638  1.00  0.00     0.201 A 
ATOM     85  C   UNL A   1      34.394  22.324  24.664  1.00  0.00     0.304 A 
ATOM     86  F   UNL A   1      35.775  24.177  25.264  1.00  0.00    -0.199 F 
BRANCH  85  87
ATOM     87  N   UNL A   1      35.243  21.400  25.400  1.00  0.00     0.065 N 
ATOM     88  O   UNL A   1      36.020  20.697  24.736  1.00  0.00    -0.258 OA
ATOM     89  O   UNL A   1      35.129  21.348  26.631  1.00  0.00    -0.258 OA
ENDBRANCH  85  87
ENDBRANCH  79  80
ENDBRANCH  76  79
ENDBRANCH  75  76
BRANCH  75  90
ATOM     90  C   UNL A   1      30.277  27.100  24.218  1.00  0.00     0.057 C 
ATOM     91  C   UNL A   1      29.252  26.055  24.610  1.00  0.00     0.011 C 
ATOM     92  C   UNL A   1      30.632  26.000  25.196  1.00  0.00     0.011 C 
ENDBRANCH  75  90
ENDBRANCH  72  75
ENDBRANCH  70  71
ENDBRANCH   1  70
TORSDOF 19
ENDMDL
MODEL 2
REMARK VINA RESULT:     -10.2      4.999     10.285
REMARK SMILES O=C(NCCCCNC(=O)[C@@H]([NH2+]Cc1ccc([N+](=O)[O-])c(F)c1)C1CC1)c1ccc(-c2c3nc(c(-c4ccc(S(=O)(=O)[O-])cc4)c4ccc([nH]4)c(-c4ccc(S(=O)(=O)[O-])cc4)c4nc(c(-c5ccc(S(=O)(=O)[O-])cc5)c5ccc2[nH]5)C=C4)C=C3)cc1
REMARK SMILES IDX 6 1 5 2 4 3 3 4 1 5 2 6 27 8 28 9 86 10 29 11 85 12 30 13
REMARK SMILES IDX 31 14 32 15 79 16 33 17 84 18 78 19 80 20 34 21 83 22 77 23
REMARK SMILES IDX 76 24 35 26 65 27 46 28 64 29 47 30 50 31 63 32 81 33 48 34
REMARK SMILES IDX 49 35 62 37 82 38 51 39 36 40 37 41 45 42 38 43 44 44 39 45
REMARK SMILES IDX 40 46 41 47 42 48 43 49 66 50 67 51 75 52 68 53 74 54 69 55
REMARK SMILES IDX 70 56 71 57 72 58 73 59 52 60 53 61 61 62 54 63 60 64 55 65
REMARK SMILES IDX 56 66 57 67 58 68 59 69 7 70 8 71 9 72 10 74 11 75 12 76
REMARK SMILES IDX 13 79 14 80 15 81 23 82 16 83 21 84 17 85 22 86 18 87 19 88
REMARK SMILES IDX 20 89 24 90 25 91 26 92
REMARK H PARENT 3 7 80 25 50 36 8 73 12 77 12 78
REMARK Flexibility Score: inf
ROOT
ATOM      1  C   UNL A   1      37.825  24.056  26.300  1.00  0.00     0.023 C 
ENDROOT
BRANCH   1   2
ATOM      2  C   UNL A   1      39.015  23.129  26.543  1.00  0.00     0.023 C 
BRANCH   2   3
ATOM      3  C   UNL A   1      40.272  23.812  27.066  1.00  0.00     0.116 C 
BRANCH   3   4
ATOM      4  N   UNL A   1      41.009  24.508  26.024  1.00  0.00    -0.352 N 
ATOM      5  O   UNL A   1      41.882  26.303  24.970  1.00  0.00    -0.269 OA
ATOM      6  C   UNL A   1      41.386  25.832  25.981  1.00  0.00     0.251 C 
ATOM      7  H   UNL A   1      41.273  23.963  25.249  1.00  0.00     0.163 HD
BRANCH   6   8
ATOM      8  C   UNL A   1      41.155  26.674  27.174  1.00  0.00     0.039 A 
ATOM      9  C   UNL A   1      41.902  27.839  27.366  1.00  0.00     0.014 A 
ATOM     10  C   UNL A   1      40.205  26.275  28.116  1.00  0.00     0.014 A 
ATOM     11  C   UNL A   1      41.785  28.541  28.557  1.00  0.00     0.010 A 
ATOM     12  C   UNL A   1      40.032  27.029  29.280  1.00  0.00     0.010 A 
ATOM     13  C   UNL A   1      40.831  28.158  29.515  1.00  0.00    -0.014 A 
BRANCH  13  14
ATOM     14  C   UNL A   1      40.608  29.026  30.696  1.00  0.00     0.031 A 
ATOM     15  C   UNL A   1      39.501  30.041  30.732  1.00  0.00     0.074 A 
ATOM     16  C   UNL A   1      41.434  28.874  31.751  1.00  0.00     0.049 A 
ATOM     17  N   UNL A   1      39.187  30.871  31.693  1.00  0.00    -0.248 NA
ATOM     18  C   UNL A   1      38.638  30.145  29.543  1.00  0.00     0.031 C 
ATOM     19  C   UNL A   1      42.556  27.930  31.812  1.00  0.00     0.029 A 
ATOM     20  N   UNL A   1      41.460  29.495  32.971  1.00  0.00    -0.354 N 
ATOM     21  C   UNL A   1      38.110  31.613  31.221  1.00  0.00     0.074 A 
ATOM     22  C   UNL A   1      37.826  31.140  29.883  1.00  0.00     0.031 C 
ATOM     23  C   UNL A   1      43.134  28.010  33.018  1.00  0.00     0.029 A 
ATOM     24  C   UNL A   1      42.472  29.054  33.789  1.00  0.00     0.049 A 
ATOM     25  H   UNL A   1      40.815  30.191  33.237  1.00  0.00     0.167 HD
ATOM     26  C   UNL A   1      37.428  32.600  31.852  1.00  0.00     0.031 A 
ATOM     27  C   UNL A   1      42.850  29.462  35.014  1.00  0.00     0.031 A 
ATOM     28  C   UNL A   1      37.713  33.052  33.190  1.00  0.00     0.049 A 
ATOM     29  C   UNL A   1      42.086  30.571  35.674  1.00  0.00     0.074 A 
ATOM     30  C   UNL A   1      37.037  34.001  33.938  1.00  0.00     0.029 A 
ATOM     31  N   UNL A   1      38.763  32.599  33.975  1.00  0.00    -0.354 N 
ATOM     32  N   UNL A   1      41.035  31.217  35.232  1.00  0.00    -0.248 NA
ATOM     33  C   UNL A   1      42.564  31.010  36.990  1.00  0.00     0.031 C 
ATOM     34  C   UNL A   1      37.710  34.161  35.153  1.00  0.00     0.029 A 
ATOM     35  C   UNL A   1      38.776  33.277  35.183  1.00  0.00     0.049 A 
ATOM     36  H   UNL A   1      39.403  31.899  33.713  1.00  0.00     0.167 HD
ATOM     37  C   UNL A   1      40.723  32.143  36.218  1.00  0.00     0.074 A 
ATOM     38  C   UNL A   1      41.677  31.949  37.293  1.00  0.00     0.031 C 
ATOM     39  C   UNL A   1      39.742  33.078  36.231  1.00  0.00     0.031 A 
BRANCH  26  40
ATOM     40  C   UNL A   1      36.313  33.286  31.108  1.00  0.00    -0.014 A 
ATOM     41  C   UNL A   1      35.078  33.548  31.725  1.00  0.00     0.010 A 
ATOM     42  C   UNL A   1      36.550  33.779  29.810  1.00  0.00     0.010 A 
ATOM     43  C   UNL A   1      34.094  34.282  31.053  1.00  0.00     0.020 A 
ATOM     44  C   UNL A   1      35.576  34.527  29.142  1.00  0.00     0.020 A 
ATOM     45  C   UNL A   1      34.351  34.770  29.766  1.00  0.00     0.054 A 
BRANCH  45  46
ATOM     46  S   UNL A   1      33.082  35.775  28.945  1.00  0.00     0.124 S 
ATOM     47  O   UNL A   1      32.353  34.770  28.176  1.00  0.00    -0.237 OA
ATOM     48  O   UNL A   1      32.353  36.353  30.072  1.00  0.00    -0.237 OA
ATOM     49  O   UNL A   1      33.854  36.728  28.152  1.00  0.00    -0.744 OA
ENDBRANCH  45  46
ENDBRANCH  26  40
BRANCH  27  50
ATOM     50  C   UNL A   1      44.040  28.853  35.662  1.00  0.00    -0.014 A 
ATOM     51  C   UNL A   1      43.910  27.738  36.506  1.00  0.00     0.010 A 
ATOM     52  C   UNL A   1      45.321  29.388  35.423  1.00  0.00     0.010 A 
ATOM     53  C   UNL A   1      45.038  27.184  37.120  1.00  0.00     0.020 A 
ATOM     54  C   UNL A   1      46.451  28.820  36.011  1.00  0.00     0.020 A 
ATOM     55  C   UNL A   1      46.300  27.732  36.872  1.00  0.00     0.054 A 
BRANCH  55  56
ATOM     56  S   UNL A   1      47.756  26.981  37.650  1.00  0.00     0.124 S 
ATOM     57  O   UNL A   1      47.201  25.751  38.204  1.00  0.00    -0.237 OA
ATOM     58  O   UNL A   1      48.671  26.814  36.523  1.00  0.00    -0.237 OA
ATOM     59  O   UNL A   1      48.169  27.982  38.633  1.00  0.00    -0.744 OA
ENDBRANCH  55  56
ENDBRANCH  27  50
BRANCH  39  60
ATOM     60  C   UNL A   1      39.659  33.958  37.446  1.00  0.00    -0.014 A 
ATOM     61  C   UNL A   1      40.269  35.225  37.460  1.00  0.00     0.010 A 
ATOM     62  C   UNL A   1      38.937  33.527  38.573  1.00  0.00     0.010 A 
ATOM     63  C   UNL A   1      40.186  36.033  38.594  1.00  0.00     0.020 A 
ATOM     64  C   UNL A   1      38.832  34.344  39.701  1.00  0.00     0.020 A 
ATOM     65  C   UNL A   1      39.469  35.586  39.709  1.00  0.00     0.054 A 
BRANCH  65  66
ATOM     66  S   UNL A   1      39.345  36.670  41.158  1.00  0.00     0.124 S 
ATOM     67  O   UNL A   1      40.735  36.749  41.597  1.00  0.00    -0.237 OA
ATOM     68  O   UNL A   1      38.792  37.900  40.595  1.00  0.00    -0.237 OA
ATOM     69  O   UNL A   1      38.448  35.944  42.055  1.00  0.00    -0.744 OA
ENDBRANCH  65  66
ENDBRANCH  39  60
ENDBRANCH  13  14
ENDBRANCH   6   8
ENDBRANCH   3   4
ENDBRANCH   2   3
ENDBRANCH   1   2
BRANCH   1  70
ATOM     70  C   UNL A   1      36.850  23.594  25.223  1.00  0.00     0.116 C 
BRANCH  70  71
ATOM     71  N   UNL A   1      36.682  22.155  25.199  1.00  0.00    -0.351 N 
ATOM     72  C   UNL A   1      35.558  21.417  24.974  1.00  0.00     0.278 C 
ATOM     73  H   UNL A   1      37.499  21.634  25.370  1.00  0.00     0.163 HD
ATOM     74  O   UNL A   1      35.704  20.197  24.835  1.00  0.00    -0.268 OA
BRANCH  72  75
ATOM     75  C   UNL A   1      34.148  22.051  24.888  1.00  0.00     0.275 C 
BRANCH  75  76
ATOM     76  N   UNL A   1      33.434  21.585  23.686  1.00  0.00    -0.332 N 
ATOM     77  H   UNL A   1      34.123  21.162  23.064  1.00  0.00     0.347 HD
ATOM     78  H   UNL A   1      32.970  22.418  23.321  1.00  0.00     0.347 HD
BRANCH  76  79
ATOM     79  C   UNL A   1      32.363  20.616  23.872  1.00  0.00     0.298 C 
BRANCH  79  80
ATOM     80  C   UNL A   1      32.787  19.204  24.219  1.00  0.00     0.010 A 
ATOM     81  C   UNL A   1      32.579  18.711  25.519  1.00  0.00     0.017 A 
ATOM     82  C   UNL A   1      33.293  18.324  23.249  1.00  0.00     0.056 A 
ATOM     83  C   UNL A   1      32.878  17.383  25.841  1.00  0.00     0.089 A 
ATOM     84  C   UNL A   1      33.612  17.006  23.568  1.00  0.00     0.201 A 
ATOM     85  C   UNL A   1      33.405  16.537  24.857  1.00  0.00     0.304 A 
ATOM     86  F   UNL A   1      34.071  16.218  22.586  1.00  0.00    -0.199 F 
BRANCH  85  87
ATOM     87  N   UNL A   1      33.699  15.150  25.182  1.00  0.00     0.065 N 
ATOM     88  O   UNL A   1      34.894  14.841  25.302  1.00  0.00    -0.258 OA
ATOM     89  O   UNL A   1      32.755  14.359  25.297  1.00  0.00    -0.258 OA
ENDBRANCH  85  87
ENDBRANCH  79  80
ENDBRANCH  76  79
ENDBRANCH  75  76
BRANCH  75  90
ATOM     90  C   UNL A   1      33.346  22.019  26.172  1.00  0.00     0.057 C 
ATOM     91  C   UNL A   1      33.199  23.200  27.109  1.00  0.00     0.011 C 
ATOM     92  C   UNL A   1      32.004  22.695  26.355  1.00  0.00     0.011 C 
ENDBRANCH  75  90
ENDBRANCH  72  75
ENDBRANCH  70  71
ENDBRANCH   1  70
TORSDOF 19
ENDMDL
MODEL 3
REMARK VINA RESULT:      -9.9      0.882      8.233
REMARK SMILES O=C(NCCCCNC(=O)[C@@H]([NH2+]Cc1ccc([N+](=O)[O-])c(F)c1)C1CC1)c1ccc(-c2c3nc(c(-c4ccc(S(=O)(=O)[O-])cc4)c4ccc([nH]4)c(-c4ccc(S(=O)(=O)[O-])cc4)c4nc(c(-c5ccc(S(=O)(=O)[O-])cc5)c5ccc2[nH]5)C=C4)C=C3)cc1
REMARK SMILES IDX 6 1 5 2 4 3 3 4 1 5 2 6 27 8 28 9 86 10 29 11 85 12 30 13
REMARK SMILES IDX 31 14 32 15 79 16 33 17 84 18 78 19 80 20 34 21 83 22 77 23
REMARK SMILES IDX 76 24 35 26 65 27 46 28 64 29 47 30 50 31 63 32 81 33 48 34
REMARK SMILES IDX 49 35 62 37 82 38 51 39 36 40 37 41 45 42 38 43 44 44 39 45
REMARK SMILES IDX 40 46 41 47 42 48 43 49 66 50 67 51 75 52 68 53 74 54 69 55
REMARK SMILES IDX 70 56 71 57 72 58 73 59 52 60 53 61 61 62 54 63 60 64 55 65
REMARK SMILES IDX 56 66 57 67 58 68 59 69 7 70 8 71 9 72 10 74 11 75 12 76
REMARK SMILES IDX 13 79 14 80 15 81 23 82 16 83 21 84 17 85 22 86 18 87 19 88
REMARK SMILES IDX 20 89 24 90 25 91 26 92
REMARK H PARENT 3 7 80 25 50 36 8 73 12 77 12 78
REMARK Flexibility Score: inf
ROOT
ATOM      1  C   UNL A   1      33.296  29.149  24.362  1.00  0.00     0.023 C 
ENDROOT
BRANCH   1   2
ATOM      2  C   UNL A   1      33.892  28.004  25.178  1.00  0.00     0.023 C 
BRANCH   2   3
ATOM      3  C   UNL A   1      33.908  28.222  26.686  1.00  0.00     0.116 C 
BRANCH   3   4
ATOM      4  N   UNL A   1      33.470  29.554  27.067  1.00  0.00    -0.352 N 
ATOM      5  O   UNL A   1      33.586  31.523  28.164  1.00  0.00    -0.269 OA
ATOM      6  C   UNL A   1      34.145  30.498  27.808  1.00  0.00     0.251 C 
ATOM      7  H   UNL A   1      32.574  29.816  26.754  1.00  0.00     0.163 HD
BRANCH   6   8
ATOM      8  C   UNL A   1      35.549  30.232  28.185  1.00  0.00     0.039 A 
ATOM      9  C   UNL A   1      36.571  30.405  27.250  1.00  0.00     0.014 A 
ATOM     10  C   UNL A   1      35.835  29.780  29.475  1.00  0.00     0.014 A 
ATOM     11  C   UNL A   1      37.864  30.011  27.565  1.00  0.00     0.010 A 
ATOM     12  C   UNL A   1      37.151  29.459  29.816  1.00  0.00     0.010 A 
ATOM     13  C   UNL A   1      38.172  29.557  28.858  1.00  0.00    -0.014 A 
BRANCH  13  14
ATOM     14  C   UNL A   1      39.589  29.310  29.217  1.00  0.00     0.031 A 
ATOM     15  C   UNL A   1      40.432  30.364  29.877  1.00  0.00     0.074 A 
ATOM     16  C   UNL A   1      40.105  28.097  28.933  1.00  0.00     0.049 A 
ATOM     17  N   UNL A   1      41.685  30.294  30.245  1.00  0.00    -0.248 NA
ATOM     18  C   UNL A   1      39.796  31.662  30.158  1.00  0.00     0.031 C 
ATOM     19  C   UNL A   1      39.378  27.007  28.273  1.00  0.00     0.029 A 
ATOM     20  N   UNL A   1      41.348  27.571  29.166  1.00  0.00    -0.354 N 
ATOM     21  C   UNL A   1      41.999  31.539  30.778  1.00  0.00     0.074 A 
ATOM     22  C   UNL A   1      40.805  32.351  30.680  1.00  0.00     0.031 C 
ATOM     23  C   UNL A   1      40.175  25.934  28.188  1.00  0.00     0.029 A 
ATOM     24  C   UNL A   1      41.485  26.277  28.723  1.00  0.00     0.049 A 
ATOM     25  H   UNL A   1      42.072  28.070  29.608  1.00  0.00     0.167 HD
ATOM     26  C   UNL A   1      43.179  31.959  31.296  1.00  0.00     0.031 A 
ATOM     27  C   UNL A   1      42.556  25.463  28.717  1.00  0.00     0.031 A 
ATOM     28  C   UNL A   1      44.355  31.134  31.399  1.00  0.00     0.049 A 
ATOM     29  C   UNL A   1      43.852  25.967  29.279  1.00  0.00     0.074 A 
ATOM     30  C   UNL A   1      45.578  31.450  31.968  1.00  0.00     0.029 A 
ATOM     31  N   UNL A   1      44.464  29.840  30.916  1.00  0.00    -0.354 N 
ATOM     32  N   UNL A   1      44.108  27.129  29.831  1.00  0.00    -0.248 NA
ATOM     33  C   UNL A   1      45.001  25.057  29.210  1.00  0.00     0.031 C 
ATOM     34  C   UNL A   1      46.441  30.367  31.778  1.00  0.00     0.029 A 
ATOM     35  C   UNL A   1      45.743  29.357  31.137  1.00  0.00     0.049 A 
ATOM     36  H   UNL A   1      43.738  29.337  30.479  1.00  0.00     0.167 HD
ATOM     37  C   UNL A   1      45.453  27.090  30.176  1.00  0.00     0.074 A 
ATOM     38  C   UNL A   1      45.944  25.778  29.801  1.00  0.00     0.031 C 
ATOM     39  C   UNL A   1      46.215  28.056  30.743  1.00  0.00     0.031 A 
BRANCH  26  40
ATOM     40  C   UNL A   1      43.281  33.381  31.779  1.00  0.00    -0.014 A 
ATOM     41  C   UNL A   1      43.031  33.716  33.120  1.00  0.00     0.010 A 
ATOM     42  C   UNL A   1      43.747  34.378  30.899  1.00  0.00     0.010 A 
ATOM     43  C   UNL A   1      43.236  35.024  33.573  1.00  0.00     0.020 A 
ATOM     44  C   UNL A   1      43.969  35.682  31.351  1.00  0.00     0.020 A 
ATOM     45  C   UNL A   1      43.707  35.998  32.685  1.00  0.00     0.054 A 
BRANCH  45  46
ATOM     46  S   UNL A   1      44.027  37.670  33.315  1.00  0.00     0.124 S 
ATOM     47  O   UNL A   1      42.752  38.005  33.942  1.00  0.00    -0.237 OA
ATOM     48  O   UNL A   1      45.143  37.458  34.234  1.00  0.00    -0.237 OA
ATOM     49  O   UNL A   1      44.352  38.437  32.115  1.00  0.00    -0.744 OA
ENDBRANCH  45  46
ENDBRANCH  26  40
BRANCH  27  50
ATOM     50  C   UNL A   1      42.454  24.110  28.109  1.00  0.00    -0.014 A 
ATOM     51  C   UNL A   1      42.202  22.979  28.903  1.00  0.00     0.010 A 
ATOM     52  C   UNL A   1      42.599  23.954  26.717  1.00  0.00     0.010 A 
ATOM     53  C   UNL A   1      42.123  21.712  28.318  1.00  0.00     0.020 A 
ATOM     54  C   UNL A   1      42.491  22.695  26.127  1.00  0.00     0.020 A 
ATOM     55  C   UNL A   1      42.272  21.578  26.934  1.00  0.00     0.054 A 
BRANCH  55  56
ATOM     56  S   UNL A   1      42.133  19.931  26.188  1.00  0.00     0.124 S 
ATOM     57  O   UNL A   1      42.529  19.065  27.293  1.00  0.00    -0.237 OA
ATOM     58  O   UNL A   1      40.723  19.869  25.807  1.00  0.00    -0.237 OA
ATOM     59  O   UNL A   1      43.069  19.987  25.066  1.00  0.00    -0.744 OA
ENDBRANCH  55  56
ENDBRANCH  27  50
BRANCH  39  60
ATOM     60  C   UNL A   1      47.660  27.723  30.988  1.00  0.00    -0.014 A 
ATOM     61  C   UNL A   1      48.645  28.061  30.043  1.00  0.00     0.010 A 
ATOM     62  C   UNL A   1      48.039  27.096  32.188  1.00  0.00     0.010 A 
ATOM     63  C   UNL A   1      49.984  27.746  30.281  1.00  0.00     0.020 A 
ATOM     64  C   UNL A   1      49.381  26.802  32.439  1.00  0.00     0.020 A 
ATOM     65  C   UNL A   1      50.343  27.117  31.478  1.00  0.00     0.054 A 
BRANCH  65  66
ATOM     66  S   UNL A   1      52.093  26.751  31.780  1.00  0.00     0.124 S 
ATOM     67  O   UNL A   1      52.057  26.188  33.126  1.00  0.00    -0.237 OA
ATOM     68  O   UNL A   1      52.415  25.807  30.711  1.00  0.00    -0.237 OA
ATOM     69  O   UNL A   1      52.742  28.056  31.667  1.00  0.00    -0.744 OA
ENDBRANCH  65  66
ENDBRANCH  39  60
ENDBRANCH  13  14
ENDBRANCH   6   8
ENDBRANCH   3   4
ENDBRANCH   2   3
ENDBRANCH   1   2
BRANCH   1  70
ATOM     70  C   UNL A   1      33.286  28.937  22.853  1.00  0.00     0.116 C 
BRANCH  70  71
ATOM     71  N   UNL A   1      31.995  29.214  22.257  1.00  0.00    -0.351 N 
ATOM     72  C   UNL A   1      30.834  28.504  22.334  1.00  0.00     0.278 C 
ATOM     73  H   UNL A   1      31.949  30.035  21.716  1.00  0.00     0.163 HD
ATOM     74  O   UNL A   1      29.816  29.038  21.877  1.00  0.00    -0.268 OA
BRANCH  72  75
ATOM     75  C   UNL A   1      30.760  27.091  22.964  1.00  0.00     0.275 C 
BRANCH  75  76
ATOM     76  N   UNL A   1      31.965  26.307  22.641  1.00  0.00    -0.332 N 
ATOM     77  H   UNL A   1      32.519  26.232  23.494  1.00  0.00     0.347 HD
ATOM     78  H   UNL A   1      32.408  26.817  21.876  1.00  0.00     0.347 HD
BRANCH  76  79
ATOM     79  C   UNL A   1      31.773  24.959  22.126  1.00  0.00     0.298 C 
BRANCH  79  80
ATOM     80  C   UNL A   1      32.414  23.839  22.919  1.00  0.00     0.010 A 
ATOM     81  C   UNL A   1      33.811  23.680  22.904  1.00  0.00     0.017 A 
ATOM     82  C   UNL A   1      31.660  23.005  23.761  1.00  0.00     0.056 A 
ATOM     83  C   UNL A   1      34.434  22.712  23.698  1.00  0.00     0.089 A 
ATOM     84  C   UNL A   1      32.272  22.024  24.539  1.00  0.00     0.201 A 
ATOM     85  C   UNL A   1      33.652  21.879  24.509  1.00  0.00     0.304 A 
ATOM     86  F   UNL A   1      31.493  21.280  25.335  1.00  0.00    -0.199 F 
BRANCH  85  87
ATOM     87  N   UNL A   1      34.297  20.883  25.350  1.00  0.00     0.065 N 
ATOM     88  O   UNL A   1      34.778  19.892  24.782  1.00  0.00    -0.258 OA
ATOM     89  O   UNL A   1      34.308  21.065  26.574  1.00  0.00    -0.258 OA
ENDBRANCH  85  87
ENDBRANCH  79  80
ENDBRANCH  76  79
ENDBRANCH  75  76
BRANCH  75  90
ATOM     90  C   UNL A   1      30.330  27.054  24.415  1.00  0.00     0.057 C 
ATOM     91  C   UNL A   1      29.513  25.936  25.029  1.00  0.00     0.011 C 
ATOM     92  C   UNL A   1      30.936  26.140  25.459  1.00  0.00     0.011 C 
ENDBRANCH  75  90
ENDBRANCH  72  75
ENDBRANCH  70  71
ENDBRANCH   1  70
TORSDOF 19
ENDMDL
