MODEL 1
REMARK VINA RESULT:     -11.2      0.000      0.000
REMARK SMILES O=C(C[C@H](c1ccsc1)n1cccc1)NCCCCNC(=O)c1ccc(-c2c3nc(c(-c4ccc(S(=O)(=O)[O-])cc4)c4ccc([nH]4)c(-c4ccc(S(=O)(=O)[O-])cc4)c4nc(c(-c5ccc(S(=O)(=O)[O-])cc5)c5ccc2[nH]5)C=C4)C=C3)cc1
REMARK SMILES IDX 18 1 17 2 16 3 15 4 1 5 2 6 3 8 4 9 10 10 11 11 14 12 12 13
REMARK SMILES IDX 13 14 5 15 6 16 9 17 7 18 8 19 19 20 20 21 21 22 22 24 23 25
REMARK SMILES IDX 24 26 82 27 25 28 81 29 26 30 27 31 28 32 75 33 29 34 80 35
REMARK SMILES IDX 74 36 76 37 30 38 79 39 73 40 72 41 31 43 61 44 42 45 60 46
REMARK SMILES IDX 43 47 46 48 59 49 77 50 44 51 45 52 58 54 78 55 47 56 32 57
REMARK SMILES IDX 33 58 41 59 34 60 40 61 35 62 36 63 37 64 38 65 39 66 62 67
REMARK SMILES IDX 63 68 71 69 64 70 70 71 65 72 66 73 67 74 68 75 69 76 48 77
REMARK SMILES IDX 49 78 57 79 50 80 56 81 51 82 52 83 53 84 54 85 55 86
REMARK H PARENT 15 7 20 23 76 42 46 53
REMARK Flexibility Score: inf
ROOT
ATOM      1  C   UNL A   1      32.918  27.819  26.179  1.00  0.00     0.023 C 
ENDROOT
BRANCH   1   2
ATOM      2  C   UNL A   1      32.988  26.284  26.141  1.00  0.00     0.023 C 
BRANCH   2   3
ATOM      3  C   UNL A   1      31.718  25.586  25.648  1.00  0.00     0.116 C 
BRANCH   3   4
ATOM      4  N   UNL A   1      32.013  24.433  24.817  1.00  0.00    -0.356 N 
ATOM      5  O   UNL A   1      31.193  22.868  26.282  1.00  0.00    -0.275 OA
ATOM      6  C   UNL A   1      31.691  23.147  25.195  1.00  0.00     0.222 C 
ATOM      7  H   UNL A   1      32.459  24.574  23.950  1.00  0.00     0.163 HD
BRANCH   6   8
ATOM      8  C   UNL A   1      32.080  22.072  24.204  1.00  0.00     0.130 C 
BRANCH   8   9
ATOM      9  C   UNL A   1      33.138  21.108  24.747  1.00  0.00     0.127 C 
BRANCH   9  10
ATOM     10  N   UNL A   1      33.047  19.797  24.081  1.00  0.00    -0.346 N 
ATOM     11  C   UNL A   1      33.704  18.664  24.501  1.00  0.00     0.086 A 
ATOM     12  C   UNL A   1      32.269  19.479  22.993  1.00  0.00     0.086 A 
ATOM     13  C   UNL A   1      33.382  17.637  23.642  1.00  0.00     0.019 A 
ATOM     14  C   UNL A   1      32.480  18.153  22.685  1.00  0.00     0.019 A 
ENDBRANCH   9  10
BRANCH   9  15
ATOM     15  C   UNL A   1      34.558  21.635  24.704  1.00  0.00    -0.014 A 
ATOM     16  C   UNL A   1      35.615  21.306  25.622  1.00  0.00     0.017 A 
ATOM     17  C   UNL A   1      35.019  22.525  23.747  1.00  0.00     0.070 A 
ATOM     18  C   UNL A   1      36.793  21.959  25.339  1.00  0.00     0.065 A 
ATOM     19  S   UNL A   1      36.665  22.938  23.949  1.00  0.00    -0.152 S 
ENDBRANCH   9  15
ENDBRANCH   8   9
ENDBRANCH   6   8
ENDBRANCH   3   4
ENDBRANCH   2   3
ENDBRANCH   1   2
BRANCH   1  20
ATOM     20  C   UNL A   1      33.214  28.439  27.546  1.00  0.00     0.116 C 
BRANCH  20  21
ATOM     21  N   UNL A   1      33.286  29.887  27.470  1.00  0.00    -0.352 N 
ATOM     22  C   UNL A   1      34.231  30.744  27.984  1.00  0.00     0.251 C 
ATOM     23  H   UNL A   1      32.550  30.319  26.979  1.00  0.00     0.163 HD
ATOM     24  O   UNL A   1      33.923  31.916  28.167  1.00  0.00    -0.269 OA
BRANCH  22  25
ATOM     25  C   UNL A   1      35.599  30.285  28.325  1.00  0.00     0.039 A 
ATOM     26  C   UNL A   1      36.535  30.177  27.286  1.00  0.00     0.014 A 
ATOM     27  C   UNL A   1      35.943  29.865  29.615  1.00  0.00     0.014 A 
ATOM     28  C   UNL A   1      37.821  29.711  27.549  1.00  0.00     0.010 A 
ATOM     29  C   UNL A   1      37.234  29.416  29.888  1.00  0.00     0.010 A 
ATOM     30  C   UNL A   1      38.180  29.356  28.858  1.00  0.00    -0.014 A 
BRANCH  30  31
ATOM     31  C   UNL A   1      39.613  29.128  29.168  1.00  0.00     0.031 A 
ATOM     32  C   UNL A   1      40.278  30.421  29.699  1.00  0.00     0.074 A 
ATOM     33  C   UNL A   1      40.127  27.885  28.910  1.00  0.00     0.049 A 
ATOM     34  N   UNL A   1      41.512  30.812  29.634  1.00  0.00    -0.248 NA
ATOM     35  C   UNL A   1      39.426  31.474  30.327  1.00  0.00     0.031 C 
ATOM     36  C   UNL A   1      39.332  26.718  28.458  1.00  0.00     0.029 A 
ATOM     37  N   UNL A   1      41.394  27.332  28.967  1.00  0.00    -0.354 N 
ATOM     38  C   UNL A   1      41.620  32.043  30.329  1.00  0.00     0.074 A 
ATOM     39  C   UNL A   1      40.287  32.441  30.655  1.00  0.00     0.031 C 
ATOM     40  C   UNL A   1      40.125  25.649  28.209  1.00  0.00     0.029 A 
ATOM     41  C   UNL A   1      41.507  25.999  28.473  1.00  0.00     0.049 A 
ATOM     42  H   UNL A   1      42.166  27.825  29.325  1.00  0.00     0.167 HD
ATOM     43  C   UNL A   1      42.815  32.603  30.687  1.00  0.00     0.031 A 
ATOM     44  C   UNL A   1      42.634  25.253  28.241  1.00  0.00     0.031 A 
ATOM     45  C   UNL A   1      43.884  31.828  30.161  1.00  0.00     0.049 A 
ATOM     46  C   UNL A   1      43.747  26.067  28.749  1.00  0.00     0.074 A 
ATOM     47  C   UNL A   1      44.359  31.641  28.890  1.00  0.00     0.029 A 
ATOM     48  N   UNL A   1      44.356  30.829  30.976  1.00  0.00    -0.354 N 
ATOM     49  N   UNL A   1      44.028  26.255  30.002  1.00  0.00    -0.248 NA
ATOM     50  C   UNL A   1      44.584  26.787  27.780  1.00  0.00     0.031 C 
ATOM     51  C   UNL A   1      44.658  30.262  28.866  1.00  0.00     0.029 A 
ATOM     52  C   UNL A   1      44.583  29.747  30.165  1.00  0.00     0.049 A 
ATOM     53  H   UNL A   1      44.502  30.878  31.948  1.00  0.00     0.167 HD
ATOM     54  C   UNL A   1      44.798  27.388  29.957  1.00  0.00     0.074 A 
ATOM     55  C   UNL A   1      45.360  27.458  28.624  1.00  0.00     0.031 C 
ATOM     56  C   UNL A   1      44.493  28.437  30.757  1.00  0.00     0.031 A 
BRANCH  43  57
ATOM     57  C   UNL A   1      43.179  33.677  31.681  1.00  0.00    -0.014 A 
ATOM     58  C   UNL A   1      43.007  33.366  33.057  1.00  0.00     0.010 A 
ATOM     59  C   UNL A   1      43.342  35.028  31.345  1.00  0.00     0.010 A 
ATOM     60  C   UNL A   1      42.861  34.355  34.030  1.00  0.00     0.020 A 
ATOM     61  C   UNL A   1      43.236  36.032  32.327  1.00  0.00     0.020 A 
ATOM     62  C   UNL A   1      42.946  35.690  33.651  1.00  0.00     0.054 A 
BRANCH  62  63
ATOM     63  S   UNL A   1      42.602  36.955  34.905  1.00  0.00     0.124 S 
ATOM     64  O   UNL A   1      42.709  38.191  34.136  1.00  0.00    -0.237 OA
ATOM     65  O   UNL A   1      41.251  36.606  35.340  1.00  0.00    -0.237 OA
ATOM     66  O   UNL A   1      43.645  36.740  35.904  1.00  0.00    -0.744 OA
ENDBRANCH  62  63
ENDBRANCH  43  57
BRANCH  44  67
ATOM     67  C   UNL A   1      43.051  23.972  27.539  1.00  0.00    -0.014 A 
ATOM     68  C   UNL A   1      42.235  23.113  26.794  1.00  0.00     0.010 A 
ATOM     69  C   UNL A   1      44.442  23.648  27.526  1.00  0.00     0.010 A 
ATOM     70  C   UNL A   1      42.799  22.107  25.963  1.00  0.00     0.020 A 
ATOM     71  C   UNL A   1      45.016  22.701  26.674  1.00  0.00     0.020 A 
ATOM     72  C   UNL A   1      44.188  21.950  25.863  1.00  0.00     0.054 A 
BRANCH  72  73
ATOM     73  S   UNL A   1      44.935  20.890  24.589  1.00  0.00     0.124 S 
ATOM     74  O   UNL A   1      44.739  21.670  23.372  1.00  0.00    -0.237 OA
ATOM     75  O   UNL A   1      46.318  20.766  25.045  1.00  0.00    -0.237 OA
ATOM     76  O   UNL A   1      44.156  19.655  24.671  1.00  0.00    -0.744 OA
ENDBRANCH  72  73
ENDBRANCH  44  67
BRANCH  56  77
ATOM     77  C   UNL A   1      43.748  28.099  32.037  1.00  0.00    -0.014 A 
ATOM     78  C   UNL A   1      44.467  27.544  33.109  1.00  0.00     0.010 A 
ATOM     79  C   UNL A   1      42.355  28.259  32.198  1.00  0.00     0.010 A 
ATOM     80  C   UNL A   1      43.833  27.177  34.305  1.00  0.00     0.020 A 
ATOM     81  C   UNL A   1      41.709  27.893  33.395  1.00  0.00     0.020 A 
ATOM     82  C   UNL A   1      42.457  27.361  34.446  1.00  0.00     0.054 A 
BRANCH  82  83
ATOM     83  S   UNL A   1      41.680  26.901  36.024  1.00  0.00     0.124 S 
ATOM     84  O   UNL A   1      40.979  28.124  36.409  1.00  0.00    -0.237 OA
ATOM     85  O   UNL A   1      40.821  25.786  35.637  1.00  0.00    -0.237 OA
ATOM     86  O   UNL A   1      42.811  26.545  36.881  1.00  0.00    -0.744 OA
ENDBRANCH  82  83
ENDBRANCH  56  77
ENDBRANCH  30  31
ENDBRANCH  22  25
ENDBRANCH  20  21
ENDBRANCH   1  20
TORSDOF 17
ENDMDL
MODEL 2
REMARK VINA RESULT:     -11.1      4.089      6.899
REMARK SMILES O=C(C[C@H](c1ccsc1)n1cccc1)NCCCCNC(=O)c1ccc(-c2c3nc(c(-c4ccc(S(=O)(=O)[O-])cc4)c4ccc([nH]4)c(-c4ccc(S(=O)(=O)[O-])cc4)c4nc(c(-c5ccc(S(=O)(=O)[O-])cc5)c5ccc2[nH]5)C=C4)C=C3)cc1
REMARK SMILES IDX 18 1 17 2 16 3 15 4 1 5 2 6 3 8 4 9 10 10 11 11 14 12 12 13
REMARK SMILES IDX 13 14 5 15 6 16 9 17 7 18 8 19 19 20 20 21 21 22 22 24 23 25
REMARK SMILES IDX 24 26 82 27 25 28 81 29 26 30 27 31 28 32 75 33 29 34 80 35
REMARK SMILES IDX 74 36 76 37 30 38 79 39 73 40 72 41 31 43 61 44 42 45 60 46
REMARK SMILES IDX 43 47 46 48 59 49 77 50 44 51 45 52 58 54 78 55 47 56 32 57
REMARK SMILES IDX 33 58 41 59 34 60 40 61 35 62 36 63 37 64 38 65 39 66 62 67
REMARK SMILES IDX 63 68 71 69 64 70 70 71 65 72 66 73 67 74 68 75 69 76 48 77
REMARK SMILES IDX 49 78 57 79 50 80 56 81 51 82 52 83 53 84 54 85 55 86
REMARK H PARENT 15 7 20 23 76 42 46 53
REMARK Flexibility Score: inf
ROOT
ATOM      1  C   UNL A   1      33.595  33.546  28.172  1.00  0.00     0.023 C 
ENDROOT
BRANCH   1   2
ATOM      2  C   UNL A   1      34.017  34.790  28.969  1.00  0.00     0.023 C 
BRANCH   2   3
ATOM      3  C   UNL A   1      33.321  34.964  30.321  1.00  0.00     0.116 C 
BRANCH   3   4
ATOM      4  N   UNL A   1      33.996  34.241  31.384  1.00  0.00    -0.356 N 
ATOM      5  O   UNL A   1      34.831  36.099  32.441  1.00  0.00    -0.275 OA
ATOM      6  C   UNL A   1      34.682  34.881  32.393  1.00  0.00     0.222 C 
ATOM      7  H   UNL A   1      33.962  33.257  31.384  1.00  0.00     0.163 HD
BRANCH   6   8
ATOM      8  C   UNL A   1      35.328  33.966  33.410  1.00  0.00     0.130 C 
BRANCH   8   9
ATOM      9  C   UNL A   1      36.237  32.910  32.777  1.00  0.00     0.127 C 
BRANCH   9  10
ATOM     10  N   UNL A   1      37.064  33.498  31.708  1.00  0.00    -0.346 N 
ATOM     11  C   UNL A   1      37.972  34.512  31.897  1.00  0.00     0.086 A 
ATOM     12  C   UNL A   1      37.107  33.104  30.392  1.00  0.00     0.086 A 
ATOM     13  C   UNL A   1      38.555  34.799  30.682  1.00  0.00     0.019 A 
ATOM     14  C   UNL A   1      38.004  33.913  29.730  1.00  0.00     0.019 A 
ENDBRANCH   9  10
BRANCH   9  15
ATOM     15  C   UNL A   1      37.098  32.143  33.760  1.00  0.00    -0.014 A 
ATOM     16  C   UNL A   1      37.731  30.873  33.525  1.00  0.00     0.017 A 
ATOM     17  C   UNL A   1      37.383  32.586  35.041  1.00  0.00     0.070 A 
ATOM     18  C   UNL A   1      38.433  30.414  34.616  1.00  0.00     0.065 A 
ATOM     19  S   UNL A   1      38.383  31.513  35.919  1.00  0.00    -0.152 S 
ENDBRANCH   9  15
ENDBRANCH   8   9
ENDBRANCH   6   8
ENDBRANCH   3   4
ENDBRANCH   2   3
ENDBRANCH   1   2
BRANCH   1  20
ATOM     20  C   UNL A   1      34.679  32.473  28.039  1.00  0.00     0.116 C 
BRANCH  20  21
ATOM     21  N   UNL A   1      34.112  31.137  28.061  1.00  0.00    -0.352 N 
ATOM     22  C   UNL A   1      34.746  29.917  28.012  1.00  0.00     0.251 C 
ATOM     23  H   UNL A   1      33.130  31.098  28.120  1.00  0.00     0.163 HD
ATOM     24  O   UNL A   1      34.108  28.939  27.641  1.00  0.00    -0.269 OA
BRANCH  22  25
ATOM     25  C   UNL A   1      36.172  29.762  28.387  1.00  0.00     0.039 A 
ATOM     26  C   UNL A   1      36.468  29.388  29.706  1.00  0.00     0.014 A 
ATOM     27  C   UNL A   1      37.211  30.074  27.503  1.00  0.00     0.014 A 
ATOM     28  C   UNL A   1      37.794  29.269  30.117  1.00  0.00     0.010 A 
ATOM     29  C   UNL A   1      38.540  29.938  27.904  1.00  0.00     0.010 A 
ATOM     30  C   UNL A   1      38.832  29.518  29.207  1.00  0.00    -0.014 A 
BRANCH  30  31
ATOM     31  C   UNL A   1      40.214  29.125  29.576  1.00  0.00     0.031 A 
ATOM     32  C   UNL A   1      40.965  30.300  30.246  1.00  0.00     0.074 A 
ATOM     33  C   UNL A   1      40.623  27.859  29.246  1.00  0.00     0.049 A 
ATOM     34  N   UNL A   1      42.233  30.569  30.282  1.00  0.00    -0.248 NA
ATOM     35  C   UNL A   1      40.180  31.382  30.911  1.00  0.00     0.031 C 
ATOM     36  C   UNL A   1      39.749  26.815  28.657  1.00  0.00     0.029 A 
ATOM     37  N   UNL A   1      41.824  27.179  29.328  1.00  0.00    -0.354 N 
ATOM     38  C   UNL A   1      42.415  31.726  31.080  1.00  0.00     0.074 A 
ATOM     39  C   UNL A   1      41.107  32.231  31.363  1.00  0.00     0.031 C 
ATOM     40  C   UNL A   1      40.450  25.694  28.366  1.00  0.00     0.029 A 
ATOM     41  C   UNL A   1      41.840  25.883  28.733  1.00  0.00     0.049 A 
ATOM     42  H   UNL A   1      42.616  27.564  29.767  1.00  0.00     0.167 HD
ATOM     43  C   UNL A   1      43.633  32.135  31.547  1.00  0.00     0.031 A 
ATOM     44  C   UNL A   1      42.903  25.047  28.504  1.00  0.00     0.031 A 
ATOM     45  C   UNL A   1      44.654  31.299  31.020  1.00  0.00     0.049 A 
ATOM     46  C   UNL A   1      44.054  25.704  29.137  1.00  0.00     0.074 A 
ATOM     47  C   UNL A   1      45.187  31.162  29.766  1.00  0.00     0.029 A 
ATOM     48  N   UNL A   1      44.975  30.198  31.775  1.00  0.00    -0.354 N 
ATOM     49  N   UNL A   1      44.273  25.767  30.414  1.00  0.00    -0.248 NA
ATOM     50  C   UNL A   1      45.016  26.408  28.277  1.00  0.00     0.031 C 
ATOM     51  C   UNL A   1      45.354  29.766  29.646  1.00  0.00     0.029 A 
ATOM     52  C   UNL A   1      45.148  29.163  30.893  1.00  0.00     0.049 A 
ATOM     53  H   UNL A   1      45.064  30.159  32.755  1.00  0.00     0.167 HD
ATOM     54  C   UNL A   1      45.149  26.817  30.505  1.00  0.00     0.074 A 
ATOM     55  C   UNL A   1      45.798  26.932  29.216  1.00  0.00     0.031 C 
ATOM     56  C   UNL A   1      44.896  27.828  31.370  1.00  0.00     0.031 A 
BRANCH  43  57
ATOM     57  C   UNL A   1      44.034  33.089  32.644  1.00  0.00    -0.014 A 
ATOM     58  C   UNL A   1      43.537  32.817  33.948  1.00  0.00     0.010 A 
ATOM     59  C   UNL A   1      44.561  34.367  32.413  1.00  0.00     0.010 A 
ATOM     60  C   UNL A   1      43.436  33.807  34.926  1.00  0.00     0.020 A 
ATOM     61  C   UNL A   1      44.500  35.361  33.409  1.00  0.00     0.020 A 
ATOM     62  C   UNL A   1      43.893  35.087  34.637  1.00  0.00     0.054 A 
BRANCH  62  63
ATOM     63  S   UNL A   1      43.613  36.390  35.869  1.00  0.00     0.124 S 
ATOM     64  O   UNL A   1      43.139  35.631  37.021  1.00  0.00    -0.237 OA
ATOM     65  O   UNL A   1      44.944  36.978  36.012  1.00  0.00    -0.237 OA
ATOM     66  O   UNL A   1      42.624  37.257  35.232  1.00  0.00    -0.744 OA
ENDBRANCH  62  63
ENDBRANCH  43  57
BRANCH  44  67
ATOM     67  C   UNL A   1      43.239  23.787  27.723  1.00  0.00    -0.014 A 
ATOM     68  C   UNL A   1      42.343  22.936  27.067  1.00  0.00     0.010 A 
ATOM     69  C   UNL A   1      44.619  23.480  27.526  1.00  0.00     0.010 A 
ATOM     70  C   UNL A   1      42.805  21.956  26.147  1.00  0.00     0.020 A 
ATOM     71  C   UNL A   1      45.089  22.560  26.585  1.00  0.00     0.020 A 
ATOM     72  C   UNL A   1      44.172  21.818  25.869  1.00  0.00     0.054 A 
BRANCH  72  73
ATOM     73  S   UNL A   1      44.760  20.797  24.484  1.00  0.00     0.124 S 
ATOM     74  O   UNL A   1      44.570  21.678  23.337  1.00  0.00    -0.237 OA
ATOM     75  O   UNL A   1      46.148  20.527  24.852  1.00  0.00    -0.237 OA
ATOM     76  O   UNL A   1      43.883  19.627  24.525  1.00  0.00    -0.744 OA
ENDBRANCH  72  73
ENDBRANCH  44  67
BRANCH  56  77
ATOM     77  C   UNL A   1      44.043  27.471  32.575  1.00  0.00    -0.014 A 
ATOM     78  C   UNL A   1      44.587  26.630  33.561  1.00  0.00     0.010 A 
ATOM     79  C   UNL A   1      42.706  27.891  32.740  1.00  0.00     0.010 A 
ATOM     80  C   UNL A   1      43.840  26.234  34.679  1.00  0.00     0.020 A 
ATOM     81  C   UNL A   1      41.947  27.497  33.860  1.00  0.00     0.020 A 
ATOM     82  C   UNL A   1      42.526  26.676  34.829  1.00  0.00     0.054 A 
BRANCH  82  83
ATOM     83  S   UNL A   1      41.603  26.165  36.310  1.00  0.00     0.124 S 
ATOM     84  O   UNL A   1      41.262  27.440  36.936  1.00  0.00    -0.237 OA
ATOM     85  O   UNL A   1      40.478  25.429  35.740  1.00  0.00    -0.237 OA
ATOM     86  O   UNL A   1      42.563  25.350  37.056  1.00  0.00    -0.744 OA
ENDBRANCH  82  83
ENDBRANCH  56  77
ENDBRANCH  30  31
ENDBRANCH  22  25
ENDBRANCH  20  21
ENDBRANCH   1  20
TORSDOF 17
ENDMDL
MODEL 3
REMARK VINA RESULT:     -10.9      4.159      7.797
REMARK SMILES O=C(C[C@H](c1ccsc1)n1cccc1)NCCCCNC(=O)c1ccc(-c2c3nc(c(-c4ccc(S(=O)(=O)[O-])cc4)c4ccc([nH]4)c(-c4ccc(S(=O)(=O)[O-])cc4)c4nc(c(-c5ccc(S(=O)(=O)[O-])cc5)c5ccc2[nH]5)C=C4)C=C3)cc1
REMARK SMILES IDX 18 1 17 2 16 3 15 4 1 5 2 6 3 8 4 9 10 10 11 11 14 12 12 13
REMARK SMILES IDX 13 14 5 15 6 16 9 17 7 18 8 19 19 20 20 21 21 22 22 24 23 25
REMARK SMILES IDX 24 26 82 27 25 28 81 29 26 30 27 31 28 32 75 33 29 34 80 35
REMARK SMILES IDX 74 36 76 37 30 38 79 39 73 40 72 41 31 43 61 44 42 45 60 46
REMARK SMILES IDX 43 47 46 48 59 49 77 50 44 51 45 52 58 54 78 55 47 56 32 57
REMARK SMILES IDX 33 58 41 59 34 60 40 61 35 62 36 63 37 64 38 65 39 66 62 67
REMARK SMILES IDX 63 68 71 69 64 70 70 71 65 72 66 73 67 74 68 75 69 76 48 77
REMARK SMILES IDX 49 78 57 79 50 80 56 81 51 82 52 83 53 84 54 85 55 86
REMARK H PARENT 15 7 20 23 76 42 46 53
REMARK Flexibility Score: inf
ROOT
ATOM      1  C   UNL A   1      34.823  33.079  30.835  1.00  0.00     0.023 C 
ENDROOT
BRANCH   1   2
ATOM      2  C   UNL A   1      36.267  32.958  31.349  1.00  0.00     0.023 C 
BRANCH   2   3
ATOM      3  C   UNL A   1      36.931  34.280  31.742  1.00  0.00     0.116 C 
BRANCH   3   4
ATOM      4  N   UNL A   1      37.170  34.371  33.171  1.00  0.00    -0.356 N 
ATOM      5  O   UNL A   1      39.446  34.613  33.018  1.00  0.00    -0.275 OA
ATOM      6  C   UNL A   1      38.427  34.565  33.701  1.00  0.00     0.222 C 
ATOM      7  H   UNL A   1      36.404  34.291  33.786  1.00  0.00     0.163 HD
BRANCH   6   8
ATOM      8  C   UNL A   1      38.484  34.629  35.211  1.00  0.00     0.130 C 
BRANCH   8   9
ATOM      9  C   UNL A   1      38.107  33.307  35.883  1.00  0.00     0.127 C 
BRANCH   9  10
ATOM     10  N   UNL A   1      38.859  32.184  35.297  1.00  0.00    -0.346 N 
ATOM     11  C   UNL A   1      40.221  32.026  35.392  1.00  0.00     0.086 A 
ATOM     12  C   UNL A   1      38.334  31.105  34.625  1.00  0.00     0.086 A 
ATOM     13  C   UNL A   1      40.568  30.869  34.730  1.00  0.00     0.019 A 
ATOM     14  C   UNL A   1      39.376  30.290  34.240  1.00  0.00     0.019 A 
ENDBRANCH   9  10
BRANCH   9  15
ATOM     15  C   UNL A   1      38.232  33.306  37.393  1.00  0.00    -0.014 A 
ATOM     16  C   UNL A   1      39.137  34.107  38.172  1.00  0.00     0.017 A 
ATOM     17  C   UNL A   1      37.467  32.506  38.228  1.00  0.00     0.070 A 
ATOM     18  C   UNL A   1      39.035  33.871  39.524  1.00  0.00     0.065 A 
ATOM     19  S   UNL A   1      37.827  32.724  39.885  1.00  0.00    -0.152 S 
ENDBRANCH   9  15
ENDBRANCH   8   9
ENDBRANCH   6   8
ENDBRANCH   3   4
ENDBRANCH   2   3
ENDBRANCH   1   2
BRANCH   1  20
ATOM     20  C   UNL A   1      34.689  33.126  29.311  1.00  0.00     0.116 C 
BRANCH  20  21
ATOM     21  N   UNL A   1      33.952  31.982  28.805  1.00  0.00    -0.352 N 
ATOM     22  C   UNL A   1      34.421  30.791  28.303  1.00  0.00     0.251 C 
ATOM     23  H   UNL A   1      32.972  32.072  28.824  1.00  0.00     0.163 HD
ATOM     24  O   UNL A   1      33.690  30.134  27.571  1.00  0.00    -0.269 OA
BRANCH  22  25
ATOM     25  C   UNL A   1      35.781  30.292  28.618  1.00  0.00     0.039 A 
ATOM     26  C   UNL A   1      36.750  30.337  27.605  1.00  0.00     0.014 A 
ATOM     27  C   UNL A   1      36.087  29.691  29.845  1.00  0.00     0.014 A 
ATOM     28  C   UNL A   1      38.030  29.842  27.840  1.00  0.00     0.010 A 
ATOM     29  C   UNL A   1      37.373  29.210  30.091  1.00  0.00     0.010 A 
ATOM     30  C   UNL A   1      38.351  29.302  29.094  1.00  0.00    -0.014 A 
BRANCH  30  31
ATOM     31  C   UNL A   1      39.775  29.036  29.414  1.00  0.00     0.031 A 
ATOM     32  C   UNL A   1      40.454  30.293  30.010  1.00  0.00     0.074 A 
ATOM     33  C   UNL A   1      40.272  27.796  29.109  1.00  0.00     0.049 A 
ATOM     34  N   UNL A   1      41.695  30.665  29.979  1.00  0.00    -0.248 NA
ATOM     35  C   UNL A   1      39.611  31.332  30.672  1.00  0.00     0.031 C 
ATOM     36  C   UNL A   1      39.463  26.664  28.596  1.00  0.00     0.029 A 
ATOM     37  N   UNL A   1      41.528  27.219  29.160  1.00  0.00    -0.354 N 
ATOM     38  C   UNL A   1      41.815  31.862  30.728  1.00  0.00     0.074 A 
ATOM     39  C   UNL A   1      40.483  32.269  31.053  1.00  0.00     0.031 C 
ATOM     40  C   UNL A   1      40.242  25.593  28.312  1.00  0.00     0.029 A 
ATOM     41  C   UNL A   1      41.625  25.907  28.610  1.00  0.00     0.049 A 
ATOM     42  H   UNL A   1      42.303  27.683  29.550  1.00  0.00     0.167 HD
ATOM     43  C   UNL A   1      43.013  32.385  31.127  1.00  0.00     0.031 A 
ATOM     44  C   UNL A   1      42.743  25.152  28.362  1.00  0.00     0.031 A 
ATOM     45  C   UNL A   1      44.077  31.615  30.583  1.00  0.00     0.049 A 
ATOM     46  C   UNL A   1      43.862  25.923  28.920  1.00  0.00     0.074 A 
ATOM     47  C   UNL A   1      44.567  31.474  29.311  1.00  0.00     0.029 A 
ATOM     48  N   UNL A   1      44.519  30.573  31.360  1.00  0.00    -0.354 N 
ATOM     49  N   UNL A   1      44.128  26.051  30.183  1.00  0.00    -0.248 NA
ATOM     50  C   UNL A   1      44.725  26.670  27.994  1.00  0.00     0.031 C 
ATOM     51  C   UNL A   1      44.842  30.093  29.232  1.00  0.00     0.029 A 
ATOM     52  C   UNL A   1      44.740  29.523  30.506  1.00  0.00     0.049 A 
ATOM     53  H   UNL A   1      44.652  30.577  32.336  1.00  0.00     0.167 HD
ATOM     54  C   UNL A   1      44.918  27.172  30.198  1.00  0.00     0.074 A 
ATOM     55  C   UNL A   1      45.500  27.290  28.878  1.00  0.00     0.031 C 
ATOM     56  C   UNL A   1      44.619  28.190  31.039  1.00  0.00     0.031 A 
BRANCH  43  57
ATOM     57  C   UNL A   1      43.381  33.408  32.172  1.00  0.00    -0.014 A 
ATOM     58  C   UNL A   1      43.491  32.949  33.512  1.00  0.00     0.010 A 
ATOM     59  C   UNL A   1      43.287  34.793  31.974  1.00  0.00     0.010 A 
ATOM     60  C   UNL A   1      43.370  33.809  34.605  1.00  0.00     0.020 A 
ATOM     61  C   UNL A   1      43.205  35.672  33.071  1.00  0.00     0.020 A 
ATOM     62  C   UNL A   1      43.196  35.168  34.375  1.00  0.00     0.054 A 
BRANCH  62  63
ATOM     63  S   UNL A   1      42.889  36.242  35.805  1.00  0.00     0.124 S 
ATOM     64  O   UNL A   1      41.616  36.864  35.459  1.00  0.00    -0.237 OA
ATOM     65  O   UNL A   1      42.837  35.285  36.910  1.00  0.00    -0.237 OA
ATOM     66  O   UNL A   1      44.046  37.133  35.819  1.00  0.00    -0.744 OA
ENDBRANCH  62  63
ENDBRANCH  43  57
BRANCH  44  67
ATOM     67  C   UNL A   1      43.149  23.895  27.610  1.00  0.00    -0.014 A 
ATOM     68  C   UNL A   1      42.353  23.133  26.747  1.00  0.00     0.010 A 
ATOM     69  C   UNL A   1      44.516  23.492  27.685  1.00  0.00     0.010 A 
ATOM     70  C   UNL A   1      42.929  22.150  25.898  1.00  0.00     0.020 A 
ATOM     71  C   UNL A   1      45.109  22.569  26.819  1.00  0.00     0.020 A 
ATOM     72  C   UNL A   1      44.311  21.919  25.898  1.00  0.00     0.054 A 
BRANCH  72  73
ATOM     73  S   UNL A   1      45.104  20.900  24.618  1.00  0.00     0.124 S 
ATOM     74  O   UNL A   1      44.583  19.568  24.905  1.00  0.00    -0.237 OA
ATOM     75  O   UNL A   1      44.629  21.512  23.379  1.00  0.00    -0.237 OA
ATOM     76  O   UNL A   1      46.533  21.079  24.874  1.00  0.00    -0.744 OA
ENDBRANCH  72  73
ENDBRANCH  44  67
BRANCH  56  77
ATOM     77  C   UNL A   1      43.849  27.811  32.292  1.00  0.00    -0.014 A 
ATOM     78  C   UNL A   1      44.525  27.124  33.316  1.00  0.00     0.010 A 
ATOM     79  C   UNL A   1      42.472  28.059  32.471  1.00  0.00     0.010 A 
ATOM     80  C   UNL A   1      43.864  26.715  34.483  1.00  0.00     0.020 A 
ATOM     81  C   UNL A   1      41.799  27.650  33.639  1.00  0.00     0.020 A 
ATOM     82  C   UNL A   1      42.505  26.987  34.644  1.00  0.00     0.054 A 
BRANCH  82  83
ATOM     83  S   UNL A   1      41.694  26.465  36.185  1.00  0.00     0.124 S 
ATOM     84  O   UNL A   1      42.810  25.967  36.986  1.00  0.00    -0.237 OA
ATOM     85  O   UNL A   1      41.092  27.708  36.660  1.00  0.00    -0.237 OA
ATOM     86  O   UNL A   1      40.743  25.441  35.751  1.00  0.00    -0.744 OA
ENDBRANCH  82  83
ENDBRANCH  56  77
ENDBRANCH  30  31
ENDBRANCH  22  25
ENDBRANCH  20  21
ENDBRANCH   1  20
TORSDOF 17
ENDMDL
