MODEL 1
REMARK VINA RESULT:     -13.1      0.000      0.000
REMARK SMILES O=C(NCCCCNC(=O)C1CCN(C2=[NH+]C(Cl)=[NH+]C3=[NH+]C=N[C@@H]32)CC1)c1ccc(-c2c3nc(c(-c4ccc(S(=O)(=O)[O-])cc4)c4ccc([nH]4)c(-c4ccc(S(=O)(=O)[O-])cc4)c4nc(c(-c5ccc(S(=O)(=O)[O-])cc5)c5ccc2[nH]5)C=C4)C=C3)cc1
REMARK SMILES IDX 4 1 3 2 1 3 2 4 27 6 28 7 86 8 29 9 85 10 30 11 31 12 32 13
REMARK SMILES IDX 79 14 33 15 84 16 78 17 80 18 34 19 83 20 77 21 76 22 35 24
REMARK SMILES IDX 65 25 46 26 64 27 47 28 50 29 63 30 81 31 48 32 49 33 62 35
REMARK SMILES IDX 82 36 51 37 36 38 37 39 45 40 38 41 44 42 39 43 40 44 41 45
REMARK SMILES IDX 42 46 43 47 66 48 67 49 75 50 68 51 74 52 69 53 70 54 71 55
REMARK SMILES IDX 72 56 73 57 52 58 53 59 61 60 54 61 60 62 55 63 56 64 57 65
REMARK SMILES IDX 58 66 59 67 5 68 6 69 7 70 8 71 9 72 10 74 11 75 12 76 26 77
REMARK SMILES IDX 13 78 25 79 14 80 15 81 16 82 24 83 17 84 20 86 23 87 18 88
REMARK SMILES IDX 19 89 21 90 22 91
REMARK H PARENT 3 5 80 23 50 34 8 73 16 85 19 92 21 93
REMARK Flexibility Score: inf
ROOT
ATOM      1  C   UNL A   1      46.965  25.752  30.275  1.00  0.00     0.116 C 
ENDROOT
BRANCH   1   2
ATOM      2  N   UNL A   1      45.792  24.909  30.187  1.00  0.00    -0.352 N 
ATOM      3  O   UNL A   1      43.752  24.167  29.801  1.00  0.00    -0.269 OA
ATOM      4  C   UNL A   1      44.457  25.154  30.028  1.00  0.00     0.251 C 
ATOM      5  H   UNL A   1      46.003  23.951  30.257  1.00  0.00     0.163 HD
BRANCH   4   6
ATOM      6  C   UNL A   1      43.810  26.483  30.196  1.00  0.00     0.039 A 
ATOM      7  C   UNL A   1      43.766  27.230  31.376  1.00  0.00     0.014 A 
ATOM      8  C   UNL A   1      43.135  26.971  29.063  1.00  0.00     0.014 A 
ATOM      9  C   UNL A   1      42.972  28.368  31.461  1.00  0.00     0.010 A 
ATOM     10  C   UNL A   1      42.354  28.113  29.136  1.00  0.00     0.010 A 
ATOM     11  C   UNL A   1      42.236  28.779  30.353  1.00  0.00    -0.014 A 
BRANCH  11  12
ATOM     12  C   UNL A   1      41.446  30.001  30.456  1.00  0.00     0.031 A 
ATOM     13  C   UNL A   1      42.226  31.260  30.245  1.00  0.00     0.074 A 
ATOM     14  C   UNL A   1      40.102  29.965  30.548  1.00  0.00     0.049 A 
ATOM     15  N   UNL A   1      42.317  32.298  31.012  1.00  0.00    -0.248 NA
ATOM     16  C   UNL A   1      43.114  31.315  29.067  1.00  0.00     0.031 C 
ATOM     17  C   UNL A   1      39.233  28.784  30.474  1.00  0.00     0.029 A 
ATOM     18  N   UNL A   1      39.208  30.992  30.579  1.00  0.00    -0.354 N 
ATOM     19  C   UNL A   1      43.111  33.217  30.323  1.00  0.00     0.074 A 
ATOM     20  C   UNL A   1      43.691  32.506  29.215  1.00  0.00     0.031 C 
ATOM     21  C   UNL A   1      37.970  29.178  30.193  1.00  0.00     0.029 A 
ATOM     22  C   UNL A   1      37.917  30.629  30.200  1.00  0.00     0.049 A 
ATOM     23  H   UNL A   1      39.452  31.908  30.843  1.00  0.00     0.167 HD
ATOM     24  C   UNL A   1      43.057  34.556  30.572  1.00  0.00     0.031 A 
ATOM     25  C   UNL A   1      36.910  31.461  29.825  1.00  0.00     0.031 A 
ATOM     26  C   UNL A   1      42.479  34.841  31.855  1.00  0.00     0.049 A 
ATOM     27  C   UNL A   1      37.259  32.818  30.313  1.00  0.00     0.074 A 
ATOM     28  C   UNL A   1      42.815  34.547  33.160  1.00  0.00     0.029 A 
ATOM     29  N   UNL A   1      41.160  35.228  31.882  1.00  0.00    -0.354 N 
ATOM     30  N   UNL A   1      37.343  33.127  31.577  1.00  0.00    -0.248 NA
ATOM     31  C   UNL A   1      37.975  33.702  29.406  1.00  0.00     0.031 C 
ATOM     32  C   UNL A   1      41.571  34.288  33.806  1.00  0.00     0.029 A 
ATOM     33  C   UNL A   1      40.552  34.509  32.878  1.00  0.00     0.049 A 
ATOM     34  H   UNL A   1      40.734  35.896  31.298  1.00  0.00     0.167 HD
ATOM     35  C   UNL A   1      38.448  33.960  31.667  1.00  0.00     0.074 A 
ATOM     36  C   UNL A   1      38.747  34.344  30.286  1.00  0.00     0.031 C 
ATOM     37  C   UNL A   1      39.184  34.042  32.814  1.00  0.00     0.031 A 
BRANCH  24  38
ATOM     38  C   UNL A   1      43.139  35.600  29.479  1.00  0.00    -0.014 A 
ATOM     39  C   UNL A   1      44.024  36.686  29.643  1.00  0.00     0.010 A 
ATOM     40  C   UNL A   1      42.167  35.718  28.462  1.00  0.00     0.010 A 
ATOM     41  C   UNL A   1      43.872  37.867  28.901  1.00  0.00     0.020 A 
ATOM     42  C   UNL A   1      42.035  36.872  27.689  1.00  0.00     0.020 A 
ATOM     43  C   UNL A   1      42.860  37.957  27.945  1.00  0.00     0.054 A 
BRANCH  43  44
ATOM     44  S   UNL A   1      42.574  39.534  27.105  1.00  0.00     0.124 S 
ATOM     45  O   UNL A   1      43.774  39.661  26.288  1.00  0.00    -0.237 OA
ATOM     46  O   UNL A   1      41.334  39.279  26.383  1.00  0.00    -0.237 OA
ATOM     47  O   UNL A   1      42.461  40.491  28.209  1.00  0.00    -0.744 OA
ENDBRANCH  43  44
ENDBRANCH  24  38
BRANCH  25  48
ATOM     48  C   UNL A   1      35.899  31.227  28.758  1.00  0.00    -0.014 A 
ATOM     49  C   UNL A   1      35.887  30.043  27.995  1.00  0.00     0.010 A 
ATOM     50  C   UNL A   1      34.766  32.064  28.672  1.00  0.00     0.010 A 
ATOM     51  C   UNL A   1      34.766  29.690  27.216  1.00  0.00     0.020 A 
ATOM     52  C   UNL A   1      33.651  31.724  27.896  1.00  0.00     0.020 A 
ATOM     53  C   UNL A   1      33.647  30.528  27.186  1.00  0.00     0.054 A 
BRANCH  53  54
ATOM     54  S   UNL A   1      32.142  29.996  26.313  1.00  0.00     0.124 S 
ATOM     55  O   UNL A   1      31.518  29.102  27.284  1.00  0.00    -0.237 OA
ATOM     56  O   UNL A   1      31.446  31.258  26.076  1.00  0.00    -0.237 OA
ATOM     57  O   UNL A   1      32.655  29.341  25.110  1.00  0.00    -0.744 OA
ENDBRANCH  53  54
ENDBRANCH  25  48
BRANCH  37  58
ATOM     58  C   UNL A   1      38.648  33.387  34.067  1.00  0.00    -0.014 A 
ATOM     59  C   UNL A   1      38.929  32.056  34.435  1.00  0.00     0.010 A 
ATOM     60  C   UNL A   1      37.982  34.211  34.991  1.00  0.00     0.010 A 
ATOM     61  C   UNL A   1      38.537  31.561  35.688  1.00  0.00     0.020 A 
ATOM     62  C   UNL A   1      37.606  33.730  36.245  1.00  0.00     0.020 A 
ATOM     63  C   UNL A   1      37.879  32.405  36.589  1.00  0.00     0.054 A 
BRANCH  63  64
ATOM     64  S   UNL A   1      37.425  31.783  38.232  1.00  0.00     0.124 S 
ATOM     65  O   UNL A   1      38.623  32.057  39.020  1.00  0.00    -0.237 OA
ATOM     66  O   UNL A   1      36.251  32.586  38.571  1.00  0.00    -0.237 OA
ATOM     67  O   UNL A   1      37.147  30.365  38.002  1.00  0.00    -0.744 OA
ENDBRANCH  63  64
ENDBRANCH  37  58
ENDBRANCH  11  12
ENDBRANCH   4   6
ENDBRANCH   1   2
BRANCH   1  68
ATOM     68  C   UNL A   1      47.942  25.588  29.111  1.00  0.00     0.023 C 
BRANCH  68  69
ATOM     69  C   UNL A   1      48.068  26.816  28.200  1.00  0.00     0.023 C 
BRANCH  69  70
ATOM     70  C   UNL A   1      48.290  26.500  26.723  1.00  0.00     0.116 C 
BRANCH  70  71
ATOM     71  N   UNL A   1      47.058  26.611  25.958  1.00  0.00    -0.356 N 
ATOM     72  C   UNL A   1      46.350  25.643  25.312  1.00  0.00     0.223 C 
ATOM     73  H   UNL A   1      46.681  27.518  25.900  1.00  0.00     0.163 HD
ATOM     74  O   UNL A   1      45.348  25.973  24.680  1.00  0.00    -0.275 OA
BRANCH  72  75
ATOM     75  C   UNL A   1      46.783  24.190  25.458  1.00  0.00     0.087 C 
ATOM     76  C   UNL A   1      46.522  23.385  24.179  1.00  0.00     0.068 C 
ATOM     77  C   UNL A   1      46.092  23.570  26.685  1.00  0.00     0.068 C 
ATOM     78  C   UNL A   1      45.064  22.981  24.008  1.00  0.00     0.277 C 
ATOM     79  C   UNL A   1      44.620  23.241  26.412  1.00  0.00     0.277 C 
ATOM     80  N   UNL A   1      44.558  22.385  25.238  1.00  0.00    -0.230 N 
ATOM     81  C   UNL A   1      44.073  21.092  25.299  1.00  0.00     0.383 C 
ATOM     82  N   UNL A   1      42.928  20.825  25.862  1.00  0.00    -0.155 N 
ATOM     83  C   UNL A   1      44.871  19.964  24.673  1.00  0.00     0.523 C 
ATOM     84  C   UNL A   1      42.453  19.537  25.811  1.00  0.00     0.414 C 
ATOM     85  H   UNL A   1      42.414  21.532  26.316  1.00  0.00     0.367 HD
ATOM     86  C   UNL A   1      44.453  18.740  25.390  1.00  0.00     0.389 C 
ATOM     87  N   UNL A   1      46.315  19.994  25.003  1.00  0.00     0.003 NA
ATOM     88  Cl  UNL A   1      40.768  19.359  26.063  1.00  0.00     0.028 Cl
ATOM     89  N   UNL A   1      43.145  18.470  25.579  1.00  0.00    -0.155 N 
ATOM     90  N   UNL A   1      45.429  18.072  25.893  1.00  0.00    -0.169 N 
ATOM     91  C   UNL A   1      46.513  18.875  25.637  1.00  0.00     0.532 C 
ATOM     92  H   UNL A   1      42.761  17.564  25.545  1.00  0.00     0.367 HD
ATOM     93  H   UNL A   1      45.405  17.201  26.350  1.00  0.00     0.365 HD
ENDBRANCH  72  75
ENDBRANCH  70  71
ENDBRANCH  69  70
ENDBRANCH  68  69
ENDBRANCH   1  68
TORSDOF 14
ENDMDL
MODEL 2
REMARK VINA RESULT:     -13.0      5.321     11.437
REMARK SMILES O=C(NCCCCNC(=O)C1CCN(C2=[NH+]C(Cl)=[NH+]C3=[NH+]C=N[C@@H]32)CC1)c1ccc(-c2c3nc(c(-c4ccc(S(=O)(=O)[O-])cc4)c4ccc([nH]4)c(-c4ccc(S(=O)(=O)[O-])cc4)c4nc(c(-c5ccc(S(=O)(=O)[O-])cc5)c5ccc2[nH]5)C=C4)C=C3)cc1
REMARK SMILES IDX 4 1 3 2 1 3 2 4 27 6 28 7 86 8 29 9 85 10 30 11 31 12 32 13
REMARK SMILES IDX 79 14 33 15 84 16 78 17 80 18 34 19 83 20 77 21 76 22 35 24
REMARK SMILES IDX 65 25 46 26 64 27 47 28 50 29 63 30 81 31 48 32 49 33 62 35
REMARK SMILES IDX 82 36 51 37 36 38 37 39 45 40 38 41 44 42 39 43 40 44 41 45
REMARK SMILES IDX 42 46 43 47 66 48 67 49 75 50 68 51 74 52 69 53 70 54 71 55
REMARK SMILES IDX 72 56 73 57 52 58 53 59 61 60 54 61 60 62 55 63 56 64 57 65
REMARK SMILES IDX 58 66 59 67 5 68 6 69 7 70 8 71 9 72 10 74 11 75 12 76 26 77
REMARK SMILES IDX 13 78 25 79 14 80 15 81 16 82 24 83 17 84 20 86 23 87 18 88
REMARK SMILES IDX 19 89 21 90 22 91
REMARK H PARENT 3 5 80 23 50 34 8 73 16 85 19 92 21 93
REMARK Flexibility Score: inf
ROOT
ATOM      1  C   UNL A   1      33.156  29.158  26.724  1.00  0.00     0.116 C 
ENDROOT
BRANCH   1   2
ATOM      2  N   UNL A   1      33.230  30.443  27.385  1.00  0.00    -0.352 N 
ATOM      3  O   UNL A   1      33.953  32.372  28.171  1.00  0.00    -0.269 OA
ATOM      4  C   UNL A   1      34.260  31.232  27.813  1.00  0.00     0.251 C 
ATOM      5  H   UNL A   1      32.345  30.832  27.567  1.00  0.00     0.163 HD
BRANCH   4   6
ATOM      6  C   UNL A   1      35.673  30.785  27.953  1.00  0.00     0.039 A 
ATOM      7  C   UNL A   1      36.150  29.493  27.723  1.00  0.00     0.014 A 
ATOM      8  C   UNL A   1      36.569  31.762  28.424  1.00  0.00     0.014 A 
ATOM      9  C   UNL A   1      37.453  29.150  28.068  1.00  0.00     0.010 A 
ATOM     10  C   UNL A   1      37.873  31.432  28.754  1.00  0.00     0.010 A 
ATOM     11  C   UNL A   1      38.294  30.111  28.623  1.00  0.00    -0.014 A 
BRANCH  11  12
ATOM     12  C   UNL A   1      39.669  29.736  28.934  1.00  0.00     0.031 A 
ATOM     13  C   UNL A   1      40.005  29.771  30.391  1.00  0.00     0.074 A 
ATOM     14  C   UNL A   1      40.489  29.226  27.993  1.00  0.00     0.049 A 
ATOM     15  N   UNL A   1      40.968  30.396  30.987  1.00  0.00    -0.248 NA
ATOM     16  C   UNL A   1      39.066  29.109  31.317  1.00  0.00     0.031 C 
ATOM     17  C   UNL A   1      40.155  28.888  26.604  1.00  0.00     0.029 A 
ATOM     18  N   UNL A   1      41.763  28.759  28.115  1.00  0.00    -0.354 N 
ATOM     19  C   UNL A   1      40.878  30.045  32.336  1.00  0.00     0.074 A 
ATOM     20  C   UNL A   1      39.611  29.383  32.501  1.00  0.00     0.031 C 
ATOM     21  C   UNL A   1      41.088  28.041  26.115  1.00  0.00     0.029 A 
ATOM     22  C   UNL A   1      42.144  27.884  27.100  1.00  0.00     0.049 A 
ATOM     23  H   UNL A   1      42.359  29.015  28.856  1.00  0.00     0.167 HD
ATOM     24  C   UNL A   1      41.945  30.114  33.180  1.00  0.00     0.031 A 
ATOM     25  C   UNL A   1      43.196  27.024  27.113  1.00  0.00     0.031 A 
ATOM     26  C   UNL A   1      42.977  30.975  32.672  1.00  0.00     0.049 A 
ATOM     27  C   UNL A   1      44.124  27.483  28.176  1.00  0.00     0.074 A 
ATOM     28  C   UNL A   1      43.057  32.315  32.357  1.00  0.00     0.029 A 
ATOM     29  N   UNL A   1      44.055  30.378  32.063  1.00  0.00    -0.354 N 
ATOM     30  N   UNL A   1      44.765  28.617  28.128  1.00  0.00    -0.248 NA
ATOM     31  C   UNL A   1      43.972  26.906  29.503  1.00  0.00     0.031 C 
ATOM     32  C   UNL A   1      43.868  32.365  31.186  1.00  0.00     0.029 A 
ATOM     33  C   UNL A   1      44.290  31.065  30.901  1.00  0.00     0.049 A 
ATOM     34  H   UNL A   1      44.563  29.604  32.399  1.00  0.00     0.167 HD
ATOM     35  C   UNL A   1      44.718  29.106  29.426  1.00  0.00     0.074 A 
ATOM     36  C   UNL A   1      44.289  27.971  30.244  1.00  0.00     0.031 C 
ATOM     37  C   UNL A   1      44.762  30.447  29.680  1.00  0.00     0.031 A 
BRANCH  24  38
ATOM     38  C   UNL A   1      42.220  29.076  34.246  1.00  0.00    -0.014 A 
ATOM     39  C   UNL A   1      42.693  27.806  33.853  1.00  0.00     0.010 A 
ATOM     40  C   UNL A   1      41.741  29.195  35.568  1.00  0.00     0.010 A 
ATOM     41  C   UNL A   1      42.589  26.696  34.703  1.00  0.00     0.020 A 
ATOM     42  C   UNL A   1      41.673  28.105  36.437  1.00  0.00     0.020 A 
ATOM     43  C   UNL A   1      42.056  26.852  35.982  1.00  0.00     0.054 A 
BRANCH  43  44
ATOM     44  S   UNL A   1      41.782  25.389  37.012  1.00  0.00     0.124 S 
ATOM     45  O   UNL A   1      40.593  25.770  37.763  1.00  0.00    -0.237 OA
ATOM     46  O   UNL A   1      41.599  24.340  36.016  1.00  0.00    -0.237 OA
ATOM     47  O   UNL A   1      43.016  25.289  37.795  1.00  0.00    -0.744 OA
ENDBRANCH  43  44
ENDBRANCH  24  38
BRANCH  25  48
ATOM     48  C   UNL A   1      43.240  25.647  26.548  1.00  0.00    -0.014 A 
ATOM     49  C   UNL A   1      43.625  25.405  25.215  1.00  0.00     0.010 A 
ATOM     50  C   UNL A   1      43.163  24.534  27.412  1.00  0.00     0.010 A 
ATOM     51  C   UNL A   1      43.963  24.108  24.779  1.00  0.00     0.020 A 
ATOM     52  C   UNL A   1      43.492  23.242  26.985  1.00  0.00     0.020 A 
ATOM     53  C   UNL A   1      43.910  23.036  25.674  1.00  0.00     0.054 A 
BRANCH  53  54
ATOM     54  S   UNL A   1      44.500  21.394  25.157  1.00  0.00     0.124 S 
ATOM     55  O   UNL A   1      44.439  21.487  23.701  1.00  0.00    -0.237 OA
ATOM     56  O   UNL A   1      45.842  21.342  25.732  1.00  0.00    -0.237 OA
ATOM     57  O   UNL A   1      43.535  20.476  25.760  1.00  0.00    -0.744 OA
ENDBRANCH  53  54
ENDBRANCH  25  48
BRANCH  37  58
ATOM     58  C   UNL A   1      45.096  31.390  28.546  1.00  0.00    -0.014 A 
ATOM     59  C   UNL A   1      44.152  31.840  27.601  1.00  0.00     0.010 A 
ATOM     60  C   UNL A   1      46.373  31.977  28.550  1.00  0.00     0.010 A 
ATOM     61  C   UNL A   1      44.487  32.840  26.674  1.00  0.00     0.020 A 
ATOM     62  C   UNL A   1      46.706  32.983  27.643  1.00  0.00     0.020 A 
ATOM     63  C   UNL A   1      45.765  33.408  26.704  1.00  0.00     0.054 A 
BRANCH  63  64
ATOM     64  S   UNL A   1      46.179  34.741  25.545  1.00  0.00     0.124 S 
ATOM     65  O   UNL A   1      45.837  35.941  26.303  1.00  0.00    -0.237 OA
ATOM     66  O   UNL A   1      47.606  34.533  25.306  1.00  0.00    -0.237 OA
ATOM     67  O   UNL A   1      45.323  34.476  24.389  1.00  0.00    -0.744 OA
ENDBRANCH  63  64
ENDBRANCH  37  58
ENDBRANCH  11  12
ENDBRANCH   4   6
ENDBRANCH   1   2
BRANCH   1  68
ATOM     68  C   UNL A   1      31.761  28.798  26.212  1.00  0.00     0.023 C 
BRANCH  68  69
ATOM     69  C   UNL A   1      31.489  29.197  24.756  1.00  0.00     0.023 C 
BRANCH  69  70
ATOM     70  C   UNL A   1      30.607  28.224  23.977  1.00  0.00     0.116 C 
BRANCH  70  71
ATOM     71  N   UNL A   1      31.296  27.683  22.817  1.00  0.00    -0.356 N 
ATOM     72  C   UNL A   1      32.190  26.658  22.741  1.00  0.00     0.223 C 
ATOM     73  H   UNL A   1      31.086  28.122  21.962  1.00  0.00     0.163 HD
ATOM     74  O   UNL A   1      32.691  26.396  21.648  1.00  0.00    -0.275 OA
BRANCH  72  75
ATOM     75  C   UNL A   1      32.476  25.834  23.989  1.00  0.00     0.087 C 
ATOM     76  C   UNL A   1      33.865  25.184  23.939  1.00  0.00     0.068 C 
ATOM     77  C   UNL A   1      31.357  24.797  24.186  1.00  0.00     0.068 C 
ATOM     78  C   UNL A   1      33.919  23.947  23.054  1.00  0.00     0.277 C 
ATOM     79  C   UNL A   1      31.489  23.617  23.218  1.00  0.00     0.277 C 
ATOM     80  N   UNL A   1      32.818  23.048  23.375  1.00  0.00    -0.230 N 
ATOM     81  C   UNL A   1      33.013  21.754  23.820  1.00  0.00     0.383 C 
ATOM     82  N   UNL A   1      32.376  20.751  23.283  1.00  0.00    -0.155 N 
ATOM     83  C   UNL A   1      34.009  21.488  24.932  1.00  0.00     0.523 C 
ATOM     84  C   UNL A   1      32.679  19.478  23.702  1.00  0.00     0.414 C 
ATOM     85  H   UNL A   1      31.691  20.902  22.592  1.00  0.00     0.367 HD
ATOM     86  C   UNL A   1      33.569  20.225  25.563  1.00  0.00     0.389 C 
ATOM     87  N   UNL A   1      33.893  22.420  26.079  1.00  0.00     0.003 NA
ATOM     88  Cl  UNL A   1      32.239  18.220  22.625  1.00  0.00     0.028 Cl
ATOM     89  N   UNL A   1      33.267  19.150  24.806  1.00  0.00    -0.155 N 
ATOM     90  N   UNL A   1      33.394  20.310  26.833  1.00  0.00    -0.169 N 
ATOM     91  C   UNL A   1      33.595  21.645  27.081  1.00  0.00     0.532 C 
ATOM     92  H   UNL A   1      33.471  18.222  25.064  1.00  0.00     0.367 HD
ATOM     93  H   UNL A   1      33.171  19.594  27.471  1.00  0.00     0.365 HD
ENDBRANCH  72  75
ENDBRANCH  70  71
ENDBRANCH  69  70
ENDBRANCH  68  69
ENDBRANCH   1  68
TORSDOF 14
ENDMDL
MODEL 3
REMARK VINA RESULT:     -12.9      5.587      9.416
REMARK SMILES O=C(NCCCCNC(=O)C1CCN(C2=[NH+]C(Cl)=[NH+]C3=[NH+]C=N[C@@H]32)CC1)c1ccc(-c2c3nc(c(-c4ccc(S(=O)(=O)[O-])cc4)c4ccc([nH]4)c(-c4ccc(S(=O)(=O)[O-])cc4)c4nc(c(-c5ccc(S(=O)(=O)[O-])cc5)c5ccc2[nH]5)C=C4)C=C3)cc1
REMARK SMILES IDX 4 1 3 2 1 3 2 4 27 6 28 7 86 8 29 9 85 10 30 11 31 12 32 13
REMARK SMILES IDX 79 14 33 15 84 16 78 17 80 18 34 19 83 20 77 21 76 22 35 24
REMARK SMILES IDX 65 25 46 26 64 27 47 28 50 29 63 30 81 31 48 32 49 33 62 35
REMARK SMILES IDX 82 36 51 37 36 38 37 39 45 40 38 41 44 42 39 43 40 44 41 45
REMARK SMILES IDX 42 46 43 47 66 48 67 49 75 50 68 51 74 52 69 53 70 54 71 55
REMARK SMILES IDX 72 56 73 57 52 58 53 59 61 60 54 61 60 62 55 63 56 64 57 65
REMARK SMILES IDX 58 66 59 67 5 68 6 69 7 70 8 71 9 72 10 74 11 75 12 76 26 77
REMARK SMILES IDX 13 78 25 79 14 80 15 81 16 82 24 83 17 84 20 86 23 87 18 88
REMARK SMILES IDX 19 89 21 90 22 91
REMARK H PARENT 3 5 80 23 50 34 8 73 16 85 19 92 21 93
REMARK Flexibility Score: inf
ROOT
ATOM      1  C   UNL A   1      37.011  22.733  24.717  1.00  0.00     0.116 C 
ENDROOT
BRANCH   1   2
ATOM      2  N   UNL A   1      38.156  21.923  25.073  1.00  0.00    -0.352 N 
ATOM      3  O   UNL A   1      39.861  21.044  26.160  1.00  0.00    -0.269 OA
ATOM      4  C   UNL A   1      39.142  22.036  26.012  1.00  0.00     0.251 C 
ATOM      5  H   UNL A   1      38.243  21.116  24.518  1.00  0.00     0.163 HD
BRANCH   4   6
ATOM      6  C   UNL A   1      39.449  23.273  26.780  1.00  0.00     0.039 A 
ATOM      7  C   UNL A   1      38.773  24.491  26.677  1.00  0.00     0.014 A 
ATOM      8  C   UNL A   1      40.569  23.193  27.627  1.00  0.00     0.014 A 
ATOM      9  C   UNL A   1      39.268  25.628  27.304  1.00  0.00     0.010 A 
ATOM     10  C   UNL A   1      41.059  24.319  28.269  1.00  0.00     0.010 A 
ATOM     11  C   UNL A   1      40.433  25.545  28.061  1.00  0.00    -0.014 A 
BRANCH  11  12
ATOM     12  C   UNL A   1      40.906  26.744  28.745  1.00  0.00     0.031 A 
ATOM     13  C   UNL A   1      42.128  27.358  28.141  1.00  0.00     0.074 A 
ATOM     14  C   UNL A   1      40.179  27.333  29.717  1.00  0.00     0.049 A 
ATOM     15  N   UNL A   1      43.252  27.656  28.708  1.00  0.00    -0.248 NA
ATOM     16  C   UNL A   1      42.132  27.561  26.679  1.00  0.00     0.031 C 
ATOM     17  C   UNL A   1      38.835  26.963  30.175  1.00  0.00     0.029 A 
ATOM     18  N   UNL A   1      40.424  28.482  30.405  1.00  0.00    -0.354 N 
ATOM     19  C   UNL A   1      44.031  28.266  27.724  1.00  0.00     0.074 A 
ATOM     20  C   UNL A   1      43.356  28.043  26.473  1.00  0.00     0.031 C 
ATOM     21  C   UNL A   1      38.290  28.004  30.843  1.00  0.00     0.029 A 
ATOM     22  C   UNL A   1      39.288  29.052  30.974  1.00  0.00     0.049 A 
ATOM     23  H   UNL A   1      41.323  28.874  30.492  1.00  0.00     0.167 HD
ATOM     24  C   UNL A   1      45.056  29.113  28.025  1.00  0.00     0.031 A 
ATOM     25  C   UNL A   1      39.151  30.326  31.428  1.00  0.00     0.031 A 
ATOM     26  C   UNL A   1      45.511  28.945  29.377  1.00  0.00     0.049 A 
ATOM     27  C   UNL A   1      40.518  30.865  31.636  1.00  0.00     0.074 A 
ATOM     28  C   UNL A   1      46.071  27.907  30.093  1.00  0.00     0.029 A 
ATOM     29  N   UNL A   1      45.069  29.852  30.310  1.00  0.00    -0.354 N 
ATOM     30  N   UNL A   1      41.345  30.398  32.529  1.00  0.00    -0.248 NA
ATOM     31  C   UNL A   1      41.131  31.600  30.540  1.00  0.00     0.031 C 
ATOM     32  C   UNL A   1      45.490  28.006  31.391  1.00  0.00     0.029 A 
ATOM     33  C   UNL A   1      44.670  29.136  31.408  1.00  0.00     0.049 A 
ATOM     34  H   UNL A   1      45.044  30.831  30.209  1.00  0.00     0.167 HD
ATOM     35  C   UNL A   1      42.582  30.399  31.902  1.00  0.00     0.074 A 
ATOM     36  C   UNL A   1      42.402  31.226  30.708  1.00  0.00     0.031 C 
ATOM     37  C   UNL A   1      43.557  29.510  32.255  1.00  0.00     0.031 A 
BRANCH  24  38
ATOM     38  C   UNL A   1      45.350  30.366  27.231  1.00  0.00    -0.014 A 
ATOM     39  C   UNL A   1      46.695  30.740  27.023  1.00  0.00     0.010 A 
ATOM     40  C   UNL A   1      44.369  31.343  26.956  1.00  0.00     0.010 A 
ATOM     41  C   UNL A   1      47.039  32.051  26.664  1.00  0.00     0.020 A 
ATOM     42  C   UNL A   1      44.699  32.639  26.557  1.00  0.00     0.020 A 
ATOM     43  C   UNL A   1      46.035  32.997  26.458  1.00  0.00     0.054 A 
BRANCH  43  44
ATOM     44  S   UNL A   1      46.493  34.720  26.149  1.00  0.00     0.124 S 
ATOM     45  O   UNL A   1      47.496  34.581  25.101  1.00  0.00    -0.237 OA
ATOM     46  O   UNL A   1      45.223  35.310  25.743  1.00  0.00    -0.237 OA
ATOM     47  O   UNL A   1      46.999  35.175  27.447  1.00  0.00    -0.744 OA
ENDBRANCH  43  44
ENDBRANCH  24  38
BRANCH  25  48
ATOM     48  C   UNL A   1      37.953  31.201  31.310  1.00  0.00    -0.014 A 
ATOM     49  C   UNL A   1      36.656  30.723  31.582  1.00  0.00     0.010 A 
ATOM     50  C   UNL A   1      38.115  32.597  31.188  1.00  0.00     0.010 A 
ATOM     51  C   UNL A   1      35.578  31.610  31.771  1.00  0.00     0.020 A 
ATOM     52  C   UNL A   1      37.049  33.486  31.369  1.00  0.00     0.020 A 
ATOM     53  C   UNL A   1      35.786  32.990  31.680  1.00  0.00     0.054 A 
BRANCH  53  54
ATOM     54  S   UNL A   1      34.433  34.138  32.083  1.00  0.00     0.124 S 
ATOM     55  O   UNL A   1      35.153  35.289  32.621  1.00  0.00    -0.237 OA
ATOM     56  O   UNL A   1      33.792  34.343  30.787  1.00  0.00    -0.237 OA
ATOM     57  O   UNL A   1      33.632  33.398  33.057  1.00  0.00    -0.744 OA
ENDBRANCH  53  54
ENDBRANCH  25  48
BRANCH  37  58
ATOM     58  C   UNL A   1      43.359  28.673  33.498  1.00  0.00    -0.014 A 
ATOM     59  C   UNL A   1      43.755  29.083  34.787  1.00  0.00     0.010 A 
ATOM     60  C   UNL A   1      42.584  27.507  33.374  1.00  0.00     0.010 A 
ATOM     61  C   UNL A   1      43.396  28.333  35.919  1.00  0.00     0.020 A 
ATOM     62  C   UNL A   1      42.210  26.768  34.497  1.00  0.00     0.020 A 
ATOM     63  C   UNL A   1      42.621  27.179  35.765  1.00  0.00     0.054 A 
BRANCH  63  64
ATOM     64  S   UNL A   1      42.108  26.243  37.232  1.00  0.00     0.124 S 
ATOM     65  O   UNL A   1      40.768  26.763  37.490  1.00  0.00    -0.237 OA
ATOM     66  O   UNL A   1      42.167  24.857  36.771  1.00  0.00    -0.237 OA
ATOM     67  O   UNL A   1      43.110  26.594  38.237  1.00  0.00    -0.744 OA
ENDBRANCH  63  64
ENDBRANCH  37  58
ENDBRANCH  11  12
ENDBRANCH   4   6
ENDBRANCH   1   2
BRANCH   1  68
ATOM     68  C   UNL A   1      35.719  21.939  24.523  1.00  0.00     0.023 C 
BRANCH  68  69
ATOM     69  C   UNL A   1      35.293  21.102  25.736  1.00  0.00     0.023 C 
BRANCH  69  70
ATOM     70  C   UNL A   1      34.467  21.854  26.777  1.00  0.00     0.116 C 
BRANCH  70  71
ATOM     71  N   UNL A   1      33.040  21.698  26.547  1.00  0.00    -0.356 N 
ATOM     72  C   UNL A   1      32.178  22.507  25.869  1.00  0.00     0.223 C 
ATOM     73  H   UNL A   1      32.638  20.889  26.938  1.00  0.00     0.163 HD
ATOM     74  O   UNL A   1      30.988  22.200  25.838  1.00  0.00    -0.275 OA
BRANCH  72  75
ATOM     75  C   UNL A   1      32.732  23.710  25.118  1.00  0.00     0.087 C 
ATOM     76  C   UNL A   1      32.700  24.982  25.975  1.00  0.00     0.068 C 
ATOM     77  C   UNL A   1      31.970  23.883  23.793  1.00  0.00     0.068 C 
ATOM     78  C   UNL A   1      31.318  25.615  26.062  1.00  0.00     0.277 C 
ATOM     79  C   UNL A   1      30.579  24.490  24.004  1.00  0.00     0.277 C 
ATOM     80  N   UNL A   1      30.735  25.740  24.731  1.00  0.00    -0.230 N 
ATOM     81  C   UNL A   1      30.377  26.956  24.183  1.00  0.00     0.383 C 
ATOM     82  N   UNL A   1      29.206  27.133  23.635  1.00  0.00    -0.155 N 
ATOM     83  C   UNL A   1      31.348  28.120  24.244  1.00  0.00     0.523 C 
ATOM     84  C   UNL A   1      28.869  28.388  23.191  1.00  0.00     0.414 C 
ATOM     85  H   UNL A   1      28.577  26.381  23.542  1.00  0.00     0.367 HD
ATOM     86  C   UNL A   1      30.973  29.007  23.121  1.00  0.00     0.389 C 
ATOM     87  N   UNL A   1      32.735  27.766  23.862  1.00  0.00     0.003 NA
ATOM     88  Cl  UNL A   1      27.192  28.679  22.998  1.00  0.00     0.028 Cl
ATOM     89  N   UNL A   1      29.685  29.355  22.924  1.00  0.00    -0.155 N 
ATOM     90  N   UNL A   1      31.946  29.282  22.328  1.00  0.00    -0.169 N 
ATOM     91  C   UNL A   1      32.968  28.506  22.816  1.00  0.00     0.532 C 
ATOM     92  H   UNL A   1      29.398  30.244  22.613  1.00  0.00     0.367 HD
ATOM     93  H   UNL A   1      31.955  29.897  21.559  1.00  0.00     0.365 HD
ENDBRANCH  72  75
ENDBRANCH  70  71
ENDBRANCH  69  70
ENDBRANCH  68  69
ENDBRANCH   1  68
TORSDOF 14
ENDMDL
