MODEL 1
REMARK VINA RESULT:     -11.2      0.000      0.000
REMARK SMILES CC1(C)[C@@](C)(C(=O)NCCCCNC(=O)c2ccc(-c3c4nc(c(-c5ccc(S(=O)(=O)[O-])cc5)c5ccc([nH]5)c(-c5ccc(S(=O)(=O)[O-])cc5)c5nc(c(-c6ccc(S(=O)(=O)[O-])cc6)c6ccc3[nH]6)C=C5)C=C4)cc2)[C@@]12CC[C@@H]2C(=O)NCc1ccco1
REMARK SMILES IDX 10 1 9 2 8 3 6 4 7 5 4 7 1 8 2 9 3 10 76 11 5 12 77 13 79 14
REMARK SMILES IDX 78 15 80 16 81 17 82 18 83 20 84 21 85 22 88 23 86 24 87 25
REMARK SMILES IDX 11 26 12 27 13 28 14 29 15 31 16 32 17 33 75 34 18 35 74 36
REMARK SMILES IDX 19 37 20 38 21 39 68 40 22 41 73 42 67 43 69 44 23 45 72 46
REMARK SMILES IDX 66 47 65 48 24 50 54 51 35 52 53 53 36 54 39 55 52 56 70 57
REMARK SMILES IDX 37 58 38 59 51 61 71 62 40 63 25 64 26 65 34 66 27 67 33 68
REMARK SMILES IDX 28 69 29 70 30 71 31 72 32 73 55 74 56 75 64 76 57 77 63 78
REMARK SMILES IDX 58 79 59 80 60 81 61 82 62 83 41 84 42 85 50 86 43 87 49 88
REMARK SMILES IDX 44 89 45 90 46 91 47 92 48 93
REMARK H PARENT 8 6 82 19 13 30 69 49 39 60
REMARK Flexibility Score: inf
ROOT
ATOM      1  C   UNL A   1      31.879  29.243  24.470  1.00  0.00     0.023 C 
ENDROOT
BRANCH   1   2
ATOM      2  C   UNL A   1      31.343  27.889  24.018  1.00  0.00     0.116 C 
BRANCH   2   3
ATOM      3  N   UNL A   1      32.003  27.309  22.877  1.00  0.00    -0.356 N 
ATOM      4  C   UNL A   1      32.449  26.012  22.747  1.00  0.00     0.227 C 
ATOM      5  O   UNL A   1      32.959  25.649  21.695  1.00  0.00    -0.274 OA
ATOM      6  H   UNL A   1      32.151  27.903  22.106  1.00  0.00     0.163 HD
BRANCH   4   7
ATOM      7  C   UNL A   1      32.410  25.093  23.956  1.00  0.00     0.059 C 
ATOM      8  C   UNL A   1      34.271  26.597  25.103  1.00  0.00     0.013 C 
ATOM      9  C   UNL A   1      33.327  25.405  25.170  1.00  0.00    -0.013 C 
ATOM     10  C   UNL A   1      32.839  25.191  26.587  1.00  0.00     0.013 C 
ATOM     11  C   UNL A   1      33.607  24.191  24.284  1.00  0.00     0.003 C 
ATOM     12  C   UNL A   1      30.990  24.672  24.314  1.00  0.00     0.023 C 
ATOM     13  C   UNL A   1      34.963  24.073  23.669  1.00  0.00     0.010 C 
ATOM     14  C   UNL A   1      33.609  22.736  24.712  1.00  0.00     0.086 C 
ATOM     15  C   UNL A   1      35.124  22.780  24.480  1.00  0.00     0.015 C 
BRANCH  14  16
ATOM     16  C   UNL A   1      32.728  21.667  23.997  1.00  0.00     0.224 C 
ATOM     17  O   UNL A   1      32.445  21.728  22.791  1.00  0.00    -0.275 OA
ATOM     18  N   UNL A   1      32.076  20.682  24.721  1.00  0.00    -0.349 N 
ATOM     19  H   UNL A   1      31.093  20.647  24.685  1.00  0.00     0.163 HD
BRANCH  18  20
ATOM     20  C   UNL A   1      32.765  19.707  25.523  1.00  0.00     0.191 C 
BRANCH  20  21
ATOM     21  C   UNL A   1      33.017  18.403  24.887  1.00  0.00     0.122 A 
ATOM     22  C   UNL A   1      32.553  17.144  25.215  1.00  0.00     0.047 A 
ATOM     23  O   UNL A   1      33.933  18.321  23.885  1.00  0.00    -0.467 OA
ATOM     24  C   UNL A   1      33.246  16.236  24.387  1.00  0.00     0.042 A 
ATOM     25  C   UNL A   1      34.070  17.000  23.593  1.00  0.00     0.195 A 
ENDBRANCH  20  21
ENDBRANCH  18  20
ENDBRANCH  14  16
ENDBRANCH   4   7
ENDBRANCH   2   3
ENDBRANCH   1   2
BRANCH   1  26
ATOM     26  C   UNL A   1      31.940  29.466  25.984  1.00  0.00     0.023 C 
BRANCH  26  27
ATOM     27  C   UNL A   1      33.330  29.623  26.604  1.00  0.00     0.116 C 
BRANCH  27  28
ATOM     28  N   UNL A   1      33.531  30.837  27.380  1.00  0.00    -0.352 N 
ATOM     29  C   UNL A   1      34.628  31.213  28.132  1.00  0.00     0.251 C 
ATOM     30  H   UNL A   1      32.784  31.478  27.368  1.00  0.00     0.163 HD
ATOM     31  O   UNL A   1      34.608  32.275  28.749  1.00  0.00    -0.269 OA
BRANCH  29  32
ATOM     32  C   UNL A   1      35.770  30.283  28.295  1.00  0.00     0.039 A 
ATOM     33  C   UNL A   1      36.703  30.217  27.254  1.00  0.00     0.014 A 
ATOM     34  C   UNL A   1      36.008  29.597  29.488  1.00  0.00     0.014 A 
ATOM     35  C   UNL A   1      37.940  29.612  27.472  1.00  0.00     0.010 A 
ATOM     36  C   UNL A   1      37.271  29.059  29.732  1.00  0.00     0.010 A 
ATOM     37  C   UNL A   1      38.265  29.116  28.744  1.00  0.00    -0.014 A 
BRANCH  37  38
ATOM     38  C   UNL A   1      39.675  28.810  29.094  1.00  0.00     0.031 A 
ATOM     39  C   UNL A   1      40.560  29.838  29.730  1.00  0.00     0.074 A 
ATOM     40  C   UNL A   1      40.174  27.603  28.750  1.00  0.00     0.049 A 
ATOM     41  N   UNL A   1      41.814  29.730  30.086  1.00  0.00    -0.248 NA
ATOM     42  C   UNL A   1      39.972  31.162  29.978  1.00  0.00     0.031 C 
ATOM     43  C   UNL A   1      39.427  26.545  28.061  1.00  0.00     0.029 A 
ATOM     44  N   UNL A   1      41.422  27.061  28.923  1.00  0.00    -0.354 N 
ATOM     45  C   UNL A   1      42.168  30.970  30.605  1.00  0.00     0.074 A 
ATOM     46  C   UNL A   1      41.010  31.828  30.467  1.00  0.00     0.031 C 
ATOM     47  C   UNL A   1      40.220  25.476  27.899  1.00  0.00     0.029 A 
ATOM     48  C   UNL A   1      41.542  25.780  28.435  1.00  0.00     0.049 A 
ATOM     49  H   UNL A   1      42.163  27.544  29.356  1.00  0.00     0.167 HD
ATOM     50  C   UNL A   1      43.344  31.350  31.158  1.00  0.00     0.031 A 
ATOM     51  C   UNL A   1      42.595  24.942  28.416  1.00  0.00     0.031 A 
ATOM     52  C   UNL A   1      44.496  30.495  31.274  1.00  0.00     0.049 A 
ATOM     53  C   UNL A   1      43.892  25.388  29.031  1.00  0.00     0.074 A 
ATOM     54  C   UNL A   1      45.718  30.771  31.862  1.00  0.00     0.029 A 
ATOM     55  N   UNL A   1      44.574  29.199  30.782  1.00  0.00    -0.354 N 
ATOM     56  N   UNL A   1      44.176  26.537  29.598  1.00  0.00    -0.248 NA
ATOM     57  C   UNL A   1      45.002  24.427  29.016  1.00  0.00     0.031 C 
ATOM     58  C   UNL A   1      46.552  29.662  31.681  1.00  0.00     0.029 A 
ATOM     59  C   UNL A   1      45.831  28.673  31.030  1.00  0.00     0.049 A 
ATOM     60  H   UNL A   1      43.844  28.724  30.324  1.00  0.00     0.167 HD
ATOM     61  C   UNL A   1      45.495  26.428  30.026  1.00  0.00     0.074 A 
ATOM     62  C   UNL A   1      45.942  25.097  29.667  1.00  0.00     0.031 C 
ATOM     63  C   UNL A   1      46.263  27.349  30.658  1.00  0.00     0.031 A 
BRANCH  50  64
ATOM     64  C   UNL A   1      43.438  32.762  31.674  1.00  0.00    -0.014 A 
ATOM     65  C   UNL A   1      43.795  33.821  30.818  1.00  0.00     0.010 A 
ATOM     66  C   UNL A   1      43.144  33.040  33.021  1.00  0.00     0.010 A 
ATOM     67  C   UNL A   1      43.906  35.123  31.312  1.00  0.00     0.020 A 
ATOM     68  C   UNL A   1      43.229  34.347  33.512  1.00  0.00     0.020 A 
ATOM     69  C   UNL A   1      43.631  35.376  32.658  1.00  0.00     0.054 A 
BRANCH  69  70
ATOM     70  S   UNL A   1      43.787  37.076  33.273  1.00  0.00     0.124 S 
ATOM     71  O   UNL A   1      42.610  37.194  34.129  1.00  0.00    -0.237 OA
ATOM     72  O   UNL A   1      45.071  37.048  33.970  1.00  0.00    -0.237 OA
ATOM     73  O   UNL A   1      43.759  37.888  32.059  1.00  0.00    -0.744 OA
ENDBRANCH  69  70
ENDBRANCH  50  64
BRANCH  51  74
ATOM     74  C   UNL A   1      42.457  23.590  27.807  1.00  0.00    -0.014 A 
ATOM     75  C   UNL A   1      42.913  23.344  26.500  1.00  0.00     0.010 A 
ATOM     76  C   UNL A   1      41.893  22.534  28.545  1.00  0.00     0.010 A 
ATOM     77  C   UNL A   1      42.795  22.068  25.938  1.00  0.00     0.020 A 
ATOM     78  C   UNL A   1      41.798  21.252  27.996  1.00  0.00     0.020 A 
ATOM     79  C   UNL A   1      42.240  21.030  26.692  1.00  0.00     0.054 A 
BRANCH  79  80
ATOM     80  S   UNL A   1      42.152  19.369  25.964  1.00  0.00     0.124 S 
ATOM     81  O   UNL A   1      40.722  19.223  25.712  1.00  0.00    -0.237 OA
ATOM     82  O   UNL A   1      42.995  19.498  24.778  1.00  0.00    -0.237 OA
ATOM     83  O   UNL A   1      42.695  18.509  27.014  1.00  0.00    -0.744 OA
ENDBRANCH  79  80
ENDBRANCH  51  74
BRANCH  63  84
ATOM     84  C   UNL A   1      47.666  26.942  31.021  1.00  0.00    -0.014 A 
ATOM     85  C   UNL A   1      47.940  26.275  32.228  1.00  0.00     0.010 A 
ATOM     86  C   UNL A   1      48.714  27.178  30.112  1.00  0.00     0.010 A 
ATOM     87  C   UNL A   1      49.243  25.873  32.532  1.00  0.00     0.020 A 
ATOM     88  C   UNL A   1      50.014  26.755  30.401  1.00  0.00     0.020 A 
ATOM     89  C   UNL A   1      50.271  26.114  31.615  1.00  0.00     0.054 A 
BRANCH  89  90
ATOM     90  S   UNL A   1      51.943  25.530  32.007  1.00  0.00     0.124 S 
ATOM     91  O   UNL A   1      51.722  24.104  32.234  1.00  0.00    -0.237 OA
ATOM     92  O   UNL A   1      52.693  25.866  30.799  1.00  0.00    -0.237 OA
ATOM     93  O   UNL A   1      52.309  26.301  33.194  1.00  0.00    -0.744 OA
ENDBRANCH  89  90
ENDBRANCH  63  84
ENDBRANCH  37  38
ENDBRANCH  29  32
ENDBRANCH  27  28
ENDBRANCH  26  27
ENDBRANCH   1  26
TORSDOF 17
ENDMDL
MODEL 2
REMARK VINA RESULT:     -11.2      1.307      8.299
REMARK SMILES CC1(C)[C@@](C)(C(=O)NCCCCNC(=O)c2ccc(-c3c4nc(c(-c5ccc(S(=O)(=O)[O-])cc5)c5ccc([nH]5)c(-c5ccc(S(=O)(=O)[O-])cc5)c5nc(c(-c6ccc(S(=O)(=O)[O-])cc6)c6ccc3[nH]6)C=C5)C=C4)cc2)[C@@]12CC[C@@H]2C(=O)NCc1ccco1
REMARK SMILES IDX 10 1 9 2 8 3 6 4 7 5 4 7 1 8 2 9 3 10 76 11 5 12 77 13 79 14
REMARK SMILES IDX 78 15 80 16 81 17 82 18 83 20 84 21 85 22 88 23 86 24 87 25
REMARK SMILES IDX 11 26 12 27 13 28 14 29 15 31 16 32 17 33 75 34 18 35 74 36
REMARK SMILES IDX 19 37 20 38 21 39 68 40 22 41 73 42 67 43 69 44 23 45 72 46
REMARK SMILES IDX 66 47 65 48 24 50 54 51 35 52 53 53 36 54 39 55 52 56 70 57
REMARK SMILES IDX 37 58 38 59 51 61 71 62 40 63 25 64 26 65 34 66 27 67 33 68
REMARK SMILES IDX 28 69 29 70 30 71 31 72 32 73 55 74 56 75 64 76 57 77 63 78
REMARK SMILES IDX 58 79 59 80 60 81 61 82 62 83 41 84 42 85 50 86 43 87 49 88
REMARK SMILES IDX 44 89 45 90 46 91 47 92 48 93
REMARK H PARENT 8 6 82 19 13 30 69 49 39 60
REMARK Flexibility Score: inf
ROOT
ATOM      1  C   UNL A   1      31.741  28.118  27.497  1.00  0.00     0.023 C 
ENDROOT
BRANCH   1   2
ATOM      2  C   UNL A   1      31.402  27.167  26.354  1.00  0.00     0.116 C 
BRANCH   2   3
ATOM      3  N   UNL A   1      31.045  25.828  26.743  1.00  0.00    -0.356 N 
ATOM      4  C   UNL A   1      31.651  24.658  26.343  1.00  0.00     0.227 C 
ATOM      5  O   UNL A   1      31.261  23.588  26.792  1.00  0.00    -0.274 OA
ATOM      6  H   UNL A   1      30.286  25.738  27.364  1.00  0.00     0.163 HD
BRANCH   4   7
ATOM      7  C   UNL A   1      32.712  24.709  25.256  1.00  0.00     0.059 C 
ATOM      8  C   UNL A   1      30.814  25.288  23.494  1.00  0.00     0.013 C 
ATOM      9  C   UNL A   1      32.286  25.054  23.803  1.00  0.00    -0.013 C 
ATOM     10  C   UNL A   1      33.159  25.921  22.922  1.00  0.00     0.013 C 
ATOM     11  C   UNL A   1      32.750  23.641  24.157  1.00  0.00     0.003 C 
ATOM     12  C   UNL A   1      33.989  25.392  25.730  1.00  0.00     0.023 C 
ATOM     13  C   UNL A   1      31.833  22.504  23.841  1.00  0.00     0.010 C 
ATOM     14  C   UNL A   1      33.950  22.909  23.587  1.00  0.00     0.086 C 
ATOM     15  C   UNL A   1      32.930  21.994  22.897  1.00  0.00     0.015 C 
BRANCH  14  16
ATOM     16  C   UNL A   1      35.061  22.311  24.502  1.00  0.00     0.224 C 
ATOM     17  O   UNL A   1      35.948  23.005  25.021  1.00  0.00    -0.275 OA
ATOM     18  N   UNL A   1      35.206  20.940  24.641  1.00  0.00    -0.349 N 
ATOM     19  H   UNL A   1      36.054  20.529  24.358  1.00  0.00     0.163 HD
BRANCH  18  20
ATOM     20  C   UNL A   1      34.180  20.089  25.180  1.00  0.00     0.191 C 
BRANCH  20  21
ATOM     21  C   UNL A   1      33.910  18.846  24.439  1.00  0.00     0.122 A 
ATOM     22  C   UNL A   1      34.689  17.717  24.274  1.00  0.00     0.047 A 
ATOM     23  O   UNL A   1      32.791  18.763  23.670  1.00  0.00    -0.467 OA
ATOM     24  C   UNL A   1      34.023  16.909  23.328  1.00  0.00     0.042 A 
ATOM     25  C   UNL A   1      32.873  17.586  22.993  1.00  0.00     0.195 A 
ENDBRANCH  20  21
ENDBRANCH  18  20
ENDBRANCH  14  16
ENDBRANCH   4   7
ENDBRANCH   2   3
ENDBRANCH   1   2
BRANCH   1  26
ATOM     26  C   UNL A   1      32.087  29.554  27.093  1.00  0.00     0.023 C 
BRANCH  26  27
ATOM     27  C   UNL A   1      33.547  29.983  27.250  1.00  0.00     0.116 C 
BRANCH  27  28
ATOM     28  N   UNL A   1      33.771  31.111  28.141  1.00  0.00    -0.352 N 
ATOM     29  C   UNL A   1      34.902  31.430  28.867  1.00  0.00     0.251 C 
ATOM     30  H   UNL A   1      33.014  31.733  28.238  1.00  0.00     0.163 HD
ATOM     31  O   UNL A   1      34.899  32.419  29.595  1.00  0.00    -0.269 OA
BRANCH  29  32
ATOM     32  C   UNL A   1      36.068  30.514  28.867  1.00  0.00     0.039 A 
ATOM     33  C   UNL A   1      36.880  30.504  27.728  1.00  0.00     0.014 A 
ATOM     34  C   UNL A   1      36.445  29.788  29.999  1.00  0.00     0.014 A 
ATOM     35  C   UNL A   1      38.142  29.913  27.784  1.00  0.00     0.010 A 
ATOM     36  C   UNL A   1      37.733  29.262  30.080  1.00  0.00     0.010 A 
ATOM     37  C   UNL A   1      38.612  29.374  28.993  1.00  0.00    -0.014 A 
BRANCH  37  38
ATOM     38  C   UNL A   1      40.056  29.079  29.173  1.00  0.00     0.031 A 
ATOM     39  C   UNL A   1      40.627  27.741  28.816  1.00  0.00     0.074 A 
ATOM     40  C   UNL A   1      40.835  30.020  29.748  1.00  0.00     0.049 A 
ATOM     41  N   UNL A   1      41.863  27.325  28.924  1.00  0.00    -0.248 NA
ATOM     42  C   UNL A   1      39.692  26.734  28.293  1.00  0.00     0.031 C 
ATOM     43  C   UNL A   1      40.375  31.337  30.204  1.00  0.00     0.029 A 
ATOM     44  N   UNL A   1      42.173  30.019  30.053  1.00  0.00    -0.354 N 
ATOM     45  C   UNL A   1      41.857  26.008  28.479  1.00  0.00     0.074 A 
ATOM     46  C   UNL A   1      40.486  25.681  28.151  1.00  0.00     0.031 C 
ATOM     47  C   UNL A   1      41.415  32.022  30.701  1.00  0.00     0.029 A 
ATOM     48  C   UNL A   1      42.609  31.187  30.636  1.00  0.00     0.049 A 
ATOM     49  H   UNL A   1      42.765  29.253  29.872  1.00  0.00     0.167 HD
ATOM     50  C   UNL A   1      42.903  25.158  28.343  1.00  0.00     0.031 A 
ATOM     51  C   UNL A   1      43.830  31.548  31.073  1.00  0.00     0.031 A 
ATOM     52  C   UNL A   1      44.262  25.486  28.689  1.00  0.00     0.049 A 
ATOM     53  C   UNL A   1      44.973  30.586  30.916  1.00  0.00     0.074 A 
ATOM     54  C   UNL A   1      45.398  24.711  28.543  1.00  0.00     0.029 A 
ATOM     55  N   UNL A   1      44.666  26.684  29.262  1.00  0.00    -0.354 N 
ATOM     56  N   UNL A   1      44.962  29.376  30.408  1.00  0.00    -0.248 NA
ATOM     57  C   UNL A   1      46.292  31.038  31.378  1.00  0.00     0.031 C 
ATOM     58  C   UNL A   1      46.482  25.420  29.074  1.00  0.00     0.029 A 
ATOM     59  C   UNL A   1      46.030  26.659  29.499  1.00  0.00     0.049 A 
ATOM     60  H   UNL A   1      44.071  27.440  29.470  1.00  0.00     0.167 HD
ATOM     61  C   UNL A   1      46.277  28.930  30.471  1.00  0.00     0.074 A 
ATOM     62  C   UNL A   1      47.056  30.006  31.050  1.00  0.00     0.031 C 
ATOM     63  C   UNL A   1      46.790  27.736  30.084  1.00  0.00     0.031 A 
BRANCH  50  64
ATOM     64  C   UNL A   1      42.608  23.785  27.799  1.00  0.00    -0.014 A 
ATOM     65  C   UNL A   1      42.308  22.716  28.664  1.00  0.00     0.010 A 
ATOM     66  C   UNL A   1      42.606  23.563  26.410  1.00  0.00     0.010 A 
ATOM     67  C   UNL A   1      42.063  21.439  28.153  1.00  0.00     0.020 A 
ATOM     68  C   UNL A   1      42.335  22.292  25.893  1.00  0.00     0.020 A 
ATOM     69  C   UNL A   1      42.086  21.234  26.770  1.00  0.00     0.054 A 
BRANCH  69  70
ATOM     70  S   UNL A   1      41.768  19.565  26.134  1.00  0.00     0.124 S 
ATOM     71  O   UNL A   1      42.096  18.736  27.291  1.00  0.00    -0.237 OA
ATOM     72  O   UNL A   1      40.351  19.620  25.783  1.00  0.00    -0.237 OA
ATOM     73  O   UNL A   1      42.683  19.444  25.002  1.00  0.00    -0.744 OA
ENDBRANCH  69  70
ENDBRANCH  50  64
BRANCH  51  74
ATOM     74  C   UNL A   1      44.031  32.891  31.684  1.00  0.00    -0.014 A 
ATOM     75  C   UNL A   1      43.908  33.071  33.073  1.00  0.00     0.010 A 
ATOM     76  C   UNL A   1      44.377  33.992  30.880  1.00  0.00     0.010 A 
ATOM     77  C   UNL A   1      44.114  34.331  33.644  1.00  0.00     0.020 A 
ATOM     78  C   UNL A   1      44.610  35.247  31.451  1.00  0.00     0.020 A 
ATOM     79  C   UNL A   1      44.466  35.410  32.829  1.00  0.00     0.054 A 
BRANCH  79  80
ATOM     80  S   UNL A   1      44.787  37.022  33.599  1.00  0.00     0.124 S 
ATOM     81  O   UNL A   1      43.583  37.222  34.399  1.00  0.00    -0.237 OA
ATOM     82  O   UNL A   1      46.014  36.775  34.351  1.00  0.00    -0.237 OA
ATOM     83  O   UNL A   1      44.936  37.921  32.456  1.00  0.00    -0.744 OA
ENDBRANCH  79  80
ENDBRANCH  51  74
BRANCH  63  84
ATOM     84  C   UNL A   1      48.271  27.535  30.256  1.00  0.00    -0.014 A 
ATOM     85  C   UNL A   1      49.175  27.884  29.237  1.00  0.00     0.010 A 
ATOM     86  C   UNL A   1      48.768  27.046  31.479  1.00  0.00     0.010 A 
ATOM     87  C   UNL A   1      50.550  27.725  29.429  1.00  0.00     0.020 A 
ATOM     88  C   UNL A   1      50.143  26.910  31.683  1.00  0.00     0.020 A 
ATOM     89  C   UNL A   1      51.025  27.240  30.652  1.00  0.00     0.054 A 
BRANCH  89  90
ATOM     90  S   UNL A   1      52.816  27.097  30.896  1.00  0.00     0.124 S 
ATOM     91  O   UNL A   1      53.033  27.950  32.062  1.00  0.00    -0.237 OA
ATOM     92  O   UNL A   1      52.998  25.665  31.122  1.00  0.00    -0.237 OA
ATOM     93  O   UNL A   1      53.378  27.600  29.643  1.00  0.00    -0.744 OA
ENDBRANCH  89  90
ENDBRANCH  63  84
ENDBRANCH  37  38
ENDBRANCH  29  32
ENDBRANCH  27  28
ENDBRANCH  26  27
ENDBRANCH   1  26
TORSDOF 17
ENDMDL
MODEL 3
REMARK VINA RESULT:     -11.2      2.697      3.755
REMARK SMILES CC1(C)[C@@](C)(C(=O)NCCCCNC(=O)c2ccc(-c3c4nc(c(-c5ccc(S(=O)(=O)[O-])cc5)c5ccc([nH]5)c(-c5ccc(S(=O)(=O)[O-])cc5)c5nc(c(-c6ccc(S(=O)(=O)[O-])cc6)c6ccc3[nH]6)C=C5)C=C4)cc2)[C@@]12CC[C@@H]2C(=O)NCc1ccco1
REMARK SMILES IDX 10 1 9 2 8 3 6 4 7 5 4 7 1 8 2 9 3 10 76 11 5 12 77 13 79 14
REMARK SMILES IDX 78 15 80 16 81 17 82 18 83 20 84 21 85 22 88 23 86 24 87 25
REMARK SMILES IDX 11 26 12 27 13 28 14 29 15 31 16 32 17 33 75 34 18 35 74 36
REMARK SMILES IDX 19 37 20 38 21 39 68 40 22 41 73 42 67 43 69 44 23 45 72 46
REMARK SMILES IDX 66 47 65 48 24 50 54 51 35 52 53 53 36 54 39 55 52 56 70 57
REMARK SMILES IDX 37 58 38 59 51 61 71 62 40 63 25 64 26 65 34 66 27 67 33 68
REMARK SMILES IDX 28 69 29 70 30 71 31 72 32 73 55 74 56 75 64 76 57 77 63 78
REMARK SMILES IDX 58 79 59 80 60 81 61 82 62 83 41 84 42 85 50 86 43 87 49 88
REMARK SMILES IDX 44 89 45 90 46 91 47 92 48 93
REMARK H PARENT 8 6 82 19 13 30 69 49 39 60
REMARK Flexibility Score: inf
ROOT
ATOM      1  C   UNL A   1      32.999  28.733  24.407  1.00  0.00     0.023 C 
ENDROOT
BRANCH   1   2
ATOM      2  C   UNL A   1      32.330  27.394  24.119  1.00  0.00     0.116 C 
BRANCH   2   3
ATOM      3  N   UNL A   1      31.610  26.808  25.219  1.00  0.00    -0.356 N 
ATOM      4  C   UNL A   1      31.816  25.567  25.780  1.00  0.00     0.227 C 
ATOM      5  O   UNL A   1      31.148  25.218  26.744  1.00  0.00    -0.274 OA
ATOM      6  H   UNL A   1      30.892  27.354  25.615  1.00  0.00     0.163 HD
BRANCH   4   7
ATOM      7  C   UNL A   1      32.786  24.607  25.112  1.00  0.00     0.059 C 
ATOM      8  C   UNL A   1      30.997  24.208  23.193  1.00  0.00     0.013 C 
ATOM      9  C   UNL A   1      32.375  23.929  23.776  1.00  0.00    -0.013 C 
ATOM     10  C   UNL A   1      33.387  23.710  22.672  1.00  0.00     0.013 C 
ATOM     11  C   UNL A   1      32.480  23.105  25.060  1.00  0.00     0.003 C 
ATOM     12  C   UNL A   1      34.222  25.113  25.160  1.00  0.00     0.023 C 
ATOM     13  C   UNL A   1      31.283  22.318  25.485  1.00  0.00     0.010 C 
ATOM     14  C   UNL A   1      33.413  21.937  25.317  1.00  0.00     0.086 C 
ATOM     15  C   UNL A   1      32.151  21.064  25.308  1.00  0.00     0.015 C 
BRANCH  14  16
ATOM     16  C   UNL A   1      34.386  21.913  26.535  1.00  0.00     0.224 C 
ATOM     17  O   UNL A   1      34.064  21.455  27.641  1.00  0.00    -0.275 OA
ATOM     18  N   UNL A   1      35.608  22.562  26.481  1.00  0.00    -0.349 N 
ATOM     19  H   UNL A   1      35.780  23.290  27.121  1.00  0.00     0.163 HD
BRANCH  18  20
ATOM     20  C   UNL A   1      36.640  22.224  25.537  1.00  0.00     0.191 C 
BRANCH  20  21
ATOM     21  C   UNL A   1      38.027  22.392  26.002  1.00  0.00     0.122 A 
ATOM     22  C   UNL A   1      38.672  23.504  26.508  1.00  0.00     0.047 A 
ATOM     23  O   UNL A   1      38.910  21.371  25.831  1.00  0.00    -0.467 OA
ATOM     24  C   UNL A   1      40.034  23.154  26.625  1.00  0.00     0.042 A 
ATOM     25  C   UNL A   1      40.128  21.847  26.205  1.00  0.00     0.195 A 
ENDBRANCH  20  21
ENDBRANCH  18  20
ENDBRANCH  14  16
ENDBRANCH   4   7
ENDBRANCH   2   3
ENDBRANCH   1   2
BRANCH   1  26
ATOM     26  C   UNL A   1      33.885  28.783  25.655  1.00  0.00     0.023 C 
BRANCH  26  27
ATOM     27  C   UNL A   1      33.286  29.437  26.902  1.00  0.00     0.116 C 
BRANCH  27  28
ATOM     28  N   UNL A   1      33.667  30.824  27.120  1.00  0.00    -0.352 N 
ATOM     29  C   UNL A   1      34.851  31.328  27.624  1.00  0.00     0.251 C 
ATOM     30  H   UNL A   1      32.990  31.495  26.874  1.00  0.00     0.163 HD
ATOM     31  O   UNL A   1      34.985  32.541  27.763  1.00  0.00    -0.269 OA
BRANCH  29  32
ATOM     32  C   UNL A   1      35.903  30.406  28.112  1.00  0.00     0.039 A 
ATOM     33  C   UNL A   1      37.081  30.316  27.364  1.00  0.00     0.014 A 
ATOM     34  C   UNL A   1      35.807  29.750  29.342  1.00  0.00     0.014 A 
ATOM     35  C   UNL A   1      38.211  29.720  27.922  1.00  0.00     0.010 A 
ATOM     36  C   UNL A   1      36.954  29.221  29.930  1.00  0.00     0.010 A 
ATOM     37  C   UNL A   1      38.178  29.256  29.247  1.00  0.00    -0.014 A 
BRANCH  37  38
ATOM     38  C   UNL A   1      39.441  28.962  29.972  1.00  0.00     0.031 A 
ATOM     39  C   UNL A   1      39.851  29.757  31.174  1.00  0.00     0.074 A 
ATOM     40  C   UNL A   1      40.260  28.011  29.474  1.00  0.00     0.049 A 
ATOM     41  N   UNL A   1      40.925  29.631  31.910  1.00  0.00    -0.248 NA
ATOM     42  C   UNL A   1      38.955  30.845  31.592  1.00  0.00     0.031 C 
ATOM     43  C   UNL A   1      40.000  27.220  28.266  1.00  0.00     0.029 A 
ATOM     44  N   UNL A   1      41.475  27.549  29.911  1.00  0.00    -0.354 N 
ATOM     45  C   UNL A   1      40.835  30.621  32.881  1.00  0.00     0.074 A 
ATOM     46  C   UNL A   1      39.627  31.370  32.607  1.00  0.00     0.031 C 
ATOM     47  C   UNL A   1      41.008  26.354  28.079  1.00  0.00     0.029 A 
ATOM     48  C   UNL A   1      42.003  26.551  29.126  1.00  0.00     0.049 A 
ATOM     49  H   UNL A   1      41.928  27.901  30.712  1.00  0.00     0.167 HD
ATOM     50  C   UNL A   1      41.675  30.869  33.914  1.00  0.00     0.031 A 
ATOM     51  C   UNL A   1      43.160  25.869  29.231  1.00  0.00     0.031 A 
ATOM     52  C   UNL A   1      42.885  30.130  34.168  1.00  0.00     0.049 A 
ATOM     53  C   UNL A   1      44.078  26.166  30.382  1.00  0.00     0.074 A 
ATOM     54  C   UNL A   1      43.777  30.274  35.215  1.00  0.00     0.029 A 
ATOM     55  N   UNL A   1      43.378  29.116  33.359  1.00  0.00    -0.354 N 
ATOM     56  N   UNL A   1      43.928  27.047  31.343  1.00  0.00    -0.248 NA
ATOM     57  C   UNL A   1      45.310  25.374  30.473  1.00  0.00     0.031 C 
ATOM     58  C   UNL A   1      44.836  29.381  35.014  1.00  0.00     0.029 A 
ATOM     59  C   UNL A   1      44.575  28.642  33.870  1.00  0.00     0.049 A 
ATOM     60  H   UNL A   1      42.942  28.782  32.543  1.00  0.00     0.167 HD
ATOM     61  C   UNL A   1      45.040  26.900  32.164  1.00  0.00     0.074 A 
ATOM     62  C   UNL A   1      45.841  25.835  31.596  1.00  0.00     0.031 C 
ATOM     63  C   UNL A   1      45.365  27.587  33.287  1.00  0.00     0.031 A 
BRANCH  50  64
ATOM     64  C   UNL A   1      41.310  31.997  34.843  1.00  0.00    -0.014 A 
ATOM     65  C   UNL A   1      41.802  33.298  34.627  1.00  0.00     0.010 A 
ATOM     66  C   UNL A   1      40.448  31.764  35.930  1.00  0.00     0.010 A 
ATOM     67  C   UNL A   1      41.480  34.333  35.509  1.00  0.00     0.020 A 
ATOM     68  C   UNL A   1      40.102  32.802  36.799  1.00  0.00     0.020 A 
ATOM     69  C   UNL A   1      40.639  34.075  36.595  1.00  0.00     0.054 A 
BRANCH  69  70
ATOM     70  S   UNL A   1      40.241  35.437  37.726  1.00  0.00     0.124 S 
ATOM     71  O   UNL A   1      40.015  36.542  36.798  1.00  0.00    -0.237 OA
ATOM     72  O   UNL A   1      39.051  34.943  38.416  1.00  0.00    -0.237 OA
ATOM     73  O   UNL A   1      41.435  35.557  38.559  1.00  0.00    -0.744 OA
ENDBRANCH  69  70
ENDBRANCH  50  64
BRANCH  51  74
ATOM     74  C   UNL A   1      43.500  24.827  28.223  1.00  0.00    -0.014 A 
ATOM     75  C   UNL A   1      43.159  23.480  28.442  1.00  0.00     0.010 A 
ATOM     76  C   UNL A   1      44.141  25.183  27.022  1.00  0.00     0.010 A 
ATOM     77  C   UNL A   1      43.466  22.508  27.485  1.00  0.00     0.020 A 
ATOM     78  C   UNL A   1      44.426  24.217  26.053  1.00  0.00     0.020 A 
ATOM     79  C   UNL A   1      44.095  22.884  26.295  1.00  0.00     0.054 A 
BRANCH  79  80
ATOM     80  S   UNL A   1      44.430  21.614  25.042  1.00  0.00     0.124 S 
ATOM     81  O   UNL A   1      45.804  21.233  25.355  1.00  0.00    -0.237 OA
ATOM     82  O   UNL A   1      43.412  20.607  25.331  1.00  0.00    -0.237 OA
ATOM     83  O   UNL A   1      44.250  22.327  23.779  1.00  0.00    -0.744 OA
ENDBRANCH  79  80
ENDBRANCH  51  74
BRANCH  63  84
ATOM     84  C   UNL A   1      46.637  27.194  33.990  1.00  0.00    -0.014 A 
ATOM     85  C   UNL A   1      46.645  26.183  34.967  1.00  0.00     0.010 A 
ATOM     86  C   UNL A   1      47.850  27.806  33.622  1.00  0.00     0.010 A 
ATOM     87  C   UNL A   1      47.842  25.807  35.582  1.00  0.00     0.020 A 
ATOM     88  C   UNL A   1      49.052  27.415  34.217  1.00  0.00     0.020 A 
ATOM     89  C   UNL A   1      49.038  26.424  35.202  1.00  0.00     0.054 A 
BRANCH  89  90
ATOM     90  S   UNL A   1      50.585  25.877  35.974  1.00  0.00     0.124 S 
ATOM     91  O   UNL A   1      51.249  25.189  34.870  1.00  0.00    -0.237 OA
ATOM     92  O   UNL A   1      51.199  27.135  36.391  1.00  0.00    -0.237 OA
ATOM     93  O   UNL A   1      50.141  25.015  37.068  1.00  0.00    -0.744 OA
ENDBRANCH  89  90
ENDBRANCH  63  84
ENDBRANCH  37  38
ENDBRANCH  29  32
ENDBRANCH  27  28
ENDBRANCH  26  27
ENDBRANCH   1  26
TORSDOF 17
ENDMDL
