MODEL 1
REMARK VINA RESULT:     -11.8      0.000      0.000
REMARK SMILES O=C(NCCCCNC(=O)[C@@H]1Nc2c(cccc2C(F)(F)F)[C@@H]2C=CC[C@@H]12)c1ccc(-c2c3nc(c(-c4ccc(S(=O)(=O)[O-])cc4)c4ccc([nH]4)c(-c4ccc(S(=O)(=O)[O-])cc4)c4nc(c(-c5ccc(S(=O)(=O)[O-])cc5)c5ccc2[nH]5)C=C4)C=C3)cc1
REMARK SMILES IDX 4 1 3 2 1 3 2 4 28 6 29 7 87 8 30 9 86 10 31 11 32 12 33 13
REMARK SMILES IDX 80 14 34 15 85 16 79 17 81 18 35 19 84 20 78 21 77 22 36 24
REMARK SMILES IDX 66 25 47 26 65 27 48 28 51 29 64 30 82 31 49 32 50 33 63 35
REMARK SMILES IDX 83 36 52 37 37 38 38 39 46 40 39 41 45 42 40 43 41 44 42 45
REMARK SMILES IDX 43 46 44 47 67 48 68 49 76 50 69 51 75 52 70 53 71 54 72 55
REMARK SMILES IDX 73 56 74 57 53 58 54 59 62 60 55 61 61 62 56 63 57 64 58 65
REMARK SMILES IDX 59 66 60 67 5 68 6 69 7 70 8 71 9 72 10 74 11 75 12 76 27 77
REMARK SMILES IDX 13 78 23 80 26 81 14 82 18 83 24 84 25 85 15 86 17 87 16 88
REMARK SMILES IDX 19 89 20 90 21 91 22 92
REMARK H PARENT 3 5 81 23 51 34 8 73 12 79
REMARK Flexibility Score: inf
ROOT
ATOM      1  C   UNL A   1      36.630  23.424  25.771  1.00  0.00     0.116 C 
ENDROOT
BRANCH   1   2
ATOM      2  N   UNL A   1      37.766  22.521  25.867  1.00  0.00    -0.352 N 
ATOM      3  O   UNL A   1      39.898  21.870  26.168  1.00  0.00    -0.269 OA
ATOM      4  C   UNL A   1      39.052  22.746  26.303  1.00  0.00     0.251 C 
ATOM      5  H   UNL A   1      37.586  21.598  25.575  1.00  0.00     0.163 HD
BRANCH   4   6
ATOM      6  C   UNL A   1      39.423  24.045  26.913  1.00  0.00     0.039 A 
ATOM      7  C   UNL A   1      40.065  25.007  26.129  1.00  0.00     0.014 A 
ATOM      8  C   UNL A   1      39.171  24.307  28.260  1.00  0.00     0.014 A 
ATOM      9  C   UNL A   1      40.415  26.239  26.690  1.00  0.00     0.010 A 
ATOM     10  C   UNL A   1      39.400  25.576  28.780  1.00  0.00     0.010 A 
ATOM     11  C   UNL A   1      40.071  26.541  28.018  1.00  0.00    -0.014 A 
BRANCH  11  12
ATOM     12  C   UNL A   1      40.499  27.811  28.662  1.00  0.00     0.031 A 
ATOM     13  C   UNL A   1      41.937  27.976  29.088  1.00  0.00     0.074 A 
ATOM     14  C   UNL A   1      39.611  28.804  28.872  1.00  0.00     0.049 A 
ATOM     15  N   UNL A   1      42.511  28.997  29.670  1.00  0.00    -0.248 NA
ATOM     16  C   UNL A   1      42.848  26.838  28.858  1.00  0.00     0.031 C 
ATOM     17  C   UNL A   1      38.189  28.756  28.524  1.00  0.00     0.029 A 
ATOM     18  N   UNL A   1      39.777  30.059  29.409  1.00  0.00    -0.354 N 
ATOM     19  C   UNL A   1      43.831  28.617  29.883  1.00  0.00     0.074 A 
ATOM     20  C   UNL A   1      43.962  27.250  29.444  1.00  0.00     0.031 C 
ATOM     21  C   UNL A   1      37.630  29.947  28.793  1.00  0.00     0.029 A 
ATOM     22  C   UNL A   1      38.637  30.831  29.376  1.00  0.00     0.049 A 
ATOM     23  H   UNL A   1      40.631  30.375  29.782  1.00  0.00     0.167 HD
ATOM     24  C   UNL A   1      44.857  29.356  30.360  1.00  0.00     0.031 A 
ATOM     25  C   UNL A   1      38.432  32.111  29.751  1.00  0.00     0.031 A 
ATOM     26  C   UNL A   1      44.737  30.737  30.739  1.00  0.00     0.049 A 
ATOM     27  C   UNL A   1      39.592  32.911  30.283  1.00  0.00     0.074 A 
ATOM     28  C   UNL A   1      45.734  31.590  31.180  1.00  0.00     0.029 A 
ATOM     29  N   UNL A   1      43.564  31.472  30.702  1.00  0.00    -0.354 N 
ATOM     30  N   UNL A   1      40.844  32.548  30.431  1.00  0.00    -0.248 NA
ATOM     31  C   UNL A   1      39.320  34.300  30.677  1.00  0.00     0.031 C 
ATOM     32  C   UNL A   1      45.149  32.820  31.481  1.00  0.00     0.029 A 
ATOM     33  C   UNL A   1      43.807  32.763  31.136  1.00  0.00     0.049 A 
ATOM     34  H   UNL A   1      42.688  31.128  30.412  1.00  0.00     0.167 HD
ATOM     35  C   UNL A   1      41.516  33.676  30.893  1.00  0.00     0.074 A 
ATOM     36  C   UNL A   1      40.535  34.736  30.989  1.00  0.00     0.031 C 
ATOM     37  C   UNL A   1      42.828  33.819  31.203  1.00  0.00     0.031 A 
BRANCH  24  38
ATOM     38  C   UNL A   1      46.221  28.719  30.465  1.00  0.00    -0.014 A 
ATOM     39  C   UNL A   1      47.068  28.700  29.341  1.00  0.00     0.010 A 
ATOM     40  C   UNL A   1      46.600  28.011  31.619  1.00  0.00     0.010 A 
ATOM     41  C   UNL A   1      48.237  27.937  29.349  1.00  0.00     0.020 A 
ATOM     42  C   UNL A   1      47.788  27.276  31.644  1.00  0.00     0.020 A 
ATOM     43  C   UNL A   1      48.581  27.217  30.495  1.00  0.00     0.054 A 
BRANCH  43  44
ATOM     44  S   UNL A   1      50.057  26.165  30.454  1.00  0.00     0.124 S 
ATOM     45  O   UNL A   1      51.117  27.111  30.793  1.00  0.00    -0.237 OA
ATOM     46  O   UNL A   1      49.759  25.159  31.471  1.00  0.00    -0.237 OA
ATOM     47  O   UNL A   1      50.084  25.663  29.082  1.00  0.00    -0.744 OA
ENDBRANCH  43  44
ENDBRANCH  24  38
BRANCH  25  48
ATOM     48  C   UNL A   1      37.091  32.734  29.550  1.00  0.00    -0.014 A 
ATOM     49  C   UNL A   1      36.698  33.218  28.289  1.00  0.00     0.010 A 
ATOM     50  C   UNL A   1      36.215  32.896  30.640  1.00  0.00     0.010 A 
ATOM     51  C   UNL A   1      35.484  33.893  28.131  1.00  0.00     0.020 A 
ATOM     52  C   UNL A   1      34.983  33.539  30.479  1.00  0.00     0.020 A 
ATOM     53  C   UNL A   1      34.638  34.058  29.231  1.00  0.00     0.054 A 
BRANCH  53  54
ATOM     54  S   UNL A   1      33.087  34.972  29.007  1.00  0.00     0.124 S 
ATOM     55  O   UNL A   1      32.404  34.160  28.005  1.00  0.00    -0.237 OA
ATOM     56  O   UNL A   1      32.504  34.942  30.346  1.00  0.00    -0.237 OA
ATOM     57  O   UNL A   1      33.527  36.288  28.552  1.00  0.00    -0.744 OA
ENDBRANCH  53  54
ENDBRANCH  25  48
BRANCH  37  58
ATOM     58  C   UNL A   1      43.323  35.175  31.642  1.00  0.00    -0.014 A 
ATOM     59  C   UNL A   1      43.173  35.559  32.989  1.00  0.00     0.010 A 
ATOM     60  C   UNL A   1      43.797  36.115  30.712  1.00  0.00     0.010 A 
ATOM     61  C   UNL A   1      43.451  36.867  33.391  1.00  0.00     0.020 A 
ATOM     62  C   UNL A   1      44.114  37.416  31.119  1.00  0.00     0.020 A 
ATOM     63  C   UNL A   1      43.913  37.789  32.450  1.00  0.00     0.054 A 
BRANCH  63  64
ATOM     64  S   UNL A   1      44.244  39.490  32.987  1.00  0.00     0.124 S 
ATOM     65  O   UNL A   1      45.355  39.308  33.917  1.00  0.00    -0.237 OA
ATOM     66  O   UNL A   1      44.574  40.165  31.734  1.00  0.00    -0.237 OA
ATOM     67  O   UNL A   1      42.983  39.907  33.597  1.00  0.00    -0.744 OA
ENDBRANCH  63  64
ENDBRANCH  37  58
ENDBRANCH  11  12
ENDBRANCH   4   6
ENDBRANCH   1   2
BRANCH   1  68
ATOM     68  C   UNL A   1      35.371  22.882  26.431  1.00  0.00     0.023 C 
BRANCH  68  69
ATOM     69  C   UNL A   1      34.062  23.329  25.801  1.00  0.00     0.023 C 
BRANCH  69  70
ATOM     70  C   UNL A   1      33.718  24.806  25.937  1.00  0.00     0.116 C 
BRANCH  70  71
ATOM     71  N   UNL A   1      33.987  25.605  24.761  1.00  0.00    -0.354 N 
ATOM     72  C   UNL A   1      33.649  26.900  24.486  1.00  0.00     0.242 C 
ATOM     73  H   UNL A   1      34.489  25.146  24.050  1.00  0.00     0.163 HD
ATOM     74  O   UNL A   1      34.106  27.379  23.439  1.00  0.00    -0.273 OA
BRANCH  72  75
ATOM     75  C   UNL A   1      32.674  27.745  25.344  1.00  0.00     0.173 C 
ATOM     76  N   UNL A   1      31.399  28.082  24.675  1.00  0.00    -0.373 N 
ATOM     77  C   UNL A   1      33.372  29.018  25.795  1.00  0.00     0.036 C 
ATOM     78  C   UNL A   1      30.840  29.360  24.685  1.00  0.00     0.051 A 
ATOM     79  H   UNL A   1      30.918  27.367  24.197  1.00  0.00     0.161 HD
ATOM     80  C   UNL A   1      32.367  29.864  26.583  1.00  0.00     0.049 C 
ATOM     81  C   UNL A   1      34.573  28.908  26.732  1.00  0.00     0.034 C 
ATOM     82  C   UNL A   1      31.321  30.329  25.608  1.00  0.00    -0.017 A 
ATOM     83  C   UNL A   1      29.884  29.759  23.731  1.00  0.00     0.079 A 
ATOM     84  C   UNL A   1      33.301  30.815  27.265  1.00  0.00    -0.023 C 
ATOM     85  C   UNL A   1      34.518  30.262  27.388  1.00  0.00    -0.030 C 
ATOM     86  C   UNL A   1      30.789  31.623  25.632  1.00  0.00     0.006 A 
ATOM     87  C   UNL A   1      29.389  31.081  23.754  1.00  0.00     0.015 A 
ATOM     88  C   UNL A   1      29.825  31.999  24.704  1.00  0.00     0.001 A 
BRANCH  83  89
ATOM     89  C   UNL A   1      29.421  28.869  22.606  1.00  0.00     0.418 C 
ATOM     90  F   UNL A   1      30.435  28.496  21.774  1.00  0.00    -0.166 F 
ATOM     91  F   UNL A   1      28.873  27.705  23.064  1.00  0.00    -0.166 F 
ATOM     92  F   UNL A   1      28.471  29.422  21.796  1.00  0.00    -0.166 F 
ENDBRANCH  83  89
ENDBRANCH  72  75
ENDBRANCH  70  71
ENDBRANCH  69  70
ENDBRANCH  68  69
ENDBRANCH   1  68
TORSDOF 15
ENDMDL
MODEL 2
REMARK VINA RESULT:     -11.6      1.707      2.457
REMARK SMILES O=C(NCCCCNC(=O)[C@@H]1Nc2c(cccc2C(F)(F)F)[C@@H]2C=CC[C@@H]12)c1ccc(-c2c3nc(c(-c4ccc(S(=O)(=O)[O-])cc4)c4ccc([nH]4)c(-c4ccc(S(=O)(=O)[O-])cc4)c4nc(c(-c5ccc(S(=O)(=O)[O-])cc5)c5ccc2[nH]5)C=C4)C=C3)cc1
REMARK SMILES IDX 4 1 3 2 1 3 2 4 28 6 29 7 87 8 30 9 86 10 31 11 32 12 33 13
REMARK SMILES IDX 80 14 34 15 85 16 79 17 81 18 35 19 84 20 78 21 77 22 36 24
REMARK SMILES IDX 66 25 47 26 65 27 48 28 51 29 64 30 82 31 49 32 50 33 63 35
REMARK SMILES IDX 83 36 52 37 37 38 38 39 46 40 39 41 45 42 40 43 41 44 42 45
REMARK SMILES IDX 43 46 44 47 67 48 68 49 76 50 69 51 75 52 70 53 71 54 72 55
REMARK SMILES IDX 73 56 74 57 53 58 54 59 62 60 55 61 61 62 56 63 57 64 58 65
REMARK SMILES IDX 59 66 60 67 5 68 6 69 7 70 8 71 9 72 10 74 11 75 12 76 27 77
REMARK SMILES IDX 13 78 23 80 26 81 14 82 18 83 24 84 25 85 15 86 17 87 16 88
REMARK SMILES IDX 19 89 20 90 21 91 22 92
REMARK H PARENT 3 5 81 23 51 34 8 73 12 79
REMARK Flexibility Score: inf
ROOT
ATOM      1  C   UNL A   1      36.950  23.711  24.974  1.00  0.00     0.116 C 
ENDROOT
BRANCH   1   2
ATOM      2  N   UNL A   1      37.937  22.703  25.326  1.00  0.00    -0.352 N 
ATOM      3  O   UNL A   1      39.865  21.853  26.115  1.00  0.00    -0.269 OA
ATOM      4  C   UNL A   1      39.100  22.809  26.056  1.00  0.00     0.251 C 
ATOM      5  H   UNL A   1      37.743  21.799  24.990  1.00  0.00     0.163 HD
BRANCH   4   6
ATOM      6  C   UNL A   1      39.441  24.073  26.750  1.00  0.00     0.039 A 
ATOM      7  C   UNL A   1      40.142  25.063  26.057  1.00  0.00     0.014 A 
ATOM      8  C   UNL A   1      39.102  24.275  28.089  1.00  0.00     0.014 A 
ATOM      9  C   UNL A   1      40.464  26.263  26.697  1.00  0.00     0.010 A 
ATOM     10  C   UNL A   1      39.308  25.515  28.682  1.00  0.00     0.010 A 
ATOM     11  C   UNL A   1      40.036  26.507  28.013  1.00  0.00    -0.014 A 
BRANCH  11  12
ATOM     12  C   UNL A   1      40.431  27.740  28.743  1.00  0.00     0.031 A 
ATOM     13  C   UNL A   1      41.840  27.868  29.268  1.00  0.00     0.074 A 
ATOM     14  C   UNL A   1      39.539  28.731  28.943  1.00  0.00     0.049 A 
ATOM     15  N   UNL A   1      42.383  28.855  29.934  1.00  0.00    -0.248 NA
ATOM     16  C   UNL A   1      42.755  26.733  29.042  1.00  0.00     0.031 C 
ATOM     17  C   UNL A   1      38.142  28.715  28.503  1.00  0.00     0.029 A 
ATOM     18  N   UNL A   1      39.679  29.957  29.550  1.00  0.00    -0.354 N 
ATOM     19  C   UNL A   1      43.684  28.451  30.213  1.00  0.00     0.074 A 
ATOM     20  C   UNL A   1      43.832  27.105  29.718  1.00  0.00     0.031 C 
ATOM     21  C   UNL A   1      37.576  29.898  28.792  1.00  0.00     0.029 A 
ATOM     22  C   UNL A   1      38.550  30.743  29.480  1.00  0.00     0.049 A 
ATOM     23  H   UNL A   1      40.510  30.246  29.992  1.00  0.00     0.167 HD
ATOM     24  C   UNL A   1      44.682  29.155  30.790  1.00  0.00     0.031 A 
ATOM     25  C   UNL A   1      38.331  32.005  29.903  1.00  0.00     0.031 A 
ATOM     26  C   UNL A   1      44.549  30.517  31.226  1.00  0.00     0.049 A 
ATOM     27  C   UNL A   1      39.461  32.767  30.546  1.00  0.00     0.074 A 
ATOM     28  C   UNL A   1      45.521  31.338  31.771  1.00  0.00     0.029 A 
ATOM     29  N   UNL A   1      43.386  31.267  31.150  1.00  0.00    -0.354 N 
ATOM     30  N   UNL A   1      40.698  32.383  30.757  1.00  0.00    -0.248 NA
ATOM     31  C   UNL A   1      39.175  34.139  30.988  1.00  0.00     0.031 C 
ATOM     32  C   UNL A   1      44.928  32.558  32.092  1.00  0.00     0.029 A 
ATOM     33  C   UNL A   1      43.611  32.533  31.660  1.00  0.00     0.049 A 
ATOM     34  H   UNL A   1      42.528  30.946  30.787  1.00  0.00     0.167 HD
ATOM     35  C   UNL A   1      41.347  33.481  31.314  1.00  0.00     0.074 A 
ATOM     36  C   UNL A   1      40.370  34.545  31.398  1.00  0.00     0.031 C 
ATOM     37  C   UNL A   1      42.638  33.595  31.715  1.00  0.00     0.031 A 
BRANCH  24  38
ATOM     38  C   UNL A   1      46.031  28.499  30.951  1.00  0.00    -0.014 A 
ATOM     39  C   UNL A   1      47.003  28.650  29.945  1.00  0.00     0.010 A 
ATOM     40  C   UNL A   1      46.282  27.616  32.017  1.00  0.00     0.010 A 
ATOM     41  C   UNL A   1      48.172  27.887  29.969  1.00  0.00     0.020 A 
ATOM     42  C   UNL A   1      47.467  26.877  32.064  1.00  0.00     0.020 A 
ATOM     43  C   UNL A   1      48.388  26.992  31.020  1.00  0.00     0.054 A 
BRANCH  43  44
ATOM     44  S   UNL A   1      49.870  25.949  30.986  1.00  0.00     0.124 S 
ATOM     45  O   UNL A   1      49.748  25.202  32.235  1.00  0.00    -0.237 OA
ATOM     46  O   UNL A   1      49.684  25.172  29.763  1.00  0.00    -0.237 OA
ATOM     47  O   UNL A   1      50.968  26.914  30.941  1.00  0.00    -0.744 OA
ENDBRANCH  43  44
ENDBRANCH  24  38
BRANCH  25  48
ATOM     48  C   UNL A   1      37.011  32.652  29.646  1.00  0.00    -0.014 A 
ATOM     49  C   UNL A   1      36.762  33.339  28.444  1.00  0.00     0.010 A 
ATOM     50  C   UNL A   1      36.008  32.629  30.634  1.00  0.00     0.010 A 
ATOM     51  C   UNL A   1      35.561  34.029  28.254  1.00  0.00     0.020 A 
ATOM     52  C   UNL A   1      34.790  33.288  30.433  1.00  0.00     0.020 A 
ATOM     53  C   UNL A   1      34.586  34.008  29.255  1.00  0.00     0.054 A 
BRANCH  53  54
ATOM     54  S   UNL A   1      33.054  34.945  28.999  1.00  0.00     0.124 S 
ATOM     55  O   UNL A   1      32.368  34.128  28.002  1.00  0.00    -0.237 OA
ATOM     56  O   UNL A   1      32.456  34.947  30.331  1.00  0.00    -0.237 OA
ATOM     57  O   UNL A   1      33.522  36.245  28.527  1.00  0.00    -0.744 OA
ENDBRANCH  53  54
ENDBRANCH  25  48
BRANCH  37  58
ATOM     58  C   UNL A   1      43.114  34.923  32.249  1.00  0.00    -0.014 A 
ATOM     59  C   UNL A   1      42.938  35.217  33.615  1.00  0.00     0.010 A 
ATOM     60  C   UNL A   1      43.595  35.925  31.390  1.00  0.00     0.010 A 
ATOM     61  C   UNL A   1      43.199  36.499  34.106  1.00  0.00     0.020 A 
ATOM     62  C   UNL A   1      43.894  37.199  31.886  1.00  0.00     0.020 A 
ATOM     63  C   UNL A   1      43.668  37.484  33.235  1.00  0.00     0.054 A 
BRANCH  63  64
ATOM     64  S   UNL A   1      43.976  39.148  33.887  1.00  0.00     0.124 S 
ATOM     65  O   UNL A   1      43.873  38.938  35.328  1.00  0.00    -0.237 OA
ATOM     66  O   UNL A   1      45.315  39.447  33.386  1.00  0.00    -0.237 OA
ATOM     67  O   UNL A   1      42.906  39.949  33.296  1.00  0.00    -0.744 OA
ENDBRANCH  63  64
ENDBRANCH  37  58
ENDBRANCH  11  12
ENDBRANCH   4   6
ENDBRANCH   1   2
BRANCH   1  68
ATOM     68  C   UNL A   1      36.167  23.375  23.714  1.00  0.00     0.023 C 
BRANCH  68  69
ATOM     69  C   UNL A   1      34.780  22.796  23.944  1.00  0.00     0.023 C 
BRANCH  69  70
ATOM     70  C   UNL A   1      33.627  23.789  23.935  1.00  0.00     0.116 C 
BRANCH  70  71
ATOM     71  N   UNL A   1      33.066  24.083  25.236  1.00  0.00    -0.354 N 
ATOM     72  C   UNL A   1      32.366  25.177  25.662  1.00  0.00     0.242 C 
ATOM     73  H   UNL A   1      33.211  23.390  25.920  1.00  0.00     0.163 HD
ATOM     74  O   UNL A   1      31.900  25.122  26.808  1.00  0.00    -0.273 OA
BRANCH  72  75
ATOM     75  C   UNL A   1      32.211  26.482  24.842  1.00  0.00     0.173 C 
ATOM     76  N   UNL A   1      32.955  27.640  25.381  1.00  0.00    -0.373 N 
ATOM     77  C   UNL A   1      30.735  26.829  24.720  1.00  0.00     0.036 C 
ATOM     78  C   UNL A   1      32.401  28.913  25.520  1.00  0.00     0.051 A 
ATOM     79  H   UNL A   1      33.892  27.507  25.657  1.00  0.00     0.161 HD
ATOM     80  C   UNL A   1      30.614  28.156  23.964  1.00  0.00     0.049 C 
ATOM     81  C   UNL A   1      29.816  25.884  23.949  1.00  0.00     0.034 C 
ATOM     82  C   UNL A   1      31.184  29.225  24.856  1.00  0.00    -0.017 A 
ATOM     83  C   UNL A   1      32.954  29.872  26.391  1.00  0.00     0.079 A 
ATOM     84  C   UNL A   1      29.165  28.116  23.592  1.00  0.00    -0.023 C 
ATOM     85  C   UNL A   1      28.734  26.846  23.539  1.00  0.00    -0.030 C 
ATOM     86  C   UNL A   1      30.597  30.489  24.987  1.00  0.00     0.006 A 
ATOM     87  C   UNL A   1      32.324  31.127  26.534  1.00  0.00     0.015 A 
ATOM     88  C   UNL A   1      31.167  31.438  25.827  1.00  0.00     0.001 A 
BRANCH  83  89
ATOM     89  C   UNL A   1      34.148  29.596  27.270  1.00  0.00     0.418 C 
ATOM     90  F   UNL A   1      35.284  29.345  26.557  1.00  0.00    -0.166 F 
ATOM     91  F   UNL A   1      34.447  30.655  28.079  1.00  0.00    -0.166 F 
ATOM     92  F   UNL A   1      34.003  28.529  28.110  1.00  0.00    -0.166 F 
ENDBRANCH  83  89
ENDBRANCH  72  75
ENDBRANCH  70  71
ENDBRANCH  69  70
ENDBRANCH  68  69
ENDBRANCH   1  68
TORSDOF 15
ENDMDL
MODEL 3
REMARK VINA RESULT:     -11.6      3.258     10.079
REMARK SMILES O=C(NCCCCNC(=O)[C@@H]1Nc2c(cccc2C(F)(F)F)[C@@H]2C=CC[C@@H]12)c1ccc(-c2c3nc(c(-c4ccc(S(=O)(=O)[O-])cc4)c4ccc([nH]4)c(-c4ccc(S(=O)(=O)[O-])cc4)c4nc(c(-c5ccc(S(=O)(=O)[O-])cc5)c5ccc2[nH]5)C=C4)C=C3)cc1
REMARK SMILES IDX 4 1 3 2 1 3 2 4 28 6 29 7 87 8 30 9 86 10 31 11 32 12 33 13
REMARK SMILES IDX 80 14 34 15 85 16 79 17 81 18 35 19 84 20 78 21 77 22 36 24
REMARK SMILES IDX 66 25 47 26 65 27 48 28 51 29 64 30 82 31 49 32 50 33 63 35
REMARK SMILES IDX 83 36 52 37 37 38 38 39 46 40 39 41 45 42 40 43 41 44 42 45
REMARK SMILES IDX 43 46 44 47 67 48 68 49 76 50 69 51 75 52 70 53 71 54 72 55
REMARK SMILES IDX 73 56 74 57 53 58 54 59 62 60 55 61 61 62 56 63 57 64 58 65
REMARK SMILES IDX 59 66 60 67 5 68 6 69 7 70 8 71 9 72 10 74 11 75 12 76 27 77
REMARK SMILES IDX 13 78 23 80 26 81 14 82 18 83 24 84 25 85 15 86 17 87 16 88
REMARK SMILES IDX 19 89 20 90 21 91 22 92
REMARK H PARENT 3 5 81 23 51 34 8 73 12 79
REMARK Flexibility Score: inf
ROOT
ATOM      1  C   UNL A   1      33.649  28.645  26.939  1.00  0.00     0.116 C 
ENDROOT
BRANCH   1   2
ATOM      2  N   UNL A   1      33.530  30.007  27.436  1.00  0.00    -0.352 N 
ATOM      3  O   UNL A   1      34.056  31.860  28.598  1.00  0.00    -0.269 OA
ATOM      4  C   UNL A   1      34.416  30.775  28.156  1.00  0.00     0.251 C 
ATOM      5  H   UNL A   1      32.678  30.451  27.223  1.00  0.00     0.163 HD
BRANCH   4   6
ATOM      6  C   UNL A   1      35.793  30.292  28.415  1.00  0.00     0.039 A 
ATOM      7  C   UNL A   1      36.086  29.700  29.647  1.00  0.00     0.014 A 
ATOM      8  C   UNL A   1      36.804  30.447  27.466  1.00  0.00     0.014 A 
ATOM      9  C   UNL A   1      37.379  29.234  29.904  1.00  0.00     0.010 A 
ATOM     10  C   UNL A   1      38.050  29.868  27.671  1.00  0.00     0.010 A 
ATOM     11  C   UNL A   1      38.370  29.299  28.911  1.00  0.00    -0.014 A 
BRANCH  11  12
ATOM     12  C   UNL A   1      39.771  28.883  29.183  1.00  0.00     0.031 A 
ATOM     13  C   UNL A   1      40.680  29.807  29.955  1.00  0.00     0.074 A 
ATOM     14  C   UNL A   1      40.230  27.695  28.738  1.00  0.00     0.049 A 
ATOM     15  N   UNL A   1      41.933  29.637  30.292  1.00  0.00    -0.248 NA
ATOM     16  C   UNL A   1      40.124  31.104  30.385  1.00  0.00     0.031 C 
ATOM     17  C   UNL A   1      39.454  26.725  27.962  1.00  0.00     0.029 A 
ATOM     18  N   UNL A   1      41.455  27.090  28.892  1.00  0.00    -0.354 N 
ATOM     19  C   UNL A   1      42.308  30.802  30.952  1.00  0.00     0.074 A 
ATOM     20  C   UNL A   1      41.184  31.704  30.904  1.00  0.00     0.031 C 
ATOM     21  C   UNL A   1      40.197  25.623  27.768  1.00  0.00     0.029 A 
ATOM     22  C   UNL A   1      41.517  25.821  28.363  1.00  0.00     0.049 A 
ATOM     23  H   UNL A   1      42.216  27.525  29.341  1.00  0.00     0.167 HD
ATOM     24  C   UNL A   1      43.470  31.079  31.583  1.00  0.00     0.031 A 
ATOM     25  C   UNL A   1      42.515  24.912  28.373  1.00  0.00     0.031 A 
ATOM     26  C   UNL A   1      44.565  30.154  31.681  1.00  0.00     0.049 A 
ATOM     27  C   UNL A   1      43.802  25.249  29.080  1.00  0.00     0.074 A 
ATOM     28  C   UNL A   1      45.765  30.320  32.351  1.00  0.00     0.029 A 
ATOM     29  N   UNL A   1      44.589  28.888  31.119  1.00  0.00    -0.354 N 
ATOM     30  N   UNL A   1      44.118  26.338  29.740  1.00  0.00    -0.248 NA
ATOM     31  C   UNL A   1      44.858  24.227  29.066  1.00  0.00     0.031 C 
ATOM     32  C   UNL A   1      46.544  29.185  32.131  1.00  0.00     0.029 A 
ATOM     33  C   UNL A   1      45.794  28.272  31.406  1.00  0.00     0.049 A 
ATOM     34  H   UNL A   1      43.859  28.487  30.593  1.00  0.00     0.167 HD
ATOM     35  C   UNL A   1      45.391  26.113  30.257  1.00  0.00     0.074 A 
ATOM     36  C   UNL A   1      45.781  24.782  29.841  1.00  0.00     0.031 C 
ATOM     37  C   UNL A   1      46.163  26.936  31.010  1.00  0.00     0.031 A 
BRANCH  24  38
ATOM     38  C   UNL A   1      43.623  32.416  32.264  1.00  0.00    -0.014 A 
ATOM     39  C   UNL A   1      43.422  32.517  33.653  1.00  0.00     0.010 A 
ATOM     40  C   UNL A   1      43.813  33.591  31.514  1.00  0.00     0.010 A 
ATOM     41  C   UNL A   1      43.348  33.767  34.270  1.00  0.00     0.020 A 
ATOM     42  C   UNL A   1      43.776  34.843  32.133  1.00  0.00     0.020 A 
ATOM     43  C   UNL A   1      43.509  34.923  33.502  1.00  0.00     0.054 A 
BRANCH  43  44
ATOM     44  S   UNL A   1      43.324  36.537  34.307  1.00  0.00     0.124 S 
ATOM     45  O   UNL A   1      41.882  36.609  34.524  1.00  0.00    -0.237 OA
ATOM     46  O   UNL A   1      44.139  36.387  35.510  1.00  0.00    -0.237 OA
ATOM     47  O   UNL A   1      43.854  37.476  33.319  1.00  0.00    -0.744 OA
ENDBRANCH  43  44
ENDBRANCH  24  38
BRANCH  25  48
ATOM     48  C   UNL A   1      42.295  23.567  27.766  1.00  0.00    -0.014 A 
ATOM     49  C   UNL A   1      41.772  22.505  28.526  1.00  0.00     0.010 A 
ATOM     50  C   UNL A   1      42.663  23.325  26.428  1.00  0.00     0.010 A 
ATOM     51  C   UNL A   1      41.667  21.222  27.980  1.00  0.00     0.020 A 
ATOM     52  C   UNL A   1      42.525  22.052  25.867  1.00  0.00     0.020 A 
ATOM     53  C   UNL A   1      42.054  21.002  26.656  1.00  0.00     0.054 A 
BRANCH  53  54
ATOM     54  S   UNL A   1      41.944  19.319  25.985  1.00  0.00     0.124 S 
ATOM     55  O   UNL A   1      40.519  19.211  25.682  1.00  0.00    -0.237 OA
ATOM     56  O   UNL A   1      42.832  19.380  24.827  1.00  0.00    -0.237 OA
ATOM     57  O   UNL A   1      42.414  18.480  27.085  1.00  0.00    -0.744 OA
ENDBRANCH  53  54
ENDBRANCH  25  48
BRANCH  37  58
ATOM     58  C   UNL A   1      47.502  26.432  31.488  1.00  0.00    -0.014 A 
ATOM     59  C   UNL A   1      48.614  26.514  30.628  1.00  0.00     0.010 A 
ATOM     60  C   UNL A   1      47.633  25.756  32.713  1.00  0.00     0.010 A 
ATOM     61  C   UNL A   1      49.821  25.896  30.965  1.00  0.00     0.020 A 
ATOM     62  C   UNL A   1      48.851  25.170  33.071  1.00  0.00     0.020 A 
ATOM     63  C   UNL A   1      49.928  25.221  32.183  1.00  0.00     0.054 A 
BRANCH  63  64
ATOM     64  S   UNL A   1      51.495  24.405  32.590  1.00  0.00     0.124 S 
ATOM     65  O   UNL A   1      52.449  25.137  31.763  1.00  0.00    -0.237 OA
ATOM     66  O   UNL A   1      51.609  24.626  34.030  1.00  0.00    -0.237 OA
ATOM     67  O   UNL A   1      51.269  23.015  32.199  1.00  0.00    -0.744 OA
ENDBRANCH  63  64
ENDBRANCH  37  58
ENDBRANCH  11  12
ENDBRANCH   4   6
ENDBRANCH   1   2
BRANCH   1  68
ATOM     68  C   UNL A   1      32.327  27.893  26.918  1.00  0.00     0.023 C 
BRANCH  68  69
ATOM     69  C   UNL A   1      31.776  27.583  25.536  1.00  0.00     0.023 C 
BRANCH  69  70
ATOM     70  C   UNL A   1      31.914  26.142  25.064  1.00  0.00     0.116 C 
BRANCH  70  71
ATOM     71  N   UNL A   1      32.831  25.948  23.961  1.00  0.00    -0.354 N 
ATOM     72  C   UNL A   1      33.509  24.827  23.573  1.00  0.00     0.242 C 
ATOM     73  H   UNL A   1      32.992  26.745  23.407  1.00  0.00     0.163 HD
ATOM     74  O   UNL A   1      34.149  24.908  22.515  1.00  0.00    -0.273 OA
BRANCH  72  75
ATOM     75  C   UNL A   1      33.593  23.528  24.412  1.00  0.00     0.173 C 
ATOM     76  N   UNL A   1      34.872  23.341  25.132  1.00  0.00    -0.373 N 
ATOM     77  C   UNL A   1      33.326  22.329  23.516  1.00  0.00     0.036 C 
ATOM     78  C   UNL A   1      35.578  22.138  25.144  1.00  0.00     0.051 A 
ATOM     79  H   UNL A   1      35.245  24.106  25.628  1.00  0.00     0.161 HD
ATOM     80  C   UNL A   1      33.481  21.057  24.355  1.00  0.00     0.049 C 
ATOM     81  C   UNL A   1      31.948  22.180  22.875  1.00  0.00     0.034 C 
ATOM     82  C   UNL A   1      34.936  20.943  24.719  1.00  0.00    -0.017 A 
ATOM     83  C   UNL A   1      36.949  22.085  25.464  1.00  0.00     0.079 A 
ATOM     84  C   UNL A   1      32.803  20.067  23.460  1.00  0.00    -0.023 C 
ATOM     85  C   UNL A   1      31.915  20.689  22.669  1.00  0.00    -0.030 C 
ATOM     86  C   UNL A   1      35.623  19.724  24.708  1.00  0.00     0.006 A 
ATOM     87  C   UNL A   1      37.628  20.849  25.411  1.00  0.00     0.015 A 
ATOM     88  C   UNL A   1      36.969  19.678  25.053  1.00  0.00     0.001 A 
BRANCH  83  89
ATOM     89  C   UNL A   1      37.771  23.312  25.771  1.00  0.00     0.418 C 
ATOM     90  F   UNL A   1      37.294  24.016  26.837  1.00  0.00    -0.166 F 
ATOM     91  F   UNL A   1      39.063  22.999  26.084  1.00  0.00    -0.166 F 
ATOM     92  F   UNL A   1      37.855  24.212  24.748  1.00  0.00    -0.166 F 
ENDBRANCH  83  89
ENDBRANCH  72  75
ENDBRANCH  70  71
ENDBRANCH  69  70
ENDBRANCH  68  69
ENDBRANCH   1  68
TORSDOF 15
ENDMDL
