MODEL 1
REMARK VINA RESULT:     -11.0      0.000      0.000
REMARK SMILES CC[C@@H]1CCC[C@@](CC[NH+]2CCOCC2)(C(=O)NCCCCNC(=O)c2ccc(-c3c4nc(c(-c5ccc(S(=O)(=O)[O-])cc5)c5ccc([nH]5)c(-c5ccc(S(=O)(=O)[O-])cc5)c5nc(c(-c6ccc(S(=O)(=O)[O-])cc6)c6ccc3[nH]6)C=C5)C=C4)cc2)C1
REMARK SMILES IDX 20 1 19 2 18 3 16 4 17 5 7 7 3 8 4 9 86 10 5 11 6 12 2 13
REMARK SMILES IDX 1 14 8 15 9 16 10 17 11 18 15 19 12 21 14 22 13 23 21 24
REMARK SMILES IDX 22 25 23 26 24 27 25 29 26 30 27 31 85 32 28 33 84 34 29 35
REMARK SMILES IDX 30 36 31 37 78 38 32 39 83 40 77 41 79 42 33 43 82 44 76 45
REMARK SMILES IDX 75 46 34 48 64 49 45 50 63 51 46 52 49 53 62 54 80 55 47 56
REMARK SMILES IDX 48 57 61 59 81 60 50 61 35 62 36 63 44 64 37 65 43 66 38 67
REMARK SMILES IDX 39 68 40 69 41 70 42 71 65 72 66 73 74 74 67 75 73 76 68 77
REMARK SMILES IDX 69 78 70 79 71 80 72 81 51 82 52 83 60 84 53 85 59 86 54 87
REMARK SMILES IDX 55 88 56 89 57 90 58 91
REMARK H PARENT 18 6 10 20 23 28 79 47 49 58
REMARK Flexibility Score: inf
ROOT
ATOM      1  C   UNL A   1      36.862  20.182  24.974  1.00  0.00     0.023 C 
ENDROOT
BRANCH   1   2
ATOM      2  C   UNL A   1      36.899  21.652  25.372  1.00  0.00     0.116 C 
BRANCH   2   3
ATOM      3  N   UNL A   1      35.968  21.962  26.437  1.00  0.00    -0.356 N 
ATOM      4  C   UNL A   1      34.614  22.068  26.468  1.00  0.00     0.226 C 
ATOM      5  O   UNL A   1      34.115  22.140  27.597  1.00  0.00    -0.274 OA
ATOM      6  H   UNL A   1      36.399  22.127  27.307  1.00  0.00     0.163 HD
BRANCH   4   7
ATOM      7  C   UNL A   1      33.729  22.139  25.199  1.00  0.00     0.055 C 
ATOM      8  C   UNL A   1      32.203  24.134  26.078  1.00  0.00    -0.010 C 
ATOM      9  C   UNL A   1      32.990  25.102  25.184  1.00  0.00     0.003 C 
ATOM     10  C   UNL A   1      32.301  22.683  25.583  1.00  0.00     0.020 C 
ATOM     11  C   UNL A   1      34.373  24.584  24.810  1.00  0.00     0.001 C 
ATOM     12  C   UNL A   1      34.294  23.180  24.197  1.00  0.00     0.017 C 
BRANCH   8  13
ATOM     13  C   UNL A   1      30.731  24.605  26.167  1.00  0.00     0.000 C 
ATOM     14  C   UNL A   1      30.519  26.096  25.932  1.00  0.00     0.004 C 
ENDBRANCH   8  13
BRANCH   7  15
ATOM     15  C   UNL A   1      33.395  20.755  24.537  1.00  0.00     0.078 C 
BRANCH  15  16
ATOM     16  C   UNL A   1      33.205  19.421  25.271  1.00  0.00     0.263 C 
BRANCH  16  17
ATOM     17  N   UNL A   1      32.446  18.327  24.661  1.00  0.00    -0.331 N 
ATOM     18  C   UNL A   1      32.451  17.115  25.519  1.00  0.00     0.291 C 
ATOM     19  C   UNL A   1      32.795  17.921  23.288  1.00  0.00     0.291 C 
ATOM     20  H   UNL A   1      31.519  18.748  24.584  1.00  0.00     0.348 HD
ATOM     21  C   UNL A   1      33.715  16.245  25.356  1.00  0.00     0.221 C 
ATOM     22  C   UNL A   1      34.028  17.021  23.161  1.00  0.00     0.221 C 
ATOM     23  O   UNL A   1      33.920  15.864  23.992  1.00  0.00    -0.370 OA
ENDBRANCH  16  17
ENDBRANCH  15  16
ENDBRANCH   7  15
ENDBRANCH   4   7
ENDBRANCH   2   3
ENDBRANCH   1   2
BRANCH   1  24
ATOM     24  C   UNL A   1      38.241  19.521  24.888  1.00  0.00     0.023 C 
BRANCH  24  25
ATOM     25  C   UNL A   1      39.296  20.082  25.840  1.00  0.00     0.116 C 
BRANCH  25  26
ATOM     26  N   UNL A   1      40.422  19.178  26.028  1.00  0.00    -0.352 N 
ATOM     27  C   UNL A   1      41.741  19.468  26.299  1.00  0.00     0.251 C 
ATOM     28  H   UNL A   1      40.209  18.219  25.952  1.00  0.00     0.163 HD
ATOM     29  O   UNL A   1      42.586  18.590  26.268  1.00  0.00    -0.269 OA
BRANCH  27  30
ATOM     30  C   UNL A   1      42.118  20.866  26.602  1.00  0.00     0.039 A 
ATOM     31  C   UNL A   1      42.343  21.234  27.929  1.00  0.00     0.014 A 
ATOM     32  C   UNL A   1      42.285  21.793  25.571  1.00  0.00     0.014 A 
ATOM     33  C   UNL A   1      42.814  22.517  28.215  1.00  0.00     0.010 A 
ATOM     34  C   UNL A   1      42.824  23.045  25.852  1.00  0.00     0.010 A 
ATOM     35  C   UNL A   1      43.100  23.419  27.176  1.00  0.00    -0.014 A 
BRANCH  35  36
ATOM     36  C   UNL A   1      43.700  24.750  27.450  1.00  0.00     0.031 A 
ATOM     37  C   UNL A   1      42.844  25.871  27.978  1.00  0.00     0.074 A 
ATOM     38  C   UNL A   1      44.998  24.971  27.153  1.00  0.00     0.049 A 
ATOM     39  N   UNL A   1      43.174  27.114  28.217  1.00  0.00    -0.248 NA
ATOM     40  C   UNL A   1      41.430  25.564  28.249  1.00  0.00     0.031 C 
ATOM     41  C   UNL A   1      45.923  23.983  26.589  1.00  0.00     0.029 A 
ATOM     42  N   UNL A   1      45.765  26.104  27.274  1.00  0.00    -0.354 N 
ATOM     43  C   UNL A   1      42.007  27.741  28.637  1.00  0.00     0.074 A 
ATOM     44  C   UNL A   1      40.953  26.753  28.589  1.00  0.00     0.031 C 
ATOM     45  C   UNL A   1      47.132  24.545  26.438  1.00  0.00     0.029 A 
ATOM     46  C   UNL A   1      47.065  25.942  26.852  1.00  0.00     0.049 A 
ATOM     47  H   UNL A   1      45.417  26.953  27.631  1.00  0.00     0.167 HD
ATOM     48  C   UNL A   1      41.832  29.021  29.043  1.00  0.00     0.031 A 
ATOM     49  C   UNL A   1      48.085  26.821  26.795  1.00  0.00     0.031 A 
ATOM     50  C   UNL A   1      42.889  29.994  29.124  1.00  0.00     0.049 A 
ATOM     51  C   UNL A   1      47.860  28.235  27.262  1.00  0.00     0.074 A 
ATOM     52  C   UNL A   1      42.826  31.288  29.609  1.00  0.00     0.029 A 
ATOM     53  N   UNL A   1      44.195  29.782  28.713  1.00  0.00    -0.354 N 
ATOM     54  N   UNL A   1      46.771  28.780  27.747  1.00  0.00    -0.248 NA
ATOM     55  C   UNL A   1      49.008  29.151  27.185  1.00  0.00     0.031 C 
ATOM     56  C   UNL A   1      44.081  31.880  29.439  1.00  0.00     0.029 A 
ATOM     57  C   UNL A   1      44.940  30.933  28.904  1.00  0.00     0.049 A 
ATOM     58  H   UNL A   1      44.541  28.939  28.341  1.00  0.00     0.167 HD
ATOM     59  C   UNL A   1      47.113  30.091  28.064  1.00  0.00     0.074 A 
ATOM     60  C   UNL A   1      48.511  30.252  27.731  1.00  0.00     0.031 C 
ATOM     61  C   UNL A   1      46.337  31.074  28.584  1.00  0.00     0.031 A 
BRANCH  48  62
ATOM     62  C   UNL A   1      40.446  29.457  29.436  1.00  0.00    -0.014 A 
ATOM     63  C   UNL A   1      40.022  29.414  30.776  1.00  0.00     0.010 A 
ATOM     64  C   UNL A   1      39.589  30.005  28.463  1.00  0.00     0.010 A 
ATOM     65  C   UNL A   1      38.761  29.895  31.133  1.00  0.00     0.020 A 
ATOM     66  C   UNL A   1      38.336  30.510  28.821  1.00  0.00     0.020 A 
ATOM     67  C   UNL A   1      37.928  30.446  30.154  1.00  0.00     0.054 A 
BRANCH  67  68
ATOM     68  S   UNL A   1      36.324  31.126  30.661  1.00  0.00     0.124 S 
ATOM     69  O   UNL A   1      36.662  32.521  30.935  1.00  0.00    -0.237 OA
ATOM     70  O   UNL A   1      35.494  30.900  29.482  1.00  0.00    -0.237 OA
ATOM     71  O   UNL A   1      35.965  30.332  31.834  1.00  0.00    -0.744 OA
ENDBRANCH  67  68
ENDBRANCH  48  62
BRANCH  49  72
ATOM     72  C   UNL A   1      49.419  26.403  26.280  1.00  0.00    -0.014 A 
ATOM     73  C   UNL A   1      50.330  25.732  27.116  1.00  0.00     0.010 A 
ATOM     74  C   UNL A   1      49.802  26.710  24.962  1.00  0.00     0.010 A 
ATOM     75  C   UNL A   1      51.614  25.418  26.660  1.00  0.00     0.020 A 
ATOM     76  C   UNL A   1      51.074  26.370  24.492  1.00  0.00     0.020 A 
ATOM     77  C   UNL A   1      51.979  25.746  25.351  1.00  0.00     0.054 A 
BRANCH  77  78
ATOM     78  S   UNL A   1      53.650  25.330  24.777  1.00  0.00     0.124 S 
ATOM     79  O   UNL A   1      54.486  25.976  25.783  1.00  0.00    -0.237 OA
ATOM     80  O   UNL A   1      53.640  23.869  24.804  1.00  0.00    -0.237 OA
ATOM     81  O   UNL A   1      53.706  25.919  23.441  1.00  0.00    -0.744 OA
ENDBRANCH  77  78
ENDBRANCH  49  72
BRANCH  61  82
ATOM     82  C   UNL A   1      46.992  32.397  28.875  1.00  0.00    -0.014 A 
ATOM     83  C   UNL A   1      47.700  32.617  30.068  1.00  0.00     0.010 A 
ATOM     84  C   UNL A   1      46.945  33.417  27.905  1.00  0.00     0.010 A 
ATOM     85  C   UNL A   1      48.323  33.846  30.302  1.00  0.00     0.020 A 
ATOM     86  C   UNL A   1      47.591  34.636  28.123  1.00  0.00     0.020 A 
ATOM     87  C   UNL A   1      48.264  34.847  29.328  1.00  0.00     0.054 A 
BRANCH  87  88
ATOM     88  S   UNL A   1      49.117  36.418  29.636  1.00  0.00     0.124 S 
ATOM     89  O   UNL A   1      48.325  37.355  28.846  1.00  0.00    -0.237 OA
ATOM     90  O   UNL A   1      49.005  36.566  31.085  1.00  0.00    -0.237 OA
ATOM     91  O   UNL A   1      50.472  36.179  29.144  1.00  0.00    -0.744 OA
ENDBRANCH  87  88
ENDBRANCH  61  82
ENDBRANCH  35  36
ENDBRANCH  27  30
ENDBRANCH  25  26
ENDBRANCH  24  25
ENDBRANCH   1  24
TORSDOF 18
ENDMDL
MODEL 2
REMARK VINA RESULT:     -10.8      3.627      8.084
REMARK SMILES CC[C@@H]1CCC[C@@](CC[NH+]2CCOCC2)(C(=O)NCCCCNC(=O)c2ccc(-c3c4nc(c(-c5ccc(S(=O)(=O)[O-])cc5)c5ccc([nH]5)c(-c5ccc(S(=O)(=O)[O-])cc5)c5nc(c(-c6ccc(S(=O)(=O)[O-])cc6)c6ccc3[nH]6)C=C5)C=C4)cc2)C1
REMARK SMILES IDX 20 1 19 2 18 3 16 4 17 5 7 7 3 8 4 9 86 10 5 11 6 12 2 13
REMARK SMILES IDX 1 14 8 15 9 16 10 17 11 18 15 19 12 21 14 22 13 23 21 24
REMARK SMILES IDX 22 25 23 26 24 27 25 29 26 30 27 31 85 32 28 33 84 34 29 35
REMARK SMILES IDX 30 36 31 37 78 38 32 39 83 40 77 41 79 42 33 43 82 44 76 45
REMARK SMILES IDX 75 46 34 48 64 49 45 50 63 51 46 52 49 53 62 54 80 55 47 56
REMARK SMILES IDX 48 57 61 59 81 60 50 61 35 62 36 63 44 64 37 65 43 66 38 67
REMARK SMILES IDX 39 68 40 69 41 70 42 71 65 72 66 73 74 74 67 75 73 76 68 77
REMARK SMILES IDX 69 78 70 79 71 80 72 81 51 82 52 83 60 84 53 85 59 86 54 87
REMARK SMILES IDX 55 88 56 89 57 90 58 91
REMARK H PARENT 18 6 10 20 23 28 79 47 49 58
REMARK Flexibility Score: inf
ROOT
ATOM      1  C   UNL A   1      31.584  27.529  26.711  1.00  0.00     0.023 C 
ENDROOT
BRANCH   1   2
ATOM      2  C   UNL A   1      30.858  26.447  25.922  1.00  0.00     0.116 C 
BRANCH   2   3
ATOM      3  N   UNL A   1      30.891  25.161  26.587  1.00  0.00    -0.356 N 
ATOM      4  C   UNL A   1      31.773  24.128  26.540  1.00  0.00     0.226 C 
ATOM      5  O   UNL A   1      31.610  23.254  27.400  1.00  0.00    -0.274 OA
ATOM      6  H   UNL A   1      30.128  25.004  27.189  1.00  0.00     0.163 HD
BRANCH   4   7
ATOM      7  C   UNL A   1      32.888  23.999  25.474  1.00  0.00     0.055 C 
ATOM      8  C   UNL A   1      32.065  21.646  24.543  1.00  0.00    -0.010 C 
ATOM      9  C   UNL A   1      31.448  22.364  23.335  1.00  0.00     0.003 C 
ATOM     10  C   UNL A   1      33.180  22.476  25.199  1.00  0.00     0.020 C 
ATOM     11  C   UNL A   1      31.162  23.837  23.594  1.00  0.00     0.001 C 
ATOM     12  C   UNL A   1      32.410  24.564  24.111  1.00  0.00     0.017 C 
BRANCH   8  13
ATOM     13  C   UNL A   1      32.578  20.254  24.102  1.00  0.00     0.000 C 
ATOM     14  C   UNL A   1      33.904  19.832  24.722  1.00  0.00     0.004 C 
ENDBRANCH   8  13
BRANCH   7  15
ATOM     15  C   UNL A   1      34.298  24.537  25.911  1.00  0.00     0.078 C 
BRANCH  15  16
ATOM     16  C   UNL A   1      35.558  23.694  26.146  1.00  0.00     0.263 C 
BRANCH  16  17
ATOM     17  N   UNL A   1      36.722  23.818  25.265  1.00  0.00    -0.331 N 
ATOM     18  C   UNL A   1      36.762  22.728  24.258  1.00  0.00     0.291 C 
ATOM     19  C   UNL A   1      38.054  23.920  25.887  1.00  0.00     0.291 C 
ATOM     20  H   UNL A   1      36.556  24.734  24.846  1.00  0.00     0.348 HD
ATOM     21  C   UNL A   1      37.381  21.417  24.786  1.00  0.00     0.221 C 
ATOM     22  C   UNL A   1      38.663  22.598  26.362  1.00  0.00     0.221 C 
ATOM     23  O   UNL A   1      38.695  21.629  25.312  1.00  0.00    -0.370 OA
ENDBRANCH  16  17
ENDBRANCH  15  16
ENDBRANCH   7  15
ENDBRANCH   4   7
ENDBRANCH   2   3
ENDBRANCH   1   2
BRANCH   1  24
ATOM     24  C   UNL A   1      32.614  28.317  25.895  1.00  0.00     0.023 C 
BRANCH  24  25
ATOM     25  C   UNL A   1      33.873  28.729  26.655  1.00  0.00     0.116 C 
BRANCH  25  26
ATOM     26  N   UNL A   1      33.779  30.070  27.215  1.00  0.00    -0.352 N 
ATOM     27  C   UNL A   1      34.657  30.737  28.040  1.00  0.00     0.251 C 
ATOM     28  H   UNL A   1      32.970  30.574  26.967  1.00  0.00     0.163 HD
ATOM     29  O   UNL A   1      34.345  31.801  28.546  1.00  0.00    -0.269 OA
BRANCH  27  30
ATOM     30  C   UNL A   1      35.976  30.128  28.323  1.00  0.00     0.039 A 
ATOM     31  C   UNL A   1      36.965  30.169  27.340  1.00  0.00     0.014 A 
ATOM     32  C   UNL A   1      36.237  29.555  29.570  1.00  0.00     0.014 A 
ATOM     33  C   UNL A   1      38.249  29.705  27.638  1.00  0.00     0.010 A 
ATOM     34  C   UNL A   1      37.534  29.162  29.887  1.00  0.00     0.010 A 
ATOM     35  C   UNL A   1      38.554  29.237  28.927  1.00  0.00    -0.014 A 
BRANCH  35  36
ATOM     36  C   UNL A   1      39.937  28.837  29.296  1.00  0.00     0.031 A 
ATOM     37  C   UNL A   1      40.837  29.804  30.019  1.00  0.00     0.074 A 
ATOM     38  C   UNL A   1      40.408  27.631  28.913  1.00  0.00     0.049 A 
ATOM     39  N   UNL A   1      42.090  29.659  30.366  1.00  0.00    -0.248 NA
ATOM     40  C   UNL A   1      40.264  31.113  30.377  1.00  0.00     0.031 C 
ATOM     41  C   UNL A   1      39.654  26.622  28.163  1.00  0.00     0.029 A 
ATOM     42  N   UNL A   1      41.640  27.052  29.092  1.00  0.00    -0.354 N 
ATOM     43  C   UNL A   1      42.461  30.862  30.955  1.00  0.00     0.074 A 
ATOM     44  C   UNL A   1      41.314  31.740  30.888  1.00  0.00     0.031 C 
ATOM     45  C   UNL A   1      40.430  25.544  27.970  1.00  0.00     0.029 A 
ATOM     46  C   UNL A   1      41.748  25.795  28.543  1.00  0.00     0.049 A 
ATOM     47  H   UNL A   1      42.378  27.494  29.571  1.00  0.00     0.167 HD
ATOM     48  C   UNL A   1      43.646  31.200  31.515  1.00  0.00     0.031 A 
ATOM     49  C   UNL A   1      42.792  24.944  28.496  1.00  0.00     0.031 A 
ATOM     50  C   UNL A   1      44.776  30.314  31.612  1.00  0.00     0.049 A 
ATOM     51  C   UNL A   1      44.094  25.347  29.136  1.00  0.00     0.074 A 
ATOM     52  C   UNL A   1      45.987  30.537  32.242  1.00  0.00     0.029 A 
ATOM     53  N   UNL A   1      44.835  29.042  31.067  1.00  0.00    -0.354 N 
ATOM     54  N   UNL A   1      44.393  26.454  29.772  1.00  0.00    -0.248 NA
ATOM     55  C   UNL A   1      45.199  24.379  29.062  1.00  0.00     0.031 C 
ATOM     56  C   UNL A   1      46.801  29.421  32.030  1.00  0.00     0.029 A 
ATOM     57  C   UNL A   1      46.074  28.479  31.320  1.00  0.00     0.049 A 
ATOM     58  H   UNL A   1      44.105  28.604  30.573  1.00  0.00     0.167 HD
ATOM     59  C   UNL A   1      45.707  26.299  30.203  1.00  0.00     0.074 A 
ATOM     60  C   UNL A   1      46.140  24.989  29.769  1.00  0.00     0.031 C 
ATOM     61  C   UNL A   1      46.485  27.166  30.896  1.00  0.00     0.031 A 
BRANCH  48  62
ATOM     62  C   UNL A   1      43.796  32.590  32.074  1.00  0.00    -0.014 A 
ATOM     63  C   UNL A   1      43.512  32.866  33.423  1.00  0.00     0.010 A 
ATOM     64  C   UNL A   1      44.316  33.614  31.260  1.00  0.00     0.010 A 
ATOM     65  C   UNL A   1      43.729  34.143  33.944  1.00  0.00     0.020 A 
ATOM     66  C   UNL A   1      44.560  34.886  31.785  1.00  0.00     0.020 A 
ATOM     67  C   UNL A   1      44.258  35.144  33.123  1.00  0.00     0.054 A 
BRANCH  67  68
ATOM     68  S   UNL A   1      44.595  36.773  33.847  1.00  0.00     0.124 S 
ATOM     69  O   UNL A   1      43.308  37.447  33.685  1.00  0.00    -0.237 OA
ATOM     70  O   UNL A   1      44.963  36.443  35.220  1.00  0.00    -0.237 OA
ATOM     71  O   UNL A   1      45.680  37.301  33.023  1.00  0.00    -0.744 OA
ENDBRANCH  67  68
ENDBRANCH  48  62
BRANCH  49  72
ATOM     72  C   UNL A   1      42.663  23.622  27.822  1.00  0.00    -0.014 A 
ATOM     73  C   UNL A   1      42.043  22.543  28.477  1.00  0.00     0.010 A 
ATOM     74  C   UNL A   1      43.198  23.422  26.537  1.00  0.00     0.010 A 
ATOM     75  C   UNL A   1      42.000  21.279  27.881  1.00  0.00     0.020 A 
ATOM     76  C   UNL A   1      43.129  22.167  25.924  1.00  0.00     0.020 A 
ATOM     77  C   UNL A   1      42.551  21.098  26.609  1.00  0.00     0.054 A 
BRANCH  77  78
ATOM     78  S   UNL A   1      42.485  19.451  25.851  1.00  0.00     0.124 S 
ATOM     79  O   UNL A   1      42.881  18.590  26.961  1.00  0.00    -0.237 OA
ATOM     80  O   UNL A   1      41.088  19.348  25.437  1.00  0.00    -0.237 OA
ATOM     81  O   UNL A   1      43.446  19.544  24.754  1.00  0.00    -0.744 OA
ENDBRANCH  77  78
ENDBRANCH  49  72
BRANCH  61  82
ATOM     82  C   UNL A   1      47.869  26.709  31.275  1.00  0.00    -0.014 A 
ATOM     83  C   UNL A   1      48.083  25.858  32.371  1.00  0.00     0.010 A 
ATOM     84  C   UNL A   1      48.963  27.095  30.478  1.00  0.00     0.010 A 
ATOM     85  C   UNL A   1      49.375  25.426  32.686  1.00  0.00     0.020 A 
ATOM     86  C   UNL A   1      50.251  26.642  30.773  1.00  0.00     0.020 A 
ATOM     87  C   UNL A   1      50.450  25.821  31.885  1.00  0.00     0.054 A 
BRANCH  87  88
ATOM     88  S   UNL A   1      52.110  25.212  32.286  1.00  0.00     0.124 S 
ATOM     89  O   UNL A   1      52.449  26.003  33.465  1.00  0.00    -0.237 OA
ATOM     90  O   UNL A   1      51.881  23.790  32.529  1.00  0.00    -0.237 OA
ATOM     91  O   UNL A   1      52.891  25.514  31.088  1.00  0.00    -0.744 OA
ENDBRANCH  87  88
ENDBRANCH  61  82
ENDBRANCH  35  36
ENDBRANCH  27  30
ENDBRANCH  25  26
ENDBRANCH  24  25
ENDBRANCH   1  24
TORSDOF 18
ENDMDL
MODEL 3
REMARK VINA RESULT:     -10.7      6.668     10.751
REMARK SMILES CC[C@@H]1CCC[C@@](CC[NH+]2CCOCC2)(C(=O)NCCCCNC(=O)c2ccc(-c3c4nc(c(-c5ccc(S(=O)(=O)[O-])cc5)c5ccc([nH]5)c(-c5ccc(S(=O)(=O)[O-])cc5)c5nc(c(-c6ccc(S(=O)(=O)[O-])cc6)c6ccc3[nH]6)C=C5)C=C4)cc2)C1
REMARK SMILES IDX 20 1 19 2 18 3 16 4 17 5 7 7 3 8 4 9 86 10 5 11 6 12 2 13
REMARK SMILES IDX 1 14 8 15 9 16 10 17 11 18 15 19 12 21 14 22 13 23 21 24
REMARK SMILES IDX 22 25 23 26 24 27 25 29 26 30 27 31 85 32 28 33 84 34 29 35
REMARK SMILES IDX 30 36 31 37 78 38 32 39 83 40 77 41 79 42 33 43 82 44 76 45
REMARK SMILES IDX 75 46 34 48 64 49 45 50 63 51 46 52 49 53 62 54 80 55 47 56
REMARK SMILES IDX 48 57 61 59 81 60 50 61 35 62 36 63 44 64 37 65 43 66 38 67
REMARK SMILES IDX 39 68 40 69 41 70 42 71 65 72 66 73 74 74 67 75 73 76 68 77
REMARK SMILES IDX 69 78 70 79 71 80 72 81 51 82 52 83 60 84 53 85 59 86 54 87
REMARK SMILES IDX 55 88 56 89 57 90 58 91
REMARK H PARENT 18 6 10 20 23 28 79 47 49 58
REMARK Flexibility Score: inf
ROOT
ATOM      1  C   UNL A   1      32.002  30.803  26.815  1.00  0.00     0.023 C 
ENDROOT
BRANCH   1   2
ATOM      2  C   UNL A   1      31.405  30.307  25.504  1.00  0.00     0.116 C 
BRANCH   2   3
ATOM      3  N   UNL A   1      32.412  29.805  24.592  1.00  0.00    -0.356 N 
ATOM      4  C   UNL A   1      32.420  28.765  23.718  1.00  0.00     0.226 C 
ATOM      5  O   UNL A   1      33.375  28.740  22.933  1.00  0.00    -0.274 OA
ATOM      6  H   UNL A   1      33.254  30.316  24.608  1.00  0.00     0.163 HD
BRANCH   4   7
ATOM      7  C   UNL A   1      31.348  27.647  23.705  1.00  0.00     0.055 C 
ATOM      8  C   UNL A   1      33.074  25.659  23.322  1.00  0.00    -0.010 C 
ATOM      9  C   UNL A   1      32.958  25.300  24.810  1.00  0.00     0.003 C 
ATOM     10  C   UNL A   1      31.853  26.445  22.821  1.00  0.00     0.020 C 
ATOM     11  C   UNL A   1      32.472  26.458  25.671  1.00  0.00     0.001 C 
ATOM     12  C   UNL A   1      31.166  27.048  25.124  1.00  0.00     0.017 C 
BRANCH   8  13
ATOM     13  C   UNL A   1      33.293  24.365  22.501  1.00  0.00     0.000 C 
ATOM     14  C   UNL A   1      33.664  23.138  23.324  1.00  0.00     0.004 C 
ENDBRANCH   8  13
BRANCH   7  15
ATOM     15  C   UNL A   1      29.992  28.028  23.011  1.00  0.00     0.078 C 
BRANCH  15  16
ATOM     16  C   UNL A   1      29.732  29.270  22.148  1.00  0.00     0.263 C 
BRANCH  16  17
ATOM     17  N   UNL A   1      28.369  29.749  21.908  1.00  0.00    -0.331 N 
ATOM     18  C   UNL A   1      28.362  30.982  21.081  1.00  0.00     0.291 C 
ATOM     19  C   UNL A   1      27.497  29.973  23.075  1.00  0.00     0.291 C 
ATOM     20  H   UNL A   1      27.960  28.949  21.423  1.00  0.00     0.348 HD
ATOM     21  C   UNL A   1      28.606  32.274  21.889  1.00  0.00     0.221 C 
ATOM     22  C   UNL A   1      27.733  31.283  23.832  1.00  0.00     0.221 C 
ATOM     23  O   UNL A   1      27.665  32.412  22.958  1.00  0.00    -0.370 OA
ENDBRANCH  16  17
ENDBRANCH  15  16
ENDBRANCH   7  15
ENDBRANCH   4   7
ENDBRANCH   2   3
ENDBRANCH   1   2
BRANCH   1  24
ATOM     24  C   UNL A   1      31.794  32.299  27.073  1.00  0.00     0.023 C 
BRANCH  24  25
ATOM     25  C   UNL A   1      33.073  33.117  27.242  1.00  0.00     0.116 C 
BRANCH  25  26
ATOM     26  N   UNL A   1      32.855  34.355  27.979  1.00  0.00    -0.352 N 
ATOM     27  C   UNL A   1      33.460  34.803  29.132  1.00  0.00     0.251 C 
ATOM     28  H   UNL A   1      32.178  34.958  27.596  1.00  0.00     0.163 HD
ATOM     29  O   UNL A   1      33.043  35.795  29.704  1.00  0.00    -0.269 OA
BRANCH  27  30
ATOM     30  C   UNL A   1      34.608  34.047  29.679  1.00  0.00     0.039 A 
ATOM     31  C   UNL A   1      35.902  34.436  29.332  1.00  0.00     0.014 A 
ATOM     32  C   UNL A   1      34.399  32.983  30.560  1.00  0.00     0.014 A 
ATOM     33  C   UNL A   1      36.994  33.806  29.935  1.00  0.00     0.010 A 
ATOM     34  C   UNL A   1      35.485  32.408  31.214  1.00  0.00     0.010 A 
ATOM     35  C   UNL A   1      36.793  32.817  30.913  1.00  0.00    -0.014 A 
BRANCH  35  36
ATOM     36  C   UNL A   1      37.936  32.208  31.642  1.00  0.00     0.031 A 
ATOM     37  C   UNL A   1      38.296  32.692  33.022  1.00  0.00     0.074 A 
ATOM     38  C   UNL A   1      38.695  31.273  31.033  1.00  0.00     0.049 A 
ATOM     39  N   UNL A   1      39.295  32.329  33.785  1.00  0.00    -0.248 NA
ATOM     40  C   UNL A   1      37.441  33.737  33.610  1.00  0.00     0.031 C 
ATOM     41  C   UNL A   1      38.482  30.754  29.678  1.00  0.00     0.029 A 
ATOM     42  N   UNL A   1      39.808  30.598  31.469  1.00  0.00    -0.354 N 
ATOM     43  C   UNL A   1      39.204  33.118  34.926  1.00  0.00     0.074 A 
ATOM     44  C   UNL A   1      38.076  34.003  34.743  1.00  0.00     0.031 C 
ATOM     45  C   UNL A   1      39.415  29.829  29.407  1.00  0.00     0.029 A 
ATOM     46  C   UNL A   1      40.319  29.714  30.547  1.00  0.00     0.049 A 
ATOM     47  H   UNL A   1      40.203  30.733  32.361  1.00  0.00     0.167 HD
ATOM     48  C   UNL A   1      39.982  33.095  36.034  1.00  0.00     0.031 A 
ATOM     49  C   UNL A   1      41.399  28.910  30.606  1.00  0.00     0.031 A 
ATOM     50  C   UNL A   1      41.082  32.189  36.230  1.00  0.00     0.049 A 
ATOM     51  C   UNL A   1      42.239  28.902  31.857  1.00  0.00     0.074 A 
ATOM     52  C   UNL A   1      41.871  32.031  37.356  1.00  0.00     0.029 A 
ATOM     53  N   UNL A   1      41.550  31.294  35.283  1.00  0.00    -0.354 N 
ATOM     54  N   UNL A   1      42.076  29.588  32.963  1.00  0.00    -0.248 NA
ATOM     55  C   UNL A   1      43.401  28.002  31.872  1.00  0.00     0.031 C 
ATOM     56  C   UNL A   1      42.853  31.078  37.071  1.00  0.00     0.029 A 
ATOM     57  C   UNL A   1      42.637  30.600  35.789  1.00  0.00     0.049 A 
ATOM     58  H   UNL A   1      41.168  31.168  34.385  1.00  0.00     0.167 HD
ATOM     59  C   UNL A   1      43.096  29.175  33.815  1.00  0.00     0.074 A 
ATOM     60  C   UNL A   1      43.857  28.171  33.105  1.00  0.00     0.031 C 
ATOM     61  C   UNL A   1      43.375  29.591  35.075  1.00  0.00     0.031 A 
BRANCH  48  62
ATOM     62  C   UNL A   1      39.677  34.076  37.134  1.00  0.00    -0.014 A 
ATOM     63  C   UNL A   1      38.958  33.687  38.279  1.00  0.00     0.010 A 
ATOM     64  C   UNL A   1      40.198  35.382  37.064  1.00  0.00     0.010 A 
ATOM     65  C   UNL A   1      38.752  34.591  39.324  1.00  0.00     0.020 A 
ATOM     66  C   UNL A   1      40.015  36.280  38.118  1.00  0.00     0.020 A 
ATOM     67  C   UNL A   1      39.287  35.880  39.239  1.00  0.00     0.054 A 
BRANCH  67  68
ATOM     68  S   UNL A   1      39.062  37.007  40.644  1.00  0.00     0.124 S 
ATOM     69  O   UNL A   1      38.316  36.171  41.583  1.00  0.00    -0.237 OA
ATOM     70  O   UNL A   1      40.435  37.314  41.030  1.00  0.00    -0.237 OA
ATOM     71  O   UNL A   1      38.312  38.124  40.075  1.00  0.00    -0.744 OA
ENDBRANCH  67  68
ENDBRANCH  48  62
BRANCH  49  72
ATOM     72  C   UNL A   1      41.760  28.038  29.453  1.00  0.00    -0.014 A 
ATOM     73  C   UNL A   1      42.726  28.452  28.519  1.00  0.00     0.010 A 
ATOM     74  C   UNL A   1      41.108  26.807  29.260  1.00  0.00     0.010 A 
ATOM     75  C   UNL A   1      43.001  27.674  27.390  1.00  0.00     0.020 A 
ATOM     76  C   UNL A   1      41.403  26.011  28.149  1.00  0.00     0.020 A 
ATOM     77  C   UNL A   1      42.332  26.461  27.209  1.00  0.00     0.054 A 
BRANCH  77  78
ATOM     78  S   UNL A   1      42.703  25.465  25.738  1.00  0.00     0.124 S 
ATOM     79  O   UNL A   1      42.268  26.345  24.659  1.00  0.00    -0.237 OA
ATOM     80  O   UNL A   1      44.146  25.262  25.848  1.00  0.00    -0.237 OA
ATOM     81  O   UNL A   1      41.897  24.262  25.931  1.00  0.00    -0.744 OA
ENDBRANCH  77  78
ENDBRANCH  49  72
BRANCH  61  82
ATOM     82  C   UNL A   1      44.523  28.927  35.788  1.00  0.00    -0.014 A 
ATOM     83  C   UNL A   1      44.306  27.919  36.743  1.00  0.00     0.010 A 
ATOM     84  C   UNL A   1      45.842  29.282  35.449  1.00  0.00     0.010 A 
ATOM     85  C   UNL A   1      45.391  27.300  37.372  1.00  0.00     0.020 A 
ATOM     86  C   UNL A   1      46.928  28.644  36.054  1.00  0.00     0.020 A 
ATOM     87  C   UNL A   1      46.694  27.667  37.023  1.00  0.00     0.054 A 
BRANCH  87  88
ATOM     88  S   UNL A   1      48.084  26.817  37.820  1.00  0.00     0.124 S 
ATOM     89  O   UNL A   1      47.829  25.423  37.470  1.00  0.00    -0.237 OA
ATOM     90  O   UNL A   1      49.244  27.425  37.174  1.00  0.00    -0.237 OA
ATOM     91  O   UNL A   1      47.925  27.142  39.236  1.00  0.00    -0.744 OA
ENDBRANCH  87  88
ENDBRANCH  61  82
ENDBRANCH  35  36
ENDBRANCH  27  30
ENDBRANCH  25  26
ENDBRANCH  24  25
ENDBRANCH   1  24
TORSDOF 18
ENDMDL
