MODEL 1
REMARK VINA RESULT:     -12.1      0.000      0.000
REMARK SMILES Cc1cccc(CC(=O)N2CCCC[C@@H]2C(=O)NCCCCNC(=O)c2ccc(-c3c4nc(c(-c5ccc(S(=O)(=O)[O-])cc5)c5ccc([nH]5)c(-c5ccc(S(=O)(=O)[O-])cc5)c5nc(c(-c6ccc(S(=O)(=O)[O-])cc6)c6ccc3[nH]6)C=C5)C=C4)cc2)c1
REMARK SMILES IDX 20 1 19 2 18 3 16 4 17 5 15 7 10 8 11 9 12 10 14 11 13 12
REMARK SMILES IDX 8 13 9 14 7 15 6 16 1 17 2 18 3 19 86 20 4 21 5 22 21 23
REMARK SMILES IDX 22 24 23 25 24 26 25 28 26 29 27 30 85 31 28 32 84 33 29 34
REMARK SMILES IDX 30 35 31 36 78 37 32 38 83 39 77 40 79 41 33 42 82 43 76 44
REMARK SMILES IDX 75 45 34 47 64 48 45 49 63 50 46 51 49 52 62 53 80 54 47 55
REMARK SMILES IDX 48 56 61 58 81 59 50 60 35 61 36 62 44 63 37 64 43 65 38 66
REMARK SMILES IDX 39 67 40 68 41 69 42 70 65 71 66 72 74 73 67 74 73 75 68 76
REMARK SMILES IDX 69 77 70 78 71 79 72 80 51 81 52 82 60 83 53 84 59 85 54 86
REMARK SMILES IDX 55 87 56 88 57 89 58 90
REMARK H PARENT 18 6 23 27 79 46 49 57
REMARK Flexibility Score: inf
ROOT
ATOM      1  C   UNL A   1      33.577  27.668  25.683  1.00  0.00     0.023 C 
ENDROOT
BRANCH   1   2
ATOM      2  C   UNL A   1      32.968  26.630  24.728  1.00  0.00     0.116 C 
BRANCH   2   3
ATOM      3  N   UNL A   1      33.982  25.883  23.998  1.00  0.00    -0.354 N 
ATOM      4  C   UNL A   1      33.981  24.601  23.537  1.00  0.00     0.242 C 
ATOM      5  O   UNL A   1      35.055  24.149  23.114  1.00  0.00    -0.273 OA
ATOM      6  H   UNL A   1      34.805  26.389  23.805  1.00  0.00     0.163 HD
BRANCH   4   7
ATOM      7  C   UNL A   1      32.793  23.635  23.770  1.00  0.00     0.174 C 
ATOM      8  N   UNL A   1      32.764  22.866  25.035  1.00  0.00    -0.330 N 
ATOM      9  C   UNL A   1      32.011  21.613  25.031  1.00  0.00     0.120 C 
ATOM     10  C   UNL A   1      32.337  20.712  23.859  1.00  0.00     0.022 C 
ATOM     11  C   UNL A   1      32.883  22.726  22.511  1.00  0.00     0.035 C 
ATOM     12  C   UNL A   1      32.066  21.449  22.561  1.00  0.00     0.004 C 
BRANCH   8  13
ATOM     13  C   UNL A   1      32.937  23.399  26.315  1.00  0.00     0.227 C 
ATOM     14  O   UNL A   1      32.181  24.289  26.718  1.00  0.00    -0.275 OA
BRANCH  13  15
ATOM     15  C   UNL A   1      34.172  23.056  27.131  1.00  0.00     0.135 C 
BRANCH  15  16
ATOM     16  C   UNL A   1      35.439  22.757  26.380  1.00  0.00    -0.038 A 
ATOM     17  C   UNL A   1      37.066  19.698  24.813  1.00  0.00     0.044 C 
ATOM     18  C   UNL A   1      36.828  21.120  25.223  1.00  0.00    -0.051 A 
ATOM     19  C   UNL A   1      37.811  22.097  25.044  1.00  0.00     0.003 A 
ATOM     20  C   UNL A   1      35.643  21.462  25.881  1.00  0.00     0.007 A 
ATOM     21  C   UNL A   1      37.595  23.405  25.484  1.00  0.00     0.001 A 
ATOM     22  C   UNL A   1      36.408  23.738  26.141  1.00  0.00     0.004 A 
ENDBRANCH  15  16
ENDBRANCH  13  15
ENDBRANCH   8  13
ENDBRANCH   4   7
ENDBRANCH   2   3
ENDBRANCH   1   2
BRANCH   1  23
ATOM     23  C   UNL A   1      32.738  28.038  26.911  1.00  0.00     0.023 C 
BRANCH  23  24
ATOM     24  C   UNL A   1      32.627  29.527  27.173  1.00  0.00     0.116 C 
BRANCH  24  25
ATOM     25  N   UNL A   1      33.729  30.339  26.685  1.00  0.00    -0.352 N 
ATOM     26  C   UNL A   1      34.479  31.023  27.641  1.00  0.00     0.251 C 
ATOM     27  H   UNL A   1      33.935  30.403  25.724  1.00  0.00     0.163 HD
ATOM     28  O   UNL A   1      34.125  32.032  28.224  1.00  0.00    -0.269 OA
BRANCH  26  29
ATOM     29  C   UNL A   1      35.595  30.197  28.151  1.00  0.00     0.039 A 
ATOM     30  C   UNL A   1      35.697  29.766  29.472  1.00  0.00     0.014 A 
ATOM     31  C   UNL A   1      36.647  30.021  27.250  1.00  0.00     0.014 A 
ATOM     32  C   UNL A   1      36.918  29.242  29.917  1.00  0.00     0.010 A 
ATOM     33  C   UNL A   1      37.869  29.606  27.712  1.00  0.00     0.010 A 
ATOM     34  C   UNL A   1      38.013  29.224  29.049  1.00  0.00    -0.014 A 
BRANCH  34  35
ATOM     35  C   UNL A   1      39.374  28.818  29.374  1.00  0.00     0.031 A 
ATOM     36  C   UNL A   1      39.865  27.490  28.932  1.00  0.00     0.074 A 
ATOM     37  C   UNL A   1      40.248  29.763  29.784  1.00  0.00     0.049 A 
ATOM     38  N   UNL A   1      40.989  26.967  29.285  1.00  0.00    -0.248 NA
ATOM     39  C   UNL A   1      39.084  26.616  28.058  1.00  0.00     0.031 C 
ATOM     40  C   UNL A   1      41.704  29.720  29.676  1.00  0.00     0.029 A 
ATOM     41  N   UNL A   1      40.006  30.879  30.585  1.00  0.00    -0.354 N 
ATOM     42  C   UNL A   1      41.220  25.881  28.470  1.00  0.00     0.074 A 
ATOM     43  C   UNL A   1      39.966  25.649  27.794  1.00  0.00     0.031 C 
ATOM     44  C   UNL A   1      42.226  30.541  30.601  1.00  0.00     0.029 A 
ATOM     45  C   UNL A   1      41.121  30.984  31.434  1.00  0.00     0.049 A 
ATOM     46  H   UNL A   1      39.220  31.470  30.560  1.00  0.00     0.167 HD
ATOM     47  C   UNL A   1      42.485  25.383  28.356  1.00  0.00     0.031 A 
ATOM     48  C   UNL A   1      41.060  30.831  32.792  1.00  0.00     0.031 A 
ATOM     49  C   UNL A   1      43.404  26.058  29.271  1.00  0.00     0.049 A 
ATOM     50  C   UNL A   1      41.976  29.740  33.307  1.00  0.00     0.074 A 
ATOM     51  C   UNL A   1      44.350  27.055  29.100  1.00  0.00     0.029 A 
ATOM     52  N   UNL A   1      43.219  25.913  30.638  1.00  0.00    -0.354 N 
ATOM     53  N   UNL A   1      42.485  28.799  32.561  1.00  0.00    -0.248 NA
ATOM     54  C   UNL A   1      42.370  29.605  34.706  1.00  0.00     0.031 C 
ATOM     55  C   UNL A   1      44.677  27.566  30.384  1.00  0.00     0.029 A 
ATOM     56  C   UNL A   1      43.954  26.856  31.327  1.00  0.00     0.049 A 
ATOM     57  H   UNL A   1      42.643  25.233  31.057  1.00  0.00     0.167 HD
ATOM     58  C   UNL A   1      43.258  27.964  33.324  1.00  0.00     0.074 A 
ATOM     59  C   UNL A   1      43.158  28.514  34.663  1.00  0.00     0.031 C 
ATOM     60  C   UNL A   1      43.907  26.890  32.783  1.00  0.00     0.031 A 
BRANCH  47  61
ATOM     61  C   UNL A   1      42.964  24.457  27.257  1.00  0.00    -0.014 A 
ATOM     62  C   UNL A   1      43.362  23.141  27.585  1.00  0.00     0.010 A 
ATOM     63  C   UNL A   1      43.095  24.815  25.903  1.00  0.00     0.010 A 
ATOM     64  C   UNL A   1      43.932  22.271  26.641  1.00  0.00     0.020 A 
ATOM     65  C   UNL A   1      43.682  23.965  24.951  1.00  0.00     0.020 A 
ATOM     66  C   UNL A   1      44.112  22.699  25.329  1.00  0.00     0.054 A 
BRANCH  66  67
ATOM     67  S   UNL A   1      44.906  21.594  24.135  1.00  0.00     0.124 S 
ATOM     68  O   UNL A   1      46.324  21.773  24.436  1.00  0.00    -0.237 OA
ATOM     69  O   UNL A   1      44.347  20.292  24.486  1.00  0.00    -0.237 OA
ATOM     70  O   UNL A   1      44.482  22.121  22.838  1.00  0.00    -0.744 OA
ENDBRANCH  66  67
ENDBRANCH  47  61
BRANCH  48  71
ATOM     71  C   UNL A   1      39.736  31.185  33.381  1.00  0.00    -0.014 A 
ATOM     72  C   UNL A   1      39.520  32.543  33.698  1.00  0.00     0.010 A 
ATOM     73  C   UNL A   1      38.625  30.352  33.149  1.00  0.00     0.010 A 
ATOM     74  C   UNL A   1      38.247  33.103  33.567  1.00  0.00     0.020 A 
ATOM     75  C   UNL A   1      37.346  30.913  33.033  1.00  0.00     0.020 A 
ATOM     76  C   UNL A   1      37.187  32.296  33.153  1.00  0.00     0.054 A 
BRANCH  76  77
ATOM     77  S   UNL A   1      35.674  33.113  32.553  1.00  0.00     0.124 S 
ATOM     78  O   UNL A   1      36.194  34.324  31.927  1.00  0.00    -0.237 OA
ATOM     79  O   UNL A   1      35.134  32.109  31.636  1.00  0.00    -0.237 OA
ATOM     80  O   UNL A   1      34.894  33.317  33.770  1.00  0.00    -0.744 OA
ENDBRANCH  76  77
ENDBRANCH  48  71
BRANCH  60  81
ATOM     81  C   UNL A   1      44.614  25.782  33.533  1.00  0.00    -0.014 A 
ATOM     82  C   UNL A   1      43.966  24.749  34.225  1.00  0.00     0.010 A 
ATOM     83  C   UNL A   1      46.026  25.690  33.435  1.00  0.00     0.010 A 
ATOM     84  C   UNL A   1      44.689  23.709  34.829  1.00  0.00     0.020 A 
ATOM     85  C   UNL A   1      46.753  24.635  33.993  1.00  0.00     0.020 A 
ATOM     86  C   UNL A   1      46.078  23.659  34.711  1.00  0.00     0.054 A 
BRANCH  86  87
ATOM     87  S   UNL A   1      46.992  22.272  35.431  1.00  0.00     0.124 S 
ATOM     88  O   UNL A   1      46.864  21.254  34.391  1.00  0.00    -0.237 OA
ATOM     89  O   UNL A   1      48.336  22.820  35.605  1.00  0.00    -0.237 OA
ATOM     90  O   UNL A   1      46.275  21.995  36.673  1.00  0.00    -0.744 OA
ENDBRANCH  86  87
ENDBRANCH  60  81
ENDBRANCH  34  35
ENDBRANCH  26  29
ENDBRANCH  24  25
ENDBRANCH  23  24
ENDBRANCH   1  23
TORSDOF 17
ENDMDL
MODEL 2
REMARK VINA RESULT:     -12.1      2.389      4.282
REMARK SMILES Cc1cccc(CC(=O)N2CCCC[C@@H]2C(=O)NCCCCNC(=O)c2ccc(-c3c4nc(c(-c5ccc(S(=O)(=O)[O-])cc5)c5ccc([nH]5)c(-c5ccc(S(=O)(=O)[O-])cc5)c5nc(c(-c6ccc(S(=O)(=O)[O-])cc6)c6ccc3[nH]6)C=C5)C=C4)cc2)c1
REMARK SMILES IDX 20 1 19 2 18 3 16 4 17 5 15 7 10 8 11 9 12 10 14 11 13 12
REMARK SMILES IDX 8 13 9 14 7 15 6 16 1 17 2 18 3 19 86 20 4 21 5 22 21 23
REMARK SMILES IDX 22 24 23 25 24 26 25 28 26 29 27 30 85 31 28 32 84 33 29 34
REMARK SMILES IDX 30 35 31 36 78 37 32 38 83 39 77 40 79 41 33 42 82 43 76 44
REMARK SMILES IDX 75 45 34 47 64 48 45 49 63 50 46 51 49 52 62 53 80 54 47 55
REMARK SMILES IDX 48 56 61 58 81 59 50 60 35 61 36 62 44 63 37 64 43 65 38 66
REMARK SMILES IDX 39 67 40 68 41 69 42 70 65 71 66 72 74 73 67 74 73 75 68 76
REMARK SMILES IDX 69 77 70 78 71 79 72 80 51 81 52 82 60 83 53 84 59 85 54 86
REMARK SMILES IDX 55 87 56 88 57 89 58 90
REMARK H PARENT 18 6 23 27 79 46 49 57
REMARK Flexibility Score: inf
ROOT
ATOM      1  C   UNL A   1      32.864  29.136  24.640  1.00  0.00     0.023 C 
ENDROOT
BRANCH   1   2
ATOM      2  C   UNL A   1      33.580  27.778  24.625  1.00  0.00     0.116 C 
BRANCH   2   3
ATOM      3  N   UNL A   1      33.795  27.277  23.276  1.00  0.00    -0.354 N 
ATOM      4  C   UNL A   1      33.033  26.457  22.499  1.00  0.00     0.242 C 
ATOM      5  O   UNL A   1      33.544  26.028  21.455  1.00  0.00    -0.273 OA
ATOM      6  H   UNL A   1      34.632  27.582  22.854  1.00  0.00     0.163 HD
BRANCH   4   7
ATOM      7  C   UNL A   1      31.699  25.846  22.995  1.00  0.00     0.174 C 
ATOM      8  N   UNL A   1      30.620  26.776  23.401  1.00  0.00    -0.330 N 
ATOM      9  C   UNL A   1      29.627  26.268  24.345  1.00  0.00     0.120 C 
ATOM     10  C   UNL A   1      30.233  25.582  25.552  1.00  0.00     0.022 C 
ATOM     11  C   UNL A   1      32.189  24.941  24.162  1.00  0.00     0.035 C 
ATOM     12  C   UNL A   1      31.109  24.431  25.096  1.00  0.00     0.004 C 
BRANCH   8  13
ATOM     13  C   UNL A   1      30.161  27.865  22.655  1.00  0.00     0.227 C 
ATOM     14  O   UNL A   1      30.906  28.404  21.831  1.00  0.00    -0.275 OA
BRANCH  13  15
ATOM     15  C   UNL A   1      28.840  28.532  23.000  1.00  0.00     0.135 C 
BRANCH  15  16
ATOM     16  C   UNL A   1      28.734  30.015  22.788  1.00  0.00    -0.038 A 
ATOM     17  C   UNL A   1      27.813  32.338  19.920  1.00  0.00     0.044 C 
ATOM     18  C   UNL A   1      28.199  31.864  21.289  1.00  0.00    -0.051 A 
ATOM     19  C   UNL A   1      28.589  32.767  22.282  1.00  0.00     0.003 A 
ATOM     20  C   UNL A   1      28.265  30.493  21.555  1.00  0.00     0.007 A 
ATOM     21  C   UNL A   1      29.001  32.305  23.534  1.00  0.00     0.001 A 
ATOM     22  C   UNL A   1      29.064  30.934  23.791  1.00  0.00     0.004 A 
ENDBRANCH  15  16
ENDBRANCH  13  15
ENDBRANCH   8  13
ENDBRANCH   4   7
ENDBRANCH   2   3
ENDBRANCH   1   2
BRANCH   1  23
ATOM     23  C   UNL A   1      32.105  29.492  25.924  1.00  0.00     0.023 C 
BRANCH  23  24
ATOM     24  C   UNL A   1      32.989  29.889  27.090  1.00  0.00     0.116 C 
BRANCH  24  25
ATOM     25  N   UNL A   1      34.123  30.738  26.764  1.00  0.00    -0.352 N 
ATOM     26  C   UNL A   1      34.841  31.267  27.836  1.00  0.00     0.251 C 
ATOM     27  H   UNL A   1      34.371  30.931  25.831  1.00  0.00     0.163 HD
ATOM     28  O   UNL A   1      34.477  32.193  28.540  1.00  0.00    -0.269 OA
BRANCH  26  29
ATOM     29  C   UNL A   1      35.922  30.356  28.271  1.00  0.00     0.039 A 
ATOM     30  C   UNL A   1      35.933  29.700  29.500  1.00  0.00     0.014 A 
ATOM     31  C   UNL A   1      37.035  30.331  27.428  1.00  0.00     0.014 A 
ATOM     32  C   UNL A   1      37.122  29.096  29.930  1.00  0.00     0.010 A 
ATOM     33  C   UNL A   1      38.223  29.831  27.894  1.00  0.00     0.010 A 
ATOM     34  C   UNL A   1      38.275  29.221  29.150  1.00  0.00    -0.014 A 
BRANCH  34  35
ATOM     35  C   UNL A   1      39.612  28.753  29.493  1.00  0.00     0.031 A 
ATOM     36  C   UNL A   1      40.077  27.438  28.987  1.00  0.00     0.074 A 
ATOM     37  C   UNL A   1      40.500  29.644  29.988  1.00  0.00     0.049 A 
ATOM     38  N   UNL A   1      41.173  26.860  29.344  1.00  0.00    -0.248 NA
ATOM     39  C   UNL A   1      39.300  26.644  28.038  1.00  0.00     0.031 C 
ATOM     40  C   UNL A   1      41.956  29.561  29.923  1.00  0.00     0.029 A 
ATOM     41  N   UNL A   1      40.265  30.717  30.847  1.00  0.00    -0.354 N 
ATOM     42  C   UNL A   1      41.398  25.818  28.471  1.00  0.00     0.074 A 
ATOM     43  C   UNL A   1      40.161  25.667  27.743  1.00  0.00     0.031 C 
ATOM     44  C   UNL A   1      42.471  30.308  30.913  1.00  0.00     0.029 A 
ATOM     45  C   UNL A   1      41.352  30.735  31.735  1.00  0.00     0.049 A 
ATOM     46  H   UNL A   1      39.498  31.333  30.832  1.00  0.00     0.167 HD
ATOM     47  C   UNL A   1      42.651  25.288  28.368  1.00  0.00     0.031 A 
ATOM     48  C   UNL A   1      41.241  30.503  33.079  1.00  0.00     0.031 A 
ATOM     49  C   UNL A   1      43.558  25.877  29.351  1.00  0.00     0.049 A 
ATOM     50  C   UNL A   1      42.107  29.355  33.556  1.00  0.00     0.074 A 
ATOM     51  C   UNL A   1      44.539  26.851  29.271  1.00  0.00     0.029 A 
ATOM     52  N   UNL A   1      43.323  25.657  30.700  1.00  0.00    -0.354 N 
ATOM     53  N   UNL A   1      42.612  28.445  32.770  1.00  0.00    -0.248 NA
ATOM     54  C   UNL A   1      42.449  29.124  34.956  1.00  0.00     0.031 C 
ATOM     55  C   UNL A   1      44.838  27.274  30.594  1.00  0.00     0.029 A 
ATOM     56  C   UNL A   1      44.063  26.533  31.468  1.00  0.00     0.049 A 
ATOM     57  H   UNL A   1      42.714  24.972  31.059  1.00  0.00     0.167 HD
ATOM     58  C   UNL A   1      43.333  27.541  33.506  1.00  0.00     0.074 A 
ATOM     59  C   UNL A   1      43.204  28.013  34.872  1.00  0.00     0.031 C 
ATOM     60  C   UNL A   1      43.968  26.481  32.921  1.00  0.00     0.031 A 
BRANCH  47  61
ATOM     61  C   UNL A   1      43.139  24.413  27.230  1.00  0.00    -0.014 A 
ATOM     62  C   UNL A   1      42.748  23.056  27.183  1.00  0.00     0.010 A 
ATOM     63  C   UNL A   1      44.010  24.834  26.209  1.00  0.00     0.010 A 
ATOM     64  C   UNL A   1      43.259  22.159  26.231  1.00  0.00     0.020 A 
ATOM     65  C   UNL A   1      44.548  23.945  25.263  1.00  0.00     0.020 A 
ATOM     66  C   UNL A   1      44.180  22.606  25.288  1.00  0.00     0.054 A 
BRANCH  66  67
ATOM     67  S   UNL A   1      44.883  21.428  24.106  1.00  0.00     0.124 S 
ATOM     68  O   UNL A   1      44.221  20.180  24.475  1.00  0.00    -0.237 OA
ATOM     69  O   UNL A   1      44.487  21.995  22.820  1.00  0.00    -0.237 OA
ATOM     70  O   UNL A   1      46.318  21.470  24.386  1.00  0.00    -0.744 OA
ENDBRANCH  66  67
ENDBRANCH  47  61
BRANCH  48  71
ATOM     71  C   UNL A   1      39.910  30.864  33.646  1.00  0.00    -0.014 A 
ATOM     72  C   UNL A   1      39.716  32.211  34.016  1.00  0.00     0.010 A 
ATOM     73  C   UNL A   1      38.787  30.069  33.347  1.00  0.00     0.010 A 
ATOM     74  C   UNL A   1      38.460  32.808  33.875  1.00  0.00     0.020 A 
ATOM     75  C   UNL A   1      37.525  30.665  33.221  1.00  0.00     0.020 A 
ATOM     76  C   UNL A   1      37.394  32.045  33.397  1.00  0.00     0.054 A 
BRANCH  76  77
ATOM     77  S   UNL A   1      35.919  32.924  32.791  1.00  0.00     0.124 S 
ATOM     78  O   UNL A   1      35.161  33.155  34.017  1.00  0.00    -0.237 OA
ATOM     79  O   UNL A   1      36.507  34.114  32.178  1.00  0.00    -0.237 OA
ATOM     80  O   UNL A   1      35.324  31.978  31.851  1.00  0.00    -0.744 OA
ENDBRANCH  76  77
ENDBRANCH  48  71
BRANCH  60  81
ATOM     81  C   UNL A   1      44.616  25.309  33.625  1.00  0.00    -0.014 A 
ATOM     82  C   UNL A   1      44.023  24.047  33.781  1.00  0.00     0.010 A 
ATOM     83  C   UNL A   1      45.964  25.433  34.048  1.00  0.00     0.010 A 
ATOM     84  C   UNL A   1      44.719  22.982  34.374  1.00  0.00     0.020 A 
ATOM     85  C   UNL A   1      46.682  24.367  34.598  1.00  0.00     0.020 A 
ATOM     86  C   UNL A   1      46.044  23.148  34.780  1.00  0.00     0.054 A 
BRANCH  86  87
ATOM     87  S   UNL A   1      46.954  21.746  35.475  1.00  0.00     0.124 S 
ATOM     88  O   UNL A   1      48.340  22.143  35.243  1.00  0.00    -0.237 OA
ATOM     89  O   UNL A   1      46.532  21.742  36.874  1.00  0.00    -0.237 OA
ATOM     90  O   UNL A   1      46.486  20.608  34.687  1.00  0.00    -0.744 OA
ENDBRANCH  86  87
ENDBRANCH  60  81
ENDBRANCH  34  35
ENDBRANCH  26  29
ENDBRANCH  24  25
ENDBRANCH  23  24
ENDBRANCH   1  23
TORSDOF 17
ENDMDL
MODEL 3
REMARK VINA RESULT:     -12.0      2.268      4.150
REMARK SMILES Cc1cccc(CC(=O)N2CCCC[C@@H]2C(=O)NCCCCNC(=O)c2ccc(-c3c4nc(c(-c5ccc(S(=O)(=O)[O-])cc5)c5ccc([nH]5)c(-c5ccc(S(=O)(=O)[O-])cc5)c5nc(c(-c6ccc(S(=O)(=O)[O-])cc6)c6ccc3[nH]6)C=C5)C=C4)cc2)c1
REMARK SMILES IDX 20 1 19 2 18 3 16 4 17 5 15 7 10 8 11 9 12 10 14 11 13 12
REMARK SMILES IDX 8 13 9 14 7 15 6 16 1 17 2 18 3 19 86 20 4 21 5 22 21 23
REMARK SMILES IDX 22 24 23 25 24 26 25 28 26 29 27 30 85 31 28 32 84 33 29 34
REMARK SMILES IDX 30 35 31 36 78 37 32 38 83 39 77 40 79 41 33 42 82 43 76 44
REMARK SMILES IDX 75 45 34 47 64 48 45 49 63 50 46 51 49 52 62 53 80 54 47 55
REMARK SMILES IDX 48 56 61 58 81 59 50 60 35 61 36 62 44 63 37 64 43 65 38 66
REMARK SMILES IDX 39 67 40 68 41 69 42 70 65 71 66 72 74 73 67 74 73 75 68 76
REMARK SMILES IDX 69 77 70 78 71 79 72 80 51 81 52 82 60 83 53 84 59 85 54 86
REMARK SMILES IDX 55 87 56 88 57 89 58 90
REMARK H PARENT 18 6 23 27 79 46 49 57
REMARK Flexibility Score: inf
ROOT
ATOM      1  C   UNL A   1      31.804  28.860  26.479  1.00  0.00     0.023 C 
ENDROOT
BRANCH   1   2
ATOM      2  C   UNL A   1      31.996  27.815  27.588  1.00  0.00     0.116 C 
BRANCH   2   3
ATOM      3  N   UNL A   1      31.363  26.544  27.270  1.00  0.00    -0.354 N 
ATOM      4  C   UNL A   1      31.659  25.618  26.314  1.00  0.00     0.242 C 
ATOM      5  O   UNL A   1      30.837  24.709  26.131  1.00  0.00    -0.273 OA
ATOM      6  H   UNL A   1      30.593  26.314  27.840  1.00  0.00     0.163 HD
BRANCH   4   7
ATOM      7  C   UNL A   1      32.812  25.812  25.299  1.00  0.00     0.174 C 
ATOM      8  N   UNL A   1      32.512  25.606  23.863  1.00  0.00    -0.330 N 
ATOM      9  C   UNL A   1      33.633  25.248  22.997  1.00  0.00     0.120 C 
ATOM     10  C   UNL A   1      34.483  24.118  23.540  1.00  0.00     0.022 C 
ATOM     11  C   UNL A   1      33.874  24.816  25.845  1.00  0.00     0.035 C 
ATOM     12  C   UNL A   1      35.022  24.498  24.905  1.00  0.00     0.004 C 
BRANCH   8  13
ATOM     13  C   UNL A   1      31.438  26.168  23.167  1.00  0.00     0.227 C 
ATOM     14  O   UNL A   1      30.429  25.491  22.944  1.00  0.00    -0.275 OA
BRANCH  13  15
ATOM     15  C   UNL A   1      31.583  27.521  22.490  1.00  0.00     0.135 C 
BRANCH  15  16
ATOM     16  C   UNL A   1      30.392  28.436  22.506  1.00  0.00    -0.038 A 
ATOM     17  C   UNL A   1      26.752  28.217  23.586  1.00  0.00     0.044 C 
ATOM     18  C   UNL A   1      28.045  28.778  23.075  1.00  0.00    -0.051 A 
ATOM     19  C   UNL A   1      28.103  30.051  22.500  1.00  0.00     0.003 A 
ATOM     20  C   UNL A   1      29.196  27.984  23.083  1.00  0.00     0.007 A 
ATOM     21  C   UNL A   1      29.303  30.535  21.976  1.00  0.00     0.001 A 
ATOM     22  C   UNL A   1      30.448  29.735  21.988  1.00  0.00     0.004 A 
ENDBRANCH  15  16
ENDBRANCH  13  15
ENDBRANCH   8  13
ENDBRANCH   4   7
ENDBRANCH   2   3
ENDBRANCH   1   2
BRANCH   1  23
ATOM     23  C   UNL A   1      33.043  29.673  26.088  1.00  0.00     0.023 C 
BRANCH  23  24
ATOM     24  C   UNL A   1      34.197  29.575  27.065  1.00  0.00     0.116 C 
BRANCH  24  25
ATOM     25  N   UNL A   1      35.421  30.251  26.669  1.00  0.00    -0.352 N 
ATOM     26  C   UNL A   1      36.249  30.707  27.695  1.00  0.00     0.251 C 
ATOM     27  H   UNL A   1      35.655  30.380  25.722  1.00  0.00     0.163 HD
ATOM     28  O   UNL A   1      36.044  31.694  28.379  1.00  0.00    -0.269 OA
BRANCH  26  29
ATOM     29  C   UNL A   1      37.212  29.669  28.121  1.00  0.00     0.039 A 
ATOM     30  C   UNL A   1      37.125  28.983  29.331  1.00  0.00     0.014 A 
ATOM     31  C   UNL A   1      38.332  29.541  27.297  1.00  0.00     0.014 A 
ATOM     32  C   UNL A   1      38.230  28.238  29.763  1.00  0.00     0.010 A 
ATOM     33  C   UNL A   1      39.447  28.899  27.768  1.00  0.00     0.010 A 
ATOM     34  C   UNL A   1      39.405  28.253  29.007  1.00  0.00    -0.014 A 
BRANCH  34  35
ATOM     35  C   UNL A   1      40.674  27.629  29.359  1.00  0.00     0.031 A 
ATOM     36  C   UNL A   1      40.951  26.240  28.918  1.00  0.00     0.074 A 
ATOM     37  C   UNL A   1      41.681  28.417  29.795  1.00  0.00     0.049 A 
ATOM     38  N   UNL A   1      41.967  25.539  29.292  1.00  0.00    -0.248 NA
ATOM     39  C   UNL A   1      40.058  25.509  28.021  1.00  0.00     0.031 C 
ATOM     40  C   UNL A   1      43.112  28.137  29.718  1.00  0.00     0.029 A 
ATOM     41  N   UNL A   1      41.606  29.554  30.599  1.00  0.00    -0.354 N 
ATOM     42  C   UNL A   1      42.035  24.433  28.473  1.00  0.00     0.074 A 
ATOM     43  C   UNL A   1      40.776  24.412  27.768  1.00  0.00     0.031 C 
ATOM     44  C   UNL A   1      43.740  28.858  30.661  1.00  0.00     0.029 A 
ATOM     45  C   UNL A   1      42.703  29.473  31.473  1.00  0.00     0.049 A 
ATOM     46  H   UNL A   1      40.928  30.266  30.561  1.00  0.00     0.167 HD
ATOM     47  C   UNL A   1      43.205  23.736  28.384  1.00  0.00     0.031 A 
ATOM     48  C   UNL A   1      42.587  29.326  32.828  1.00  0.00     0.031 A 
ATOM     49  C   UNL A   1      44.200  24.248  29.323  1.00  0.00     0.049 A 
ATOM     50  C   UNL A   1      43.301  28.099  33.355  1.00  0.00     0.074 A 
ATOM     51  C   UNL A   1      45.300  25.077  29.181  1.00  0.00     0.029 A 
ATOM     52  N   UNL A   1      43.963  24.130  30.685  1.00  0.00    -0.354 N 
ATOM     53  N   UNL A   1      43.666  27.090  32.613  1.00  0.00    -0.248 NA
ATOM     54  C   UNL A   1      43.635  27.895  34.761  1.00  0.00     0.031 C 
ATOM     55  C   UNL A   1      45.677  25.523  30.476  1.00  0.00     0.029 A 
ATOM     56  C   UNL A   1      44.826  24.937  31.397  1.00  0.00     0.049 A 
ATOM     57  H   UNL A   1      43.275  23.552  31.087  1.00  0.00     0.167 HD
ATOM     58  C   UNL A   1      44.275  26.137  33.387  1.00  0.00     0.074 A 
ATOM     59  C   UNL A   1      44.235  26.691  34.727  1.00  0.00     0.031 C 
ATOM     60  C   UNL A   1      44.752  24.973  32.852  1.00  0.00     0.031 A 
BRANCH  47  61
ATOM     61  C   UNL A   1      43.551  22.747  27.288  1.00  0.00    -0.014 A 
ATOM     62  C   UNL A   1      42.742  21.604  27.107  1.00  0.00     0.010 A 
ATOM     63  C   UNL A   1      44.668  22.847  26.439  1.00  0.00     0.010 A 
ATOM     64  C   UNL A   1      43.071  20.586  26.197  1.00  0.00     0.020 A 
ATOM     65  C   UNL A   1      45.024  21.828  25.539  1.00  0.00     0.020 A 
ATOM     66  C   UNL A   1      44.230  20.693  25.433  1.00  0.00     0.054 A 
BRANCH  66  67
ATOM     67  S   UNL A   1      44.681  19.346  24.310  1.00  0.00     0.124 S 
ATOM     68  O   UNL A   1      43.737  18.297  24.684  1.00  0.00    -0.237 OA
ATOM     69  O   UNL A   1      44.471  19.945  22.996  1.00  0.00    -0.237 OA
ATOM     70  O   UNL A   1      46.077  19.066  24.647  1.00  0.00    -0.744 OA
ENDBRANCH  66  67
ENDBRANCH  47  61
BRANCH  48  71
ATOM     71  C   UNL A   1      41.326  29.889  33.391  1.00  0.00    -0.014 A 
ATOM     72  C   UNL A   1      41.202  31.295  33.402  1.00  0.00     0.010 A 
ATOM     73  C   UNL A   1      40.160  29.101  33.413  1.00  0.00     0.010 A 
ATOM     74  C   UNL A   1      39.955  31.894  33.214  1.00  0.00     0.020 A 
ATOM     75  C   UNL A   1      38.907  29.705  33.241  1.00  0.00     0.020 A 
ATOM     76  C   UNL A   1      38.829  31.087  33.052  1.00  0.00     0.054 A 
BRANCH  76  77
ATOM     77  S   UNL A   1      37.324  31.847  32.363  1.00  0.00     0.124 S 
ATOM     78  O   UNL A   1      36.396  30.722  32.311  1.00  0.00    -0.237 OA
ATOM     79  O   UNL A   1      37.020  32.871  33.361  1.00  0.00    -0.237 OA
ATOM     80  O   UNL A   1      37.765  32.360  31.069  1.00  0.00    -0.744 OA
ENDBRANCH  76  77
ENDBRANCH  48  71
BRANCH  60  81
ATOM     81  C   UNL A   1      45.252  23.762  33.609  1.00  0.00    -0.014 A 
ATOM     82  C   UNL A   1      46.558  23.609  34.094  1.00  0.00     0.010 A 
ATOM     83  C   UNL A   1      44.318  22.759  33.978  1.00  0.00     0.010 A 
ATOM     84  C   UNL A   1      46.927  22.492  34.860  1.00  0.00     0.020 A 
ATOM     85  C   UNL A   1      44.662  21.667  34.778  1.00  0.00     0.020 A 
ATOM     86  C   UNL A   1      45.977  21.528  35.197  1.00  0.00     0.054 A 
BRANCH  86  87
ATOM     87  S   UNL A   1      46.449  20.131  36.248  1.00  0.00     0.124 S 
ATOM     88  O   UNL A   1      45.839  20.496  37.524  1.00  0.00    -0.237 OA
ATOM     89  O   UNL A   1      45.838  18.989  35.569  1.00  0.00    -0.237 OA
ATOM     90  O   UNL A   1      47.908  20.155  36.219  1.00  0.00    -0.744 OA
ENDBRANCH  86  87
ENDBRANCH  60  81
ENDBRANCH  34  35
ENDBRANCH  26  29
ENDBRANCH  24  25
ENDBRANCH  23  24
ENDBRANCH   1  23
TORSDOF 17
ENDMDL
