MODEL 1
REMARK VINA RESULT:     -14.3      0.000      0.000
REMARK SMILES COc1ccc(NC(=O)N[C@@H]2C=C[C@H](C(=O)NCCCCNC(=O)c3ccc(-c4c5nc(c(-c6ccc(S(=O)(=O)[O-])cc6)c6ccc([nH]6)c(-c6ccc(S(=O)(=O)[O-])cc6)c6nc(c(-c7ccc(S(=O)(=O)[O-])cc7)c7ccc4[nH]7)C=C6)C=C5)cc3)C2)c(C)c1
REMARK SMILES IDX 19 1 18 2 17 3 15 4 16 5 14 7 11 8 12 9 85 10 13 11 10 12
REMARK SMILES IDX 7 13 8 14 9 16 6 18 3 19 4 20 88 21 5 22 86 23 87 24 2 25
REMARK SMILES IDX 1 26 20 27 21 28 22 29 23 30 24 32 25 33 26 34 84 35 27 36
REMARK SMILES IDX 83 37 28 38 29 39 30 40 77 41 31 42 82 43 76 44 78 45 32 46
REMARK SMILES IDX 81 47 75 48 74 49 33 51 63 52 44 53 62 54 45 55 48 56 61 57
REMARK SMILES IDX 79 58 46 59 47 60 60 62 80 63 49 64 34 65 35 66 43 67 36 68
REMARK SMILES IDX 42 69 37 70 38 71 39 72 40 73 41 74 64 75 65 76 73 77 66 78
REMARK SMILES IDX 72 79 67 80 68 81 69 82 70 83 71 84 50 85 51 86 59 87 52 88
REMARK SMILES IDX 58 89 53 90 54 91 55 92 56 93 57 94
REMARK H PARENT 17 6 7 15 10 17 22 31 78 50 48 61
REMARK Flexibility Score: inf
ROOT
ATOM      1  C   UNL A   1      31.555  31.167  26.504  1.00  0.00     0.023 C 
ENDROOT
BRANCH   1   2
ATOM      2  C   UNL A   1      30.694  31.166  25.114  1.00  0.00     0.116 C 
BRANCH   2   3
ATOM      3  N   UNL A   1      30.716  29.962  23.938  1.00  0.00    -0.356 N 
ATOM      4  C   UNL A   1      30.743  28.424  23.800  1.00  0.00     0.227 C 
ATOM      5  O   UNL A   1      30.710  28.020  22.625  1.00  0.00    -0.274 OA
ATOM      6  H   UNL A   1      30.708  30.375  23.045  1.00  0.00     0.163 HD
BRANCH   4   7
ATOM      7  C   UNL A   1      30.824  27.111  25.240  1.00  0.00     0.103 C 
ATOM      8  C   UNL A   1      33.034  24.895  24.839  1.00  0.00     0.107 C 
ATOM      9  C   UNL A   1      31.307  23.925  25.143  1.00  0.00    -0.006 C 
ATOM     10  C   UNL A   1      32.823  26.822  25.218  1.00  0.00     0.047 C 
ATOM     11  C   UNL A   1      30.044  25.036  25.240  1.00  0.00    -0.016 C 
BRANCH   8  12
ATOM     12  N   UNL A   1      33.324  25.132  23.174  1.00  0.00    -0.332 N 
ATOM     13  N   UNL A   1      32.847  22.762  22.033  1.00  0.00    -0.308 N 
ATOM     14  C   UNL A   1      33.026  24.295  21.975  1.00  0.00     0.319 C 
ATOM     15  H   UNL A   1      32.754  22.302  21.168  1.00  0.00     0.171 HD
ATOM     16  O   UNL A   1      32.905  24.890  20.899  1.00  0.00    -0.248 OA
ATOM     17  H   UNL A   1      33.776  25.981  22.964  1.00  0.00     0.165 HD
BRANCH  13  18
ATOM     18  C   UNL A   1      32.796  21.874  23.283  1.00  0.00     0.046 A 
ATOM     19  C   UNL A   1      32.697  18.370  24.471  1.00  0.00     0.119 A 
ATOM     20  C   UNL A   1      32.166  18.840  22.918  1.00  0.00     0.048 A 
ATOM     21  C   UNL A   1      33.400  19.522  25.366  1.00  0.00     0.052 A 
ATOM     22  C   UNL A   1      32.187  20.803  22.452  1.00  0.00     0.030 A 
ATOM     23  C   UNL A   1      33.624  21.170  24.778  1.00  0.00    -0.024 A 
ATOM     24  C   UNL A   1      35.395  20.920  25.034  1.00  0.00     0.047 C 
BRANCH  19  25
ATOM     25  O   UNL A   1      31.975  17.314  24.970  1.00  0.00    -0.497 OA
ATOM     26  C   UNL A   1      32.693  16.188  25.452  1.00  0.00     0.278 C 
ENDBRANCH  19  25
ENDBRANCH  13  18
ENDBRANCH   8  12
ENDBRANCH   4   7
ENDBRANCH   2   3
ENDBRANCH   1   2
BRANCH   1  27
ATOM     27  C   UNL A   1      31.783  29.815  27.223  1.00  0.00     0.023 C 
BRANCH  27  28
ATOM     28  C   UNL A   1      33.261  29.538  27.296  1.00  0.00     0.116 C 
BRANCH  28  29
ATOM     29  N   UNL A   1      34.185  30.538  26.789  1.00  0.00    -0.352 N 
ATOM     30  C   UNL A   1      35.169  31.083  27.624  1.00  0.00     0.251 C 
ATOM     31  H   UNL A   1      34.118  30.835  25.852  1.00  0.00     0.163 HD
ATOM     32  O   UNL A   1      35.222  32.258  27.957  1.00  0.00    -0.269 OA
BRANCH  30  33
ATOM     33  C   UNL A   1      36.180  30.109  28.108  1.00  0.00     0.039 A 
ATOM     34  C   UNL A   1      36.183  29.677  29.434  1.00  0.00     0.014 A 
ATOM     35  C   UNL A   1      37.299  29.934  27.311  1.00  0.00     0.014 A 
ATOM     36  C   UNL A   1      37.394  29.320  30.010  1.00  0.00     0.010 A 
ATOM     37  C   UNL A   1      38.507  29.929  27.934  1.00  0.00     0.010 A 
ATOM     38  C   UNL A   1      38.546  29.593  29.284  1.00  0.00    -0.014 A 
BRANCH  38  39
ATOM     39  C   UNL A   1      39.898  29.307  29.691  1.00  0.00     0.031 A 
ATOM     40  C   UNL A   1      40.362  27.977  29.244  1.00  0.00     0.074 A 
ATOM     41  C   UNL A   1      40.611  30.369  30.127  1.00  0.00     0.049 A 
ATOM     42  N   UNL A   1      41.323  27.316  29.766  1.00  0.00    -0.248 NA
ATOM     43  C   UNL A   1      39.702  27.217  28.163  1.00  0.00     0.031 C 
ATOM     44  C   UNL A   1      42.045  30.569  30.276  1.00  0.00     0.029 A 
ATOM     45  N   UNL A   1      40.064  31.492  30.752  1.00  0.00    -0.354 N 
ATOM     46  C   UNL A   1      41.677  26.357  28.834  1.00  0.00     0.074 A 
ATOM     47  C   UNL A   1      40.542  26.198  27.974  1.00  0.00     0.031 C 
ATOM     48  C   UNL A   1      42.254  31.511  31.221  1.00  0.00     0.029 A 
ATOM     49  C   UNL A   1      40.952  31.872  31.771  1.00  0.00     0.049 A 
ATOM     50  H   UNL A   1      39.215  31.934  30.521  1.00  0.00     0.167 HD
ATOM     51  C   UNL A   1      42.988  26.006  28.754  1.00  0.00     0.031 A 
ATOM     52  C   UNL A   1      40.560  31.648  33.064  1.00  0.00     0.031 A 
ATOM     53  C   UNL A   1      43.732  26.728  29.784  1.00  0.00     0.049 A 
ATOM     54  C   UNL A   1      41.329  30.481  33.649  1.00  0.00     0.074 A 
ATOM     55  C   UNL A   1      44.476  27.895  29.735  1.00  0.00     0.029 A 
ATOM     56  N   UNL A   1      43.378  26.537  31.113  1.00  0.00    -0.354 N 
ATOM     57  N   UNL A   1      41.798  29.480  32.948  1.00  0.00    -0.248 NA
ATOM     58  C   UNL A   1      41.742  30.433  35.048  1.00  0.00     0.031 C 
ATOM     59  C   UNL A   1      44.468  28.460  31.042  1.00  0.00     0.029 A 
ATOM     60  C   UNL A   1      43.716  27.642  31.870  1.00  0.00     0.049 A 
ATOM     61  H   UNL A   1      42.946  25.726  31.466  1.00  0.00     0.167 HD
ATOM     62  C   UNL A   1      42.627  28.727  33.737  1.00  0.00     0.074 A 
ATOM     63  C   UNL A   1      42.541  29.353  35.046  1.00  0.00     0.031 C 
ATOM     64  C   UNL A   1      43.376  27.676  33.285  1.00  0.00     0.031 A 
BRANCH  51  65
ATOM     65  C   UNL A   1      43.658  25.290  27.607  1.00  0.00    -0.014 A 
ATOM     66  C   UNL A   1      43.835  23.896  27.729  1.00  0.00     0.010 A 
ATOM     67  C   UNL A   1      44.145  25.879  26.423  1.00  0.00     0.010 A 
ATOM     68  C   UNL A   1      44.472  23.132  26.748  1.00  0.00     0.020 A 
ATOM     69  C   UNL A   1      44.793  25.122  25.427  1.00  0.00     0.020 A 
ATOM     70  C   UNL A   1      44.946  23.749  25.597  1.00  0.00     0.054 A 
BRANCH  70  71
ATOM     71  S   UNL A   1      45.723  22.716  24.329  1.00  0.00     0.124 S 
ATOM     72  O   UNL A   1      44.581  22.317  23.510  1.00  0.00    -0.237 OA
ATOM     73  O   UNL A   1      46.656  23.645  23.699  1.00  0.00    -0.237 OA
ATOM     74  O   UNL A   1      46.344  21.636  25.093  1.00  0.00    -0.744 OA
ENDBRANCH  70  71
ENDBRANCH  51  65
BRANCH  52  75
ATOM     75  C   UNL A   1      39.102  31.971  33.259  1.00  0.00    -0.014 A 
ATOM     76  C   UNL A   1      38.774  33.348  33.345  1.00  0.00     0.010 A 
ATOM     77  C   UNL A   1      38.094  31.073  32.863  1.00  0.00     0.010 A 
ATOM     78  C   UNL A   1      37.564  33.834  32.836  1.00  0.00     0.020 A 
ATOM     79  C   UNL A   1      36.861  31.561  32.386  1.00  0.00     0.020 A 
ATOM     80  C   UNL A   1      36.641  32.939  32.302  1.00  0.00     0.054 A 
BRANCH  80  81
ATOM     81  S   UNL A   1      35.251  33.618  31.340  1.00  0.00     0.124 S 
ATOM     82  O   UNL A   1      34.657  34.562  32.281  1.00  0.00    -0.237 OA
ATOM     83  O   UNL A   1      35.930  34.213  30.185  1.00  0.00    -0.237 OA
ATOM     84  O   UNL A   1      34.440  32.443  31.038  1.00  0.00    -0.744 OA
ENDBRANCH  80  81
ENDBRANCH  52  75
BRANCH  64  85
ATOM     85  C   UNL A   1      43.942  26.595  34.174  1.00  0.00    -0.014 A 
ATOM     86  C   UNL A   1      43.149  25.652  34.838  1.00  0.00     0.010 A 
ATOM     87  C   UNL A   1      45.346  26.415  34.246  1.00  0.00     0.010 A 
ATOM     88  C   UNL A   1      43.720  24.659  35.636  1.00  0.00     0.020 A 
ATOM     89  C   UNL A   1      45.928  25.374  34.966  1.00  0.00     0.020 A 
ATOM     90  C   UNL A   1      45.106  24.533  35.701  1.00  0.00     0.054 A 
BRANCH  90  91
ATOM     91  S   UNL A   1      45.812  23.246  36.745  1.00  0.00     0.124 S 
ATOM     92  O   UNL A   1      47.242  23.419  36.496  1.00  0.00    -0.237 OA
ATOM     93  O   UNL A   1      45.356  23.631  38.078  1.00  0.00    -0.237 OA
ATOM     94  O   UNL A   1      45.229  22.014  36.223  1.00  0.00    -0.744 OA
ENDBRANCH  90  91
ENDBRANCH  64  85
ENDBRANCH  38  39
ENDBRANCH  30  33
ENDBRANCH  28  29
ENDBRANCH  27  28
ENDBRANCH   1  27
TORSDOF 17
ENDMDL
MODEL 2
REMARK VINA RESULT:     -14.2      3.581     10.443
REMARK SMILES COc1ccc(NC(=O)N[C@@H]2C=C[C@H](C(=O)NCCCCNC(=O)c3ccc(-c4c5nc(c(-c6ccc(S(=O)(=O)[O-])cc6)c6ccc([nH]6)c(-c6ccc(S(=O)(=O)[O-])cc6)c6nc(c(-c7ccc(S(=O)(=O)[O-])cc7)c7ccc4[nH]7)C=C6)C=C5)cc3)C2)c(C)c1
REMARK SMILES IDX 19 1 18 2 17 3 15 4 16 5 14 7 11 8 12 9 85 10 13 11 10 12
REMARK SMILES IDX 7 13 8 14 9 16 6 18 3 19 4 20 88 21 5 22 86 23 87 24 2 25
REMARK SMILES IDX 1 26 20 27 21 28 22 29 23 30 24 32 25 33 26 34 84 35 27 36
REMARK SMILES IDX 83 37 28 38 29 39 30 40 77 41 31 42 82 43 76 44 78 45 32 46
REMARK SMILES IDX 81 47 75 48 74 49 33 51 63 52 44 53 62 54 45 55 48 56 61 57
REMARK SMILES IDX 79 58 46 59 47 60 60 62 80 63 49 64 34 65 35 66 43 67 36 68
REMARK SMILES IDX 42 69 37 70 38 71 39 72 40 73 41 74 64 75 65 76 73 77 66 78
REMARK SMILES IDX 72 79 67 80 68 81 69 82 70 83 71 84 50 85 51 86 59 87 52 88
REMARK SMILES IDX 58 89 53 90 54 91 55 92 56 93 57 94
REMARK H PARENT 17 6 7 15 10 17 22 31 78 50 48 61
REMARK Flexibility Score: inf
ROOT
ATOM      1  C   UNL A   1      37.647  20.490  24.810  1.00  0.00     0.023 C 
ENDROOT
BRANCH   1   2
ATOM      2  C   UNL A   1      36.368  19.488  24.987  1.00  0.00     0.116 C 
BRANCH   2   3
ATOM      3  N   UNL A   1      34.783  19.955  25.303  1.00  0.00    -0.356 N 
ATOM      4  C   UNL A   1      33.742  21.018  24.889  1.00  0.00     0.227 C 
ATOM      5  O   UNL A   1      32.633  20.883  25.434  1.00  0.00    -0.274 OA
ATOM      6  H   UNL A   1      34.389  19.350  25.973  1.00  0.00     0.163 HD
BRANCH   4   7
ATOM      7  C   UNL A   1      33.999  22.496  23.641  1.00  0.00     0.103 C 
ATOM      8  C   UNL A   1      32.915  25.268  24.689  1.00  0.00     0.107 C 
ATOM      9  C   UNL A   1      32.067  24.967  22.898  1.00  0.00    -0.006 C 
ATOM     10  C   UNL A   1      34.340  23.939  25.012  1.00  0.00     0.047 C 
ATOM     11  C   UNL A   1      32.493  23.443  22.320  1.00  0.00    -0.016 C 
BRANCH   8  12
ATOM     12  N   UNL A   1      31.921  24.686  25.948  1.00  0.00    -0.332 N 
ATOM     13  N   UNL A   1      29.477  25.624  25.405  1.00  0.00    -0.308 N 
ATOM     14  C   UNL A   1      30.439  24.650  26.121  1.00  0.00     0.319 C 
ATOM     15  H   UNL A   1      28.531  25.575  25.672  1.00  0.00     0.171 HD
ATOM     16  O   UNL A   1      29.989  23.775  26.867  1.00  0.00    -0.248 OA
ATOM     17  H   UNL A   1      32.419  24.303  26.705  1.00  0.00     0.165 HD
BRANCH  13  18
ATOM     18  C   UNL A   1      29.826  26.658  24.327  1.00  0.00     0.046 A 
ATOM     19  C   UNL A   1      28.516  29.522  22.381  1.00  0.00     0.119 A 
ATOM     20  C   UNL A   1      27.509  28.332  23.077  1.00  0.00     0.048 A 
ATOM     21  C   UNL A   1      30.091  29.424  22.743  1.00  0.00     0.052 A 
ATOM     22  C   UNL A   1      28.376  26.775  24.023  1.00  0.00     0.030 A 
ATOM     23  C   UNL A   1      30.742  28.175  23.805  1.00  0.00    -0.024 A 
ATOM     24  C   UNL A   1      31.335  29.516  24.862  1.00  0.00     0.047 C 
BRANCH  19  25
ATOM     25  O   UNL A   1      28.005  30.013  21.206  1.00  0.00    -0.497 OA
ATOM     26  C   UNL A   1      28.343  31.343  20.841  1.00  0.00     0.278 C 
ENDBRANCH  19  25
ENDBRANCH  13  18
ENDBRANCH   8  12
ENDBRANCH   4   7
ENDBRANCH   2   3
ENDBRANCH   1   2
BRANCH   1  27
ATOM     27  C   UNL A   1      37.392  21.909  24.247  1.00  0.00     0.023 C 
BRANCH  27  28
ATOM     28  C   UNL A   1      37.579  22.918  25.349  1.00  0.00     0.116 C 
BRANCH  28  29
ATOM     29  N   UNL A   1      38.356  22.541  26.516  1.00  0.00    -0.352 N 
ATOM     30  C   UNL A   1      39.645  23.056  26.708  1.00  0.00     0.251 C 
ATOM     31  H   UNL A   1      37.974  21.918  27.178  1.00  0.00     0.163 HD
ATOM     32  O   UNL A   1      40.665  22.384  26.715  1.00  0.00    -0.269 OA
BRANCH  30  33
ATOM     33  C   UNL A   1      39.701  24.527  26.901  1.00  0.00     0.039 A 
ATOM     34  C   UNL A   1      40.442  25.336  26.040  1.00  0.00     0.014 A 
ATOM     35  C   UNL A   1      39.301  25.003  28.139  1.00  0.00     0.014 A 
ATOM     36  C   UNL A   1      40.993  26.507  26.543  1.00  0.00     0.010 A 
ATOM     37  C   UNL A   1      40.096  25.933  28.730  1.00  0.00     0.010 A 
ATOM     38  C   UNL A   1      40.923  26.700  27.916  1.00  0.00    -0.014 A 
BRANCH  38  39
ATOM     39  C   UNL A   1      41.426  27.838  28.642  1.00  0.00     0.031 A 
ATOM     40  C   UNL A   1      40.420  28.909  28.800  1.00  0.00     0.074 A 
ATOM     41  C   UNL A   1      42.584  27.636  29.310  1.00  0.00     0.049 A 
ATOM     42  N   UNL A   1      40.680  30.137  29.038  1.00  0.00    -0.248 NA
ATOM     43  C   UNL A   1      38.971  28.683  28.624  1.00  0.00     0.031 C 
ATOM     44  C   UNL A   1      43.206  28.371  30.401  1.00  0.00     0.029 A 
ATOM     45  N   UNL A   1      43.578  26.734  28.923  1.00  0.00    -0.354 N 
ATOM     46  C   UNL A   1      39.500  30.695  29.497  1.00  0.00     0.074 A 
ATOM     47  C   UNL A   1      38.448  29.839  29.035  1.00  0.00     0.031 C 
ATOM     48  C   UNL A   1      44.539  28.155  30.363  1.00  0.00     0.029 A 
ATOM     49  C   UNL A   1      44.815  27.346  29.181  1.00  0.00     0.049 A 
ATOM     50  H   UNL A   1      43.437  25.838  28.540  1.00  0.00     0.167 HD
ATOM     51  C   UNL A   1      39.586  31.675  30.434  1.00  0.00     0.031 A 
ATOM     52  C   UNL A   1      45.549  27.763  28.102  1.00  0.00     0.031 A 
ATOM     53  C   UNL A   1      40.997  31.959  30.690  1.00  0.00     0.049 A 
ATOM     54  C   UNL A   1      45.501  29.273  27.989  1.00  0.00     0.074 A 
ATOM     55  C   UNL A   1      41.860  31.518  31.679  1.00  0.00     0.029 A 
ATOM     56  N   UNL A   1      41.789  32.388  29.632  1.00  0.00    -0.354 N 
ATOM     57  N   UNL A   1      44.502  30.013  28.398  1.00  0.00    -0.248 NA
ATOM     58  C   UNL A   1      46.640  30.064  27.533  1.00  0.00     0.031 C 
ATOM     59  C   UNL A   1      43.181  31.586  31.152  1.00  0.00     0.029 A 
ATOM     60  C   UNL A   1      43.112  32.057  29.850  1.00  0.00     0.049 A 
ATOM     61  H   UNL A   1      41.452  32.861  28.837  1.00  0.00     0.167 HD
ATOM     62  C   UNL A   1      44.872  31.332  28.358  1.00  0.00     0.074 A 
ATOM     63  C   UNL A   1      46.210  31.311  27.791  1.00  0.00     0.031 C 
ATOM     64  C   UNL A   1      44.106  32.361  28.832  1.00  0.00     0.031 A 
BRANCH  51  65
ATOM     65  C   UNL A   1      38.476  32.158  31.335  1.00  0.00    -0.014 A 
ATOM     66  C   UNL A   1      38.409  33.543  31.596  1.00  0.00     0.010 A 
ATOM     67  C   UNL A   1      37.500  31.358  31.962  1.00  0.00     0.010 A 
ATOM     68  C   UNL A   1      37.447  34.102  32.441  1.00  0.00     0.020 A 
ATOM     69  C   UNL A   1      36.525  31.907  32.819  1.00  0.00     0.020 A 
ATOM     70  C   UNL A   1      36.505  33.279  33.048  1.00  0.00     0.054 A 
BRANCH  70  71
ATOM     71  S   UNL A   1      35.246  34.049  34.097  1.00  0.00     0.124 S 
ATOM     72  O   UNL A   1      35.346  35.457  33.721  1.00  0.00    -0.237 OA
ATOM     73  O   UNL A   1      34.027  33.369  33.670  1.00  0.00    -0.237 OA
ATOM     74  O   UNL A   1      35.688  33.738  35.454  1.00  0.00    -0.744 OA
ENDBRANCH  70  71
ENDBRANCH  51  65
BRANCH  52  75
ATOM     75  C   UNL A   1      45.492  26.761  26.980  1.00  0.00    -0.014 A 
ATOM     76  C   UNL A   1      46.324  25.621  27.118  1.00  0.00     0.010 A 
ATOM     77  C   UNL A   1      44.366  26.660  26.144  1.00  0.00     0.010 A 
ATOM     78  C   UNL A   1      45.924  24.371  26.631  1.00  0.00     0.020 A 
ATOM     79  C   UNL A   1      43.982  25.409  25.622  1.00  0.00     0.020 A 
ATOM     80  C   UNL A   1      44.720  24.265  25.938  1.00  0.00     0.054 A 
BRANCH  80  81
ATOM     81  S   UNL A   1      44.059  22.597  25.627  1.00  0.00     0.124 S 
ATOM     82  O   UNL A   1      43.584  22.202  26.950  1.00  0.00    -0.237 OA
ATOM     83  O   UNL A   1      43.016  22.854  24.628  1.00  0.00    -0.237 OA
ATOM     84  O   UNL A   1      45.215  21.859  25.131  1.00  0.00    -0.744 OA
ENDBRANCH  80  81
ENDBRANCH  52  75
BRANCH  64  85
ATOM     85  C   UNL A   1      44.284  33.804  28.426  1.00  0.00    -0.014 A 
ATOM     86  C   UNL A   1      43.990  34.284  27.144  1.00  0.00     0.010 A 
ATOM     87  C   UNL A   1      44.628  34.767  29.407  1.00  0.00     0.010 A 
ATOM     88  C   UNL A   1      44.154  35.632  26.821  1.00  0.00     0.020 A 
ATOM     89  C   UNL A   1      44.708  36.129  29.119  1.00  0.00     0.020 A 
ATOM     90  C   UNL A   1      44.520  36.543  27.810  1.00  0.00     0.054 A 
BRANCH  90  91
ATOM     91  S   UNL A   1      44.730  38.275  27.360  1.00  0.00     0.124 S 
ATOM     92  O   UNL A   1      44.974  38.889  28.663  1.00  0.00    -0.237 OA
ATOM     93  O   UNL A   1      45.881  38.233  26.460  1.00  0.00    -0.237 OA
ATOM     94  O   UNL A   1      43.463  38.628  26.727  1.00  0.00    -0.744 OA
ENDBRANCH  90  91
ENDBRANCH  64  85
ENDBRANCH  38  39
ENDBRANCH  30  33
ENDBRANCH  28  29
ENDBRANCH  27  28
ENDBRANCH   1  27
TORSDOF 17
ENDMDL
MODEL 3
REMARK VINA RESULT:     -14.1      3.593     10.410
REMARK SMILES COc1ccc(NC(=O)N[C@@H]2C=C[C@H](C(=O)NCCCCNC(=O)c3ccc(-c4c5nc(c(-c6ccc(S(=O)(=O)[O-])cc6)c6ccc([nH]6)c(-c6ccc(S(=O)(=O)[O-])cc6)c6nc(c(-c7ccc(S(=O)(=O)[O-])cc7)c7ccc4[nH]7)C=C6)C=C5)cc3)C2)c(C)c1
REMARK SMILES IDX 19 1 18 2 17 3 15 4 16 5 14 7 11 8 12 9 85 10 13 11 10 12
REMARK SMILES IDX 7 13 8 14 9 16 6 18 3 19 4 20 88 21 5 22 86 23 87 24 2 25
REMARK SMILES IDX 1 26 20 27 21 28 22 29 23 30 24 32 25 33 26 34 84 35 27 36
REMARK SMILES IDX 83 37 28 38 29 39 30 40 77 41 31 42 82 43 76 44 78 45 32 46
REMARK SMILES IDX 81 47 75 48 74 49 33 51 63 52 44 53 62 54 45 55 48 56 61 57
REMARK SMILES IDX 79 58 46 59 47 60 60 62 80 63 49 64 34 65 35 66 43 67 36 68
REMARK SMILES IDX 42 69 37 70 38 71 39 72 40 73 41 74 64 75 65 76 73 77 66 78
REMARK SMILES IDX 72 79 67 80 68 81 69 82 70 83 71 84 50 85 51 86 59 87 52 88
REMARK SMILES IDX 58 89 53 90 54 91 55 92 56 93 57 94
REMARK H PARENT 17 6 7 15 10 17 22 31 78 50 48 61
REMARK Flexibility Score: inf
ROOT
ATOM      1  C   UNL A   1      36.904  20.737  25.344  1.00  0.00     0.023 C 
ENDROOT
BRANCH   1   2
ATOM      2  C   UNL A   1      36.150  19.432  24.711  1.00  0.00     0.116 C 
BRANCH   2   3
ATOM      3  N   UNL A   1      34.508  19.084  24.835  1.00  0.00    -0.356 N 
ATOM      4  C   UNL A   1      33.211  19.635  25.467  1.00  0.00     0.227 C 
ATOM      5  O   UNL A   1      32.195  18.969  25.203  1.00  0.00    -0.274 OA
ATOM      6  H   UNL A   1      34.309  18.256  24.341  1.00  0.00     0.163 HD
BRANCH   4   7
ATOM      7  C   UNL A   1      33.028  21.214  26.597  1.00  0.00     0.103 C 
ATOM      8  C   UNL A   1      32.119  23.808  25.047  1.00  0.00     0.107 C 
ATOM      9  C   UNL A   1      33.796  24.293  26.032  1.00  0.00    -0.006 C 
ATOM     10  C   UNL A   1      31.457  22.043  25.636  1.00  0.00     0.047 C 
ATOM     11  C   UNL A   1      34.424  22.925  26.788  1.00  0.00    -0.016 C 
BRANCH   8  12
ATOM     12  N   UNL A   1      32.465  23.283  23.461  1.00  0.00    -0.332 N 
ATOM     13  N   UNL A   1      32.654  25.519  22.007  1.00  0.00    -0.308 N 
ATOM     14  C   UNL A   1      32.911  24.013  22.238  1.00  0.00     0.319 C 
ATOM     15  H   UNL A   1      32.903  25.871  21.122  1.00  0.00     0.171 HD
ATOM     16  O   UNL A   1      33.530  23.356  21.395  1.00  0.00    -0.248 OA
ATOM     17  H   UNL A   1      32.346  22.316  23.326  1.00  0.00     0.165 HD
BRANCH  13  18
ATOM     18  C   UNL A   1      32.058  26.527  22.997  1.00  0.00     0.046 A 
ATOM     19  C   UNL A   1      32.773  29.579  24.966  1.00  0.00     0.119 A 
ATOM     20  C   UNL A   1      33.992  28.506  24.438  1.00  0.00     0.048 A 
ATOM     21  C   UNL A   1      31.275  29.278  24.431  1.00  0.00     0.052 A 
ATOM     22  C   UNL A   1      33.437  26.831  23.460  1.00  0.00     0.030 A 
ATOM     23  C   UNL A   1      30.910  27.932  23.351  1.00  0.00    -0.024 A 
ATOM     24  C   UNL A   1      30.290  29.162  22.181  1.00  0.00     0.047 C 
BRANCH  19  25
ATOM     25  O   UNL A   1      33.079  30.158  26.173  1.00  0.00    -0.497 OA
ATOM     26  C   UNL A   1      32.001  30.566  27.004  1.00  0.00     0.278 C 
ENDBRANCH  19  25
ENDBRANCH  13  18
ENDBRANCH   8  12
ENDBRANCH   4   7
ENDBRANCH   2   3
ENDBRANCH   1   2
BRANCH   1  27
ATOM     27  C   UNL A   1      37.029  22.006  24.466  1.00  0.00     0.023 C 
BRANCH  27  28
ATOM     28  C   UNL A   1      37.688  23.097  25.267  1.00  0.00     0.116 C 
BRANCH  28  29
ATOM     29  N   UNL A   1      38.434  22.734  26.460  1.00  0.00    -0.352 N 
ATOM     30  C   UNL A   1      39.690  23.303  26.712  1.00  0.00     0.251 C 
ATOM     31  H   UNL A   1      38.054  22.084  27.095  1.00  0.00     0.163 HD
ATOM     32  O   UNL A   1      40.739  22.677  26.750  1.00  0.00    -0.269 OA
BRANCH  30  33
ATOM     33  C   UNL A   1      39.672  24.771  26.930  1.00  0.00     0.039 A 
ATOM     34  C   UNL A   1      40.491  25.618  26.184  1.00  0.00     0.014 A 
ATOM     35  C   UNL A   1      39.099  25.213  28.112  1.00  0.00     0.014 A 
ATOM     36  C   UNL A   1      40.933  26.797  26.770  1.00  0.00     0.010 A 
ATOM     37  C   UNL A   1      39.779  26.157  28.815  1.00  0.00     0.010 A 
ATOM     38  C   UNL A   1      40.678  26.964  28.125  1.00  0.00    -0.014 A 
BRANCH  38  39
ATOM     39  C   UNL A   1      41.045  28.104  28.926  1.00  0.00     0.031 A 
ATOM     40  C   UNL A   1      40.031  29.178  28.894  1.00  0.00     0.074 A 
ATOM     41  C   UNL A   1      42.061  27.902  29.793  1.00  0.00     0.049 A 
ATOM     42  N   UNL A   1      40.247  30.407  29.170  1.00  0.00    -0.248 NA
ATOM     43  C   UNL A   1      38.637  28.955  28.458  1.00  0.00     0.031 C 
ATOM     44  C   UNL A   1      42.477  28.641  30.977  1.00  0.00     0.029 A 
ATOM     45  N   UNL A   1      43.107  26.996  29.598  1.00  0.00    -0.354 N 
ATOM     46  C   UNL A   1      39.006  30.970  29.404  1.00  0.00     0.074 A 
ATOM     47  C   UNL A   1      38.052  30.114  28.763  1.00  0.00     0.031 C 
ATOM     48  C   UNL A   1      43.795  28.421  31.183  1.00  0.00     0.029 A 
ATOM     49  C   UNL A   1      44.278  27.605  30.074  1.00  0.00     0.049 A 
ATOM     50  H   UNL A   1      43.035  26.098  29.200  1.00  0.00     0.167 HD
ATOM     51  C   UNL A   1      38.923  31.954  30.337  1.00  0.00     0.031 A 
ATOM     52  C   UNL A   1      45.197  28.015  29.145  1.00  0.00     0.031 A 
ATOM     53  C   UNL A   1      40.265  32.236  30.844  1.00  0.00     0.049 A 
ATOM     54  C   UNL A   1      45.176  29.525  29.018  1.00  0.00     0.074 A 
ATOM     55  C   UNL A   1      40.932  31.797  31.975  1.00  0.00     0.029 A 
ATOM     56  N   UNL A   1      41.237  32.657  29.946  1.00  0.00    -0.354 N 
ATOM     57  N   UNL A   1      44.121  30.269  29.236  1.00  0.00    -0.248 NA
ATOM     58  C   UNL A   1      46.381  30.311  28.774  1.00  0.00     0.031 C 
ATOM     59  C   UNL A   1      42.328  31.860  31.697  1.00  0.00     0.029 A 
ATOM     60  C   UNL A   1      42.498  32.324  30.402  1.00  0.00     0.049 A 
ATOM     61  H   UNL A   1      41.052  33.127  29.101  1.00  0.00     0.167 HD
ATOM     62  C   UNL A   1      44.497  31.587  29.258  1.00  0.00     0.074 A 
ATOM     63  C   UNL A   1      45.916  31.560  28.944  1.00  0.00     0.031 C 
ATOM     64  C   UNL A   1      43.661  32.621  29.580  1.00  0.00     0.031 A 
BRANCH  51  65
ATOM     65  C   UNL A   1      37.669  32.444  31.019  1.00  0.00    -0.014 A 
ATOM     66  C   UNL A   1      36.885  33.392  30.329  1.00  0.00     0.010 A 
ATOM     67  C   UNL A   1      37.205  32.062  32.294  1.00  0.00     0.010 A 
ATOM     68  C   UNL A   1      35.722  33.943  30.872  1.00  0.00     0.020 A 
ATOM     69  C   UNL A   1      36.037  32.611  32.856  1.00  0.00     0.020 A 
ATOM     70  C   UNL A   1      35.300  33.546  32.136  1.00  0.00     0.054 A 
BRANCH  70  71
ATOM     71  S   UNL A   1      33.762  34.248  32.784  1.00  0.00     0.124 S 
ATOM     72  O   UNL A   1      33.068  33.066  33.288  1.00  0.00    -0.237 OA
ATOM     73  O   UNL A   1      34.248  35.174  33.803  1.00  0.00    -0.237 OA
ATOM     74  O   UNL A   1      33.148  34.876  31.618  1.00  0.00    -0.744 OA
ENDBRANCH  70  71
ENDBRANCH  51  65
BRANCH  52  75
ATOM     75  C   UNL A   1      45.342  27.008  28.035  1.00  0.00    -0.014 A 
ATOM     76  C   UNL A   1      45.042  27.472  26.729  1.00  0.00     0.010 A 
ATOM     77  C   UNL A   1      46.189  25.893  28.163  1.00  0.00     0.010 A 
ATOM     78  C   UNL A   1      45.739  26.992  25.614  1.00  0.00     0.020 A 
ATOM     79  C   UNL A   1      46.863  25.385  27.035  1.00  0.00     0.020 A 
ATOM     80  C   UNL A   1      46.693  25.992  25.787  1.00  0.00     0.054 A 
BRANCH  80  81
ATOM     81  S   UNL A   1      47.820  25.637  24.401  1.00  0.00     0.124 S 
ATOM     82  O   UNL A   1      47.573  26.764  23.507  1.00  0.00    -0.237 OA
ATOM     83  O   UNL A   1      49.131  25.623  25.059  1.00  0.00    -0.237 OA
ATOM     84  O   UNL A   1      47.363  24.341  23.914  1.00  0.00    -0.744 OA
ENDBRANCH  80  81
ENDBRANCH  52  75
BRANCH  64  85
ATOM     85  C   UNL A   1      43.915  34.061  29.207  1.00  0.00    -0.014 A 
ATOM     86  C   UNL A   1      43.918  34.525  27.886  1.00  0.00     0.010 A 
ATOM     87  C   UNL A   1      44.017  35.039  30.228  1.00  0.00     0.010 A 
ATOM     88  C   UNL A   1      44.141  35.871  27.592  1.00  0.00     0.020 A 
ATOM     89  C   UNL A   1      44.149  36.398  29.949  1.00  0.00     0.020 A 
ATOM     90  C   UNL A   1      44.262  36.796  28.626  1.00  0.00     0.054 A 
BRANCH  90  91
ATOM     91  S   UNL A   1      44.554  38.526  28.214  1.00  0.00     0.124 S 
ATOM     92  O   UNL A   1      43.852  39.208  29.298  1.00  0.00    -0.237 OA
ATOM     93  O   UNL A   1      46.012  38.620  28.252  1.00  0.00    -0.237 OA
ATOM     94  O   UNL A   1      43.959  38.674  26.890  1.00  0.00    -0.744 OA
ENDBRANCH  90  91
ENDBRANCH  64  85
ENDBRANCH  38  39
ENDBRANCH  30  33
ENDBRANCH  28  29
ENDBRANCH  27  28
ENDBRANCH   1  27
TORSDOF 17
ENDMDL
