MODEL 1
REMARK VINA RESULT:     -13.4      0.000      0.000
REMARK SMILES CC1=Nc2ncnn2[C@H](c2ccc(F)cc2)[C@@H]1C(=O)NCCCCNC(=O)c1ccc(-c2c3nc(c(-c4ccc(S(=O)(=O)[O-])cc4)c4ccc([nH]4)c(-c4ccc(S(=O)(=O)[O-])cc4)c4nc(c(-c5ccc(S(=O)(=O)[O-])cc5)c5ccc2[nH]5)C=C4)C=C3)cc1
REMARK SMILES IDX 23 1 22 2 21 3 20 4 18 5 19 6 17 8 1 9 2 10 3 11 4 12 9 13
REMARK SMILES IDX 5 14 8 15 6 16 7 17 10 18 11 19 16 20 12 21 15 22 13 23
REMARK SMILES IDX 14 24 24 25 25 26 26 27 27 29 28 30 29 31 87 32 30 33 86 34
REMARK SMILES IDX 31 35 32 36 33 37 80 38 34 39 85 40 79 41 81 42 35 43 84 44
REMARK SMILES IDX 78 45 77 46 36 48 66 49 47 50 65 51 48 52 51 53 64 54 82 55
REMARK SMILES IDX 49 56 50 57 63 59 83 60 52 61 37 62 38 63 46 64 39 65 45 66
REMARK SMILES IDX 40 67 41 68 42 69 43 70 44 71 67 72 68 73 76 74 69 75 75 76
REMARK SMILES IDX 70 77 71 78 72 79 73 80 74 81 53 82 54 83 62 84 55 85 61 86
REMARK SMILES IDX 56 87 57 88 58 89 59 90 60 91
REMARK H PARENT 20 7 25 28 81 47 51 58
REMARK Flexibility Score: inf
ROOT
ATOM      1  C   UNL A   1      36.088  22.295  25.153  1.00  0.00     0.023 C 
ENDROOT
BRANCH   1   2
ATOM      2  C   UNL A   1      35.145  22.311  26.372  1.00  0.00     0.023 C 
BRANCH   2   3
ATOM      3  C   UNL A   1      34.197  23.516  26.463  1.00  0.00     0.116 C 
BRANCH   3   4
ATOM      4  N   UNL A   1      32.908  23.100  26.981  1.00  0.00    -0.355 N 
ATOM      5  C   UNL A   1      31.662  23.396  26.528  1.00  0.00     0.231 C 
ATOM      6  O   UNL A   1      30.762  23.487  27.363  1.00  0.00    -0.274 OA
ATOM      7  H   UNL A   1      32.941  22.520  27.776  1.00  0.00     0.163 HD
BRANCH   5   8
ATOM      8  C   UNL A   1      31.389  23.583  25.048  1.00  0.00     0.152 C 
ATOM      9  C   UNL A   1      32.168  21.123  24.637  1.00  0.00     0.063 C 
ATOM     10  C   UNL A   1      32.191  22.580  24.219  1.00  0.00     0.034 C 
ATOM     11  N   UNL A   1      32.824  22.839  23.118  1.00  0.00    -0.220 NA
ATOM     12  C   UNL A   1      32.782  24.091  22.623  1.00  0.00     0.248 A 
ATOM     13  C   UNL A   1      31.522  25.058  24.565  1.00  0.00     0.159 C 
ATOM     14  N   UNL A   1      33.195  24.516  21.447  1.00  0.00    -0.198 NA
ATOM     15  N   UNL A   1      32.201  25.144  23.276  1.00  0.00    -0.221 N 
ATOM     16  C   UNL A   1      32.782  25.815  21.406  1.00  0.00     0.248 A 
ATOM     17  N   UNL A   1      32.098  26.226  22.473  1.00  0.00    -0.157 NA
BRANCH  13  18
ATOM     18  C   UNL A   1      31.984  26.195  25.492  1.00  0.00    -0.022 A 
ATOM     19  C   UNL A   1      33.355  26.552  25.482  1.00  0.00     0.009 A 
ATOM     20  C   UNL A   1      31.151  26.898  26.376  1.00  0.00     0.009 A 
ATOM     21  C   UNL A   1      33.842  27.616  26.246  1.00  0.00     0.039 A 
ATOM     22  C   UNL A   1      31.625  28.004  27.093  1.00  0.00     0.039 A 
ATOM     23  C   UNL A   1      32.963  28.358  27.014  1.00  0.00     0.123 A 
ATOM     24  F   UNL A   1      33.406  29.425  27.691  1.00  0.00    -0.207 F 
ENDBRANCH  13  18
ENDBRANCH   5   8
ENDBRANCH   3   4
ENDBRANCH   2   3
ENDBRANCH   1   2
BRANCH   1  25
ATOM     25  C   UNL A   1      37.477  22.861  25.420  1.00  0.00     0.116 C 
BRANCH  25  26
ATOM     26  N   UNL A   1      38.347  21.894  26.079  1.00  0.00    -0.352 N 
ATOM     27  C   UNL A   1      39.572  22.114  26.681  1.00  0.00     0.251 C 
ATOM     28  H   UNL A   1      38.020  20.966  26.099  1.00  0.00     0.163 HD
ATOM     29  O   UNL A   1      40.356  21.193  26.838  1.00  0.00    -0.269 OA
BRANCH  27  30
ATOM     30  C   UNL A   1      39.911  23.479  27.130  1.00  0.00     0.039 A 
ATOM     31  C   UNL A   1      39.007  24.534  26.972  1.00  0.00     0.014 A 
ATOM     32  C   UNL A   1      41.155  23.691  27.720  1.00  0.00     0.014 A 
ATOM     33  C   UNL A   1      39.336  25.786  27.487  1.00  0.00     0.010 A 
ATOM     34  C   UNL A   1      41.425  24.888  28.338  1.00  0.00     0.010 A 
ATOM     35  C   UNL A   1      40.540  25.952  28.186  1.00  0.00    -0.014 A 
BRANCH  35  36
ATOM     36  C   UNL A   1      40.840  27.204  28.877  1.00  0.00     0.031 A 
ATOM     37  C   UNL A   1      41.945  27.999  28.275  1.00  0.00     0.074 A 
ATOM     38  C   UNL A   1      40.032  27.731  29.821  1.00  0.00     0.049 A 
ATOM     39  N   UNL A   1      43.110  28.246  28.776  1.00  0.00    -0.248 NA
ATOM     40  C   UNL A   1      41.786  28.465  26.887  1.00  0.00     0.031 C 
ATOM     41  C   UNL A   1      38.728  27.230  30.279  1.00  0.00     0.029 A 
ATOM     42  N   UNL A   1      40.141  28.916  30.480  1.00  0.00    -0.354 N 
ATOM     43  C   UNL A   1      43.749  29.087  27.869  1.00  0.00     0.074 A 
ATOM     44  C   UNL A   1      42.976  29.023  26.655  1.00  0.00     0.031 C 
ATOM     45  C   UNL A   1      38.071  28.213  30.933  1.00  0.00     0.029 A 
ATOM     46  C   UNL A   1      38.969  29.341  31.097  1.00  0.00     0.049 A 
ATOM     47  H   UNL A   1      40.980  29.430  30.517  1.00  0.00     0.167 HD
ATOM     48  C   UNL A   1      44.717  29.963  28.265  1.00  0.00     0.031 A 
ATOM     49  C   UNL A   1      38.742  30.547  31.676  1.00  0.00     0.031 A 
ATOM     50  C   UNL A   1      45.164  29.682  29.605  1.00  0.00     0.049 A 
ATOM     51  C   UNL A   1      40.067  31.139  31.975  1.00  0.00     0.074 A 
ATOM     52  C   UNL A   1      45.751  28.602  30.234  1.00  0.00     0.029 A 
ATOM     53  N   UNL A   1      44.647  30.472  30.605  1.00  0.00    -0.354 N 
ATOM     54  N   UNL A   1      40.900  30.630  32.840  1.00  0.00    -0.248 NA
ATOM     55  C   UNL A   1      40.657  32.037  30.997  1.00  0.00     0.031 C 
ATOM     56  C   UNL A   1      45.145  28.556  31.524  1.00  0.00     0.029 A 
ATOM     57  C   UNL A   1      44.286  29.652  31.642  1.00  0.00     0.049 A 
ATOM     58  H   UNL A   1      44.553  31.451  30.581  1.00  0.00     0.167 HD
ATOM     59  C   UNL A   1      42.150  30.782  32.259  1.00  0.00     0.074 A 
ATOM     60  C   UNL A   1      41.949  31.751  31.183  1.00  0.00     0.031 C 
ATOM     61  C   UNL A   1      43.162  29.901  32.522  1.00  0.00     0.031 A 
BRANCH  48  62
ATOM     62  C   UNL A   1      44.964  31.310  27.620  1.00  0.00    -0.014 A 
ATOM     63  C   UNL A   1      46.280  31.638  27.223  1.00  0.00     0.010 A 
ATOM     64  C   UNL A   1      44.028  32.363  27.639  1.00  0.00     0.010 A 
ATOM     65  C   UNL A   1      46.653  32.961  26.951  1.00  0.00     0.020 A 
ATOM     66  C   UNL A   1      44.379  33.678  27.324  1.00  0.00     0.020 A 
ATOM     67  C   UNL A   1      45.699  33.975  27.021  1.00  0.00     0.054 A 
BRANCH  67  68
ATOM     68  S   UNL A   1      46.210  35.693  26.774  1.00  0.00     0.124 S 
ATOM     69  O   UNL A   1      46.958  35.606  25.523  1.00  0.00    -0.237 OA
ATOM     70  O   UNL A   1      44.929  36.390  26.701  1.00  0.00    -0.237 OA
ATOM     71  O   UNL A   1      47.008  35.985  27.963  1.00  0.00    -0.744 OA
ENDBRANCH  67  68
ENDBRANCH  48  62
BRANCH  49  72
ATOM     72  C   UNL A   1      37.482  31.329  31.730  1.00  0.00    -0.014 A 
ATOM     73  C   UNL A   1      36.834  31.575  32.955  1.00  0.00     0.010 A 
ATOM     74  C   UNL A   1      37.069  32.080  30.609  1.00  0.00     0.010 A 
ATOM     75  C   UNL A   1      35.859  32.581  33.070  1.00  0.00     0.020 A 
ATOM     76  C   UNL A   1      36.094  33.080  30.715  1.00  0.00     0.020 A 
ATOM     77  C   UNL A   1      35.511  33.344  31.952  1.00  0.00     0.054 A 
BRANCH  77  78
ATOM     78  S   UNL A   1      34.387  34.760  32.152  1.00  0.00     0.124 S 
ATOM     79  O   UNL A   1      33.270  34.169  32.881  1.00  0.00    -0.237 OA
ATOM     80  O   UNL A   1      35.202  35.708  32.906  1.00  0.00    -0.237 OA
ATOM     81  O   UNL A   1      34.087  35.160  30.779  1.00  0.00    -0.744 OA
ENDBRANCH  77  78
ENDBRANCH  49  72
BRANCH  61  82
ATOM     82  C   UNL A   1      43.006  28.950  33.689  1.00  0.00    -0.014 A 
ATOM     83  C   UNL A   1      43.477  29.213  34.991  1.00  0.00     0.010 A 
ATOM     84  C   UNL A   1      42.209  27.811  33.484  1.00  0.00     0.010 A 
ATOM     85  C   UNL A   1      43.177  28.342  36.052  1.00  0.00     0.020 A 
ATOM     86  C   UNL A   1      41.889  26.952  34.538  1.00  0.00     0.020 A 
ATOM     87  C   UNL A   1      42.382  27.216  35.815  1.00  0.00     0.054 A 
BRANCH  87  88
ATOM     88  S   UNL A   1      41.952  26.118  37.196  1.00  0.00     0.124 S 
ATOM     89  O   UNL A   1      40.645  26.622  37.607  1.00  0.00    -0.237 OA
ATOM     90  O   UNL A   1      41.951  24.796  36.573  1.00  0.00    -0.237 OA
ATOM     91  O   UNL A   1      43.029  26.335  38.162  1.00  0.00    -0.744 OA
ENDBRANCH  87  88
ENDBRANCH  61  82
ENDBRANCH  35  36
ENDBRANCH  27  30
ENDBRANCH  25  26
ENDBRANCH   1  25
TORSDOF 15
ENDMDL
MODEL 2
REMARK VINA RESULT:     -13.0      1.983      2.741
REMARK SMILES CC1=Nc2ncnn2[C@H](c2ccc(F)cc2)[C@@H]1C(=O)NCCCCNC(=O)c1ccc(-c2c3nc(c(-c4ccc(S(=O)(=O)[O-])cc4)c4ccc([nH]4)c(-c4ccc(S(=O)(=O)[O-])cc4)c4nc(c(-c5ccc(S(=O)(=O)[O-])cc5)c5ccc2[nH]5)C=C4)C=C3)cc1
REMARK SMILES IDX 23 1 22 2 21 3 20 4 18 5 19 6 17 8 1 9 2 10 3 11 4 12 9 13
REMARK SMILES IDX 5 14 8 15 6 16 7 17 10 18 11 19 16 20 12 21 15 22 13 23
REMARK SMILES IDX 14 24 24 25 25 26 26 27 27 29 28 30 29 31 87 32 30 33 86 34
REMARK SMILES IDX 31 35 32 36 33 37 80 38 34 39 85 40 79 41 81 42 35 43 84 44
REMARK SMILES IDX 78 45 77 46 36 48 66 49 47 50 65 51 48 52 51 53 64 54 82 55
REMARK SMILES IDX 49 56 50 57 63 59 83 60 52 61 37 62 38 63 46 64 39 65 45 66
REMARK SMILES IDX 40 67 41 68 42 69 43 70 44 71 67 72 68 73 76 74 69 75 75 76
REMARK SMILES IDX 70 77 71 78 72 79 73 80 74 81 53 82 54 83 62 84 55 85 61 86
REMARK SMILES IDX 56 87 57 88 58 89 59 90 60 91
REMARK H PARENT 20 7 25 28 81 47 51 58
REMARK Flexibility Score: inf
ROOT
ATOM      1  C   UNL A   1      39.042  21.452  26.137  1.00  0.00     0.023 C 
ENDROOT
BRANCH   1   2
ATOM      2  C   UNL A   1      37.802  21.995  25.401  1.00  0.00     0.023 C 
BRANCH   2   3
ATOM      3  C   UNL A   1      37.363  23.412  25.796  1.00  0.00     0.116 C 
BRANCH   3   4
ATOM      4  N   UNL A   1      36.467  23.956  24.795  1.00  0.00    -0.355 N 
ATOM      5  C   UNL A   1      35.191  23.597  24.495  1.00  0.00     0.231 C 
ATOM      6  O   UNL A   1      34.832  23.704  23.322  1.00  0.00    -0.274 OA
ATOM      7  H   UNL A   1      36.835  24.691  24.253  1.00  0.00     0.163 HD
BRANCH   5   8
ATOM      8  C   UNL A   1      34.241  23.106  25.570  1.00  0.00     0.152 C 
ATOM      9  C   UNL A   1      34.491  20.682  24.625  1.00  0.00     0.063 C 
ATOM     10  C   UNL A   1      33.595  21.783  25.158  1.00  0.00     0.034 C 
ATOM     11  N   UNL A   1      32.347  21.467  25.310  1.00  0.00    -0.220 NA
ATOM     12  C   UNL A   1      31.517  22.354  25.893  1.00  0.00     0.248 A 
ATOM     13  C   UNL A   1      33.226  24.185  26.054  1.00  0.00     0.159 C 
ATOM     14  N   UNL A   1      30.280  22.166  26.300  1.00  0.00    -0.198 NA
ATOM     15  N   UNL A   1      31.890  23.627  26.235  1.00  0.00    -0.221 N 
ATOM     16  C   UNL A   1      29.967  23.328  26.942  1.00  0.00     0.248 A 
ATOM     17  N   UNL A   1      30.951  24.227  26.998  1.00  0.00    -0.157 NA
BRANCH  13  18
ATOM     18  C   UNL A   1      33.142  25.585  25.424  1.00  0.00    -0.022 A 
ATOM     19  C   UNL A   1      33.776  26.660  26.094  1.00  0.00     0.009 A 
ATOM     20  C   UNL A   1      32.458  25.891  24.238  1.00  0.00     0.009 A 
ATOM     21  C   UNL A   1      33.801  27.949  25.555  1.00  0.00     0.039 A 
ATOM     22  C   UNL A   1      32.537  27.167  23.664  1.00  0.00     0.039 A 
ATOM     23  C   UNL A   1      33.215  28.181  24.323  1.00  0.00     0.123 A 
ATOM     24  F   UNL A   1      33.298  29.394  23.764  1.00  0.00    -0.207 F 
ENDBRANCH  13  18
ENDBRANCH   5   8
ENDBRANCH   3   4
ENDBRANCH   2   3
ENDBRANCH   1   2
BRANCH   1  25
ATOM     25  C   UNL A   1      40.066  22.513  26.519  1.00  0.00     0.116 C 
BRANCH  25  26
ATOM     26  N   UNL A   1      41.370  22.259  25.917  1.00  0.00    -0.352 N 
ATOM     27  C   UNL A   1      42.331  23.177  25.535  1.00  0.00     0.251 C 
ATOM     28  H   UNL A   1      41.596  21.313  25.765  1.00  0.00     0.163 HD
ATOM     29  O   UNL A   1      43.178  22.876  24.710  1.00  0.00    -0.269 OA
BRANCH  27  30
ATOM     30  C   UNL A   1      42.314  24.522  26.143  1.00  0.00     0.039 A 
ATOM     31  C   UNL A   1      41.566  25.558  25.576  1.00  0.00     0.014 A 
ATOM     32  C   UNL A   1      43.061  24.735  27.300  1.00  0.00     0.014 A 
ATOM     33  C   UNL A   1      41.512  26.787  26.231  1.00  0.00     0.010 A 
ATOM     34  C   UNL A   1      42.906  25.900  28.009  1.00  0.00     0.010 A 
ATOM     35  C   UNL A   1      42.170  26.946  27.459  1.00  0.00    -0.014 A 
BRANCH  35  36
ATOM     36  C   UNL A   1      42.000  28.163  28.248  1.00  0.00     0.031 A 
ATOM     37  C   UNL A   1      43.073  29.179  28.066  1.00  0.00     0.074 A 
ATOM     38  C   UNL A   1      40.853  28.464  28.893  1.00  0.00     0.049 A 
ATOM     39  N   UNL A   1      43.953  29.568  28.927  1.00  0.00    -0.248 NA
ATOM     40  C   UNL A   1      43.277  29.735  26.717  1.00  0.00     0.031 C 
ATOM     41  C   UNL A   1      39.588  27.717  28.885  1.00  0.00     0.029 A 
ATOM     42  N   UNL A   1      40.529  29.587  29.588  1.00  0.00    -0.354 N 
ATOM     43  C   UNL A   1      44.679  30.581  28.304  1.00  0.00     0.074 A 
ATOM     44  C   UNL A   1      44.354  30.500  26.903  1.00  0.00     0.031 C 
ATOM     45  C   UNL A   1      38.589  28.517  29.319  1.00  0.00     0.029 A 
ATOM     46  C   UNL A   1      39.165  29.757  29.802  1.00  0.00     0.049 A 
ATOM     47  H   UNL A   1      41.204  30.226  29.913  1.00  0.00     0.167 HD
ATOM     48  C   UNL A   1      45.294  31.564  29.022  1.00  0.00     0.031 A 
ATOM     49  C   UNL A   1      38.549  30.853  30.313  1.00  0.00     0.031 A 
ATOM     50  C   UNL A   1      45.340  31.242  30.425  1.00  0.00     0.049 A 
ATOM     51  C   UNL A   1      39.579  31.625  31.047  1.00  0.00     0.074 A 
ATOM     52  C   UNL A   1      45.887  30.221  31.177  1.00  0.00     0.029 A 
ATOM     53  N   UNL A   1      44.398  31.844  31.226  1.00  0.00    -0.354 N 
ATOM     54  N   UNL A   1      40.175  31.185  32.120  1.00  0.00    -0.248 NA
ATOM     55  C   UNL A   1      40.272  32.692  30.343  1.00  0.00     0.031 C 
ATOM     56  C   UNL A   1      44.924  29.962  32.197  1.00  0.00     0.029 A 
ATOM     57  C   UNL A   1      43.885  30.887  32.062  1.00  0.00     0.049 A 
ATOM     58  H   UNL A   1      44.137  32.793  31.203  1.00  0.00     0.167 HD
ATOM     59  C   UNL A   1      41.495  31.591  31.983  1.00  0.00     0.074 A 
ATOM     60  C   UNL A   1      41.468  32.606  30.932  1.00  0.00     0.031 C 
ATOM     61  C   UNL A   1      42.515  30.868  32.535  1.00  0.00     0.031 A 
BRANCH  48  62
ATOM     62  C   UNL A   1      45.480  32.986  28.535  1.00  0.00    -0.014 A 
ATOM     63  C   UNL A   1      46.746  33.593  28.688  1.00  0.00     0.010 A 
ATOM     64  C   UNL A   1      44.409  33.836  28.194  1.00  0.00     0.010 A 
ATOM     65  C   UNL A   1      46.909  34.982  28.594  1.00  0.00     0.020 A 
ATOM     66  C   UNL A   1      44.568  35.216  28.053  1.00  0.00     0.020 A 
ATOM     67  C   UNL A   1      45.810  35.785  28.292  1.00  0.00     0.054 A 
BRANCH  67  68
ATOM     68  S   UNL A   1      46.003  37.584  28.278  1.00  0.00     0.124 S 
ATOM     69  O   UNL A   1      45.814  37.894  26.865  1.00  0.00    -0.237 OA
ATOM     70  O   UNL A   1      44.934  38.018  29.173  1.00  0.00    -0.237 OA
ATOM     71  O   UNL A   1      47.358  37.785  28.789  1.00  0.00    -0.744 OA
ENDBRANCH  67  68
ENDBRANCH  48  62
BRANCH  49  72
ATOM     72  C   UNL A   1      37.215  31.410  29.978  1.00  0.00    -0.014 A 
ATOM     73  C   UNL A   1      36.419  32.027  30.961  1.00  0.00     0.010 A 
ATOM     74  C   UNL A   1      36.845  31.591  28.628  1.00  0.00     0.010 A 
ATOM     75  C   UNL A   1      35.337  32.850  30.606  1.00  0.00     0.020 A 
ATOM     76  C   UNL A   1      35.765  32.406  28.267  1.00  0.00     0.020 A 
ATOM     77  C   UNL A   1      35.029  33.053  29.258  1.00  0.00     0.054 A 
BRANCH  77  78
ATOM     78  S   UNL A   1      33.748  34.262  28.807  1.00  0.00     0.124 S 
ATOM     79  O   UNL A   1      34.521  35.292  28.120  1.00  0.00    -0.237 OA
ATOM     80  O   UNL A   1      32.853  33.477  27.962  1.00  0.00    -0.237 OA
ATOM     81  O   UNL A   1      33.185  34.666  30.094  1.00  0.00    -0.744 OA
ENDBRANCH  77  78
ENDBRANCH  49  72
BRANCH  61  82
ATOM     82  C   UNL A   1      42.177  29.804  33.557  1.00  0.00    -0.014 A 
ATOM     83  C   UNL A   1      41.639  28.542  33.235  1.00  0.00     0.010 A 
ATOM     84  C   UNL A   1      42.572  30.044  34.884  1.00  0.00     0.010 A 
ATOM     85  C   UNL A   1      41.478  27.558  34.225  1.00  0.00     0.020 A 
ATOM     86  C   UNL A   1      42.434  29.063  35.869  1.00  0.00     0.020 A 
ATOM     87  C   UNL A   1      41.879  27.828  35.538  1.00  0.00     0.054 A 
BRANCH  87  88
ATOM     88  S   UNL A   1      41.718  26.539  36.806  1.00  0.00     0.124 S 
ATOM     89  O   UNL A   1      41.752  25.311  36.016  1.00  0.00    -0.237 OA
ATOM     90  O   UNL A   1      42.881  26.773  37.658  1.00  0.00    -0.237 OA
ATOM     91  O   UNL A   1      40.431  26.831  37.437  1.00  0.00    -0.744 OA
ENDBRANCH  87  88
ENDBRANCH  61  82
ENDBRANCH  35  36
ENDBRANCH  27  30
ENDBRANCH  25  26
ENDBRANCH   1  25
TORSDOF 15
ENDMDL
MODEL 3
REMARK VINA RESULT:     -13.0      2.966      9.197
REMARK SMILES CC1=Nc2ncnn2[C@H](c2ccc(F)cc2)[C@@H]1C(=O)NCCCCNC(=O)c1ccc(-c2c3nc(c(-c4ccc(S(=O)(=O)[O-])cc4)c4ccc([nH]4)c(-c4ccc(S(=O)(=O)[O-])cc4)c4nc(c(-c5ccc(S(=O)(=O)[O-])cc5)c5ccc2[nH]5)C=C4)C=C3)cc1
REMARK SMILES IDX 23 1 22 2 21 3 20 4 18 5 19 6 17 8 1 9 2 10 3 11 4 12 9 13
REMARK SMILES IDX 5 14 8 15 6 16 7 17 10 18 11 19 16 20 12 21 15 22 13 23
REMARK SMILES IDX 14 24 24 25 25 26 26 27 27 29 28 30 29 31 87 32 30 33 86 34
REMARK SMILES IDX 31 35 32 36 33 37 80 38 34 39 85 40 79 41 81 42 35 43 84 44
REMARK SMILES IDX 78 45 77 46 36 48 66 49 47 50 65 51 48 52 51 53 64 54 82 55
REMARK SMILES IDX 49 56 50 57 63 59 83 60 52 61 37 62 38 63 46 64 39 65 45 66
REMARK SMILES IDX 40 67 41 68 42 69 43 70 44 71 67 72 68 73 76 74 69 75 75 76
REMARK SMILES IDX 70 77 71 78 72 79 73 80 74 81 53 82 54 83 62 84 55 85 61 86
REMARK SMILES IDX 56 87 57 88 58 89 59 90 60 91
REMARK H PARENT 20 7 25 28 81 47 51 58
REMARK Flexibility Score: inf
ROOT
ATOM      1  C   UNL A   1      32.694  28.893  26.169  1.00  0.00     0.023 C 
ENDROOT
BRANCH   1   2
ATOM      2  C   UNL A   1      33.309  28.819  24.757  1.00  0.00     0.023 C 
BRANCH   2   3
ATOM      3  C   UNL A   1      33.806  27.433  24.321  1.00  0.00     0.116 C 
BRANCH   3   4
ATOM      4  N   UNL A   1      33.559  27.236  22.907  1.00  0.00    -0.355 N 
ATOM      5  C   UNL A   1      32.997  26.174  22.271  1.00  0.00     0.231 C 
ATOM      6  O   UNL A   1      33.402  25.913  21.137  1.00  0.00    -0.274 OA
ATOM      7  H   UNL A   1      33.838  27.977  22.322  1.00  0.00     0.163 HD
BRANCH   5   8
ATOM      8  C   UNL A   1      31.899  25.358  22.924  1.00  0.00     0.152 C 
ATOM      9  C   UNL A   1      30.381  27.485  22.929  1.00  0.00     0.063 C 
ATOM     10  C   UNL A   1      30.914  26.268  23.659  1.00  0.00     0.034 C 
ATOM     11  N   UNL A   1      30.405  26.048  24.830  1.00  0.00    -0.220 NA
ATOM     12  C   UNL A   1      30.742  24.919  25.484  1.00  0.00     0.248 A 
ATOM     13  C   UNL A   1      32.424  24.168  23.781  1.00  0.00     0.159 C 
ATOM     14  N   UNL A   1      30.210  24.425  26.582  1.00  0.00    -0.198 NA
ATOM     15  N   UNL A   1      31.685  24.035  25.033  1.00  0.00    -0.221 N 
ATOM     16  C   UNL A   1      30.814  23.209  26.719  1.00  0.00     0.248 A 
ATOM     17  N   UNL A   1      31.671  22.890  25.749  1.00  0.00    -0.157 NA
BRANCH  13  18
ATOM     18  C   UNL A   1      33.923  23.912  24.014  1.00  0.00    -0.022 A 
ATOM     19  C   UNL A   1      34.503  24.380  25.218  1.00  0.00     0.009 A 
ATOM     20  C   UNL A   1      34.776  23.266  23.106  1.00  0.00     0.009 A 
ATOM     21  C   UNL A   1      35.842  24.132  25.533  1.00  0.00     0.039 A 
ATOM     22  C   UNL A   1      36.100  22.961  23.449  1.00  0.00     0.039 A 
ATOM     23  C   UNL A   1      36.617  23.388  24.661  1.00  0.00     0.123 A 
ATOM     24  F   UNL A   1      37.879  23.081  24.988  1.00  0.00    -0.207 F 
ENDBRANCH  13  18
ENDBRANCH   5   8
ENDBRANCH   3   4
ENDBRANCH   2   3
ENDBRANCH   1   2
BRANCH   1  25
ATOM     25  C   UNL A   1      33.622  29.460  27.235  1.00  0.00     0.116 C 
BRANCH  25  26
ATOM     26  N   UNL A   1      33.872  30.884  27.045  1.00  0.00    -0.352 N 
ATOM     27  C   UNL A   1      34.896  31.651  27.569  1.00  0.00     0.251 C 
ATOM     28  H   UNL A   1      33.231  31.359  26.469  1.00  0.00     0.163 HD
ATOM     29  O   UNL A   1      34.774  32.862  27.658  1.00  0.00    -0.269 OA
BRANCH  27  30
ATOM     30  C   UNL A   1      36.133  30.982  28.015  1.00  0.00     0.039 A 
ATOM     31  C   UNL A   1      36.424  29.672  27.621  1.00  0.00     0.014 A 
ATOM     32  C   UNL A   1      37.009  31.689  28.837  1.00  0.00     0.014 A 
ATOM     33  C   UNL A   1      37.643  29.111  27.997  1.00  0.00     0.010 A 
ATOM     34  C   UNL A   1      38.259  31.185  29.098  1.00  0.00     0.010 A 
ATOM     35  C   UNL A   1      38.565  29.881  28.720  1.00  0.00    -0.014 A 
BRANCH  35  36
ATOM     36  C   UNL A   1      39.912  29.381  28.988  1.00  0.00     0.031 A 
ATOM     37  C   UNL A   1      40.239  29.212  30.430  1.00  0.00     0.074 A 
ATOM     38  C   UNL A   1      40.709  28.872  28.024  1.00  0.00     0.049 A 
ATOM     39  N   UNL A   1      41.092  29.878  31.134  1.00  0.00    -0.248 NA
ATOM     40  C   UNL A   1      39.421  28.275  31.219  1.00  0.00     0.031 C 
ATOM     41  C   UNL A   1      40.392  28.660  26.605  1.00  0.00     0.029 A 
ATOM     42  N   UNL A   1      41.938  28.302  28.141  1.00  0.00    -0.354 N 
ATOM     43  C   UNL A   1      41.084  29.297  32.400  1.00  0.00     0.074 A 
ATOM     44  C   UNL A   1      39.911  28.462  32.446  1.00  0.00     0.031 C 
ATOM     45  C   UNL A   1      41.282  27.798  26.067  1.00  0.00     0.029 A 
ATOM     46  C   UNL A   1      42.325  27.541  27.042  1.00  0.00     0.049 A 
ATOM     47  H   UNL A   1      42.507  28.418  28.936  1.00  0.00     0.167 HD
ATOM     48  C   UNL A   1      42.174  29.350  33.218  1.00  0.00     0.031 A 
ATOM     49  C   UNL A   1      43.412  26.734  26.950  1.00  0.00     0.031 A 
ATOM     50  C   UNL A   1      43.147  30.298  32.738  1.00  0.00     0.049 A 
ATOM     51  C   UNL A   1      44.362  27.166  28.002  1.00  0.00     0.074 A 
ATOM     52  C   UNL A   1      43.148  31.657  32.490  1.00  0.00     0.029 A 
ATOM     53  N   UNL A   1      44.224  29.783  32.055  1.00  0.00    -0.354 N 
ATOM     54  N   UNL A   1      44.949  28.330  28.003  1.00  0.00    -0.248 NA
ATOM     55  C   UNL A   1      44.320  26.489  29.288  1.00  0.00     0.031 C 
ATOM     56  C   UNL A   1      43.926  31.810  31.304  1.00  0.00     0.029 A 
ATOM     57  C   UNL A   1      44.420  30.555  30.940  1.00  0.00     0.049 A 
ATOM     58  H   UNL A   1      44.758  29.000  32.320  1.00  0.00     0.167 HD
ATOM     59  C   UNL A   1      44.952  28.724  29.333  1.00  0.00     0.074 A 
ATOM     60  C   UNL A   1      44.656  27.507  30.086  1.00  0.00     0.031 C 
ATOM     61  C   UNL A   1      44.916  30.046  29.676  1.00  0.00     0.031 A 
BRANCH  48  62
ATOM     62  C   UNL A   1      42.553  28.268  34.206  1.00  0.00    -0.014 A 
ATOM     63  C   UNL A   1      42.713  28.619  35.565  1.00  0.00     0.010 A 
ATOM     64  C   UNL A   1      43.024  26.997  33.822  1.00  0.00     0.010 A 
ATOM     65  C   UNL A   1      43.388  27.780  36.463  1.00  0.00     0.020 A 
ATOM     66  C   UNL A   1      43.657  26.133  34.719  1.00  0.00     0.020 A 
ATOM     67  C   UNL A   1      43.870  26.548  36.025  1.00  0.00     0.054 A 
BRANCH  67  68
ATOM     68  S   UNL A   1      44.834  25.518  37.160  1.00  0.00     0.124 S 
ATOM     69  O   UNL A   1      44.420  24.174  36.768  1.00  0.00    -0.237 OA
ATOM     70  O   UNL A   1      46.206  25.885  36.822  1.00  0.00    -0.237 OA
ATOM     71  O   UNL A   1      44.383  25.953  38.480  1.00  0.00    -0.744 OA
ENDBRANCH  67  68
ENDBRANCH  48  62
BRANCH  49  72
ATOM     72  C   UNL A   1      43.560  25.457  26.209  1.00  0.00    -0.014 A 
ATOM     73  C   UNL A   1      44.695  25.207  25.415  1.00  0.00     0.010 A 
ATOM     74  C   UNL A   1      42.720  24.364  26.511  1.00  0.00     0.010 A 
ATOM     75  C   UNL A   1      45.016  23.903  24.998  1.00  0.00     0.020 A 
ATOM     76  C   UNL A   1      43.030  23.063  26.094  1.00  0.00     0.020 A 
ATOM     77  C   UNL A   1      44.191  22.834  25.360  1.00  0.00     0.054 A 
BRANCH  77  78
ATOM     78  S   UNL A   1      44.711  21.135  24.973  1.00  0.00     0.124 S 
ATOM     79  O   UNL A   1      46.072  21.100  25.500  1.00  0.00    -0.237 OA
ATOM     80  O   UNL A   1      43.732  20.330  25.698  1.00  0.00    -0.237 OA
ATOM     81  O   UNL A   1      44.610  21.066  23.517  1.00  0.00    -0.744 OA
ENDBRANCH  77  78
ENDBRANCH  49  72
BRANCH  61  82
ATOM     82  C   UNL A   1      45.191  31.079  28.605  1.00  0.00    -0.014 A 
ATOM     83  C   UNL A   1      44.196  31.665  27.797  1.00  0.00     0.010 A 
ATOM     84  C   UNL A   1      46.500  31.586  28.527  1.00  0.00     0.010 A 
ATOM     85  C   UNL A   1      44.512  32.714  26.918  1.00  0.00     0.020 A 
ATOM     86  C   UNL A   1      46.817  32.643  27.670  1.00  0.00     0.020 A 
ATOM     87  C   UNL A   1      45.824  33.196  26.862  1.00  0.00     0.054 A 
BRANCH  87  88
ATOM     88  S   UNL A   1      46.222  34.585  25.763  1.00  0.00     0.124 S 
ATOM     89  O   UNL A   1      45.345  34.346  24.620  1.00  0.00    -0.237 OA
ATOM     90  O   UNL A   1      45.892  35.751  26.578  1.00  0.00    -0.237 OA
ATOM     91  O   UNL A   1      47.649  34.415  25.491  1.00  0.00    -0.744 OA
ENDBRANCH  87  88
ENDBRANCH  61  82
ENDBRANCH  35  36
ENDBRANCH  27  30
ENDBRANCH  25  26
ENDBRANCH   1  25
TORSDOF 15
ENDMDL
