MODEL 1
REMARK VINA RESULT:     -10.3      0.000      0.000
REMARK SMILES CO[C@@H]1C[C@H](C(=O)NCCCCNC(=O)c2ccc(-c3c4nc(c(-c5ccc(S(=O)(=O)[O-])cc5)c5ccc([nH]5)c(-c5ccc(S(=O)(=O)[O-])cc5)c5nc(c(-c6ccc(S(=O)(=O)[O-])cc6)c6ccc3[nH]6)C=C5)C=C4)cc2)N(C(=O)c2ccc([N+](=O)[O-])s2)C1
REMARK SMILES IDX 10 1 9 2 8 3 6 4 7 5 5 7 3 8 4 9 87 10 76 11 2 12 1 13 77 14
REMARK SMILES IDX 78 15 79 16 80 17 86 18 81 19 82 20 83 21 84 22 85 23 11 24
REMARK SMILES IDX 12 25 13 26 14 27 15 29 16 30 17 31 75 32 18 33 74 34 19 35
REMARK SMILES IDX 20 36 21 37 68 38 22 39 73 40 67 41 69 42 23 43 72 44 66 45
REMARK SMILES IDX 65 46 24 48 54 49 35 50 53 51 36 52 39 53 52 54 70 55 37 56
REMARK SMILES IDX 38 57 51 59 71 60 40 61 25 62 26 63 34 64 27 65 33 66 28 67
REMARK SMILES IDX 29 68 30 69 31 70 32 71 55 72 56 73 64 74 57 75 63 76 58 77
REMARK SMILES IDX 59 78 60 79 61 80 62 81 41 82 42 83 50 84 43 85 49 86 44 87
REMARK SMILES IDX 45 88 46 89 47 90 48 91
REMARK H PARENT 8 6 13 28 69 47 39 58
REMARK Flexibility Score: inf
ROOT
ATOM      1  C   UNL A   1      39.189  23.101  26.376  1.00  0.00     0.023 C 
ENDROOT
BRANCH   1   2
ATOM      2  C   UNL A   1      37.863  23.804  26.085  1.00  0.00     0.116 C 
BRANCH   2   3
ATOM      3  N   UNL A   1      37.402  23.536  24.737  1.00  0.00    -0.354 N 
ATOM      4  C   UNL A   1      36.157  23.552  24.195  1.00  0.00     0.242 C 
ATOM      5  O   UNL A   1      36.059  23.162  23.024  1.00  0.00    -0.273 OA
ATOM      6  H   UNL A   1      38.117  23.301  24.103  1.00  0.00     0.163 HD
BRANCH   4   7
ATOM      7  C   UNL A   1      34.865  23.912  24.969  1.00  0.00     0.177 C 
ATOM      8  C   UNL A   1      32.712  24.574  23.976  1.00  0.00     0.139 C 
ATOM      9  C   UNL A   1      34.099  25.089  24.371  1.00  0.00     0.069 C 
ATOM     10  C   UNL A   1      32.604  23.164  24.562  1.00  0.00     0.152 C 
ATOM     11  N   UNL A   1      33.888  22.850  25.160  1.00  0.00    -0.323 N 
BRANCH   8  12
ATOM     12  O   UNL A   1      32.561  24.525  22.561  1.00  0.00    -0.380 OA
ATOM     13  C   UNL A   1      33.236  25.579  21.880  1.00  0.00     0.195 C 
ENDBRANCH   8  12
BRANCH  11  14
ATOM     14  C   UNL A   1      34.017  21.722  25.963  1.00  0.00     0.264 C 
ATOM     15  O   UNL A   1      33.872  21.807  27.181  1.00  0.00    -0.268 OA
BRANCH  14  16
ATOM     16  C   UNL A   1      34.419  20.480  25.323  1.00  0.00     0.099 A 
ATOM     17  C   UNL A   1      35.699  19.985  25.136  1.00  0.00     0.033 A 
ATOM     18  S   UNL A   1      33.233  19.354  24.812  1.00  0.00    -0.058 S 
ATOM     19  C   UNL A   1      35.702  18.701  24.518  1.00  0.00     0.099 A 
ATOM     20  C   UNL A   1      34.419  18.247  24.302  1.00  0.00     0.324 A 
BRANCH  20  21
ATOM     21  N   UNL A   1      34.053  16.975  23.737  1.00  0.00     0.074 N 
ATOM     22  O   UNL A   1      33.372  17.014  22.700  1.00  0.00    -0.258 OA
ATOM     23  O   UNL A   1      34.444  15.943  24.295  1.00  0.00    -0.258 OA
ENDBRANCH  20  21
ENDBRANCH  14  16
ENDBRANCH  11  14
ENDBRANCH   4   7
ENDBRANCH   2   3
ENDBRANCH   1   2
BRANCH   1  24
ATOM     24  C   UNL A   1      39.296  21.667  25.872  1.00  0.00     0.023 C 
BRANCH  24  25
ATOM     25  C   UNL A   1      39.860  20.676  26.884  1.00  0.00     0.116 C 
BRANCH  25  26
ATOM     26  N   UNL A   1      40.695  19.631  26.302  1.00  0.00    -0.352 N 
ATOM     27  C   UNL A   1      42.021  19.698  25.927  1.00  0.00     0.251 C 
ATOM     28  H   UNL A   1      40.254  18.763  26.157  1.00  0.00     0.163 HD
ATOM     29  O   UNL A   1      42.566  18.749  25.387  1.00  0.00    -0.269 OA
BRANCH  27  30
ATOM     30  C   UNL A   1      42.753  20.965  26.145  1.00  0.00     0.039 A 
ATOM     31  C   UNL A   1      43.016  21.792  25.051  1.00  0.00     0.014 A 
ATOM     32  C   UNL A   1      43.085  21.372  27.438  1.00  0.00     0.014 A 
ATOM     33  C   UNL A   1      43.526  23.074  25.269  1.00  0.00     0.010 A 
ATOM     34  C   UNL A   1      43.495  22.679  27.659  1.00  0.00     0.010 A 
ATOM     35  C   UNL A   1      43.716  23.547  26.578  1.00  0.00    -0.014 A 
BRANCH  35  36
ATOM     36  C   UNL A   1      44.136  24.946  26.848  1.00  0.00     0.031 A 
ATOM     37  C   UNL A   1      45.568  25.355  26.630  1.00  0.00     0.074 A 
ATOM     38  C   UNL A   1      43.254  25.821  27.374  1.00  0.00     0.049 A 
ATOM     39  N   UNL A   1      46.146  26.500  26.884  1.00  0.00    -0.248 NA
ATOM     40  C   UNL A   1      46.478  24.329  26.094  1.00  0.00     0.031 C 
ATOM     41  C   UNL A   1      41.851  25.530  27.688  1.00  0.00     0.029 A 
ATOM     42  N   UNL A   1      43.408  27.134  27.742  1.00  0.00    -0.354 N 
ATOM     43  C   UNL A   1      47.489  26.321  26.573  1.00  0.00     0.074 A 
ATOM     44  C   UNL A   1      47.648  24.944  26.163  1.00  0.00     0.031 C 
ATOM     45  C   UNL A   1      41.266  26.644  28.159  1.00  0.00     0.029 A 
ATOM     46  C   UNL A   1      42.257  27.714  28.219  1.00  0.00     0.049 A 
ATOM     47  H   UNL A   1      44.264  27.616  27.669  1.00  0.00     0.167 HD
ATOM     48  C   UNL A   1      48.496  27.225  26.603  1.00  0.00     0.031 A 
ATOM     49  C   UNL A   1      42.023  28.967  28.655  1.00  0.00     0.031 A 
ATOM     50  C   UNL A   1      48.325  28.604  26.974  1.00  0.00     0.049 A 
ATOM     51  C   UNL A   1      43.150  29.963  28.654  1.00  0.00     0.074 A 
ATOM     52  C   UNL A   1      49.260  29.622  26.956  1.00  0.00     0.029 A 
ATOM     53  N   UNL A   1      47.137  29.156  27.428  1.00  0.00    -0.354 N 
ATOM     54  N   UNL A   1      44.397  29.794  28.282  1.00  0.00    -0.248 NA
ATOM     55  C   UNL A   1      42.836  31.320  29.120  1.00  0.00     0.031 C 
ATOM     56  C   UNL A   1      48.649  30.784  27.440  1.00  0.00     0.029 A 
ATOM     57  C   UNL A   1      47.320  30.499  27.713  1.00  0.00     0.049 A 
ATOM     58  H   UNL A   1      46.289  28.667  27.533  1.00  0.00     0.167 HD
ATOM     59  C   UNL A   1      45.008  31.033  28.441  1.00  0.00     0.074 A 
ATOM     60  C   UNL A   1      43.993  31.941  28.932  1.00  0.00     0.031 C 
ATOM     61  C   UNL A   1      46.295  31.386  28.199  1.00  0.00     0.031 A 
BRANCH  48  62
ATOM     62  C   UNL A   1      49.871  26.742  26.225  1.00  0.00    -0.014 A 
ATOM     63  C   UNL A   1      50.404  26.989  24.945  1.00  0.00     0.010 A 
ATOM     64  C   UNL A   1      50.646  26.039  27.164  1.00  0.00     0.010 A 
ATOM     65  C   UNL A   1      51.661  26.492  24.595  1.00  0.00     0.020 A 
ATOM     66  C   UNL A   1      51.918  25.567  26.826  1.00  0.00     0.020 A 
ATOM     67  C   UNL A   1      52.407  25.776  25.536  1.00  0.00     0.054 A 
BRANCH  67  68
ATOM     68  S   UNL A   1      54.038  25.144  25.055  1.00  0.00     0.124 S 
ATOM     69  O   UNL A   1      54.863  25.553  26.189  1.00  0.00    -0.237 OA
ATOM     70  O   UNL A   1      53.804  23.707  24.935  1.00  0.00    -0.237 OA
ATOM     71  O   UNL A   1      54.319  25.834  23.799  1.00  0.00    -0.744 OA
ENDBRANCH  67  68
ENDBRANCH  48  62
BRANCH  49  72
ATOM     72  C   UNL A   1      40.655  29.365  29.088  1.00  0.00    -0.014 A 
ATOM     73  C   UNL A   1      40.352  29.470  30.458  1.00  0.00     0.010 A 
ATOM     74  C   UNL A   1      39.655  29.653  28.143  1.00  0.00     0.010 A 
ATOM     75  C   UNL A   1      39.071  29.840  30.875  1.00  0.00     0.020 A 
ATOM     76  C   UNL A   1      38.378  30.048  28.556  1.00  0.00     0.020 A 
ATOM     77  C   UNL A   1      38.091  30.129  29.920  1.00  0.00     0.054 A 
BRANCH  77  78
ATOM     78  S   UNL A   1      36.451  30.661  30.485  1.00  0.00     0.124 S 
ATOM     79  O   UNL A   1      35.653  30.526  29.271  1.00  0.00    -0.237 OA
ATOM     80  O   UNL A   1      36.156  29.704  31.548  1.00  0.00    -0.237 OA
ATOM     81  O   UNL A   1      36.675  32.032  30.939  1.00  0.00    -0.744 OA
ENDBRANCH  77  78
ENDBRANCH  49  72
BRANCH  61  82
ATOM     82  C   UNL A   1      46.669  32.826  28.428  1.00  0.00    -0.014 A 
ATOM     83  C   UNL A   1      47.192  33.255  29.661  1.00  0.00     0.010 A 
ATOM     84  C   UNL A   1      46.547  33.749  27.373  1.00  0.00     0.010 A 
ATOM     85  C   UNL A   1      47.557  34.592  29.843  1.00  0.00     0.020 A 
ATOM     86  C   UNL A   1      46.935  35.079  27.545  1.00  0.00     0.020 A 
ATOM     87  C   UNL A   1      47.425  35.495  28.784  1.00  0.00     0.054 A 
BRANCH  87  88
ATOM     88  S   UNL A   1      47.946  37.215  29.031  1.00  0.00     0.124 S 
ATOM     89  O   UNL A   1      46.999  37.943  28.193  1.00  0.00    -0.237 OA
ATOM     90  O   UNL A   1      47.783  37.397  30.472  1.00  0.00    -0.237 OA
ATOM     91  O   UNL A   1      49.330  37.226  28.562  1.00  0.00    -0.744 OA
ENDBRANCH  87  88
ENDBRANCH  61  82
ENDBRANCH  35  36
ENDBRANCH  27  30
ENDBRANCH  25  26
ENDBRANCH  24  25
ENDBRANCH   1  24
TORSDOF 18
ENDMDL
MODEL 2
REMARK VINA RESULT:     -10.2      1.545      3.264
REMARK SMILES CO[C@@H]1C[C@H](C(=O)NCCCCNC(=O)c2ccc(-c3c4nc(c(-c5ccc(S(=O)(=O)[O-])cc5)c5ccc([nH]5)c(-c5ccc(S(=O)(=O)[O-])cc5)c5nc(c(-c6ccc(S(=O)(=O)[O-])cc6)c6ccc3[nH]6)C=C5)C=C4)cc2)N(C(=O)c2ccc([N+](=O)[O-])s2)C1
REMARK SMILES IDX 10 1 9 2 8 3 6 4 7 5 5 7 3 8 4 9 87 10 76 11 2 12 1 13 77 14
REMARK SMILES IDX 78 15 79 16 80 17 86 18 81 19 82 20 83 21 84 22 85 23 11 24
REMARK SMILES IDX 12 25 13 26 14 27 15 29 16 30 17 31 75 32 18 33 74 34 19 35
REMARK SMILES IDX 20 36 21 37 68 38 22 39 73 40 67 41 69 42 23 43 72 44 66 45
REMARK SMILES IDX 65 46 24 48 54 49 35 50 53 51 36 52 39 53 52 54 70 55 37 56
REMARK SMILES IDX 38 57 51 59 71 60 40 61 25 62 26 63 34 64 27 65 33 66 28 67
REMARK SMILES IDX 29 68 30 69 31 70 32 71 55 72 56 73 64 74 57 75 63 76 58 77
REMARK SMILES IDX 59 78 60 79 61 80 62 81 41 82 42 83 50 84 43 85 49 86 44 87
REMARK SMILES IDX 45 88 46 89 47 90 48 91
REMARK H PARENT 8 6 13 28 69 47 39 58
REMARK Flexibility Score: inf
ROOT
ATOM      1  C   UNL A   1      38.872  22.231  26.060  1.00  0.00     0.023 C 
ENDROOT
BRANCH   1   2
ATOM      2  C   UNL A   1      37.524  22.755  25.567  1.00  0.00     0.116 C 
BRANCH   2   3
ATOM      3  N   UNL A   1      36.436  22.307  26.412  1.00  0.00    -0.354 N 
ATOM      4  C   UNL A   1      35.303  21.615  26.125  1.00  0.00     0.242 C 
ATOM      5  O   UNL A   1      34.491  21.475  27.050  1.00  0.00    -0.273 OA
ATOM      6  H   UNL A   1      36.535  22.546  27.361  1.00  0.00     0.163 HD
BRANCH   4   7
ATOM      7  C   UNL A   1      34.920  21.100  24.716  1.00  0.00     0.177 C 
ATOM      8  C   UNL A   1      33.097  19.532  24.188  1.00  0.00     0.139 C 
ATOM      9  C   UNL A   1      34.543  19.620  24.686  1.00  0.00     0.069 C 
ATOM     10  C   UNL A   1      32.728  20.939  23.713  1.00  0.00     0.152 C 
ATOM     11  N   UNL A   1      33.852  21.803  24.020  1.00  0.00    -0.323 N 
BRANCH   8  12
ATOM     12  O   UNL A   1      32.215  19.123  25.229  1.00  0.00    -0.380 OA
ATOM     13  C   UNL A   1      32.575  17.879  25.823  1.00  0.00     0.195 C 
ENDBRANCH   8  12
BRANCH  11  14
ATOM     14  C   UNL A   1      33.892  23.093  23.503  1.00  0.00     0.264 C 
ATOM     15  O   UNL A   1      34.286  23.290  22.355  1.00  0.00    -0.268 OA
BRANCH  14  16
ATOM     16  C   UNL A   1      33.545  24.189  24.393  1.00  0.00     0.099 A 
ATOM     17  C   UNL A   1      34.391  25.093  25.013  1.00  0.00     0.033 A 
ATOM     18  S   UNL A   1      31.901  24.575  24.680  1.00  0.00    -0.058 S 
ATOM     19  C   UNL A   1      33.684  26.070  25.772  1.00  0.00     0.099 A 
ATOM     20  C   UNL A   1      32.322  25.899  25.660  1.00  0.00     0.324 A 
BRANCH  20  21
ATOM     21  N   UNL A   1      31.310  26.731  26.258  1.00  0.00     0.074 N 
ATOM     22  O   UNL A   1      30.356  26.137  26.784  1.00  0.00    -0.258 OA
ATOM     23  O   UNL A   1      31.458  27.958  26.229  1.00  0.00    -0.258 OA
ENDBRANCH  20  21
ENDBRANCH  14  16
ENDBRANCH  11  14
ENDBRANCH   4   7
ENDBRANCH   2   3
ENDBRANCH   1   2
BRANCH   1  24
ATOM     24  C   UNL A   1      39.222  20.812  25.630  1.00  0.00     0.023 C 
BRANCH  24  25
ATOM     25  C   UNL A   1      40.066  20.031  26.632  1.00  0.00     0.116 C 
BRANCH  25  26
ATOM     26  N   UNL A   1      41.282  19.451  26.072  1.00  0.00    -0.352 N 
ATOM     27  C   UNL A   1      42.508  20.051  25.874  1.00  0.00     0.251 C 
ATOM     28  H   UNL A   1      41.218  18.507  25.800  1.00  0.00     0.163 HD
ATOM     29  O   UNL A   1      43.417  19.446  25.327  1.00  0.00    -0.269 OA
BRANCH  27  30
ATOM     30  C   UNL A   1      42.681  21.460  26.288  1.00  0.00     0.039 A 
ATOM     31  C   UNL A   1      43.058  21.738  27.603  1.00  0.00     0.014 A 
ATOM     32  C   UNL A   1      42.568  22.487  25.350  1.00  0.00     0.014 A 
ATOM     33  C   UNL A   1      43.418  23.042  27.951  1.00  0.00     0.010 A 
ATOM     34  C   UNL A   1      43.021  23.759  25.672  1.00  0.00     0.010 A 
ATOM     35  C   UNL A   1      43.455  24.051  26.974  1.00  0.00    -0.014 A 
BRANCH  35  36
ATOM     36  C   UNL A   1      43.953  25.417  27.282  1.00  0.00     0.031 A 
ATOM     37  C   UNL A   1      45.367  25.795  26.935  1.00  0.00     0.074 A 
ATOM     38  C   UNL A   1      43.164  26.281  27.952  1.00  0.00     0.049 A 
ATOM     39  N   UNL A   1      46.011  26.903  27.194  1.00  0.00    -0.248 NA
ATOM     40  C   UNL A   1      46.177  24.779  26.242  1.00  0.00     0.031 C 
ATOM     41  C   UNL A   1      41.794  26.014  28.398  1.00  0.00     0.029 A 
ATOM     42  N   UNL A   1      43.405  27.563  28.380  1.00  0.00    -0.354 N 
ATOM     43  C   UNL A   1      47.306  26.704  26.729  1.00  0.00     0.074 A 
ATOM     44  C   UNL A   1      47.370  25.352  26.221  1.00  0.00     0.031 C 
ATOM     45  C   UNL A   1      41.303  27.113  28.997  1.00  0.00     0.029 A 
ATOM     46  C   UNL A   1      42.334  28.145  29.014  1.00  0.00     0.049 A 
ATOM     47  H   UNL A   1      44.266  28.023  28.244  1.00  0.00     0.167 HD
ATOM     48  C   UNL A   1      48.343  27.574  26.704  1.00  0.00     0.031 A 
ATOM     49  C   UNL A   1      42.194  29.375  29.548  1.00  0.00     0.031 A 
ATOM     50  C   UNL A   1      48.264  28.930  27.175  1.00  0.00     0.049 A 
ATOM     51  C   UNL A   1      43.351  30.334  29.485  1.00  0.00     0.074 A 
ATOM     52  C   UNL A   1      49.229  29.919  27.117  1.00  0.00     0.029 A 
ATOM     53  N   UNL A   1      47.153  29.488  27.787  1.00  0.00    -0.354 N 
ATOM     54  N   UNL A   1      44.544  30.152  28.970  1.00  0.00    -0.248 NA
ATOM     55  C   UNL A   1      43.138  31.668  30.064  1.00  0.00     0.031 C 
ATOM     56  C   UNL A   1      48.716  31.065  27.734  1.00  0.00     0.029 A 
ATOM     57  C   UNL A   1      47.414  30.804  28.131  1.00  0.00     0.049 A 
ATOM     58  H   UNL A   1      46.303  29.019  27.953  1.00  0.00     0.167 HD
ATOM     59  C   UNL A   1      45.214  31.359  29.137  1.00  0.00     0.074 A 
ATOM     60  C   UNL A   1      44.291  32.264  29.790  1.00  0.00     0.031 C 
ATOM     61  C   UNL A   1      46.480  31.688  28.779  1.00  0.00     0.031 A 
BRANCH  48  62
ATOM     62  C   UNL A   1      49.651  27.075  26.150  1.00  0.00    -0.014 A 
ATOM     63  C   UNL A   1      49.951  27.183  24.779  1.00  0.00     0.010 A 
ATOM     64  C   UNL A   1      50.599  26.496  27.013  1.00  0.00     0.010 A 
ATOM     65  C   UNL A   1      51.148  26.671  24.274  1.00  0.00     0.020 A 
ATOM     66  C   UNL A   1      51.812  26.011  26.516  1.00  0.00     0.020 A 
ATOM     67  C   UNL A   1      52.068  26.081  25.146  1.00  0.00     0.054 A 
BRANCH  67  68
ATOM     68  S   UNL A   1      53.617  25.426  24.463  1.00  0.00     0.124 S 
ATOM     69  O   UNL A   1      53.516  25.822  23.061  1.00  0.00    -0.237 OA
ATOM     70  O   UNL A   1      54.634  26.129  25.242  1.00  0.00    -0.237 OA
ATOM     71  O   UNL A   1      53.526  23.991  24.715  1.00  0.00    -0.744 OA
ENDBRANCH  67  68
ENDBRANCH  48  62
BRANCH  49  72
ATOM     72  C   UNL A   1      40.896  29.785  30.150  1.00  0.00    -0.014 A 
ATOM     73  C   UNL A   1      40.720  29.737  31.545  1.00  0.00     0.010 A 
ATOM     74  C   UNL A   1      39.837  30.237  29.342  1.00  0.00     0.010 A 
ATOM     75  C   UNL A   1      39.504  30.118  32.120  1.00  0.00     0.020 A 
ATOM     76  C   UNL A   1      38.627  30.642  29.916  1.00  0.00     0.020 A 
ATOM     77  C   UNL A   1      38.465  30.570  31.301  1.00  0.00     0.054 A 
BRANCH  77  78
ATOM     78  S   UNL A   1      36.915  31.112  32.074  1.00  0.00     0.124 S 
ATOM     79  O   UNL A   1      35.957  30.149  31.541  1.00  0.00    -0.237 OA
ATOM     80  O   UNL A   1      37.213  30.987  33.500  1.00  0.00    -0.237 OA
ATOM     81  O   UNL A   1      36.758  32.484  31.598  1.00  0.00    -0.744 OA
ENDBRANCH  77  78
ENDBRANCH  49  72
BRANCH  61  82
ATOM     82  C   UNL A   1      46.929  33.098  29.053  1.00  0.00    -0.014 A 
ATOM     83  C   UNL A   1      47.591  33.432  30.247  1.00  0.00     0.010 A 
ATOM     84  C   UNL A   1      46.735  34.089  28.073  1.00  0.00     0.010 A 
ATOM     85  C   UNL A   1      48.022  34.742  30.470  1.00  0.00     0.020 A 
ATOM     86  C   UNL A   1      47.188  35.392  28.282  1.00  0.00     0.020 A 
ATOM     87  C   UNL A   1      47.817  35.715  29.486  1.00  0.00     0.054 A 
BRANCH  87  88
ATOM     88  S   UNL A   1      48.425  37.398  29.780  1.00  0.00     0.124 S 
ATOM     89  O   UNL A   1      47.501  38.198  28.982  1.00  0.00    -0.237 OA
ATOM     90  O   UNL A   1      48.294  37.540  31.228  1.00  0.00    -0.237 OA
ATOM     91  O   UNL A   1      49.801  37.359  29.287  1.00  0.00    -0.744 OA
ENDBRANCH  87  88
ENDBRANCH  61  82
ENDBRANCH  35  36
ENDBRANCH  27  30
ENDBRANCH  25  26
ENDBRANCH  24  25
ENDBRANCH   1  24
TORSDOF 18
ENDMDL
MODEL 3
REMARK VINA RESULT:      -9.8      4.445      8.784
REMARK SMILES CO[C@@H]1C[C@H](C(=O)NCCCCNC(=O)c2ccc(-c3c4nc(c(-c5ccc(S(=O)(=O)[O-])cc5)c5ccc([nH]5)c(-c5ccc(S(=O)(=O)[O-])cc5)c5nc(c(-c6ccc(S(=O)(=O)[O-])cc6)c6ccc3[nH]6)C=C5)C=C4)cc2)N(C(=O)c2ccc([N+](=O)[O-])s2)C1
REMARK SMILES IDX 10 1 9 2 8 3 6 4 7 5 5 7 3 8 4 9 87 10 76 11 2 12 1 13 77 14
REMARK SMILES IDX 78 15 79 16 80 17 86 18 81 19 82 20 83 21 84 22 85 23 11 24
REMARK SMILES IDX 12 25 13 26 14 27 15 29 16 30 17 31 75 32 18 33 74 34 19 35
REMARK SMILES IDX 20 36 21 37 68 38 22 39 73 40 67 41 69 42 23 43 72 44 66 45
REMARK SMILES IDX 65 46 24 48 54 49 35 50 53 51 36 52 39 53 52 54 70 55 37 56
REMARK SMILES IDX 38 57 51 59 71 60 40 61 25 62 26 63 34 64 27 65 33 66 28 67
REMARK SMILES IDX 29 68 30 69 31 70 32 71 55 72 56 73 64 74 57 75 63 76 58 77
REMARK SMILES IDX 59 78 60 79 61 80 62 81 41 82 42 83 50 84 43 85 49 86 44 87
REMARK SMILES IDX 45 88 46 89 47 90 48 91
REMARK H PARENT 8 6 13 28 69 47 39 58
REMARK Flexibility Score: inf
ROOT
ATOM      1  C   UNL A   1      43.821  21.586  25.446  1.00  0.00     0.023 C 
ENDROOT
BRANCH   1   2
ATOM      2  C   UNL A   1      43.589  22.855  24.628  1.00  0.00     0.116 C 
BRANCH   2   3
ATOM      3  N   UNL A   1      44.840  23.456  24.209  1.00  0.00    -0.354 N 
ATOM      4  C   UNL A   1      45.669  24.331  24.834  1.00  0.00     0.242 C 
ATOM      5  O   UNL A   1      46.622  24.761  24.169  1.00  0.00    -0.273 OA
ATOM      6  H   UNL A   1      45.142  23.180  23.314  1.00  0.00     0.163 HD
BRANCH   4   7
ATOM      7  C   UNL A   1      45.437  24.900  26.255  1.00  0.00     0.177 C 
ATOM      8  C   UNL A   1      47.079  24.941  28.089  1.00  0.00     0.139 C 
ATOM      9  C   UNL A   1      46.062  24.055  27.363  1.00  0.00     0.069 C 
ATOM     10  C   UNL A   1      46.867  26.357  27.548  1.00  0.00     0.152 C 
ATOM     11  N   UNL A   1      45.868  26.269  26.500  1.00  0.00    -0.323 N 
BRANCH   8  12
ATOM     12  O   UNL A   1      48.413  24.516  27.831  1.00  0.00    -0.380 OA
ATOM     13  C   UNL A   1      49.162  25.439  27.047  1.00  0.00     0.195 C 
ENDBRANCH   8  12
BRANCH  11  14
ATOM     14  C   UNL A   1      45.312  27.432  25.978  1.00  0.00     0.264 C 
ATOM     15  O   UNL A   1      44.780  27.423  24.870  1.00  0.00    -0.268 OA
BRANCH  14  16
ATOM     16  C   UNL A   1      45.471  28.659  26.742  1.00  0.00     0.099 A 
ATOM     17  C   UNL A   1      46.642  29.258  27.174  1.00  0.00     0.033 A 
ATOM     18  S   UNL A   1      44.104  29.630  27.097  1.00  0.00    -0.058 S 
ATOM     19  C   UNL A   1      46.408  30.490  27.850  1.00  0.00     0.099 A 
ATOM     20  C   UNL A   1      45.067  30.806  27.863  1.00  0.00     0.324 A 
BRANCH  20  21
ATOM     21  N   UNL A   1      44.480  31.996  28.422  1.00  0.00     0.074 N 
ATOM     22  O   UNL A   1      43.318  31.886  28.842  1.00  0.00    -0.258 OA
ATOM     23  O   UNL A   1      45.161  33.028  28.466  1.00  0.00    -0.258 OA
ENDBRANCH  20  21
ENDBRANCH  14  16
ENDBRANCH  11  14
ENDBRANCH   4   7
ENDBRANCH   2   3
ENDBRANCH   1   2
BRANCH   1  24
ATOM     24  C   UNL A   1      42.694  21.205  26.398  1.00  0.00     0.023 C 
BRANCH  24  25
ATOM     25  C   UNL A   1      41.696  22.321  26.686  1.00  0.00     0.116 C 
BRANCH  25  26
ATOM     26  N   UNL A   1      40.374  22.111  26.109  1.00  0.00    -0.352 N 
ATOM     27  C   UNL A   1      39.291  22.964  26.108  1.00  0.00     0.251 C 
ATOM     28  H   UNL A   1      40.237  21.246  25.660  1.00  0.00     0.163 HD
ATOM     29  O   UNL A   1      38.220  22.614  25.637  1.00  0.00    -0.269 OA
BRANCH  27  30
ATOM     30  C   UNL A   1      39.437  24.294  26.739  1.00  0.00     0.039 A 
ATOM     31  C   UNL A   1      38.986  24.477  28.047  1.00  0.00     0.014 A 
ATOM     32  C   UNL A   1      40.110  25.319  26.070  1.00  0.00     0.014 A 
ATOM     33  C   UNL A   1      39.297  25.660  28.720  1.00  0.00     0.010 A 
ATOM     34  C   UNL A   1      40.503  26.450  26.773  1.00  0.00     0.010 A 
ATOM     35  C   UNL A   1      40.106  26.632  28.107  1.00  0.00    -0.014 A 
BRANCH  35  36
ATOM     36  C   UNL A   1      40.560  27.843  28.837  1.00  0.00     0.031 A 
ATOM     37  C   UNL A   1      41.935  27.879  29.447  1.00  0.00     0.074 A 
ATOM     38  C   UNL A   1      39.706  28.869  29.029  1.00  0.00     0.049 A 
ATOM     39  N   UNL A   1      42.484  28.806  30.189  1.00  0.00    -0.248 NA
ATOM     40  C   UNL A   1      42.791  26.701  29.228  1.00  0.00     0.031 C 
ATOM     41  C   UNL A   1      38.325  28.931  28.540  1.00  0.00     0.029 A 
ATOM     42  N   UNL A   1      39.872  30.059  29.692  1.00  0.00    -0.354 N 
ATOM     43  C   UNL A   1      43.730  28.308  30.552  1.00  0.00     0.074 A 
ATOM     44  C   UNL A   1      43.834  26.979  29.995  1.00  0.00     0.031 C 
ATOM     45  C   UNL A   1      37.789  30.114  28.883  1.00  0.00     0.029 A 
ATOM     46  C   UNL A   1      38.768  30.877  29.649  1.00  0.00     0.049 A 
ATOM     47  H   UNL A   1      40.706  30.304  30.156  1.00  0.00     0.167 HD
ATOM     48  C   UNL A   1      44.710  28.911  31.266  1.00  0.00     0.031 A 
ATOM     49  C   UNL A   1      38.567  32.105  30.166  1.00  0.00     0.031 A 
ATOM     50  C   UNL A   1      44.617  30.249  31.785  1.00  0.00     0.049 A 
ATOM     51  C   UNL A   1      39.680  32.766  30.932  1.00  0.00     0.074 A 
ATOM     52  C   UNL A   1      45.584  30.984  32.447  1.00  0.00     0.029 A 
ATOM     53  N   UNL A   1      43.491  31.052  31.698  1.00  0.00    -0.354 N 
ATOM     54  N   UNL A   1      40.880  32.310  31.198  1.00  0.00    -0.248 NA
ATOM     55  C   UNL A   1      39.414  34.113  31.456  1.00  0.00     0.031 C 
ATOM     56  C   UNL A   1      45.028  32.218  32.798  1.00  0.00     0.029 A 
ATOM     57  C   UNL A   1      43.731  32.270  32.311  1.00  0.00     0.049 A 
ATOM     58  H   UNL A   1      42.645  30.795  31.264  1.00  0.00     0.167 HD
ATOM     59  C   UNL A   1      41.524  33.326  31.896  1.00  0.00     0.074 A 
ATOM     60  C   UNL A   1      40.583  34.423  32.000  1.00  0.00     0.031 C 
ATOM     61  C   UNL A   1      42.781  33.349  32.402  1.00  0.00     0.031 A 
BRANCH  48  62
ATOM     62  C   UNL A   1      45.964  28.119  31.524  1.00  0.00    -0.014 A 
ATOM     63  C   UNL A   1      47.091  28.245  30.689  1.00  0.00     0.010 A 
ATOM     64  C   UNL A   1      46.022  27.243  32.623  1.00  0.00     0.010 A 
ATOM     65  C   UNL A   1      48.228  27.467  30.914  1.00  0.00     0.020 A 
ATOM     66  C   UNL A   1      47.171  26.485  32.869  1.00  0.00     0.020 A 
ATOM     67  C   UNL A   1      48.258  26.585  31.999  1.00  0.00     0.054 A 
BRANCH  67  68
ATOM     68  S   UNL A   1      49.749  25.589  32.270  1.00  0.00     0.124 S 
ATOM     69  O   UNL A   1      50.683  26.584  32.792  1.00  0.00    -0.237 OA
ATOM     70  O   UNL A   1      49.297  24.588  33.234  1.00  0.00    -0.237 OA
ATOM     71  O   UNL A   1      50.066  25.072  30.942  1.00  0.00    -0.744 OA
ENDBRANCH  67  68
ENDBRANCH  48  62
BRANCH  49  72
ATOM     72  C   UNL A   1      37.275  32.808  29.939  1.00  0.00    -0.014 A 
ATOM     73  C   UNL A   1      36.349  32.938  30.990  1.00  0.00     0.010 A 
ATOM     74  C   UNL A   1      36.966  33.363  28.684  1.00  0.00     0.010 A 
ATOM     75  C   UNL A   1      35.132  33.594  30.787  1.00  0.00     0.020 A 
ATOM     76  C   UNL A   1      35.759  34.042  28.483  1.00  0.00     0.020 A 
ATOM     77  C   UNL A   1      34.845  34.144  29.534  1.00  0.00     0.054 A 
BRANCH  77  78
ATOM     78  S   UNL A   1      33.283  35.040  29.310  1.00  0.00     0.124 S 
ATOM     79  O   UNL A   1      32.693  34.962  30.642  1.00  0.00    -0.237 OA
ATOM     80  O   UNL A   1      33.736  36.366  28.894  1.00  0.00    -0.237 OA
ATOM     81  O   UNL A   1      32.597  34.273  28.272  1.00  0.00    -0.744 OA
ENDBRANCH  77  78
ENDBRANCH  49  72
BRANCH  61  82
ATOM     82  C   UNL A   1      43.227  34.615  33.084  1.00  0.00    -0.014 A 
ATOM     83  C   UNL A   1      43.093  34.779  34.474  1.00  0.00     0.010 A 
ATOM     84  C   UNL A   1      43.839  35.630  32.326  1.00  0.00     0.010 A 
ATOM     85  C   UNL A   1      43.537  35.952  35.090  1.00  0.00     0.020 A 
ATOM     86  C   UNL A   1      44.307  36.791  32.943  1.00  0.00     0.020 A 
ATOM     87  C   UNL A   1      44.140  36.951  34.320  1.00  0.00     0.054 A 
BRANCH  87  88
ATOM     88  S   UNL A   1      44.748  38.446  35.149  1.00  0.00     0.124 S 
ATOM     89  O   UNL A   1      44.222  39.504  34.291  1.00  0.00    -0.237 OA
ATOM     90  O   UNL A   1      44.142  38.349  36.474  1.00  0.00    -0.237 OA
ATOM     91  O   UNL A   1      46.201  38.288  35.123  1.00  0.00    -0.744 OA
ENDBRANCH  87  88
ENDBRANCH  61  82
ENDBRANCH  35  36
ENDBRANCH  27  30
ENDBRANCH  25  26
ENDBRANCH  24  25
ENDBRANCH   1  24
TORSDOF 18
ENDMDL
