MODEL 1
REMARK VINA RESULT:     -10.4      0.000      0.000
REMARK SMILES CC[C@@](C)(NC(=O)Nc1ccccc1C#N)C(=O)NCCCCNC(=O)c1ccc(-c2c3nc(c(-c4ccc(S(=O)(=O)[O-])cc4)c4ccc([nH]4)c(-c4ccc(S(=O)(=O)[O-])cc4)c4nc(c(-c5ccc(S(=O)(=O)[O-])cc5)c5ccc2[nH]5)C=C4)C=C3)cc1
REMARK SMILES IDX 21 1 20 2 19 3 17 4 18 5 3 7 4 8 2 9 1 10 5 11 6 12 7 14
REMARK SMILES IDX 8 15 9 17 10 18 14 19 11 20 13 21 12 22 15 23 16 24 22 25
REMARK SMILES IDX 23 26 24 27 25 28 26 30 27 31 28 32 86 33 29 34 85 35 30 36
REMARK SMILES IDX 31 37 32 38 79 39 33 40 84 41 78 42 80 43 34 44 83 45 77 46
REMARK SMILES IDX 76 47 35 49 65 50 46 51 64 52 47 53 50 54 63 55 81 56 48 57
REMARK SMILES IDX 49 58 62 60 82 61 51 62 36 63 37 64 45 65 38 66 44 67 39 68
REMARK SMILES IDX 40 69 41 70 42 71 43 72 66 73 67 74 75 75 68 76 74 77 69 78
REMARK SMILES IDX 70 79 71 80 72 81 73 82 52 83 53 84 61 85 54 86 60 87 55 88
REMARK SMILES IDX 56 89 57 90 58 91 59 92
REMARK H PARENT 19 6 5 13 8 16 24 29 80 48 50 59
REMARK Flexibility Score: inf
ROOT
ATOM      1  C   UNL A   1      34.913  23.052  23.326  1.00  0.00     0.023 C 
ENDROOT
BRANCH   1   2
ATOM      2  C   UNL A   1      33.812  24.022  22.824  1.00  0.00     0.116 C 
BRANCH   2   3
ATOM      3  N   UNL A   1      32.471  23.452  22.807  1.00  0.00    -0.354 N 
ATOM      4  C   UNL A   1      31.377  23.597  23.660  1.00  0.00     0.245 C 
ATOM      5  O   UNL A   1      30.293  24.013  23.255  1.00  0.00    -0.272 OA
ATOM      6  H   UNL A   1      32.306  22.849  22.047  1.00  0.00     0.163 HD
BRANCH   4   7
ATOM      7  C   UNL A   1      31.590  23.225  25.137  1.00  0.00     0.117 C 
ATOM      8  C   UNL A   1      31.828  21.695  24.968  1.00  0.00     0.045 C 
BRANCH   7   9
ATOM      9  C   UNL A   1      32.746  23.739  26.038  1.00  0.00     0.035 C 
ATOM     10  C   UNL A   1      33.272  22.879  27.163  1.00  0.00     0.007 C 
ENDBRANCH   7   9
BRANCH   7  11
ATOM     11  N   UNL A   1      30.352  23.602  25.832  1.00  0.00    -0.324 N 
ATOM     12  C   UNL A   1      29.885  24.804  26.253  1.00  0.00     0.320 C 
ATOM     13  H   UNL A   1      29.754  22.845  26.030  1.00  0.00     0.166 HD
ATOM     14  O   UNL A   1      28.942  24.770  27.050  1.00  0.00    -0.248 OA
ATOM     15  N   UNL A   1      30.190  26.026  25.693  1.00  0.00    -0.307 N 
ATOM     16  H   UNL A   1      29.399  26.509  25.361  1.00  0.00     0.171 HD
BRANCH  15  17
ATOM     17  C   UNL A   1      31.423  26.745  25.488  1.00  0.00     0.060 A 
ATOM     18  C   UNL A   1      32.002  27.270  26.653  1.00  0.00     0.027 A 
ATOM     19  C   UNL A   1      31.947  27.259  24.265  1.00  0.00     0.076 A 
ATOM     20  C   UNL A   1      33.163  28.058  26.609  1.00  0.00     0.002 A 
ATOM     21  C   UNL A   1      33.192  27.910  24.235  1.00  0.00     0.021 A 
ATOM     22  C   UNL A   1      33.805  28.305  25.405  1.00  0.00     0.002 A 
BRANCH  19  23
ATOM     23  C   UNL A   1      31.304  27.389  22.979  1.00  0.00     0.101 C 
ATOM     24  N   UNL A   1      30.941  27.493  21.887  1.00  0.00    -0.192 NA
ENDBRANCH  19  23
ENDBRANCH  15  17
ENDBRANCH   7  11
ENDBRANCH   4   7
ENDBRANCH   2   3
ENDBRANCH   1   2
BRANCH   1  25
ATOM     25  C   UNL A   1      36.361  23.539  23.520  1.00  0.00     0.023 C 
BRANCH  25  26
ATOM     26  C   UNL A   1      36.873  23.694  24.943  1.00  0.00     0.116 C 
BRANCH  26  27
ATOM     27  N   UNL A   1      37.800  22.661  25.335  1.00  0.00    -0.352 N 
ATOM     28  C   UNL A   1      38.936  22.733  26.096  1.00  0.00     0.251 C 
ATOM     29  H   UNL A   1      37.581  21.760  25.001  1.00  0.00     0.163 HD
ATOM     30  O   UNL A   1      39.628  21.727  26.229  1.00  0.00    -0.269 OA
BRANCH  28  31
ATOM     31  C   UNL A   1      39.361  24.006  26.726  1.00  0.00     0.039 A 
ATOM     32  C   UNL A   1      38.961  24.245  28.043  1.00  0.00     0.014 A 
ATOM     33  C   UNL A   1      40.095  24.977  26.038  1.00  0.00     0.014 A 
ATOM     34  C   UNL A   1      39.329  25.430  28.683  1.00  0.00     0.010 A 
ATOM     35  C   UNL A   1      40.520  26.132  26.702  1.00  0.00     0.010 A 
ATOM     36  C   UNL A   1      40.140  26.374  28.033  1.00  0.00    -0.014 A 
BRANCH  36  37
ATOM     37  C   UNL A   1      40.600  27.599  28.744  1.00  0.00     0.031 A 
ATOM     38  C   UNL A   1      41.972  27.660  29.364  1.00  0.00     0.074 A 
ATOM     39  C   UNL A   1      39.767  28.653  28.860  1.00  0.00     0.049 A 
ATOM     40  N   UNL A   1      42.529  28.635  30.038  1.00  0.00    -0.248 NA
ATOM     41  C   UNL A   1      42.823  26.467  29.225  1.00  0.00     0.031 C 
ATOM     42  C   UNL A   1      38.404  28.715  28.326  1.00  0.00     0.029 A 
ATOM     43  N   UNL A   1      39.939  29.875  29.464  1.00  0.00    -0.354 N 
ATOM     44  C   UNL A   1      43.787  28.171  30.413  1.00  0.00     0.074 A 
ATOM     45  C   UNL A   1      43.889  26.810  29.934  1.00  0.00     0.031 C 
ATOM     46  C   UNL A   1      37.879  29.921  28.595  1.00  0.00     0.029 A 
ATOM     47  C   UNL A   1      38.841  30.699  29.367  1.00  0.00     0.049 A 
ATOM     48  H   UNL A   1      40.770  30.137  29.922  1.00  0.00     0.167 HD
ATOM     49  C   UNL A   1      44.770  28.821  31.080  1.00  0.00     0.031 A 
ATOM     50  C   UNL A   1      38.623  31.938  29.854  1.00  0.00     0.031 A 
ATOM     51  C   UNL A   1      44.661  30.176  31.561  1.00  0.00     0.049 A 
ATOM     52  C   UNL A   1      39.717  32.623  30.629  1.00  0.00     0.074 A 
ATOM     53  C   UNL A   1      45.620  30.938  32.206  1.00  0.00     0.029 A 
ATOM     54  N   UNL A   1      43.526  30.968  31.458  1.00  0.00    -0.354 N 
ATOM     55  N   UNL A   1      40.921  32.189  30.916  1.00  0.00    -0.248 NA
ATOM     56  C   UNL A   1      39.424  33.970  31.140  1.00  0.00     0.031 C 
ATOM     57  C   UNL A   1      45.041  32.160  32.562  1.00  0.00     0.029 A 
ATOM     58  C   UNL A   1      43.749  32.195  32.062  1.00  0.00     0.049 A 
ATOM     59  H   UNL A   1      42.687  30.697  31.022  1.00  0.00     0.167 HD
ATOM     60  C   UNL A   1      41.541  33.224  31.609  1.00  0.00     0.074 A 
ATOM     61  C   UNL A   1      40.584  34.310  31.683  1.00  0.00     0.031 C 
ATOM     62  C   UNL A   1      42.791  33.270  32.134  1.00  0.00     0.031 A 
BRANCH  49  63
ATOM     63  C   UNL A   1      46.051  28.071  31.352  1.00  0.00    -0.014 A 
ATOM     64  C   UNL A   1      46.232  27.333  32.536  1.00  0.00     0.010 A 
ATOM     65  C   UNL A   1      47.073  28.062  30.384  1.00  0.00     0.010 A 
ATOM     66  C   UNL A   1      47.422  26.637  32.765  1.00  0.00     0.020 A 
ATOM     67  C   UNL A   1      48.251  27.338  30.592  1.00  0.00     0.020 A 
ATOM     68  C   UNL A   1      48.425  26.643  31.791  1.00  0.00     0.054 A 
BRANCH  68  69
ATOM     69  S   UNL A   1      49.946  25.707  32.103  1.00  0.00     0.124 S 
ATOM     70  O   UNL A   1      50.819  26.731  32.673  1.00  0.00    -0.237 OA
ATOM     71  O   UNL A   1      49.499  24.675  33.034  1.00  0.00    -0.237 OA
ATOM     72  O   UNL A   1      50.336  25.223  30.782  1.00  0.00    -0.744 OA
ENDBRANCH  68  69
ENDBRANCH  49  63
BRANCH  50  73
ATOM     73  C   UNL A   1      37.314  32.612  29.622  1.00  0.00    -0.014 A 
ATOM     74  C   UNL A   1      36.331  32.642  30.628  1.00  0.00     0.010 A 
ATOM     75  C   UNL A   1      37.042  33.232  28.389  1.00  0.00     0.010 A 
ATOM     76  C   UNL A   1      35.098  33.258  30.398  1.00  0.00     0.020 A 
ATOM     77  C   UNL A   1      35.825  33.880  28.166  1.00  0.00     0.020 A 
ATOM     78  C   UNL A   1      34.854  33.878  29.170  1.00  0.00     0.054 A 
BRANCH  78  79
ATOM     79  S   UNL A   1      33.264  34.713  28.911  1.00  0.00     0.124 S 
ATOM     80  O   UNL A   1      32.638  33.867  27.900  1.00  0.00    -0.237 OA
ATOM     81  O   UNL A   1      32.663  34.661  30.241  1.00  0.00    -0.237 OA
ATOM     82  O   UNL A   1      33.648  36.048  28.459  1.00  0.00    -0.744 OA
ENDBRANCH  78  79
ENDBRANCH  50  73
BRANCH  62  83
ATOM     83  C   UNL A   1      43.221  34.553  32.801  1.00  0.00    -0.014 A 
ATOM     84  C   UNL A   1      43.620  35.674  32.053  1.00  0.00     0.010 A 
ATOM     85  C   UNL A   1      43.174  34.650  34.205  1.00  0.00     0.010 A 
ATOM     86  C   UNL A   1      43.996  36.857  32.697  1.00  0.00     0.020 A 
ATOM     87  C   UNL A   1      43.512  35.842  34.851  1.00  0.00     0.020 A 
ATOM     88  C   UNL A   1      43.935  36.934  34.092  1.00  0.00     0.054 A 
BRANCH  88  89
ATOM     89  S   UNL A   1      44.382  38.495  34.899  1.00  0.00     0.124 S 
ATOM     90  O   UNL A   1      43.860  38.302  36.249  1.00  0.00    -0.237 OA
ATOM     91  O   UNL A   1      45.839  38.506  34.785  1.00  0.00    -0.237 OA
ATOM     92  O   UNL A   1      43.693  39.509  34.105  1.00  0.00    -0.744 OA
ENDBRANCH  88  89
ENDBRANCH  62  83
ENDBRANCH  36  37
ENDBRANCH  28  31
ENDBRANCH  26  27
ENDBRANCH  25  26
ENDBRANCH   1  25
TORSDOF 18
ENDMDL
MODEL 2
REMARK VINA RESULT:     -10.2      3.169      8.965
REMARK SMILES CC[C@@](C)(NC(=O)Nc1ccccc1C#N)C(=O)NCCCCNC(=O)c1ccc(-c2c3nc(c(-c4ccc(S(=O)(=O)[O-])cc4)c4ccc([nH]4)c(-c4ccc(S(=O)(=O)[O-])cc4)c4nc(c(-c5ccc(S(=O)(=O)[O-])cc5)c5ccc2[nH]5)C=C4)C=C3)cc1
REMARK SMILES IDX 21 1 20 2 19 3 17 4 18 5 3 7 4 8 2 9 1 10 5 11 6 12 7 14
REMARK SMILES IDX 8 15 9 17 10 18 14 19 11 20 13 21 12 22 15 23 16 24 22 25
REMARK SMILES IDX 23 26 24 27 25 28 26 30 27 31 28 32 86 33 29 34 85 35 30 36
REMARK SMILES IDX 31 37 32 38 79 39 33 40 84 41 78 42 80 43 34 44 83 45 77 46
REMARK SMILES IDX 76 47 35 49 65 50 46 51 64 52 47 53 50 54 63 55 81 56 48 57
REMARK SMILES IDX 49 58 62 60 82 61 51 62 36 63 37 64 45 65 38 66 44 67 39 68
REMARK SMILES IDX 40 69 41 70 42 71 43 72 66 73 67 74 75 75 68 76 74 77 69 78
REMARK SMILES IDX 70 79 71 80 72 81 73 82 52 83 53 84 61 85 54 86 60 87 55 88
REMARK SMILES IDX 56 89 57 90 58 91 59 92
REMARK H PARENT 19 6 5 13 8 16 24 29 80 48 50 59
REMARK Flexibility Score: inf
ROOT
ATOM      1  C   UNL A   1      33.679  28.589  23.657  1.00  0.00     0.023 C 
ENDROOT
BRANCH   1   2
ATOM      2  C   UNL A   1      32.829  27.966  22.519  1.00  0.00     0.116 C 
BRANCH   2   3
ATOM      3  N   UNL A   1      33.485  26.878  21.806  1.00  0.00    -0.354 N 
ATOM      4  C   UNL A   1      33.091  25.571  21.517  1.00  0.00     0.245 C 
ATOM      5  O   UNL A   1      33.016  25.160  20.361  1.00  0.00    -0.272 OA
ATOM      6  H   UNL A   1      34.377  27.109  21.462  1.00  0.00     0.163 HD
BRANCH   4   7
ATOM      7  C   UNL A   1      32.740  24.668  22.711  1.00  0.00     0.117 C 
ATOM      8  C   UNL A   1      34.143  24.604  23.385  1.00  0.00     0.045 C 
BRANCH   7   9
ATOM      9  C   UNL A   1      31.739  25.022  23.845  1.00  0.00     0.035 C 
ATOM     10  C   UNL A   1      30.251  24.943  23.596  1.00  0.00     0.007 C 
ENDBRANCH   7   9
BRANCH   7  11
ATOM     11  N   UNL A   1      32.253  23.407  22.137  1.00  0.00    -0.324 N 
ATOM     12  C   UNL A   1      32.193  22.150  22.643  1.00  0.00     0.320 C 
ATOM     13  H   UNL A   1      31.909  23.488  21.218  1.00  0.00     0.166 HD
ATOM     14  O   UNL A   1      31.988  21.246  21.826  1.00  0.00    -0.248 OA
ATOM     15  N   UNL A   1      32.088  21.825  23.978  1.00  0.00    -0.307 N 
ATOM     16  H   UNL A   1      31.280  21.303  24.189  1.00  0.00     0.171 HD
BRANCH  15  17
ATOM     17  C   UNL A   1      32.910  22.089  25.133  1.00  0.00     0.060 A 
ATOM     18  C   UNL A   1      34.113  21.369  25.180  1.00  0.00     0.027 A 
ATOM     19  C   UNL A   1      32.531  22.718  26.356  1.00  0.00     0.076 A 
ATOM     20  C   UNL A   1      34.986  21.460  26.275  1.00  0.00     0.002 A 
ATOM     21  C   UNL A   1      33.474  22.931  27.375  1.00  0.00     0.021 A 
ATOM     22  C   UNL A   1      34.704  22.309  27.335  1.00  0.00     0.002 A 
BRANCH  19  23
ATOM     23  C   UNL A   1      31.213  23.050  26.841  1.00  0.00     0.101 C 
ATOM     24  N   UNL A   1      30.177  23.458  27.149  1.00  0.00    -0.192 NA
ENDBRANCH  19  23
ENDBRANCH  15  17
ENDBRANCH   7  11
ENDBRANCH   4   7
ENDBRANCH   2   3
ENDBRANCH   1   2
BRANCH   1  25
ATOM     25  C   UNL A   1      33.330  28.327  25.134  1.00  0.00     0.023 C 
BRANCH  25  26
ATOM     26  C   UNL A   1      34.219  28.954  26.195  1.00  0.00     0.116 C 
BRANCH  26  27
ATOM     27  N   UNL A   1      33.778  30.260  26.616  1.00  0.00    -0.352 N 
ATOM     28  C   UNL A   1      34.308  31.119  27.541  1.00  0.00     0.251 C 
ATOM     29  H   UNL A   1      32.964  30.587  26.167  1.00  0.00     0.163 HD
ATOM     30  O   UNL A   1      33.705  32.156  27.804  1.00  0.00    -0.269 OA
BRANCH  28  31
ATOM     31  C   UNL A   1      35.569  30.801  28.253  1.00  0.00     0.039 A 
ATOM     32  C   UNL A   1      35.557  29.730  29.150  1.00  0.00     0.014 A 
ATOM     33  C   UNL A   1      36.735  31.558  28.093  1.00  0.00     0.014 A 
ATOM     34  C   UNL A   1      36.716  29.390  29.852  1.00  0.00     0.010 A 
ATOM     35  C   UNL A   1      37.911  31.174  28.744  1.00  0.00     0.010 A 
ATOM     36  C   UNL A   1      37.916  30.087  29.633  1.00  0.00    -0.014 A 
BRANCH  36  37
ATOM     37  C   UNL A   1      39.170  29.672  30.320  1.00  0.00     0.031 A 
ATOM     38  C   UNL A   1      39.635  30.378  31.568  1.00  0.00     0.074 A 
ATOM     39  C   UNL A   1      39.914  28.673  29.802  1.00  0.00     0.049 A 
ATOM     40  N   UNL A   1      40.710  30.165  32.284  1.00  0.00    -0.248 NA
ATOM     41  C   UNL A   1      38.792  31.477  32.068  1.00  0.00     0.031 C 
ATOM     42  C   UNL A   1      39.590  27.922  28.587  1.00  0.00     0.029 A 
ATOM     43  N   UNL A   1      41.095  28.115  30.227  1.00  0.00    -0.354 N 
ATOM     44  C   UNL A   1      40.681  31.107  33.307  1.00  0.00     0.074 A 
ATOM     45  C   UNL A   1      39.507  31.924  33.089  1.00  0.00     0.031 C 
ATOM     46  C   UNL A   1      40.528  26.983  28.385  1.00  0.00     0.029 A 
ATOM     47  C   UNL A   1      41.549  27.097  29.420  1.00  0.00     0.049 A 
ATOM     48  H   UNL A   1      41.572  28.415  31.035  1.00  0.00     0.167 HD
ATOM     49  C   UNL A   1      41.542  31.268  34.341  1.00  0.00     0.031 A 
ATOM     50  C   UNL A   1      42.666  26.345  29.493  1.00  0.00     0.031 A 
ATOM     51  C   UNL A   1      42.714  30.455  34.551  1.00  0.00     0.049 A 
ATOM     52  C   UNL A   1      43.629  26.572  30.628  1.00  0.00     0.074 A 
ATOM     53  C   UNL A   1      43.622  30.511  35.594  1.00  0.00     0.029 A 
ATOM     54  N   UNL A   1      43.146  29.449  33.700  1.00  0.00    -0.354 N 
ATOM     55  N   UNL A   1      43.547  27.426  31.621  1.00  0.00    -0.248 NA
ATOM     56  C   UNL A   1      44.831  25.727  30.656  1.00  0.00     0.031 C 
ATOM     57  C   UNL A   1      44.643  29.592  35.335  1.00  0.00     0.029 A 
ATOM     58  C   UNL A   1      44.327  28.902  34.175  1.00  0.00     0.049 A 
ATOM     59  H   UNL A   1      42.682  29.165  32.879  1.00  0.00     0.167 HD
ATOM     60  C   UNL A   1      44.669  27.197  32.410  1.00  0.00     0.074 A 
ATOM     61  C   UNL A   1      45.404  26.113  31.788  1.00  0.00     0.031 C 
ATOM     62  C   UNL A   1      45.054  27.825  33.549  1.00  0.00     0.031 A 
BRANCH  49  63
ATOM     63  C   UNL A   1      41.264  32.381  35.322  1.00  0.00    -0.014 A 
ATOM     64  C   UNL A   1      40.464  32.173  36.460  1.00  0.00     0.010 A 
ATOM     65  C   UNL A   1      41.855  33.644  35.130  1.00  0.00     0.010 A 
ATOM     66  C   UNL A   1      40.226  33.214  37.363  1.00  0.00     0.020 A 
ATOM     67  C   UNL A   1      41.650  34.679  36.047  1.00  0.00     0.020 A 
ATOM     68  C   UNL A   1      40.822  34.461  37.151  1.00  0.00     0.054 A 
BRANCH  68  69
ATOM     69  S   UNL A   1      40.519  35.784  38.354  1.00  0.00     0.124 S 
ATOM     70  O   UNL A   1      41.873  36.102  38.801  1.00  0.00    -0.237 OA
ATOM     71  O   UNL A   1      39.869  36.809  37.542  1.00  0.00    -0.237 OA
ATOM     72  O   UNL A   1      39.665  35.154  39.358  1.00  0.00    -0.744 OA
ENDBRANCH  68  69
ENDBRANCH  49  63
BRANCH  50  73
ATOM     73  C   UNL A   1      42.935  25.306  28.460  1.00  0.00    -0.014 A 
ATOM     74  C   UNL A   1      42.558  23.967  28.669  1.00  0.00     0.010 A 
ATOM     75  C   UNL A   1      43.572  25.651  27.253  1.00  0.00     0.010 A 
ATOM     76  C   UNL A   1      42.831  22.992  27.704  1.00  0.00     0.020 A 
ATOM     77  C   UNL A   1      43.815  24.688  26.271  1.00  0.00     0.020 A 
ATOM     78  C   UNL A   1      43.453  23.361  26.508  1.00  0.00     0.054 A 
BRANCH  78  79
ATOM     79  S   UNL A   1      43.755  22.087  25.251  1.00  0.00     0.124 S 
ATOM     80  O   UNL A   1      45.059  21.568  25.651  1.00  0.00    -0.237 OA
ATOM     81  O   UNL A   1      42.625  21.182  25.446  1.00  0.00    -0.237 OA
ATOM     82  O   UNL A   1      43.736  22.835  23.996  1.00  0.00    -0.744 OA
ENDBRANCH  78  79
ENDBRANCH  50  73
BRANCH  62  83
ATOM     83  C   UNL A   1      46.307  27.332  34.230  1.00  0.00    -0.014 A 
ATOM     84  C   UNL A   1      47.566  27.895  33.953  1.00  0.00     0.010 A 
ATOM     85  C   UNL A   1      46.211  26.321  35.204  1.00  0.00     0.010 A 
ATOM     86  C   UNL A   1      48.708  27.432  34.614  1.00  0.00     0.020 A 
ATOM     87  C   UNL A   1      47.343  25.881  35.893  1.00  0.00     0.020 A 
ATOM     88  C   UNL A   1      48.588  26.431  35.583  1.00  0.00     0.054 A 
BRANCH  88  89
ATOM     89  S   UNL A   1      50.079  25.882  36.458  1.00  0.00     0.124 S 
ATOM     90  O   UNL A   1      51.126  26.649  35.787  1.00  0.00    -0.237 OA
ATOM     91  O   UNL A   1      49.800  26.274  37.837  1.00  0.00    -0.237 OA
ATOM     92  O   UNL A   1      50.113  24.442  36.220  1.00  0.00    -0.744 OA
ENDBRANCH  88  89
ENDBRANCH  62  83
ENDBRANCH  36  37
ENDBRANCH  28  31
ENDBRANCH  26  27
ENDBRANCH  25  26
ENDBRANCH   1  25
TORSDOF 18
ENDMDL
MODEL 3
REMARK VINA RESULT:     -10.1      3.766      5.101
REMARK SMILES CC[C@@](C)(NC(=O)Nc1ccccc1C#N)C(=O)NCCCCNC(=O)c1ccc(-c2c3nc(c(-c4ccc(S(=O)(=O)[O-])cc4)c4ccc([nH]4)c(-c4ccc(S(=O)(=O)[O-])cc4)c4nc(c(-c5ccc(S(=O)(=O)[O-])cc5)c5ccc2[nH]5)C=C4)C=C3)cc1
REMARK SMILES IDX 21 1 20 2 19 3 17 4 18 5 3 7 4 8 2 9 1 10 5 11 6 12 7 14
REMARK SMILES IDX 8 15 9 17 10 18 14 19 11 20 13 21 12 22 15 23 16 24 22 25
REMARK SMILES IDX 23 26 24 27 25 28 26 30 27 31 28 32 86 33 29 34 85 35 30 36
REMARK SMILES IDX 31 37 32 38 79 39 33 40 84 41 78 42 80 43 34 44 83 45 77 46
REMARK SMILES IDX 76 47 35 49 65 50 46 51 64 52 47 53 50 54 63 55 81 56 48 57
REMARK SMILES IDX 49 58 62 60 82 61 51 62 36 63 37 64 45 65 38 66 44 67 39 68
REMARK SMILES IDX 40 69 41 70 42 71 43 72 66 73 67 74 75 75 68 76 74 77 69 78
REMARK SMILES IDX 70 79 71 80 72 81 73 82 52 83 53 84 61 85 54 86 60 87 55 88
REMARK SMILES IDX 56 89 57 90 58 91 59 92
REMARK H PARENT 19 6 5 13 8 16 24 29 80 48 50 59
REMARK Flexibility Score: inf
ROOT
ATOM      1  C   UNL A   1      36.602  21.451  24.655  1.00  0.00     0.023 C 
ENDROOT
BRANCH   1   2
ATOM      2  C   UNL A   1      36.588  22.806  25.409  1.00  0.00     0.116 C 
BRANCH   2   3
ATOM      3  N   UNL A   1      35.739  22.827  26.592  1.00  0.00    -0.354 N 
ATOM      4  C   UNL A   1      34.460  22.328  26.842  1.00  0.00     0.245 C 
ATOM      5  O   UNL A   1      34.249  21.512  27.737  1.00  0.00    -0.272 OA
ATOM      6  H   UNL A   1      36.146  23.281  27.365  1.00  0.00     0.163 HD
BRANCH   4   7
ATOM      7  C   UNL A   1      33.326  22.833  25.936  1.00  0.00     0.117 C 
ATOM      8  C   UNL A   1      33.778  24.315  25.787  1.00  0.00     0.045 C 
BRANCH   7   9
ATOM      9  C   UNL A   1      33.032  22.331  24.495  1.00  0.00     0.035 C 
ATOM     10  C   UNL A   1      32.976  20.850  24.204  1.00  0.00     0.007 C 
ENDBRANCH   7   9
BRANCH   7  11
ATOM     11  N   UNL A   1      32.082  22.620  26.687  1.00  0.00    -0.324 N 
ATOM     12  C   UNL A   1      30.857  23.194  26.583  1.00  0.00     0.320 C 
ATOM     13  H   UNL A   1      32.149  21.938  27.394  1.00  0.00     0.166 HD
ATOM     14  O   UNL A   1      30.088  23.006  27.532  1.00  0.00    -0.248 OA
ATOM     15  N   UNL A   1      30.318  23.738  25.437  1.00  0.00    -0.307 N 
ATOM     16  H   UNL A   1      29.477  23.306  25.161  1.00  0.00     0.171 HD
BRANCH  15  17
ATOM     17  C   UNL A   1      30.726  24.803  24.555  1.00  0.00     0.060 A 
ATOM     18  C   UNL A   1      31.219  24.385  23.310  1.00  0.00     0.027 A 
ATOM     19  C   UNL A   1      30.994  26.164  24.888  1.00  0.00     0.076 A 
ATOM     20  C   UNL A   1      31.724  25.299  22.372  1.00  0.00     0.002 A 
ATOM     21  C   UNL A   1      31.351  27.089  23.893  1.00  0.00     0.021 A 
ATOM     22  C   UNL A   1      31.711  26.661  22.633  1.00  0.00     0.002 A 
BRANCH  19  23
ATOM     23  C   UNL A   1      31.141  26.774  26.189  1.00  0.00     0.101 C 
ATOM     24  N   UNL A   1      31.270  27.108  27.287  1.00  0.00    -0.192 NA
ENDBRANCH  19  23
ENDBRANCH  15  17
ENDBRANCH   7  11
ENDBRANCH   4   7
ENDBRANCH   2   3
ENDBRANCH   1   2
BRANCH   1  25
ATOM     25  C   UNL A   1      37.673  20.389  24.966  1.00  0.00     0.023 C 
BRANCH  25  26
ATOM     26  C   UNL A   1      38.927  20.839  25.697  1.00  0.00     0.116 C 
BRANCH  26  27
ATOM     27  N   UNL A   1      39.929  19.808  25.806  1.00  0.00    -0.352 N 
ATOM     28  C   UNL A   1      41.261  19.896  26.110  1.00  0.00     0.251 C 
ATOM     29  H   UNL A   1      39.604  18.894  25.634  1.00  0.00     0.163 HD
ATOM     30  O   UNL A   1      41.952  18.882  26.059  1.00  0.00    -0.269 OA
BRANCH  28  31
ATOM     31  C   UNL A   1      41.887  21.194  26.461  1.00  0.00     0.039 A 
ATOM     32  C   UNL A   1      42.153  22.089  25.421  1.00  0.00     0.014 A 
ATOM     33  C   UNL A   1      42.257  21.522  27.769  1.00  0.00     0.014 A 
ATOM     34  C   UNL A   1      42.746  23.324  25.695  1.00  0.00     0.010 A 
ATOM     35  C   UNL A   1      42.787  22.785  28.049  1.00  0.00     0.010 A 
ATOM     36  C   UNL A   1      43.041  23.701  27.015  1.00  0.00    -0.014 A 
BRANCH  36  37
ATOM     37  C   UNL A   1      43.598  25.049  27.313  1.00  0.00     0.031 A 
ATOM     38  C   UNL A   1      45.058  25.346  27.091  1.00  0.00     0.074 A 
ATOM     39  C   UNL A   1      42.791  26.006  27.816  1.00  0.00     0.049 A 
ATOM     40  N   UNL A   1      45.718  26.454  27.316  1.00  0.00    -0.248 NA
ATOM     41  C   UNL A   1      45.890  24.252  26.565  1.00  0.00     0.031 C 
ATOM     42  C   UNL A   1      41.363  25.843  28.100  1.00  0.00     0.029 A 
ATOM     43  N   UNL A   1      43.052  27.305  28.180  1.00  0.00    -0.354 N 
ATOM     44  C   UNL A   1      47.040  26.189  26.972  1.00  0.00     0.074 A 
ATOM     45  C   UNL A   1      47.097  24.800  26.571  1.00  0.00     0.031 C 
ATOM     46  C   UNL A   1      40.869  27.004  28.560  1.00  0.00     0.029 A 
ATOM     47  C   UNL A   1      41.950  27.978  28.656  1.00  0.00     0.049 A 
ATOM     48  H   UNL A   1      43.943  27.716  28.105  1.00  0.00     0.167 HD
ATOM     49  C   UNL A   1      48.104  27.027  26.975  1.00  0.00     0.031 A 
ATOM     50  C   UNL A   1      41.822  29.234  29.131  1.00  0.00     0.031 A 
ATOM     51  C   UNL A   1      48.045  28.409  27.380  1.00  0.00     0.049 A 
ATOM     52  C   UNL A   1      43.029  30.132  29.164  1.00  0.00     0.074 A 
ATOM     53  C   UNL A   1      49.059  29.351  27.373  1.00  0.00     0.029 A 
ATOM     54  N   UNL A   1      46.915  29.045  27.874  1.00  0.00    -0.354 N 
ATOM     55  N   UNL A   1      44.256  29.879  28.773  1.00  0.00    -0.248 NA
ATOM     56  C   UNL A   1      42.833  31.489  29.694  1.00  0.00     0.031 C 
ATOM     57  C   UNL A   1      48.564  30.532  27.934  1.00  0.00     0.029 A 
ATOM     58  C   UNL A   1      47.217  30.354  28.209  1.00  0.00     0.049 A 
ATOM     59  H   UNL A   1      46.029  28.626  27.971  1.00  0.00     0.167 HD
ATOM     60  C   UNL A   1      44.968  31.056  28.977  1.00  0.00     0.074 A 
ATOM     61  C   UNL A   1      44.031  32.025  29.511  1.00  0.00     0.031 C 
ATOM     62  C   UNL A   1      46.279  31.312  28.742  1.00  0.00     0.031 A 
BRANCH  49  63
ATOM     63  C   UNL A   1      49.440  26.470  26.543  1.00  0.00    -0.014 A 
ATOM     64  C   UNL A   1      49.876  26.562  25.208  1.00  0.00     0.010 A 
ATOM     65  C   UNL A   1      50.295  25.890  27.498  1.00  0.00     0.010 A 
ATOM     66  C   UNL A   1      51.120  26.049  24.830  1.00  0.00     0.020 A 
ATOM     67  C   UNL A   1      51.556  25.407  27.132  1.00  0.00     0.020 A 
ATOM     68  C   UNL A   1      51.953  25.475  25.795  1.00  0.00     0.054 A 
BRANCH  68  69
ATOM     69  S   UNL A   1      53.574  24.844  25.280  1.00  0.00     0.124 S 
ATOM     70  O   UNL A   1      54.401  25.149  26.445  1.00  0.00    -0.237 OA
ATOM     71  O   UNL A   1      53.305  23.427  25.054  1.00  0.00    -0.237 OA
ATOM     72  O   UNL A   1      53.883  25.617  24.080  1.00  0.00    -0.744 OA
ENDBRANCH  68  69
ENDBRANCH  49  63
BRANCH  50  73
ATOM     73  C   UNL A   1      40.497  29.717  29.615  1.00  0.00    -0.014 A 
ATOM     74  C   UNL A   1      40.198  29.743  30.989  1.00  0.00     0.010 A 
ATOM     75  C   UNL A   1      39.524  30.159  28.699  1.00  0.00     0.010 A 
ATOM     76  C   UNL A   1      38.947  30.179  31.436  1.00  0.00     0.020 A 
ATOM     77  C   UNL A   1      38.285  30.629  29.142  1.00  0.00     0.020 A 
ATOM     78  C   UNL A   1      38.000  30.625  30.509  1.00  0.00     0.054 A 
BRANCH  78  79
ATOM     79  S   UNL A   1      36.400  31.230  31.115  1.00  0.00     0.124 S 
ATOM     80  O   UNL A   1      36.762  32.522  31.688  1.00  0.00    -0.237 OA
ATOM     81  O   UNL A   1      35.602  31.280  29.893  1.00  0.00    -0.237 OA
ATOM     82  O   UNL A   1      35.991  30.210  32.077  1.00  0.00    -0.744 OA
ENDBRANCH  78  79
ENDBRANCH  50  73
BRANCH  62  83
ATOM     83  C   UNL A   1      46.779  32.709  29.016  1.00  0.00    -0.014 A 
ATOM     84  C   UNL A   1      47.352  33.057  30.253  1.00  0.00     0.010 A 
ATOM     85  C   UNL A   1      46.721  33.675  27.995  1.00  0.00     0.010 A 
ATOM     86  C   UNL A   1      47.825  34.354  30.473  1.00  0.00     0.020 A 
ATOM     87  C   UNL A   1      47.227  34.962  28.198  1.00  0.00     0.020 A 
ATOM     88  C   UNL A   1      47.763  35.296  29.442  1.00  0.00     0.054 A 
BRANCH  88  89
ATOM     89  S   UNL A   1      48.427  36.958  29.739  1.00  0.00     0.124 S 
ATOM     90  O   UNL A   1      49.477  36.696  30.721  1.00  0.00    -0.237 OA
ATOM     91  O   UNL A   1      48.893  37.356  28.413  1.00  0.00    -0.237 OA
ATOM     92  O   UNL A   1      47.279  37.708  30.242  1.00  0.00    -0.744 OA
ENDBRANCH  88  89
ENDBRANCH  62  83
ENDBRANCH  36  37
ENDBRANCH  28  31
ENDBRANCH  26  27
ENDBRANCH  25  26
ENDBRANCH   1  25
TORSDOF 18
ENDMDL
