MODEL 1
REMARK VINA RESULT:     -11.8      0.000      0.000
REMARK SMILES O=C(CN1C(=O)/C(=C\c2cccs2)SC1=S)Nc1ccccc1C(=O)NCCCCNC(=O)c1ccc(-c2c3nc(c(-c4ccc(S(=O)(=O)[O-])cc4)c4ccc([nH]4)c(-c4ccc(S(=O)(=O)[O-])cc4)c4nc(c(-c5ccc(S(=O)(=O)[O-])cc5)c5ccc2[nH]5)C=C4)C=C3)cc1
REMARK SMILES IDX 28 1 27 2 26 3 24 4 25 5 23 7 18 8 19 9 20 10 22 11 21 12
REMARK SMILES IDX 17 13 1 14 2 15 3 17 4 18 5 19 15 20 6 21 7 22 14 23 16 24
REMARK SMILES IDX 8 25 9 26 10 27 13 28 11 29 12 30 29 31 30 32 31 33 32 34
REMARK SMILES IDX 33 36 34 37 35 38 93 39 36 40 92 41 37 42 38 43 39 44 86 45
REMARK SMILES IDX 40 46 91 47 85 48 87 49 41 50 90 51 84 52 83 53 42 55 72 56
REMARK SMILES IDX 53 57 71 58 54 59 57 60 70 61 88 62 55 63 56 64 69 66 89 67
REMARK SMILES IDX 58 68 43 69 44 70 52 71 45 72 51 73 46 74 47 75 48 76 49 77
REMARK SMILES IDX 50 78 73 79 74 80 82 81 75 82 81 83 76 84 77 85 78 86 79 87
REMARK SMILES IDX 80 88 59 89 60 90 68 91 61 92 67 93 62 94 63 95 64 96 65 97
REMARK SMILES IDX 66 98
REMARK H PARENT 26 6 17 16 31 35 87 54 57 65
REMARK Flexibility Score: inf
ROOT
ATOM      1  C   UNL A   1      37.772  22.332  25.447  1.00  0.00     0.023 C 
ENDROOT
BRANCH   1   2
ATOM      2  C   UNL A   1      36.607  21.366  25.606  1.00  0.00     0.116 C 
BRANCH   2   3
ATOM      3  N   UNL A   1      35.462  21.782  26.364  1.00  0.00    -0.352 N 
ATOM      4  C   UNL A   1      34.148  21.362  26.254  1.00  0.00     0.253 C 
ATOM      5  O   UNL A   1      33.392  21.648  27.187  1.00  0.00    -0.269 OA
ATOM      6  H   UNL A   1      35.634  22.460  27.057  1.00  0.00     0.163 HD
BRANCH   4   7
ATOM      7  C   UNL A   1      33.547  20.773  25.009  1.00  0.00     0.063 A 
ATOM      8  C   UNL A   1      32.812  21.384  23.972  1.00  0.00     0.054 A 
ATOM      9  C   UNL A   1      32.158  20.571  23.020  1.00  0.00     0.027 A 
ATOM     10  C   UNL A   1      32.303  19.184  23.016  1.00  0.00     0.002 A 
ATOM     11  C   UNL A   1      33.688  19.362  24.970  1.00  0.00     0.016 A 
ATOM     12  C   UNL A   1      33.086  18.578  23.984  1.00  0.00     0.001 A 
BRANCH   8  13
ATOM     13  N   UNL A   1      32.600  22.762  23.775  1.00  0.00    -0.324 N 
ATOM     14  O   UNL A   1      31.005  23.253  25.368  1.00  0.00    -0.273 OA
ATOM     15  C   UNL A   1      31.593  23.527  24.330  1.00  0.00     0.244 C 
ATOM     16  H   UNL A   1      33.234  23.228  23.182  1.00  0.00     0.170 HD
BRANCH  15  17
ATOM     17  C   UNL A   1      31.270  24.760  23.473  1.00  0.00     0.227 C 
BRANCH  17  18
ATOM     18  N   UNL A   1      32.278  25.739  23.121  1.00  0.00    -0.283 N 
ATOM     19  C   UNL A   1      32.576  26.702  24.071  1.00  0.00     0.266 C 
ATOM     20  C   UNL A   1      32.719  25.977  21.840  1.00  0.00     0.148 C 
ATOM     21  O   UNL A   1      32.263  26.623  25.252  1.00  0.00    -0.268 OA
ATOM     22  C   UNL A   1      33.264  27.860  23.434  1.00  0.00     0.081 C 
ATOM     23  S   UNL A   1      33.673  27.448  21.802  1.00  0.00    -0.054 SA
ATOM     24  S   UNL A   1      32.426  25.071  20.467  1.00  0.00    -0.052 S 
ATOM     25  C   UNL A   1      33.460  29.097  23.916  1.00  0.00     0.040 C 
BRANCH  25  26
ATOM     26  C   UNL A   1      33.050  29.534  25.205  1.00  0.00     0.028 A 
ATOM     27  C   UNL A   1      31.859  30.097  25.628  1.00  0.00     0.020 A 
ATOM     28  S   UNL A   1      34.125  29.337  26.538  1.00  0.00    -0.144 S 
ATOM     29  C   UNL A   1      31.859  30.434  27.011  1.00  0.00     0.012 A 
ATOM     30  C   UNL A   1      33.035  30.075  27.625  1.00  0.00     0.065 A 
ENDBRANCH  25  26
ENDBRANCH  17  18
ENDBRANCH  15  17
ENDBRANCH   8  13
ENDBRANCH   4   7
ENDBRANCH   2   3
ENDBRANCH   1   2
BRANCH   1  31
ATOM     31  C   UNL A   1      39.040  22.042  26.262  1.00  0.00     0.023 C 
BRANCH  31  32
ATOM     32  C   UNL A   1      39.813  23.212  26.880  1.00  0.00     0.116 C 
BRANCH  32  33
ATOM     33  N   UNL A   1      40.214  24.271  25.957  1.00  0.00    -0.352 N 
ATOM     34  C   UNL A   1      40.843  25.471  26.238  1.00  0.00     0.251 C 
ATOM     35  H   UNL A   1      40.008  24.108  25.009  1.00  0.00     0.163 HD
ATOM     36  O   UNL A   1      41.243  26.174  25.312  1.00  0.00    -0.269 OA
BRANCH  34  37
ATOM     37  C   UNL A   1      40.914  25.943  27.643  1.00  0.00     0.039 A 
ATOM     38  C   UNL A   1      42.105  26.531  28.080  1.00  0.00     0.014 A 
ATOM     39  C   UNL A   1      39.779  25.970  28.456  1.00  0.00     0.014 A 
ATOM     40  C   UNL A   1      42.114  27.291  29.255  1.00  0.00     0.010 A 
ATOM     41  C   UNL A   1      39.774  26.779  29.596  1.00  0.00     0.010 A 
ATOM     42  C   UNL A   1      40.923  27.498  29.970  1.00  0.00    -0.014 A 
BRANCH  42  43
ATOM     43  C   UNL A   1      40.824  28.567  31.005  1.00  0.00     0.031 A 
ATOM     44  C   UNL A   1      41.695  28.555  32.227  1.00  0.00     0.074 A 
ATOM     45  C   UNL A   1      39.866  29.512  30.884  1.00  0.00     0.049 A 
ATOM     46  N   UNL A   1      41.682  29.367  33.254  1.00  0.00    -0.248 NA
ATOM     47  C   UNL A   1      42.701  27.488  32.313  1.00  0.00     0.031 C 
ATOM     48  C   UNL A   1      38.931  29.633  29.761  1.00  0.00     0.029 A 
ATOM     49  N   UNL A   1      39.513  30.547  31.716  1.00  0.00    -0.354 N 
ATOM     50  C   UNL A   1      42.671  28.907  34.114  1.00  0.00     0.074 A 
ATOM     51  C   UNL A   1      43.237  27.720  33.504  1.00  0.00     0.031 C 
ATOM     52  C   UNL A   1      38.139  30.697  29.959  1.00  0.00     0.029 A 
ATOM     53  C   UNL A   1      38.467  31.306  31.243  1.00  0.00     0.049 A 
ATOM     54  H   UNL A   1      39.967  30.731  32.570  1.00  0.00     0.167 HD
ATOM     55  C   UNL A   1      43.082  29.428  35.298  1.00  0.00     0.031 A 
ATOM     56  C   UNL A   1      37.829  32.365  31.780  1.00  0.00     0.031 A 
ATOM     57  C   UNL A   1      42.509  30.592  35.921  1.00  0.00     0.049 A 
ATOM     58  C   UNL A   1      38.249  32.877  33.129  1.00  0.00     0.074 A 
ATOM     59  C   UNL A   1      42.890  31.215  37.097  1.00  0.00     0.029 A 
ATOM     60  N   UNL A   1      41.422  31.300  35.431  1.00  0.00    -0.354 N 
ATOM     61  N   UNL A   1      39.226  32.463  33.897  1.00  0.00    -0.248 NA
ATOM     62  C   UNL A   1      37.474  33.995  33.686  1.00  0.00     0.031 C 
ATOM     63  C   UNL A   1      42.000  32.268  37.346  1.00  0.00     0.029 A 
ATOM     64  C   UNL A   1      41.095  32.331  36.299  1.00  0.00     0.049 A 
ATOM     65  H   UNL A   1      40.950  31.101  34.590  1.00  0.00     0.167 HD
ATOM     66  C   UNL A   1      39.196  33.280  35.021  1.00  0.00     0.074 A 
ATOM     67  C   UNL A   1      38.110  34.219  34.829  1.00  0.00     0.031 C 
ATOM     68  C   UNL A   1      40.002  33.253  36.110  1.00  0.00     0.031 A 
BRANCH  55  69
ATOM     69  C   UNL A   1      44.201  28.710  36.005  1.00  0.00    -0.014 A 
ATOM     70  C   UNL A   1      45.540  29.101  35.821  1.00  0.00     0.010 A 
ATOM     71  C   UNL A   1      43.913  27.629  36.857  1.00  0.00     0.010 A 
ATOM     72  C   UNL A   1      46.575  28.380  36.421  1.00  0.00     0.020 A 
ATOM     73  C   UNL A   1      44.945  26.921  37.481  1.00  0.00     0.020 A 
ATOM     74  C   UNL A   1      46.271  27.284  37.234  1.00  0.00     0.054 A 
BRANCH  74  75
ATOM     75  S   UNL A   1      47.634  26.339  37.969  1.00  0.00     0.124 S 
ATOM     76  O   UNL A   1      47.043  25.893  39.228  1.00  0.00    -0.237 OA
ATOM     77  O   UNL A   1      47.870  25.289  36.981  1.00  0.00    -0.237 OA
ATOM     78  O   UNL A   1      48.707  27.322  38.096  1.00  0.00    -0.744 OA
ENDBRANCH  74  75
ENDBRANCH  55  69
BRANCH  56  79
ATOM     79  C   UNL A   1      36.727  33.024  31.027  1.00  0.00    -0.014 A 
ATOM     80  C   UNL A   1      35.389  32.725  31.333  1.00  0.00     0.010 A 
ATOM     81  C   UNL A   1      37.006  33.977  30.029  1.00  0.00     0.010 A 
ATOM     82  C   UNL A   1      34.347  33.366  30.658  1.00  0.00     0.020 A 
ATOM     83  C   UNL A   1      35.966  34.638  29.368  1.00  0.00     0.020 A 
ATOM     84  C   UNL A   1      34.642  34.325  29.684  1.00  0.00     0.054 A 
BRANCH  84  85
ATOM     85  S   UNL A   1      33.274  35.208  28.883  1.00  0.00     0.124 S 
ATOM     86  O   UNL A   1      33.975  36.260  28.155  1.00  0.00    -0.237 OA
ATOM     87  O   UNL A   1      32.665  34.166  28.060  1.00  0.00    -0.237 OA
ATOM     88  O   UNL A   1      32.456  35.659  30.007  1.00  0.00    -0.744 OA
ENDBRANCH  84  85
ENDBRANCH  56  79
BRANCH  68  89
ATOM     89  C   UNL A   1      39.752  34.276  37.186  1.00  0.00    -0.014 A 
ATOM     90  C   UNL A   1      39.031  33.944  38.346  1.00  0.00     0.010 A 
ATOM     91  C   UNL A   1      40.302  35.565  37.066  1.00  0.00     0.010 A 
ATOM     92  C   UNL A   1      38.857  34.887  39.364  1.00  0.00     0.020 A 
ATOM     93  C   UNL A   1      40.148  36.504  38.089  1.00  0.00     0.020 A 
ATOM     94  C   UNL A   1      39.420  36.160  39.231  1.00  0.00     0.054 A 
BRANCH  94  95
ATOM     95  S   UNL A   1      39.242  37.342  40.596  1.00  0.00     0.124 S 
ATOM     96  O   UNL A   1      40.609  37.828  40.758  1.00  0.00    -0.237 OA
ATOM     97  O   UNL A   1      38.290  38.312  40.061  1.00  0.00    -0.237 OA
ATOM     98  O   UNL A   1      38.737  36.525  41.698  1.00  0.00    -0.744 OA
ENDBRANCH  94  95
ENDBRANCH  68  89
ENDBRANCH  42  43
ENDBRANCH  34  37
ENDBRANCH  32  33
ENDBRANCH  31  32
ENDBRANCH   1  31
TORSDOF 18
ENDMDL
MODEL 2
REMARK VINA RESULT:     -11.8      4.877     10.697
REMARK SMILES O=C(CN1C(=O)/C(=C\c2cccs2)SC1=S)Nc1ccccc1C(=O)NCCCCNC(=O)c1ccc(-c2c3nc(c(-c4ccc(S(=O)(=O)[O-])cc4)c4ccc([nH]4)c(-c4ccc(S(=O)(=O)[O-])cc4)c4nc(c(-c5ccc(S(=O)(=O)[O-])cc5)c5ccc2[nH]5)C=C4)C=C3)cc1
REMARK SMILES IDX 28 1 27 2 26 3 24 4 25 5 23 7 18 8 19 9 20 10 22 11 21 12
REMARK SMILES IDX 17 13 1 14 2 15 3 17 4 18 5 19 15 20 6 21 7 22 14 23 16 24
REMARK SMILES IDX 8 25 9 26 10 27 13 28 11 29 12 30 29 31 30 32 31 33 32 34
REMARK SMILES IDX 33 36 34 37 35 38 93 39 36 40 92 41 37 42 38 43 39 44 86 45
REMARK SMILES IDX 40 46 91 47 85 48 87 49 41 50 90 51 84 52 83 53 42 55 72 56
REMARK SMILES IDX 53 57 71 58 54 59 57 60 70 61 88 62 55 63 56 64 69 66 89 67
REMARK SMILES IDX 58 68 43 69 44 70 52 71 45 72 51 73 46 74 47 75 48 76 49 77
REMARK SMILES IDX 50 78 73 79 74 80 82 81 75 82 81 83 76 84 77 85 78 86 79 87
REMARK SMILES IDX 80 88 59 89 60 90 68 91 61 92 67 93 62 94 63 95 64 96 65 97
REMARK SMILES IDX 66 98
REMARK H PARENT 26 6 17 16 31 35 87 54 57 65
REMARK Flexibility Score: inf
ROOT
ATOM      1  C   UNL A   1      33.908  27.855  26.251  1.00  0.00     0.023 C 
ENDROOT
BRANCH   1   2
ATOM      2  C   UNL A   1      33.994  27.809  24.733  1.00  0.00     0.116 C 
BRANCH   2   3
ATOM      3  N   UNL A   1      33.930  26.536  24.073  1.00  0.00    -0.352 N 
ATOM      4  C   UNL A   1      32.873  25.965  23.388  1.00  0.00     0.253 C 
ATOM      5  O   UNL A   1      33.132  24.993  22.672  1.00  0.00    -0.269 OA
ATOM      6  H   UNL A   1      34.751  25.995  24.114  1.00  0.00     0.163 HD
BRANCH   4   7
ATOM      7  C   UNL A   1      31.428  26.313  23.613  1.00  0.00     0.063 A 
ATOM      8  C   UNL A   1      30.345  25.505  24.015  1.00  0.00     0.054 A 
ATOM      9  C   UNL A   1      29.033  26.021  23.936  1.00  0.00     0.027 A 
ATOM     10  C   UNL A   1      28.786  27.343  23.569  1.00  0.00     0.002 A 
ATOM     11  C   UNL A   1      31.147  27.657  23.259  1.00  0.00     0.016 A 
ATOM     12  C   UNL A   1      29.848  28.170  23.247  1.00  0.00     0.001 A 
BRANCH   8  13
ATOM     13  N   UNL A   1      30.398  24.172  24.469  1.00  0.00    -0.324 N 
ATOM     14  O   UNL A   1      30.299  24.425  26.761  1.00  0.00    -0.273 OA
ATOM     15  C   UNL A   1      30.576  23.755  25.774  1.00  0.00     0.244 C 
ATOM     16  H   UNL A   1      30.299  23.467  23.789  1.00  0.00     0.170 HD
BRANCH  15  17
ATOM     17  C   UNL A   1      31.195  22.351  25.849  1.00  0.00     0.227 C 
BRANCH  17  18
ATOM     18  N   UNL A   1      32.552  22.084  25.419  1.00  0.00    -0.283 N 
ATOM     19  C   UNL A   1      32.804  20.835  24.875  1.00  0.00     0.266 C 
ATOM     20  C   UNL A   1      33.648  22.830  25.788  1.00  0.00     0.148 C 
ATOM     21  O   UNL A   1      31.934  20.066  24.488  1.00  0.00    -0.268 OA
ATOM     22  C   UNL A   1      34.266  20.548  24.897  1.00  0.00     0.081 C 
ATOM     23  S   UNL A   1      35.119  21.989  25.341  1.00  0.00    -0.054 SA
ATOM     24  S   UNL A   1      33.669  24.310  26.563  1.00  0.00    -0.052 S 
ATOM     25  C   UNL A   1      34.900  19.375  24.746  1.00  0.00     0.040 C 
BRANCH  25  26
ATOM     26  C   UNL A   1      34.251  18.136  24.491  1.00  0.00     0.028 A 
ATOM     27  C   UNL A   1      34.120  17.413  23.319  1.00  0.00     0.020 A 
ATOM     28  S   UNL A   1      33.510  17.293  25.799  1.00  0.00    -0.144 S 
ATOM     29  C   UNL A   1      33.354  16.223  23.477  1.00  0.00     0.012 A 
ATOM     30  C   UNL A   1      32.959  16.039  24.780  1.00  0.00     0.065 A 
ENDBRANCH  25  26
ENDBRANCH  17  18
ENDBRANCH  15  17
ENDBRANCH   8  13
ENDBRANCH   4   7
ENDBRANCH   2   3
ENDBRANCH   1   2
BRANCH   1  31
ATOM     31  C   UNL A   1      33.039  28.958  26.871  1.00  0.00     0.023 C 
BRANCH  31  32
ATOM     32  C   UNL A   1      33.433  30.424  26.661  1.00  0.00     0.116 C 
BRANCH  32  33
ATOM     33  N   UNL A   1      33.427  31.264  27.855  1.00  0.00    -0.352 N 
ATOM     34  C   UNL A   1      34.440  31.469  28.774  1.00  0.00     0.251 C 
ATOM     35  H   UNL A   1      32.588  31.750  28.028  1.00  0.00     0.163 HD
ATOM     36  O   UNL A   1      34.307  32.333  29.637  1.00  0.00    -0.269 OA
BRANCH  34  37
ATOM     37  C   UNL A   1      35.613  30.559  28.777  1.00  0.00     0.039 A 
ATOM     38  C   UNL A   1      36.404  30.504  27.625  1.00  0.00     0.014 A 
ATOM     39  C   UNL A   1      36.026  29.913  29.943  1.00  0.00     0.014 A 
ATOM     40  C   UNL A   1      37.685  29.945  27.690  1.00  0.00     0.010 A 
ATOM     41  C   UNL A   1      37.329  29.411  30.022  1.00  0.00     0.010 A 
ATOM     42  C   UNL A   1      38.192  29.481  28.915  1.00  0.00    -0.014 A 
BRANCH  42  43
ATOM     43  C   UNL A   1      39.648  29.212  29.092  1.00  0.00     0.031 A 
ATOM     44  C   UNL A   1      40.589  30.281  29.566  1.00  0.00     0.074 A 
ATOM     45  C   UNL A   1      40.143  28.009  28.729  1.00  0.00     0.049 A 
ATOM     46  N   UNL A   1      41.890  30.232  29.701  1.00  0.00    -0.248 NA
ATOM     47  C   UNL A   1      39.993  31.577  29.923  1.00  0.00     0.031 C 
ATOM     48  C   UNL A   1      39.350  26.882  28.228  1.00  0.00     0.029 A 
ATOM     49  N   UNL A   1      41.432  27.532  28.717  1.00  0.00    -0.354 N 
ATOM     50  C   UNL A   1      42.273  31.489  30.152  1.00  0.00     0.074 A 
ATOM     51  C   UNL A   1      41.068  32.291  30.228  1.00  0.00     0.031 C 
ATOM     52  C   UNL A   1      40.163  25.841  27.991  1.00  0.00     0.029 A 
ATOM     53  C   UNL A   1      41.539  26.235  28.269  1.00  0.00     0.049 A 
ATOM     54  H   UNL A   1      42.207  28.068  29.003  1.00  0.00     0.167 HD
ATOM     55  C   UNL A   1      43.511  31.935  30.482  1.00  0.00     0.031 A 
ATOM     56  C   UNL A   1      42.619  25.449  28.089  1.00  0.00     0.031 A 
ATOM     57  C   UNL A   1      44.715  31.151  30.386  1.00  0.00     0.049 A 
ATOM     58  C   UNL A   1      43.989  25.990  28.387  1.00  0.00     0.074 A 
ATOM     59  C   UNL A   1      46.005  31.508  30.740  1.00  0.00     0.029 A 
ATOM     60  N   UNL A   1      44.783  29.860  29.884  1.00  0.00    -0.354 N 
ATOM     61  N   UNL A   1      44.322  27.163  28.868  1.00  0.00    -0.248 NA
ATOM     62  C   UNL A   1      45.128  25.104  28.111  1.00  0.00     0.031 C 
ATOM     63  C   UNL A   1      46.861  30.452  30.403  1.00  0.00     0.029 A 
ATOM     64  C   UNL A   1      46.098  29.419  29.884  1.00  0.00     0.049 A 
ATOM     65  H   UNL A   1      44.011  29.334  29.573  1.00  0.00     0.167 HD
ATOM     66  C   UNL A   1      45.708  27.150  28.969  1.00  0.00     0.074 A 
ATOM     67  C   UNL A   1      46.151  25.850  28.508  1.00  0.00     0.031 C 
ATOM     68  C   UNL A   1      46.535  28.129  29.410  1.00  0.00     0.031 A 
BRANCH  55  69
ATOM     69  C   UNL A   1      43.616  33.359  30.959  1.00  0.00    -0.014 A 
ATOM     70  C   UNL A   1      43.903  34.403  30.060  1.00  0.00     0.010 A 
ATOM     71  C   UNL A   1      43.434  33.659  32.321  1.00  0.00     0.010 A 
ATOM     72  C   UNL A   1      44.075  35.709  30.525  1.00  0.00     0.020 A 
ATOM     73  C   UNL A   1      43.579  34.970  32.786  1.00  0.00     0.020 A 
ATOM     74  C   UNL A   1      43.928  35.981  31.888  1.00  0.00     0.054 A 
BRANCH  74  75
ATOM     75  S   UNL A   1      44.196  37.677  32.472  1.00  0.00     0.124 S 
ATOM     76  O   UNL A   1      43.310  37.736  33.632  1.00  0.00    -0.237 OA
ATOM     77  O   UNL A   1      45.625  37.693  32.774  1.00  0.00    -0.237 OA
ATOM     78  O   UNL A   1      43.793  38.502  31.336  1.00  0.00    -0.744 OA
ENDBRANCH  74  75
ENDBRANCH  55  69
BRANCH  56  79
ATOM     79  C   UNL A   1      42.443  24.050  27.609  1.00  0.00    -0.014 A 
ATOM     80  C   UNL A   1      42.467  23.771  26.233  1.00  0.00     0.010 A 
ATOM     81  C   UNL A   1      42.286  22.991  28.522  1.00  0.00     0.010 A 
ATOM     82  C   UNL A   1      42.342  22.457  25.774  1.00  0.00     0.020 A 
ATOM     83  C   UNL A   1      42.183  21.672  28.068  1.00  0.00     0.020 A 
ATOM     84  C   UNL A   1      42.207  21.414  26.696  1.00  0.00     0.054 A 
BRANCH  84  85
ATOM     85  S   UNL A   1      42.133  19.708  26.081  1.00  0.00     0.124 S 
ATOM     86  O   UNL A   1      42.519  18.942  27.262  1.00  0.00    -0.237 OA
ATOM     87  O   UNL A   1      40.736  19.580  25.672  1.00  0.00    -0.237 OA
ATOM     88  O   UNL A   1      43.097  19.700  24.984  1.00  0.00    -0.744 OA
ENDBRANCH  84  85
ENDBRANCH  56  79
BRANCH  68  89
ATOM     89  C   UNL A   1      48.011  27.837  29.426  1.00  0.00    -0.014 A 
ATOM     90  C   UNL A   1      48.627  27.284  30.563  1.00  0.00     0.010 A 
ATOM     91  C   UNL A   1      48.779  28.054  28.267  1.00  0.00     0.010 A 
ATOM     92  C   UNL A   1      49.988  26.963  30.542  1.00  0.00     0.020 A 
ATOM     93  C   UNL A   1      50.134  27.715  28.237  1.00  0.00     0.020 A 
ATOM     94  C   UNL A   1      50.732  27.177  29.378  1.00  0.00     0.054 A 
BRANCH  94  95
ATOM     95  S   UNL A   1      52.478  26.684  29.354  1.00  0.00     0.124 S 
ATOM     96  O   UNL A   1      53.159  27.975  29.368  1.00  0.00    -0.237 OA
ATOM     97  O   UNL A   1      52.606  25.892  30.575  1.00  0.00    -0.237 OA
ATOM     98  O   UNL A   1      52.607  25.926  28.111  1.00  0.00    -0.744 OA
ENDBRANCH  94  95
ENDBRANCH  68  89
ENDBRANCH  42  43
ENDBRANCH  34  37
ENDBRANCH  32  33
ENDBRANCH  31  32
ENDBRANCH   1  31
TORSDOF 18
ENDMDL
MODEL 3
REMARK VINA RESULT:     -11.8      1.332      8.042
REMARK SMILES O=C(CN1C(=O)/C(=C\c2cccs2)SC1=S)Nc1ccccc1C(=O)NCCCCNC(=O)c1ccc(-c2c3nc(c(-c4ccc(S(=O)(=O)[O-])cc4)c4ccc([nH]4)c(-c4ccc(S(=O)(=O)[O-])cc4)c4nc(c(-c5ccc(S(=O)(=O)[O-])cc5)c5ccc2[nH]5)C=C4)C=C3)cc1
REMARK SMILES IDX 28 1 27 2 26 3 24 4 25 5 23 7 18 8 19 9 20 10 22 11 21 12
REMARK SMILES IDX 17 13 1 14 2 15 3 17 4 18 5 19 15 20 6 21 7 22 14 23 16 24
REMARK SMILES IDX 8 25 9 26 10 27 13 28 11 29 12 30 29 31 30 32 31 33 32 34
REMARK SMILES IDX 33 36 34 37 35 38 93 39 36 40 92 41 37 42 38 43 39 44 86 45
REMARK SMILES IDX 40 46 91 47 85 48 87 49 41 50 90 51 84 52 83 53 42 55 72 56
REMARK SMILES IDX 53 57 71 58 54 59 57 60 70 61 88 62 55 63 56 64 69 66 89 67
REMARK SMILES IDX 58 68 43 69 44 70 52 71 45 72 51 73 46 74 47 75 48 76 49 77
REMARK SMILES IDX 50 78 73 79 74 80 82 81 75 82 81 83 76 84 77 85 78 86 79 87
REMARK SMILES IDX 80 88 59 89 60 90 68 91 61 92 67 93 62 94 63 95 64 96 65 97
REMARK SMILES IDX 66 98
REMARK H PARENT 26 6 17 16 31 35 87 54 57 65
REMARK Flexibility Score: inf
ROOT
ATOM      1  C   UNL A   1      37.381  22.747  25.121  1.00  0.00     0.023 C 
ENDROOT
BRANCH   1   2
ATOM      2  C   UNL A   1      36.605  21.513  25.560  1.00  0.00     0.116 C 
BRANCH   2   3
ATOM      3  N   UNL A   1      35.493  21.676  26.453  1.00  0.00    -0.352 N 
ATOM      4  C   UNL A   1      34.213  21.162  26.348  1.00  0.00     0.253 C 
ATOM      5  O   UNL A   1      33.513  21.201  27.364  1.00  0.00    -0.269 OA
ATOM      6  H   UNL A   1      35.665  22.228  27.249  1.00  0.00     0.163 HD
BRANCH   4   7
ATOM      7  C   UNL A   1      33.564  20.756  25.055  1.00  0.00     0.063 A 
ATOM      8  C   UNL A   1      32.856  21.524  24.107  1.00  0.00     0.054 A 
ATOM      9  C   UNL A   1      32.145  20.866  23.080  1.00  0.00     0.027 A 
ATOM     10  C   UNL A   1      32.206  19.483  22.915  1.00  0.00     0.002 A 
ATOM     11  C   UNL A   1      33.620  19.354  24.852  1.00  0.00     0.016 A 
ATOM     12  C   UNL A   1      32.961  18.725  23.793  1.00  0.00     0.001 A 
BRANCH   8  13
ATOM     13  N   UNL A   1      32.727  22.927  24.072  1.00  0.00    -0.324 N 
ATOM     14  O   UNL A   1      30.724  23.267  25.167  1.00  0.00    -0.273 OA
ATOM     15  C   UNL A   1      31.604  23.657  24.410  1.00  0.00     0.244 C 
ATOM     16  H   UNL A   1      33.515  23.438  23.778  1.00  0.00     0.170 HD
BRANCH  15  17
ATOM     17  C   UNL A   1      31.568  25.018  23.699  1.00  0.00     0.227 C 
BRANCH  17  18
ATOM     18  N   UNL A   1      31.661  26.268  24.424  1.00  0.00    -0.283 N 
ATOM     19  C   UNL A   1      30.710  27.233  24.136  1.00  0.00     0.266 C 
ATOM     20  C   UNL A   1      32.772  26.685  25.120  1.00  0.00     0.148 C 
ATOM     21  O   UNL A   1      29.665  27.011  23.537  1.00  0.00    -0.268 OA
ATOM     22  C   UNL A   1      31.175  28.571  24.597  1.00  0.00     0.081 C 
ATOM     23  S   UNL A   1      32.603  28.373  25.558  1.00  0.00    -0.054 SA
ATOM     24  S   UNL A   1      34.129  25.794  25.517  1.00  0.00    -0.052 S 
ATOM     25  C   UNL A   1      30.714  29.787  24.267  1.00  0.00     0.040 C 
BRANCH  25  26
ATOM     26  C   UNL A   1      29.616  30.023  23.395  1.00  0.00     0.028 A 
ATOM     27  C   UNL A   1      28.292  30.310  23.672  1.00  0.00     0.020 A 
ATOM     28  S   UNL A   1      29.882  30.012  21.692  1.00  0.00    -0.144 S 
ATOM     29  C   UNL A   1      27.490  30.442  22.503  1.00  0.00     0.012 A 
ATOM     30  C   UNL A   1      28.233  30.300  21.355  1.00  0.00     0.065 A 
ENDBRANCH  25  26
ENDBRANCH  17  18
ENDBRANCH  15  17
ENDBRANCH   8  13
ENDBRANCH   4   7
ENDBRANCH   2   3
ENDBRANCH   1   2
BRANCH   1  31
ATOM     31  C   UNL A   1      37.703  23.792  26.198  1.00  0.00     0.023 C 
BRANCH  31  32
ATOM     32  C   UNL A   1      39.165  24.030  26.593  1.00  0.00     0.116 C 
BRANCH  32  33
ATOM     33  N   UNL A   1      39.899  24.989  25.773  1.00  0.00    -0.352 N 
ATOM     34  C   UNL A   1      40.808  25.953  26.172  1.00  0.00     0.251 C 
ATOM     35  H   UNL A   1      39.724  24.943  24.805  1.00  0.00     0.163 HD
ATOM     36  O   UNL A   1      41.445  26.571  25.323  1.00  0.00    -0.269 OA
BRANCH  34  37
ATOM     37  C   UNL A   1      40.905  26.307  27.611  1.00  0.00     0.039 A 
ATOM     38  C   UNL A   1      42.019  27.039  28.033  1.00  0.00     0.014 A 
ATOM     39  C   UNL A   1      39.842  26.081  28.486  1.00  0.00     0.014 A 
ATOM     40  C   UNL A   1      41.995  27.686  29.273  1.00  0.00     0.010 A 
ATOM     41  C   UNL A   1      39.794  26.777  29.697  1.00  0.00     0.010 A 
ATOM     42  C   UNL A   1      40.841  27.636  30.073  1.00  0.00    -0.014 A 
BRANCH  42  43
ATOM     43  C   UNL A   1      40.652  28.582  31.210  1.00  0.00     0.031 A 
ATOM     44  C   UNL A   1      39.635  29.684  31.150  1.00  0.00     0.074 A 
ATOM     45  C   UNL A   1      41.479  28.502  32.275  1.00  0.00     0.049 A 
ATOM     46  N   UNL A   1      39.398  30.633  32.020  1.00  0.00    -0.248 NA
ATOM     47  C   UNL A   1      38.782  29.734  29.954  1.00  0.00     0.031 C 
ATOM     48  C   UNL A   1      42.531  27.497  32.459  1.00  0.00     0.029 A 
ATOM     49  N   UNL A   1      41.572  29.281  33.403  1.00  0.00    -0.354 N 
ATOM     50  C   UNL A   1      38.375  31.399  31.477  1.00  0.00     0.074 A 
ATOM     51  C   UNL A   1      38.065  30.825  30.183  1.00  0.00     0.031 C 
ATOM     52  C   UNL A   1      43.136  27.702  33.638  1.00  0.00     0.029 A 
ATOM     53  C   UNL A   1      42.558  28.880  34.275  1.00  0.00     0.049 A 
ATOM     54  H   UNL A   1      40.987  30.054  33.573  1.00  0.00     0.167 HD
ATOM     55  C   UNL A   1      37.741  32.475  32.008  1.00  0.00     0.031 A 
ATOM     56  C   UNL A   1      42.967  29.401  35.449  1.00  0.00     0.031 A 
ATOM     57  C   UNL A   1      38.060  33.065  33.282  1.00  0.00     0.049 A 
ATOM     58  C   UNL A   1      42.304  30.640  35.981  1.00  0.00     0.074 A 
ATOM     59  C   UNL A   1      37.443  34.129  33.918  1.00  0.00     0.029 A 
ATOM     60  N   UNL A   1      39.096  32.656  34.109  1.00  0.00    -0.354 N 
ATOM     61  N   UNL A   1      41.298  31.314  35.478  1.00  0.00    -0.248 NA
ATOM     62  C   UNL A   1      42.835  31.194  37.234  1.00  0.00     0.031 C 
ATOM     63  C   UNL A   1      38.139  34.396  35.103  1.00  0.00     0.029 A 
ATOM     64  C   UNL A   1      39.159  33.468  35.230  1.00  0.00     0.049 A 
ATOM     65  H   UNL A   1      39.699  31.899  33.926  1.00  0.00     0.167 HD
ATOM     66  C   UNL A   1      41.064  32.360  36.362  1.00  0.00     0.074 A 
ATOM     67  C   UNL A   1      42.027  32.226  37.437  1.00  0.00     0.031 C 
ATOM     68  C   UNL A   1      40.130  33.340  36.289  1.00  0.00     0.031 A 
BRANCH  55  69
ATOM     69  C   UNL A   1      36.647  33.097  31.182  1.00  0.00    -0.014 A 
ATOM     70  C   UNL A   1      36.945  33.807  30.004  1.00  0.00     0.010 A 
ATOM     71  C   UNL A   1      35.306  32.978  31.590  1.00  0.00     0.010 A 
ATOM     72  C   UNL A   1      35.930  34.444  29.287  1.00  0.00     0.020 A 
ATOM     73  C   UNL A   1      34.284  33.594  30.860  1.00  0.00     0.020 A 
ATOM     74  C   UNL A   1      34.607  34.347  29.730  1.00  0.00     0.054 A 
BRANCH  74  75
ATOM     75  S   UNL A   1      33.313  35.218  28.805  1.00  0.00     0.124 S 
ATOM     76  O   UNL A   1      32.714  34.131  28.035  1.00  0.00    -0.237 OA
ATOM     77  O   UNL A   1      32.474  35.771  29.865  1.00  0.00    -0.237 OA
ATOM     78  O   UNL A   1      34.051  36.205  28.021  1.00  0.00    -0.744 OA
ENDBRANCH  74  75
ENDBRANCH  55  69
BRANCH  56  79
ATOM     79  C   UNL A   1      44.059  28.738  36.212  1.00  0.00    -0.014 A 
ATOM     80  C   UNL A   1      43.769  27.653  37.057  1.00  0.00     0.010 A 
ATOM     81  C   UNL A   1      45.394  29.160  36.073  1.00  0.00     0.010 A 
ATOM     82  C   UNL A   1      44.792  26.998  37.747  1.00  0.00     0.020 A 
ATOM     83  C   UNL A   1      46.424  28.493  36.744  1.00  0.00     0.020 A 
ATOM     84  C   UNL A   1      46.116  27.418  37.581  1.00  0.00     0.054 A 
BRANCH  84  85
ATOM     85  S   UNL A   1      47.437  26.499  38.419  1.00  0.00     0.124 S 
ATOM     86  O   UNL A   1      48.174  25.932  37.294  1.00  0.00    -0.237 OA
ATOM     87  O   UNL A   1      48.127  27.547  39.166  1.00  0.00    -0.237 OA
ATOM     88  O   UNL A   1      46.710  25.535  39.243  1.00  0.00    -0.744 OA
ENDBRANCH  84  85
ENDBRANCH  56  79
BRANCH  68  89
ATOM     89  C   UNL A   1      40.091  34.348  37.405  1.00  0.00    -0.014 A 
ATOM     90  C   UNL A   1      40.680  35.616  37.256  1.00  0.00     0.010 A 
ATOM     91  C   UNL A   1      39.398  34.050  38.593  1.00  0.00     0.010 A 
ATOM     92  C   UNL A   1      40.585  36.564  38.279  1.00  0.00     0.020 A 
ATOM     93  C   UNL A   1      39.282  35.003  39.608  1.00  0.00     0.020 A 
ATOM     94  C   UNL A   1      39.883  36.253  39.448  1.00  0.00     0.054 A 
BRANCH  94  95
ATOM     95  S   UNL A   1      39.711  37.526  40.730  1.00  0.00     0.124 S 
ATOM     96  O   UNL A   1      38.908  36.838  41.736  1.00  0.00    -0.237 OA
ATOM     97  O   UNL A   1      41.098  37.792  41.107  1.00  0.00    -0.237 OA
ATOM     98  O   UNL A   1      39.038  38.624  40.039  1.00  0.00    -0.744 OA
ENDBRANCH  94  95
ENDBRANCH  68  89
ENDBRANCH  42  43
ENDBRANCH  34  37
ENDBRANCH  32  33
ENDBRANCH  31  32
ENDBRANCH   1  31
TORSDOF 18
ENDMDL
