MODEL 1
REMARK VINA RESULT:     -11.0      0.000      0.000
REMARK SMILES CC(C)Cc1s/c(=N/C(=O)CCC(=O)Nc2nccs2)[nH]c1C(=O)NCCCCNC(=O)c1ccc(-c2c3nc(c(-c4ccc(S(=O)(=O)[O-])cc4)c4ccc([nH]4)c(-c4ccc(S(=O)(=O)[O-])cc4)c4nc(c(-c5ccc(S(=O)(=O)[O-])cc5)c5ccc2[nH]5)C=C4)C=C3)cc1
REMARK SMILES IDX 26 1 25 2 23 3 24 4 22 6 5 7 6 8 7 9 21 10 8 11 4 13 2 14
REMARK SMILES IDX 1 15 3 16 9 17 10 18 11 19 12 20 13 21 14 22 15 23 16 25
REMARK SMILES IDX 17 26 20 27 18 28 19 29 27 30 28 31 29 32 30 33 31 34 32 36
REMARK SMILES IDX 33 37 34 38 92 39 35 40 91 41 36 42 37 43 38 44 85 45 39 46
REMARK SMILES IDX 90 47 84 48 86 49 40 50 89 51 83 52 82 53 41 55 71 56 52 57
REMARK SMILES IDX 70 58 53 59 56 60 69 61 87 62 54 63 55 64 68 66 88 67 57 68
REMARK SMILES IDX 42 69 43 70 51 71 44 72 50 73 45 74 46 75 47 76 48 77 49 78
REMARK SMILES IDX 72 79 73 80 81 81 74 82 80 83 75 84 76 85 77 86 78 87 79 88
REMARK SMILES IDX 58 89 59 90 67 91 60 92 66 93 61 94 62 95 63 96 64 97 65 98
REMARK H PARENT 25 5 21 12 15 24 30 35 86 54 56 65
REMARK Flexibility Score: inf
ROOT
ATOM      1  C   UNL A   1      33.068  29.819  25.950  1.00  0.00     0.116 C 
ENDROOT
BRANCH   1   2
ATOM      2  N   UNL A   1      33.412  29.635  24.558  1.00  0.00    -0.351 N 
ATOM      3  C   UNL A   1      32.789  28.969  23.547  1.00  0.00     0.268 C 
ATOM      4  O   UNL A   1      33.397  28.903  22.471  1.00  0.00    -0.268 OA
ATOM      5  H   UNL A   1      34.253  30.074  24.291  1.00  0.00     0.163 HD
BRANCH   3   6
ATOM      6  C   UNL A   1      31.484  28.213  23.651  1.00  0.00     0.119 A 
ATOM      7  C   UNL A   1      30.228  28.450  23.191  1.00  0.00     0.038 A 
ATOM      8  S   UNL A   1      29.147  27.119  23.630  1.00  0.00    -0.101 S 
ATOM      9  C   UNL A   1      30.461  26.215  24.403  1.00  0.00     0.190 A 
ATOM     10  N   UNL A   1      31.585  26.969  24.284  1.00  0.00    -0.326 N 
ATOM     11  N   UNL A   1      30.170  25.089  24.943  1.00  0.00    -0.185 NA
ATOM     12  H   UNL A   1      32.448  26.650  24.635  1.00  0.00     0.169 HD
BRANCH   7  13
ATOM     13  C   UNL A   1      29.726  29.604  22.376  1.00  0.00     0.052 C 
BRANCH  13  14
ATOM     14  C   UNL A   1      28.250  30.068  22.349  1.00  0.00    -0.012 C 
ATOM     15  C   UNL A   1      27.877  31.039  23.473  1.00  0.00     0.008 C 
ATOM     16  C   UNL A   1      28.021  30.791  21.009  1.00  0.00     0.008 C 
ENDBRANCH  13  14
ENDBRANCH   7  13
BRANCH  11  17
ATOM     17  C   UNL A   1      31.159  24.402  25.588  1.00  0.00     0.248 C 
ATOM     18  O   UNL A   1      32.062  24.911  26.252  1.00  0.00    -0.273 OA
BRANCH  17  19
ATOM     19  C   UNL A   1      31.078  22.904  25.361  1.00  0.00     0.112 C 
BRANCH  19  20
ATOM     20  C   UNL A   1      32.427  22.211  25.226  1.00  0.00     0.110 C 
BRANCH  20  21
ATOM     21  C   UNL A   1      32.931  22.140  23.796  1.00  0.00     0.226 C 
ATOM     22  O   UNL A   1      32.169  21.766  22.897  1.00  0.00    -0.275 OA
ATOM     23  N   UNL A   1      34.204  22.479  23.455  1.00  0.00    -0.302 N 
ATOM     24  H   UNL A   1      34.427  22.444  22.497  1.00  0.00     0.172 HD
BRANCH  23  25
ATOM     25  C   UNL A   1      35.206  22.859  24.297  1.00  0.00     0.189 A 
ATOM     26  N   UNL A   1      35.378  24.006  24.897  1.00  0.00    -0.229 NA
ATOM     27  S   UNL A   1      36.343  21.637  24.658  1.00  0.00    -0.105 S 
ATOM     28  C   UNL A   1      36.456  23.921  25.754  1.00  0.00     0.125 A 
ATOM     29  C   UNL A   1      37.106  22.705  25.766  1.00  0.00     0.088 A 
ENDBRANCH  23  25
ENDBRANCH  20  21
ENDBRANCH  19  20
ENDBRANCH  17  19
ENDBRANCH  11  17
ENDBRANCH   3   6
ENDBRANCH   1   2
BRANCH   1  30
ATOM     30  C   UNL A   1      33.529  28.719  26.901  1.00  0.00     0.023 C 
BRANCH  30  31
ATOM     31  C   UNL A   1      34.688  29.065  27.839  1.00  0.00     0.023 C 
BRANCH  31  32
ATOM     32  C   UNL A   1      35.142  30.523  27.885  1.00  0.00     0.116 C 
BRANCH  32  33
ATOM     33  N   UNL A   1      35.248  31.079  29.229  1.00  0.00    -0.352 N 
ATOM     34  C   UNL A   1      36.287  31.011  30.134  1.00  0.00     0.251 C 
ATOM     35  H   UNL A   1      34.457  31.577  29.537  1.00  0.00     0.163 HD
ATOM     36  O   UNL A   1      36.156  31.504  31.251  1.00  0.00    -0.269 OA
BRANCH  34  37
ATOM     37  C   UNL A   1      37.537  30.303  29.778  1.00  0.00     0.039 A 
ATOM     38  C   UNL A   1      37.977  30.327  28.451  1.00  0.00     0.014 A 
ATOM     39  C   UNL A   1      38.298  29.660  30.755  1.00  0.00     0.014 A 
ATOM     40  C   UNL A   1      39.238  29.815  28.128  1.00  0.00     0.010 A 
ATOM     41  C   UNL A   1      39.584  29.226  30.447  1.00  0.00     0.010 A 
ATOM     42  C   UNL A   1      40.079  29.317  29.136  1.00  0.00    -0.014 A 
BRANCH  42  43
ATOM     43  C   UNL A   1      41.483  28.900  28.869  1.00  0.00     0.031 A 
ATOM     44  C   UNL A   1      42.577  29.933  28.857  1.00  0.00     0.074 A 
ATOM     45  C   UNL A   1      41.757  27.627  28.518  1.00  0.00     0.049 A 
ATOM     46  N   UNL A   1      43.814  29.822  28.446  1.00  0.00    -0.248 NA
ATOM     47  C   UNL A   1      42.221  31.279  29.336  1.00  0.00     0.031 C 
ATOM     48  C   UNL A   1      40.789  26.529  28.465  1.00  0.00     0.029 A 
ATOM     49  N   UNL A   1      42.935  27.044  28.114  1.00  0.00    -0.354 N 
ATOM     50  C   UNL A   1      44.370  31.089  28.577  1.00  0.00     0.074 A 
ATOM     51  C   UNL A   1      43.326  31.959  29.073  1.00  0.00     0.031 C 
ATOM     52  C   UNL A   1      41.413  25.408  28.065  1.00  0.00     0.029 A 
ATOM     53  C   UNL A   1      42.812  25.714  27.784  1.00  0.00     0.049 A 
ATOM     54  H   UNL A   1      43.789  27.533  28.067  1.00  0.00     0.167 HD
ATOM     55  C   UNL A   1      45.637  31.491  28.318  1.00  0.00     0.031 A 
ATOM     56  C   UNL A   1      43.714  24.843  27.289  1.00  0.00     0.031 A 
ATOM     57  C   UNL A   1      46.682  30.618  27.858  1.00  0.00     0.049 A 
ATOM     58  C   UNL A   1      45.119  25.308  27.020  1.00  0.00     0.074 A 
ATOM     59  C   UNL A   1      48.011  30.921  27.615  1.00  0.00     0.029 A 
ATOM     60  N   UNL A   1      46.522  29.269  27.584  1.00  0.00    -0.354 N 
ATOM     61  N   UNL A   1      45.633  26.504  27.178  1.00  0.00    -0.248 NA
ATOM     62  C   UNL A   1      46.068  24.308  26.510  1.00  0.00     0.031 C 
ATOM     63  C   UNL A   1      48.648  29.762  27.163  1.00  0.00     0.029 A 
ATOM     64  C   UNL A   1      47.725  28.727  27.170  1.00  0.00     0.049 A 
ATOM     65  H   UNL A   1      45.677  28.771  27.669  1.00  0.00     0.167 HD
ATOM     66  C   UNL A   1      46.973  26.391  26.823  1.00  0.00     0.074 A 
ATOM     67  C   UNL A   1      47.191  25.012  26.441  1.00  0.00     0.031 C 
ATOM     68  C   UNL A   1      47.935  27.344  26.821  1.00  0.00     0.031 A 
BRANCH  55  69
ATOM     69  C   UNL A   1      45.959  32.946  28.526  1.00  0.00    -0.014 A 
ATOM     70  C   UNL A   1      45.833  33.874  27.478  1.00  0.00     0.010 A 
ATOM     71  C   UNL A   1      46.366  33.397  29.796  1.00  0.00     0.010 A 
ATOM     72  C   UNL A   1      46.155  35.218  27.679  1.00  0.00     0.020 A 
ATOM     73  C   UNL A   1      46.662  34.747  30.009  1.00  0.00     0.020 A 
ATOM     74  C   UNL A   1      46.575  35.645  28.943  1.00  0.00     0.054 A 
BRANCH  74  75
ATOM     75  S   UNL A   1      46.978  37.396  29.180  1.00  0.00     0.124 S 
ATOM     76  O   UNL A   1      45.884  38.054  28.469  1.00  0.00    -0.237 OA
ATOM     77  O   UNL A   1      46.958  37.538  30.633  1.00  0.00    -0.237 OA
ATOM     78  O   UNL A   1      48.295  37.534  28.562  1.00  0.00    -0.744 OA
ENDBRANCH  74  75
ENDBRANCH  55  69
BRANCH  56  79
ATOM     79  C   UNL A   1      43.319  23.432  27.025  1.00  0.00    -0.014 A 
ATOM     80  C   UNL A   1      43.080  22.550  28.094  1.00  0.00     0.010 A 
ATOM     81  C   UNL A   1      43.172  22.963  25.707  1.00  0.00     0.010 A 
ATOM     82  C   UNL A   1      42.719  21.222  27.852  1.00  0.00     0.020 A 
ATOM     83  C   UNL A   1      42.786  21.641  25.461  1.00  0.00     0.020 A 
ATOM     84  C   UNL A   1      42.572  20.776  26.535  1.00  0.00     0.054 A 
BRANCH  84  85
ATOM     85  S   UNL A   1      42.052  19.061  26.243  1.00  0.00     0.124 S 
ATOM     86  O   UNL A   1      40.642  19.228  25.904  1.00  0.00    -0.237 OA
ATOM     87  O   UNL A   1      42.923  18.649  25.146  1.00  0.00    -0.237 OA
ATOM     88  O   UNL A   1      42.318  18.404  27.520  1.00  0.00    -0.744 OA
ENDBRANCH  84  85
ENDBRANCH  56  79
BRANCH  68  89
ATOM     89  C   UNL A   1      49.335  26.933  26.457  1.00  0.00    -0.014 A 
ATOM     90  C   UNL A   1      50.191  26.344  27.403  1.00  0.00     0.010 A 
ATOM     91  C   UNL A   1      49.755  27.041  25.118  1.00  0.00     0.010 A 
ATOM     92  C   UNL A   1      51.446  25.869  27.014  1.00  0.00     0.020 A 
ATOM     93  C   UNL A   1      51.000  26.548  24.723  1.00  0.00     0.020 A 
ATOM     94  C   UNL A   1      51.841  25.968  25.675  1.00  0.00     0.054 A 
BRANCH  94  95
ATOM     95  S   UNL A   1      53.434  25.258  25.176  1.00  0.00     0.124 S 
ATOM     96  O   UNL A   1      53.559  25.729  23.800  1.00  0.00    -0.237 OA
ATOM     97  O   UNL A   1      54.365  25.854  26.131  1.00  0.00    -0.237 OA
ATOM     98  O   UNL A   1      53.235  23.819  25.327  1.00  0.00    -0.744 OA
ENDBRANCH  94  95
ENDBRANCH  68  89
ENDBRANCH  42  43
ENDBRANCH  34  37
ENDBRANCH  32  33
ENDBRANCH  31  32
ENDBRANCH  30  31
ENDBRANCH   1  30
TORSDOF 21
ENDMDL
MODEL 2
REMARK VINA RESULT:     -10.8      2.086      8.801
REMARK SMILES CC(C)Cc1s/c(=N/C(=O)CCC(=O)Nc2nccs2)[nH]c1C(=O)NCCCCNC(=O)c1ccc(-c2c3nc(c(-c4ccc(S(=O)(=O)[O-])cc4)c4ccc([nH]4)c(-c4ccc(S(=O)(=O)[O-])cc4)c4nc(c(-c5ccc(S(=O)(=O)[O-])cc5)c5ccc2[nH]5)C=C4)C=C3)cc1
REMARK SMILES IDX 26 1 25 2 23 3 24 4 22 6 5 7 6 8 7 9 21 10 8 11 4 13 2 14
REMARK SMILES IDX 1 15 3 16 9 17 10 18 11 19 12 20 13 21 14 22 15 23 16 25
REMARK SMILES IDX 17 26 20 27 18 28 19 29 27 30 28 31 29 32 30 33 31 34 32 36
REMARK SMILES IDX 33 37 34 38 92 39 35 40 91 41 36 42 37 43 38 44 85 45 39 46
REMARK SMILES IDX 90 47 84 48 86 49 40 50 89 51 83 52 82 53 41 55 71 56 52 57
REMARK SMILES IDX 70 58 53 59 56 60 69 61 87 62 54 63 55 64 68 66 88 67 57 68
REMARK SMILES IDX 42 69 43 70 51 71 44 72 50 73 45 74 46 75 47 76 48 77 49 78
REMARK SMILES IDX 72 79 73 80 81 81 74 82 80 83 75 84 76 85 77 86 78 87 79 88
REMARK SMILES IDX 58 89 59 90 67 91 60 92 66 93 61 94 62 95 63 96 64 97 65 98
REMARK H PARENT 25 5 21 12 15 24 30 35 86 54 56 65
REMARK Flexibility Score: inf
ROOT
ATOM      1  C   UNL A   1      36.531  23.320  25.779  1.00  0.00     0.116 C 
ENDROOT
BRANCH   1   2
ATOM      2  N   UNL A   1      35.621  22.678  26.700  1.00  0.00    -0.351 N 
ATOM      3  C   UNL A   1      34.379  22.147  26.532  1.00  0.00     0.268 C 
ATOM      4  O   UNL A   1      33.800  21.757  27.554  1.00  0.00    -0.268 OA
ATOM      5  H   UNL A   1      35.964  22.612  27.622  1.00  0.00     0.163 HD
BRANCH   3   6
ATOM      6  C   UNL A   1      33.603  22.092  25.236  1.00  0.00     0.119 A 
ATOM      7  C   UNL A   1      33.022  21.083  24.536  1.00  0.00     0.038 A 
ATOM      8  S   UNL A   1      32.217  21.715  23.091  1.00  0.00    -0.101 S 
ATOM      9  C   UNL A   1      32.646  23.385  23.499  1.00  0.00     0.190 A 
ATOM     10  N   UNL A   1      33.354  23.342  24.658  1.00  0.00    -0.326 N 
ATOM     11  N   UNL A   1      32.279  24.308  22.688  1.00  0.00    -0.185 NA
ATOM     12  H   UNL A   1      33.685  24.168  25.080  1.00  0.00     0.169 HD
BRANCH   7  13
ATOM     13  C   UNL A   1      32.960  19.622  24.866  1.00  0.00     0.052 C 
BRANCH  13  14
ATOM     14  C   UNL A   1      33.766  18.531  24.123  1.00  0.00    -0.012 C 
ATOM     15  C   UNL A   1      35.207  18.368  24.616  1.00  0.00     0.008 C 
ATOM     16  C   UNL A   1      33.040  17.192  24.345  1.00  0.00     0.008 C 
ENDBRANCH  13  14
ENDBRANCH   7  13
BRANCH  11  17
ATOM     17  C   UNL A   1      32.644  25.596  22.958  1.00  0.00     0.248 C 
ATOM     18  O   UNL A   1      33.431  25.942  23.841  1.00  0.00    -0.273 OA
BRANCH  17  19
ATOM     19  C   UNL A   1      31.929  26.606  22.081  1.00  0.00     0.112 C 
BRANCH  19  20
ATOM     20  C   UNL A   1      30.640  27.159  22.677  1.00  0.00     0.110 C 
BRANCH  20  21
ATOM     21  C   UNL A   1      30.605  28.675  22.743  1.00  0.00     0.226 C 
ATOM     22  O   UNL A   1      30.174  29.319  21.779  1.00  0.00    -0.275 OA
ATOM     23  N   UNL A   1      31.030  29.365  23.836  1.00  0.00    -0.302 N 
ATOM     24  H   UNL A   1      30.926  30.344  23.804  1.00  0.00     0.172 HD
BRANCH  23  25
ATOM     25  C   UNL A   1      31.584  28.850  24.968  1.00  0.00     0.189 A 
ATOM     26  N   UNL A   1      31.182  27.837  25.688  1.00  0.00    -0.229 NA
ATOM     27  S   UNL A   1      33.038  29.599  25.460  1.00  0.00    -0.105 S 
ATOM     28  C   UNL A   1      32.106  27.581  26.681  1.00  0.00     0.125 A 
ATOM     29  C   UNL A   1      33.190  28.432  26.713  1.00  0.00     0.088 A 
ENDBRANCH  23  25
ENDBRANCH  20  21
ENDBRANCH  19  20
ENDBRANCH  17  19
ENDBRANCH  11  17
ENDBRANCH   3   6
ENDBRANCH   1   2
BRANCH   1  30
ATOM     30  C   UNL A   1      37.099  22.431  24.676  1.00  0.00     0.023 C 
BRANCH  30  31
ATOM     31  C   UNL A   1      37.788  21.140  25.124  1.00  0.00     0.023 C 
BRANCH  31  32
ATOM     32  C   UNL A   1      39.150  21.271  25.805  1.00  0.00     0.116 C 
BRANCH  32  33
ATOM     33  N   UNL A   1      39.913  20.031  25.870  1.00  0.00    -0.352 N 
ATOM     34  C   UNL A   1      41.249  19.829  26.149  1.00  0.00     0.251 C 
ATOM     35  H   UNL A   1      39.397  19.214  25.684  1.00  0.00     0.163 HD
ATOM     36  O   UNL A   1      41.718  18.695  26.098  1.00  0.00    -0.269 OA
BRANCH  34  37
ATOM     37  C   UNL A   1      42.125  20.980  26.461  1.00  0.00     0.039 A 
ATOM     38  C   UNL A   1      42.679  21.717  25.409  1.00  0.00     0.014 A 
ATOM     39  C   UNL A   1      42.361  21.363  27.782  1.00  0.00     0.014 A 
ATOM     40  C   UNL A   1      43.364  22.907  25.679  1.00  0.00     0.010 A 
ATOM     41  C   UNL A   1      42.970  22.587  28.043  1.00  0.00     0.010 A 
ATOM     42  C   UNL A   1      43.460  23.384  26.996  1.00  0.00    -0.014 A 
BRANCH  42  43
ATOM     43  C   UNL A   1      44.044  24.714  27.322  1.00  0.00     0.031 A 
ATOM     44  C   UNL A   1      43.145  25.834  27.769  1.00  0.00     0.074 A 
ATOM     45  C   UNL A   1      45.354  24.952  27.099  1.00  0.00     0.049 A 
ATOM     46  N   UNL A   1      43.413  27.108  27.898  1.00  0.00    -0.248 NA
ATOM     47  C   UNL A   1      41.750  25.478  28.076  1.00  0.00     0.031 C 
ATOM     48  C   UNL A   1      46.335  23.965  26.642  1.00  0.00     0.029 A 
ATOM     49  N   UNL A   1      46.082  26.113  27.204  1.00  0.00    -0.354 N 
ATOM     50  C   UNL A   1      42.214  27.710  28.259  1.00  0.00     0.074 A 
ATOM     51  C   UNL A   1      41.211  26.668  28.295  1.00  0.00     0.031 C 
ATOM     52  C   UNL A   1      47.534  24.557  26.519  1.00  0.00     0.029 A 
ATOM     53  C   UNL A   1      47.401  25.976  26.837  1.00  0.00     0.049 A 
ATOM     54  H   UNL A   1      45.697  26.964  27.515  1.00  0.00     0.167 HD
ATOM     55  C   UNL A   1      41.969  29.012  28.545  1.00  0.00     0.031 A 
ATOM     56  C   UNL A   1      48.389  26.889  26.744  1.00  0.00     0.031 A 
ATOM     57  C   UNL A   1      42.974  30.040  28.542  1.00  0.00     0.049 A 
ATOM     58  C   UNL A   1      48.098  28.327  27.077  1.00  0.00     0.074 A 
ATOM     59  C   UNL A   1      42.834  31.379  28.866  1.00  0.00     0.029 A 
ATOM     60  N   UNL A   1      44.305  29.845  28.210  1.00  0.00    -0.354 N 
ATOM     61  N   UNL A   1      46.963  28.872  27.445  1.00  0.00    -0.248 NA
ATOM     62  C   UNL A   1      49.219  29.274  26.988  1.00  0.00     0.031 C 
ATOM     63  C   UNL A   1      44.075  32.000  28.700  1.00  0.00     0.029 A 
ATOM     64  C   UNL A   1      44.997  31.037  28.318  1.00  0.00     0.049 A 
ATOM     65  H   UNL A   1      44.700  28.985  27.938  1.00  0.00     0.167 HD
ATOM     66  C   UNL A   1      47.243  30.216  27.668  1.00  0.00     0.074 A 
ATOM     67  C   UNL A   1      48.652  30.403  27.392  1.00  0.00     0.031 C 
ATOM     68  C   UNL A   1      46.407  31.203  28.069  1.00  0.00     0.031 A 
BRANCH  55  69
ATOM     69  C   UNL A   1      40.554  29.394  28.883  1.00  0.00    -0.014 A 
ATOM     70  C   UNL A   1      39.567  29.477  27.885  1.00  0.00     0.010 A 
ATOM     71  C   UNL A   1      40.198  29.644  30.221  1.00  0.00     0.010 A 
ATOM     72  C   UNL A   1      38.262  29.854  28.209  1.00  0.00     0.020 A 
ATOM     73  C   UNL A   1      38.886  29.993  30.555  1.00  0.00     0.020 A 
ATOM     74  C   UNL A   1      37.931  30.116  29.543  1.00  0.00     0.054 A 
BRANCH  74  75
ATOM     75  S   UNL A   1      36.228  30.594  29.939  1.00  0.00     0.124 S 
ATOM     76  O   UNL A   1      35.534  30.291  28.689  1.00  0.00    -0.237 OA
ATOM     77  O   UNL A   1      35.902  29.722  31.064  1.00  0.00    -0.237 OA
ATOM     78  O   UNL A   1      36.334  32.014  30.265  1.00  0.00    -0.744 OA
ENDBRANCH  74  75
ENDBRANCH  55  69
BRANCH  56  79
ATOM     79  C   UNL A   1      49.755  26.470  26.325  1.00  0.00    -0.014 A 
ATOM     80  C   UNL A   1      50.184  26.675  25.002  1.00  0.00     0.010 A 
ATOM     81  C   UNL A   1      50.636  25.872  27.245  1.00  0.00     0.010 A 
ATOM     82  C   UNL A   1      51.462  26.274  24.600  1.00  0.00     0.020 A 
ATOM     83  C   UNL A   1      51.923  25.492  26.852  1.00  0.00     0.020 A 
ATOM     84  C   UNL A   1      52.325  25.686  25.529  1.00  0.00     0.054 A 
BRANCH  84  85
ATOM     85  S   UNL A   1      53.998  25.221  25.000  1.00  0.00     0.124 S 
ATOM     86  O   UNL A   1      54.084  25.849  23.686  1.00  0.00    -0.237 OA
ATOM     87  O   UNL A   1      54.834  25.812  26.041  1.00  0.00    -0.237 OA
ATOM     88  O   UNL A   1      53.959  23.761  24.998  1.00  0.00    -0.744 OA
ENDBRANCH  84  85
ENDBRANCH  56  79
BRANCH  68  89
ATOM     89  C   UNL A   1      46.989  32.569  28.304  1.00  0.00    -0.014 A 
ATOM     90  C   UNL A   1      47.099  33.505  27.262  1.00  0.00     0.010 A 
ATOM     91  C   UNL A   1      47.327  32.954  29.615  1.00  0.00     0.010 A 
ATOM     92  C   UNL A   1      47.538  34.804  27.529  1.00  0.00     0.020 A 
ATOM     93  C   UNL A   1      47.746  34.257  29.888  1.00  0.00     0.020 A 
ATOM     94  C   UNL A   1      47.853  35.175  28.841  1.00  0.00     0.054 A 
BRANCH  94  95
ATOM     95  S   UNL A   1      48.329  36.893  29.176  1.00  0.00     0.124 S 
ATOM     96  O   UNL A   1      48.456  36.895  30.630  1.00  0.00    -0.237 OA
ATOM     97  O   UNL A   1      49.581  37.030  28.436  1.00  0.00    -0.237 OA
ATOM     98  O   UNL A   1      47.212  37.672  28.647  1.00  0.00    -0.744 OA
ENDBRANCH  94  95
ENDBRANCH  68  89
ENDBRANCH  42  43
ENDBRANCH  34  37
ENDBRANCH  32  33
ENDBRANCH  31  32
ENDBRANCH  30  31
ENDBRANCH   1  30
TORSDOF 21
ENDMDL
MODEL 3
REMARK VINA RESULT:     -10.8      5.807     10.284
REMARK SMILES CC(C)Cc1s/c(=N/C(=O)CCC(=O)Nc2nccs2)[nH]c1C(=O)NCCCCNC(=O)c1ccc(-c2c3nc(c(-c4ccc(S(=O)(=O)[O-])cc4)c4ccc([nH]4)c(-c4ccc(S(=O)(=O)[O-])cc4)c4nc(c(-c5ccc(S(=O)(=O)[O-])cc5)c5ccc2[nH]5)C=C4)C=C3)cc1
REMARK SMILES IDX 26 1 25 2 23 3 24 4 22 6 5 7 6 8 7 9 21 10 8 11 4 13 2 14
REMARK SMILES IDX 1 15 3 16 9 17 10 18 11 19 12 20 13 21 14 22 15 23 16 25
REMARK SMILES IDX 17 26 20 27 18 28 19 29 27 30 28 31 29 32 30 33 31 34 32 36
REMARK SMILES IDX 33 37 34 38 92 39 35 40 91 41 36 42 37 43 38 44 85 45 39 46
REMARK SMILES IDX 90 47 84 48 86 49 40 50 89 51 83 52 82 53 41 55 71 56 52 57
REMARK SMILES IDX 70 58 53 59 56 60 69 61 87 62 54 63 55 64 68 66 88 67 57 68
REMARK SMILES IDX 42 69 43 70 51 71 44 72 50 73 45 74 46 75 47 76 48 77 49 78
REMARK SMILES IDX 72 79 73 80 81 81 74 82 80 83 75 84 76 85 77 86 78 87 79 88
REMARK SMILES IDX 58 89 59 90 67 91 60 92 66 93 61 94 62 95 63 96 64 97 65 98
REMARK H PARENT 25 5 21 12 15 24 30 35 86 54 56 65
REMARK Flexibility Score: inf
ROOT
ATOM      1  C   UNL A   1      33.302  27.815  26.269  1.00  0.00     0.116 C 
ENDROOT
BRANCH   1   2
ATOM      2  N   UNL A   1      31.963  27.273  26.255  1.00  0.00    -0.351 N 
ATOM      3  C   UNL A   1      31.247  26.640  25.285  1.00  0.00     0.268 C 
ATOM      4  O   UNL A   1      30.065  26.384  25.548  1.00  0.00    -0.268 OA
ATOM      5  H   UNL A   1      31.478  27.380  27.106  1.00  0.00     0.163 HD
BRANCH   3   6
ATOM      6  C   UNL A   1      31.728  26.325  23.887  1.00  0.00     0.119 A 
ATOM      7  C   UNL A   1      31.611  26.961  22.693  1.00  0.00     0.038 A 
ATOM      8  S   UNL A   1      32.461  26.062  21.427  1.00  0.00    -0.101 S 
ATOM      9  C   UNL A   1      33.020  24.836  22.577  1.00  0.00     0.190 A 
ATOM     10  N   UNL A   1      32.529  25.180  23.796  1.00  0.00    -0.326 N 
ATOM     11  N   UNL A   1      33.723  23.866  22.117  1.00  0.00    -0.185 NA
ATOM     12  H   UNL A   1      32.730  24.640  24.594  1.00  0.00     0.169 HD
BRANCH   7  13
ATOM     13  C   UNL A   1      30.934  28.262  22.382  1.00  0.00     0.052 C 
BRANCH  13  14
ATOM     14  C   UNL A   1      29.786  28.865  23.226  1.00  0.00    -0.012 C 
ATOM     15  C   UNL A   1      30.209  30.040  24.111  1.00  0.00     0.008 C 
ATOM     16  C   UNL A   1      28.716  29.378  22.245  1.00  0.00     0.008 C 
ENDBRANCH  13  14
ENDBRANCH   7  13
BRANCH  11  17
ATOM     17  C   UNL A   1      34.120  22.884  22.979  1.00  0.00     0.248 C 
ATOM     18  O   UNL A   1      33.379  22.039  23.484  1.00  0.00    -0.273 OA
BRANCH  17  19
ATOM     19  C   UNL A   1      35.597  22.959  23.317  1.00  0.00     0.112 C 
BRANCH  19  20
ATOM     20  C   UNL A   1      36.075  21.898  24.298  1.00  0.00     0.110 C 
BRANCH  20  21
ATOM     21  C   UNL A   1      36.804  22.469  25.501  1.00  0.00     0.226 C 
ATOM     22  O   UNL A   1      38.040  22.449  25.533  1.00  0.00    -0.275 OA
ATOM     23  N   UNL A   1      36.145  23.011  26.561  1.00  0.00    -0.302 N 
ATOM     24  H   UNL A   1      36.703  23.397  27.274  1.00  0.00     0.172 HD
BRANCH  23  25
ATOM     25  C   UNL A   1      34.797  23.078  26.742  1.00  0.00     0.189 A 
ATOM     26  N   UNL A   1      33.972  24.033  26.406  1.00  0.00    -0.229 NA
ATOM     27  S   UNL A   1      34.098  21.686  27.445  1.00  0.00    -0.105 S 
ATOM     28  C   UNL A   1      32.676  23.637  26.666  1.00  0.00     0.125 A 
ATOM     29  C   UNL A   1      32.543  22.385  27.228  1.00  0.00     0.088 A 
ENDBRANCH  23  25
ENDBRANCH  20  21
ENDBRANCH  19  20
ENDBRANCH  17  19
ENDBRANCH  11  17
ENDBRANCH   3   6
ENDBRANCH   1   2
BRANCH   1  30
ATOM     30  C   UNL A   1      33.429  29.286  25.884  1.00  0.00     0.023 C 
BRANCH  30  31
ATOM     31  C   UNL A   1      32.789  30.301  26.835  1.00  0.00     0.023 C 
BRANCH  31  32
ATOM     32  C   UNL A   1      33.703  31.357  27.452  1.00  0.00     0.116 C 
BRANCH  32  33
ATOM     33  N   UNL A   1      33.091  32.671  27.603  1.00  0.00    -0.352 N 
ATOM     34  C   UNL A   1      33.446  33.725  28.421  1.00  0.00     0.251 C 
ATOM     35  H   UNL A   1      32.303  32.831  27.035  1.00  0.00     0.163 HD
ATOM     36  O   UNL A   1      32.757  34.741  28.441  1.00  0.00    -0.269 OA
BRANCH  34  37
ATOM     37  C   UNL A   1      34.625  33.610  29.308  1.00  0.00     0.039 A 
ATOM     38  C   UNL A   1      34.520  32.861  30.484  1.00  0.00     0.014 A 
ATOM     39  C   UNL A   1      35.842  34.197  28.960  1.00  0.00     0.014 A 
ATOM     40  C   UNL A   1      35.664  32.597  31.245  1.00  0.00     0.010 A 
ATOM     41  C   UNL A   1      36.992  33.866  29.671  1.00  0.00     0.010 A 
ATOM     42  C   UNL A   1      36.922  33.046  30.809  1.00  0.00    -0.014 A 
BRANCH  42  43
ATOM     43  C   UNL A   1      38.186  32.667  31.497  1.00  0.00     0.031 A 
ATOM     44  C   UNL A   1      39.025  31.544  30.950  1.00  0.00     0.074 A 
ATOM     45  C   UNL A   1      38.516  33.240  32.673  1.00  0.00     0.049 A 
ATOM     46  N   UNL A   1      40.036  30.923  31.502  1.00  0.00    -0.248 NA
ATOM     47  C   UNL A   1      38.654  31.030  29.622  1.00  0.00     0.031 C 
ATOM     48  C   UNL A   1      37.779  34.322  33.332  1.00  0.00     0.029 A 
ATOM     49  N   UNL A   1      39.549  32.973  33.540  1.00  0.00    -0.354 N 
ATOM     50  C   UNL A   1      40.393  29.919  30.609  1.00  0.00     0.074 A 
ATOM     51  C   UNL A   1      39.471  29.994  29.497  1.00  0.00     0.031 C 
ATOM     52  C   UNL A   1      38.389  34.633  34.488  1.00  0.00     0.029 A 
ATOM     53  C   UNL A   1      39.529  33.741  34.682  1.00  0.00     0.049 A 
ATOM     54  H   UNL A   1      40.240  32.295  33.361  1.00  0.00     0.167 HD
ATOM     55  C   UNL A   1      41.404  29.023  30.700  1.00  0.00     0.031 A 
ATOM     56  C   UNL A   1      40.321  33.720  35.772  1.00  0.00     0.031 A 
ATOM     57  C   UNL A   1      42.341  28.972  31.789  1.00  0.00     0.049 A 
ATOM     58  C   UNL A   1      41.446  32.723  35.847  1.00  0.00     0.074 A 
ATOM     59  C   UNL A   1      43.430  28.132  31.947  1.00  0.00     0.029 A 
ATOM     60  N   UNL A   1      42.310  29.802  32.898  1.00  0.00    -0.354 N 
ATOM     61  N   UNL A   1      41.785  31.801  34.979  1.00  0.00    -0.248 NA
ATOM     62  C   UNL A   1      42.297  32.764  37.045  1.00  0.00     0.031 C 
ATOM     63  C   UNL A   1      44.039  28.433  33.169  1.00  0.00     0.029 A 
ATOM     64  C   UNL A   1      43.357  29.492  33.747  1.00  0.00     0.049 A 
ATOM     65  H   UNL A   1      41.642  30.506  33.059  1.00  0.00     0.167 HD
ATOM     66  C   UNL A   1      42.911  31.178  35.508  1.00  0.00     0.074 A 
ATOM     67  C   UNL A   1      43.195  31.826  36.771  1.00  0.00     0.031 C 
ATOM     68  C   UNL A   1      43.645  30.165  34.989  1.00  0.00     0.031 A 
BRANCH  55  69
ATOM     69  C   UNL A   1      41.544  28.020  29.587  1.00  0.00    -0.014 A 
ATOM     70  C   UNL A   1      40.644  26.947  29.460  1.00  0.00     0.010 A 
ATOM     71  C   UNL A   1      42.572  28.168  28.638  1.00  0.00     0.010 A 
ATOM     72  C   UNL A   1      40.798  26.011  28.435  1.00  0.00     0.020 A 
ATOM     73  C   UNL A   1      42.712  27.250  27.593  1.00  0.00     0.020 A 
ATOM     74  C   UNL A   1      41.837  26.165  27.511  1.00  0.00     0.054 A 
BRANCH  74  75
ATOM     75  S   UNL A   1      42.009  24.942  26.184  1.00  0.00     0.124 S 
ATOM     76  O   UNL A   1      41.904  25.778  24.991  1.00  0.00    -0.237 OA
ATOM     77  O   UNL A   1      43.331  24.374  26.439  1.00  0.00    -0.237 OA
ATOM     78  O   UNL A   1      40.889  24.030  26.407  1.00  0.00    -0.744 OA
ENDBRANCH  74  75
ENDBRANCH  55  69
BRANCH  56  79
ATOM     79  C   UNL A   1      40.087  34.683  36.883  1.00  0.00    -0.014 A 
ATOM     80  C   UNL A   1      40.775  35.910  36.914  1.00  0.00     0.010 A 
ATOM     81  C   UNL A   1      39.173  34.387  37.909  1.00  0.00     0.010 A 
ATOM     82  C   UNL A   1      40.567  36.814  37.959  1.00  0.00     0.020 A 
ATOM     83  C   UNL A   1      38.944  35.300  38.944  1.00  0.00     0.020 A 
ATOM     84  C   UNL A   1      39.650  36.503  38.968  1.00  0.00     0.054 A 
BRANCH  84  85
ATOM     85  S   UNL A   1      39.356  37.714  40.288  1.00  0.00     0.124 S 
ATOM     86  O   UNL A   1      38.282  38.523  39.722  1.00  0.00    -0.237 OA
ATOM     87  O   UNL A   1      38.982  36.866  41.417  1.00  0.00    -0.237 OA
ATOM     88  O   UNL A   1      40.645  38.387  40.425  1.00  0.00    -0.744 OA
ENDBRANCH  84  85
ENDBRANCH  56  79
BRANCH  68  89
ATOM     89  C   UNL A   1      44.870  29.724  35.740  1.00  0.00    -0.014 A 
ATOM     90  C   UNL A   1      46.061  30.468  35.696  1.00  0.00     0.010 A 
ATOM     91  C   UNL A   1      44.786  28.606  36.591  1.00  0.00     0.010 A 
ATOM     92  C   UNL A   1      47.150  30.099  36.490  1.00  0.00     0.020 A 
ATOM     93  C   UNL A   1      45.865  28.247  37.402  1.00  0.00     0.020 A 
ATOM     94  C   UNL A   1      47.043  28.995  37.344  1.00  0.00     0.054 A 
BRANCH  94  95
ATOM     95  S   UNL A   1      48.435  28.593  38.435  1.00  0.00     0.124 S 
ATOM     96  O   UNL A   1      48.017  27.316  39.004  1.00  0.00    -0.237 OA
ATOM     97  O   UNL A   1      49.562  28.529  37.509  1.00  0.00    -0.237 OA
ATOM     98  O   UNL A   1      48.473  29.712  39.374  1.00  0.00    -0.744 OA
ENDBRANCH  94  95
ENDBRANCH  68  89
ENDBRANCH  42  43
ENDBRANCH  34  37
ENDBRANCH  32  33
ENDBRANCH  31  32
ENDBRANCH  30  31
ENDBRANCH   1  30
TORSDOF 21
ENDMDL
