MODEL 1
REMARK VINA RESULT:      -9.9      0.000      0.000
REMARK SMILES C[C@H]1C[C@@H]([NH+]2CC(CC(=O)NCCCCNC(=O)c3ccc(-c4c5nc(c(-c6ccc(S(=O)(=O)[O-])cc6)c6ccc([nH]6)c(-c6ccc(S(=O)(=O)[O-])cc6)c6nc(c(-c7ccc(S(=O)(=O)[O-])cc7)c7ccc4[nH]7)C=C6)C=C5)cc3)C2)CS1
REMARK SMILES IDX 14 1 13 2 12 3 11 4 9 5 10 6 8 8 7 9 5 10 6 11 79 12 4 14
REMARK SMILES IDX 1 15 2 16 3 17 81 18 80 19 15 20 16 21 17 22 18 24 19 25
REMARK SMILES IDX 20 26 78 27 21 28 77 29 22 30 23 31 24 32 71 33 25 34 76 35
REMARK SMILES IDX 70 36 72 37 26 38 75 39 69 40 68 41 27 43 57 44 38 45 56 46
REMARK SMILES IDX 39 47 42 48 55 49 73 50 40 51 41 52 54 54 74 55 43 56 28 57
REMARK SMILES IDX 29 58 37 59 30 60 36 61 31 62 32 63 33 64 34 65 35 66 58 67
REMARK SMILES IDX 59 68 67 69 60 70 66 71 61 72 62 73 63 74 64 75 65 76 44 77
REMARK SMILES IDX 45 78 53 79 46 80 52 81 47 82 48 83 49 84 50 85 51 86
REMARK H PARENT 11 7 5 13 16 23 72 42 42 53
REMARK Flexibility Score: inf
ROOT
ATOM      1  C   UNL A   1      34.031  33.457  29.036  1.00  0.00     0.023 C 
ENDROOT
BRANCH   1   2
ATOM      2  C   UNL A   1      34.190  34.969  28.952  1.00  0.00     0.023 C 
BRANCH   2   3
ATOM      3  C   UNL A   1      32.913  35.783  29.154  1.00  0.00     0.116 C 
BRANCH   3   4
ATOM      4  N   UNL A   1      33.127  36.869  30.087  1.00  0.00    -0.356 N 
ATOM      5  C   UNL A   1      33.140  36.840  31.448  1.00  0.00     0.220 C 
ATOM      6  O   UNL A   1      33.237  37.903  32.063  1.00  0.00    -0.275 OA
ATOM      7  H   UNL A   1      33.286  37.752  29.680  1.00  0.00     0.163 HD
BRANCH   5   8
ATOM      8  C   UNL A   1      33.004  35.525  32.190  1.00  0.00     0.115 C 
BRANCH   8   9
ATOM      9  C   UNL A   1      34.344  34.973  32.654  1.00  0.00     0.108 C 
ATOM     10  N   UNL A   1      35.257  33.808  34.189  1.00  0.00    -0.331 N 
ATOM     11  C   UNL A   1      34.437  33.475  33.014  1.00  0.00     0.272 C 
ATOM     12  C   UNL A   1      34.778  35.197  34.128  1.00  0.00     0.272 C 
ATOM     13  H   UNL A   1      35.160  33.224  35.019  1.00  0.00     0.348 HD
BRANCH  10  14
ATOM     14  C   UNL A   1      36.729  33.722  34.043  1.00  0.00     0.195 C 
ATOM     15  C   UNL A   1      37.381  30.574  33.201  1.00  0.00     0.019 C 
ATOM     16  C   UNL A   1      38.205  31.851  33.159  1.00  0.00     0.049 C 
ATOM     17  C   UNL A   1      37.424  33.107  32.801  1.00  0.00     0.080 C 
ATOM     18  S   UNL A   1      38.874  32.253  34.794  1.00  0.00    -0.152 SA
ATOM     19  C   UNL A   1      37.403  33.177  35.316  1.00  0.00     0.134 C 
ENDBRANCH  10  14
ENDBRANCH   8   9
ENDBRANCH   5   8
ENDBRANCH   3   4
ENDBRANCH   2   3
ENDBRANCH   1   2
BRANCH   1  20
ATOM     20  C   UNL A   1      34.706  32.669  27.925  1.00  0.00     0.116 C 
BRANCH  20  21
ATOM     21  N   UNL A   1      34.071  31.392  27.631  1.00  0.00    -0.352 N 
ATOM     22  C   UNL A   1      34.626  30.133  27.695  1.00  0.00     0.251 C 
ATOM     23  H   UNL A   1      33.127  31.433  27.352  1.00  0.00     0.163 HD
ATOM     24  O   UNL A   1      33.980  29.151  27.345  1.00  0.00    -0.269 OA
BRANCH  22  25
ATOM     25  C   UNL A   1      36.028  29.996  28.139  1.00  0.00     0.039 A 
ATOM     26  C   UNL A   1      36.286  29.637  29.463  1.00  0.00     0.014 A 
ATOM     27  C   UNL A   1      37.074  30.131  27.224  1.00  0.00     0.014 A 
ATOM     28  C   UNL A   1      37.592  29.324  29.847  1.00  0.00     0.010 A 
ATOM     29  C   UNL A   1      38.356  29.734  27.584  1.00  0.00     0.010 A 
ATOM     30  C   UNL A   1      38.628  29.324  28.899  1.00  0.00    -0.014 A 
BRANCH  30  31
ATOM     31  C   UNL A   1      40.005  28.897  29.252  1.00  0.00     0.031 A 
ATOM     32  C   UNL A   1      40.935  29.860  29.938  1.00  0.00     0.074 A 
ATOM     33  C   UNL A   1      40.444  27.677  28.884  1.00  0.00     0.049 A 
ATOM     34  N   UNL A   1      42.196  29.709  30.249  1.00  0.00    -0.248 NA
ATOM     35  C   UNL A   1      40.384  31.181  30.288  1.00  0.00     0.031 C 
ATOM     36  C   UNL A   1      39.659  26.671  28.162  1.00  0.00     0.029 A 
ATOM     37  N   UNL A   1      41.667  27.078  29.056  1.00  0.00    -0.354 N 
ATOM     38  C   UNL A   1      42.595  30.919  30.803  1.00  0.00     0.074 A 
ATOM     39  C   UNL A   1      41.457  31.810  30.740  1.00  0.00     0.031 C 
ATOM     40  C   UNL A   1      40.409  25.572  27.983  1.00  0.00     0.029 A 
ATOM     41  C   UNL A   1      41.737  25.805  28.541  1.00  0.00     0.049 A 
ATOM     42  H   UNL A   1      42.423  27.519  29.508  1.00  0.00     0.167 HD
ATOM     43  C   UNL A   1      43.792  31.254  31.339  1.00  0.00     0.031 A 
ATOM     44  C   UNL A   1      42.758  24.925  28.519  1.00  0.00     0.031 A 
ATOM     45  C   UNL A   1      44.911  30.357  31.430  1.00  0.00     0.049 A 
ATOM     46  C   UNL A   1      44.070  25.310  29.142  1.00  0.00     0.074 A 
ATOM     47  C   UNL A   1      46.145  30.576  32.017  1.00  0.00     0.029 A 
ATOM     48  N   UNL A   1      44.931  29.066  30.924  1.00  0.00    -0.354 N 
ATOM     49  N   UNL A   1      44.408  26.437  29.721  1.00  0.00    -0.248 NA
ATOM     50  C   UNL A   1      45.137  24.298  29.118  1.00  0.00     0.031 C 
ATOM     51  C   UNL A   1      46.924  29.429  31.835  1.00  0.00     0.029 A 
ATOM     52  C   UNL A   1      46.161  28.481  31.173  1.00  0.00     0.049 A 
ATOM     53  H   UNL A   1      44.181  28.630  30.458  1.00  0.00     0.167 HD
ATOM     54  C   UNL A   1      45.719  26.265  30.148  1.00  0.00     0.074 A 
ATOM     55  C   UNL A   1      46.108  24.919  29.775  1.00  0.00     0.031 C 
ATOM     56  C   UNL A   1      46.528  27.141  30.791  1.00  0.00     0.031 A 
BRANCH  43  57
ATOM     57  C   UNL A   1      43.942  32.653  31.871  1.00  0.00    -0.014 A 
ATOM     58  C   UNL A   1      43.452  33.000  33.144  1.00  0.00     0.010 A 
ATOM     59  C   UNL A   1      44.593  33.631  31.098  1.00  0.00     0.010 A 
ATOM     60  C   UNL A   1      43.564  34.311  33.611  1.00  0.00     0.020 A 
ATOM     61  C   UNL A   1      44.732  34.937  31.575  1.00  0.00     0.020 A 
ATOM     62  C   UNL A   1      44.197  35.274  32.820  1.00  0.00     0.054 A 
BRANCH  62  63
ATOM     63  S   UNL A   1      44.336  36.967  33.454  1.00  0.00     0.124 S 
ATOM     64  O   UNL A   1      43.506  36.907  34.654  1.00  0.00    -0.237 OA
ATOM     65  O   UNL A   1      45.771  37.107  33.689  1.00  0.00    -0.237 OA
ATOM     66  O   UNL A   1      43.804  37.787  32.368  1.00  0.00    -0.744 OA
ENDBRANCH  62  63
ENDBRANCH  43  57
BRANCH  44  67
ATOM     67  C   UNL A   1      42.567  23.584  27.905  1.00  0.00    -0.014 A 
ATOM     68  C   UNL A   1      42.912  23.364  26.560  1.00  0.00     0.010 A 
ATOM     69  C   UNL A   1      42.057  22.515  28.664  1.00  0.00     0.010 A 
ATOM     70  C   UNL A   1      42.737  22.105  25.980  1.00  0.00     0.020 A 
ATOM     71  C   UNL A   1      41.902  21.248  28.094  1.00  0.00     0.020 A 
ATOM     72  C   UNL A   1      42.233  21.054  26.751  1.00  0.00     0.054 A 
BRANCH  72  73
ATOM     73  S   UNL A   1      42.068  19.411  25.996  1.00  0.00     0.124 S 
ATOM     74  O   UNL A   1      40.626  19.313  25.796  1.00  0.00    -0.237 OA
ATOM     75  O   UNL A   1      42.869  19.539  24.780  1.00  0.00    -0.237 OA
ATOM     76  O   UNL A   1      42.626  18.515  27.006  1.00  0.00    -0.744 OA
ENDBRANCH  72  73
ENDBRANCH  44  67
BRANCH  56  77
ATOM     77  C   UNL A   1      47.909  26.667  31.154  1.00  0.00    -0.014 A 
ATOM     78  C   UNL A   1      48.978  26.797  30.251  1.00  0.00     0.010 A 
ATOM     79  C   UNL A   1      48.148  26.139  32.435  1.00  0.00     0.010 A 
ATOM     80  C   UNL A   1      50.261  26.383  30.615  1.00  0.00     0.020 A 
ATOM     81  C   UNL A   1      49.434  25.745  32.810  1.00  0.00     0.020 A 
ATOM     82  C   UNL A   1      50.481  25.858  31.893  1.00  0.00     0.054 A 
BRANCH  82  83
ATOM     83  S   UNL A   1      52.164  25.371  32.362  1.00  0.00     0.124 S 
ATOM     84  O   UNL A   1      52.109  23.919  32.229  1.00  0.00    -0.237 OA
ATOM     85  O   UNL A   1      52.987  26.063  31.372  1.00  0.00    -0.237 OA
ATOM     86  O   UNL A   1      52.299  25.868  33.729  1.00  0.00    -0.744 OA
ENDBRANCH  82  83
ENDBRANCH  56  77
ENDBRANCH  30  31
ENDBRANCH  22  25
ENDBRANCH  20  21
ENDBRANCH   1  20
TORSDOF 16
ENDMDL
MODEL 2
REMARK VINA RESULT:      -9.8      3.008      5.964
REMARK SMILES C[C@H]1C[C@@H]([NH+]2CC(CC(=O)NCCCCNC(=O)c3ccc(-c4c5nc(c(-c6ccc(S(=O)(=O)[O-])cc6)c6ccc([nH]6)c(-c6ccc(S(=O)(=O)[O-])cc6)c6nc(c(-c7ccc(S(=O)(=O)[O-])cc7)c7ccc4[nH]7)C=C6)C=C5)cc3)C2)CS1
REMARK SMILES IDX 14 1 13 2 12 3 11 4 9 5 10 6 8 8 7 9 5 10 6 11 79 12 4 14
REMARK SMILES IDX 1 15 2 16 3 17 81 18 80 19 15 20 16 21 17 22 18 24 19 25
REMARK SMILES IDX 20 26 78 27 21 28 77 29 22 30 23 31 24 32 71 33 25 34 76 35
REMARK SMILES IDX 70 36 72 37 26 38 75 39 69 40 68 41 27 43 57 44 38 45 56 46
REMARK SMILES IDX 39 47 42 48 55 49 73 50 40 51 41 52 54 54 74 55 43 56 28 57
REMARK SMILES IDX 29 58 37 59 30 60 36 61 31 62 32 63 33 64 34 65 35 66 58 67
REMARK SMILES IDX 59 68 67 69 60 70 66 71 61 72 62 73 63 74 64 75 65 76 44 77
REMARK SMILES IDX 45 78 53 79 46 80 52 81 47 82 48 83 49 84 50 85 51 86
REMARK H PARENT 11 7 5 13 16 23 72 42 42 53
REMARK Flexibility Score: inf
ROOT
ATOM      1  C   UNL A   1      32.403  28.183  26.300  1.00  0.00     0.023 C 
ENDROOT
BRANCH   1   2
ATOM      2  C   UNL A   1      31.767  29.344  25.549  1.00  0.00     0.023 C 
BRANCH   2   3
ATOM      3  C   UNL A   1      31.406  29.074  24.089  1.00  0.00     0.116 C 
BRANCH   3   4
ATOM      4  N   UNL A   1      32.590  29.028  23.257  1.00  0.00    -0.356 N 
ATOM      5  C   UNL A   1      33.034  28.023  22.453  1.00  0.00     0.220 C 
ATOM      6  O   UNL A   1      34.130  28.144  21.904  1.00  0.00    -0.275 OA
ATOM      7  H   UNL A   1      33.152  29.836  23.276  1.00  0.00     0.163 HD
BRANCH   5   8
ATOM      8  C   UNL A   1      32.207  26.766  22.265  1.00  0.00     0.115 C 
BRANCH   8   9
ATOM      9  C   UNL A   1      32.647  25.634  23.180  1.00  0.00     0.108 C 
ATOM     10  N   UNL A   1      34.346  24.477  23.749  1.00  0.00    -0.331 N 
ATOM     11  C   UNL A   1      33.898  25.843  24.060  1.00  0.00     0.272 C 
ATOM     12  C   UNL A   1      33.458  24.453  22.577  1.00  0.00     0.272 C 
ATOM     13  H   UNL A   1      35.350  24.307  23.686  1.00  0.00     0.348 HD
BRANCH  10  14
ATOM     14  C   UNL A   1      34.013  23.409  24.720  1.00  0.00     0.195 C 
ATOM     15  C   UNL A   1      36.832  21.728  25.236  1.00  0.00     0.019 C 
ATOM     16  C   UNL A   1      35.503  21.776  25.973  1.00  0.00     0.049 C 
ATOM     17  C   UNL A   1      34.837  23.144  26.006  1.00  0.00     0.080 C 
ATOM     18  S   UNL A   1      34.260  20.748  25.149  1.00  0.00    -0.152 SA
ATOM     19  C   UNL A   1      33.723  22.066  24.023  1.00  0.00     0.134 C 
ENDBRANCH  10  14
ENDBRANCH   8   9
ENDBRANCH   5   8
ENDBRANCH   3   4
ENDBRANCH   2   3
ENDBRANCH   1   2
BRANCH   1  20
ATOM     20  C   UNL A   1      33.520  28.562  27.259  1.00  0.00     0.116 C 
BRANCH  20  21
ATOM     21  N   UNL A   1      33.472  29.945  27.712  1.00  0.00    -0.352 N 
ATOM     22  C   UNL A   1      34.486  30.690  28.272  1.00  0.00     0.251 C 
ATOM     23  H   UNL A   1      32.609  30.405  27.603  1.00  0.00     0.163 HD
ATOM     24  O   UNL A   1      34.272  31.830  28.672  1.00  0.00    -0.269 OA
BRANCH  22  25
ATOM     25  C   UNL A   1      35.819  30.072  28.433  1.00  0.00     0.039 A 
ATOM     26  C   UNL A   1      36.715  30.110  27.363  1.00  0.00     0.014 A 
ATOM     27  C   UNL A   1      36.207  29.543  29.665  1.00  0.00     0.014 A 
ATOM     28  C   UNL A   1      38.034  29.697  27.560  1.00  0.00     0.010 A 
ATOM     29  C   UNL A   1      37.539  29.217  29.882  1.00  0.00     0.010 A 
ATOM     30  C   UNL A   1      38.468  29.294  28.833  1.00  0.00    -0.014 A 
BRANCH  30  31
ATOM     31  C   UNL A   1      39.887  28.949  29.097  1.00  0.00     0.031 A 
ATOM     32  C   UNL A   1      40.814  29.984  29.675  1.00  0.00     0.074 A 
ATOM     33  C   UNL A   1      40.361  27.738  28.741  1.00  0.00     0.049 A 
ATOM     34  N   UNL A   1      42.100  29.908  29.895  1.00  0.00    -0.248 NA
ATOM     35  C   UNL A   1      40.222  31.289  30.017  1.00  0.00     0.031 C 
ATOM     36  C   UNL A   1      39.579  26.667  28.118  1.00  0.00     0.029 A 
ATOM     37  N   UNL A   1      41.623  27.208  28.843  1.00  0.00    -0.354 N 
ATOM     38  C   UNL A   1      42.475  31.158  30.373  1.00  0.00     0.074 A 
ATOM     39  C   UNL A   1      41.291  31.988  30.364  1.00  0.00     0.031 C 
ATOM     40  C   UNL A   1      40.370  25.599  27.924  1.00  0.00     0.029 A 
ATOM     41  C   UNL A   1      41.722  25.920  28.371  1.00  0.00     0.049 A 
ATOM     42  H   UNL A   1      42.387  27.704  29.220  1.00  0.00     0.167 HD
ATOM     43  C   UNL A   1      43.690  31.572  30.805  1.00  0.00     0.031 A 
ATOM     44  C   UNL A   1      42.782  25.091  28.304  1.00  0.00     0.031 A 
ATOM     45  C   UNL A   1      44.858  30.736  30.844  1.00  0.00     0.049 A 
ATOM     46  C   UNL A   1      44.115  25.565  28.813  1.00  0.00     0.074 A 
ATOM     47  C   UNL A   1      46.118  31.039  31.328  1.00  0.00     0.029 A 
ATOM     48  N   UNL A   1      44.908  29.428  30.386  1.00  0.00    -0.354 N 
ATOM     49  N   UNL A   1      44.435  26.730  29.323  1.00  0.00    -0.248 NA
ATOM     50  C   UNL A   1      45.229  24.607  28.746  1.00  0.00     0.031 C 
ATOM     51  C   UNL A   1      46.941  29.925  31.129  1.00  0.00     0.029 A 
ATOM     52  C   UNL A   1      46.181  28.915  30.562  1.00  0.00     0.049 A 
ATOM     53  H   UNL A   1      44.150  28.937  29.994  1.00  0.00     0.167 HD
ATOM     54  C   UNL A   1      45.781  26.640  29.655  1.00  0.00     0.074 A 
ATOM     55  C   UNL A   1      46.211  25.301  29.304  1.00  0.00     0.031 C 
ATOM     56  C   UNL A   1      46.589  27.580  30.204  1.00  0.00     0.031 A 
BRANCH  43  57
ATOM     57  C   UNL A   1      43.805  32.997  31.272  1.00  0.00    -0.014 A 
ATOM     58  C   UNL A   1      44.127  34.031  30.372  1.00  0.00     0.010 A 
ATOM     59  C   UNL A   1      43.573  33.313  32.623  1.00  0.00     0.010 A 
ATOM     60  C   UNL A   1      44.267  35.344  30.825  1.00  0.00     0.020 A 
ATOM     61  C   UNL A   1      43.685  34.632  33.074  1.00  0.00     0.020 A 
ATOM     62  C   UNL A   1      44.052  35.636  32.175  1.00  0.00     0.054 A 
BRANCH  62  63
ATOM     63  S   UNL A   1      44.233  37.351  32.735  1.00  0.00     0.124 S 
ATOM     64  O   UNL A   1      43.213  37.435  33.777  1.00  0.00    -0.237 OA
ATOM     65  O   UNL A   1      45.615  37.392  33.205  1.00  0.00    -0.237 OA
ATOM     66  O   UNL A   1      43.963  38.137  31.533  1.00  0.00    -0.744 OA
ENDBRANCH  62  63
ENDBRANCH  43  57
BRANCH  44  67
ATOM     67  C   UNL A   1      42.617  23.718  27.757  1.00  0.00    -0.014 A 
ATOM     68  C   UNL A   1      42.175  22.673  28.587  1.00  0.00     0.010 A 
ATOM     69  C   UNL A   1      42.885  23.450  26.403  1.00  0.00     0.010 A 
ATOM     70  C   UNL A   1      42.016  21.381  28.077  1.00  0.00     0.020 A 
ATOM     71  C   UNL A   1      42.706  22.165  25.883  1.00  0.00     0.020 A 
ATOM     72  C   UNL A   1      42.283  21.135  26.727  1.00  0.00     0.054 A 
BRANCH  72  73
ATOM     73  S   UNL A   1      42.014  19.464  26.070  1.00  0.00     0.124 S 
ATOM     74  O   UNL A   1      42.839  19.476  24.867  1.00  0.00    -0.237 OA
ATOM     75  O   UNL A   1      42.492  18.615  27.159  1.00  0.00    -0.237 OA
ATOM     76  O   UNL A   1      40.572  19.417  25.843  1.00  0.00    -0.744 OA
ENDBRANCH  72  73
ENDBRANCH  44  67
BRANCH  56  77
ATOM     77  C   UNL A   1      48.015  27.190  30.478  1.00  0.00    -0.014 A 
ATOM     78  C   UNL A   1      49.030  27.458  29.544  1.00  0.00     0.010 A 
ATOM     79  C   UNL A   1      48.349  26.600  31.710  1.00  0.00     0.010 A 
ATOM     80  C   UNL A   1      50.356  27.119  29.828  1.00  0.00     0.020 A 
ATOM     81  C   UNL A   1      49.676  26.282  32.007  1.00  0.00     0.020 A 
ATOM     82  C   UNL A   1      50.670  26.532  31.059  1.00  0.00     0.054 A 
BRANCH  82  83
ATOM     83  S   UNL A   1      52.403  26.145  31.426  1.00  0.00     0.124 S 
ATOM     84  O   UNL A   1      52.297  24.821  32.031  1.00  0.00    -0.237 OA
ATOM     85  O   UNL A   1      53.030  26.185  30.106  1.00  0.00    -0.237 OA
ATOM     86  O   UNL A   1      52.811  27.215  32.333  1.00  0.00    -0.744 OA
ENDBRANCH  82  83
ENDBRANCH  56  77
ENDBRANCH  30  31
ENDBRANCH  22  25
ENDBRANCH  20  21
ENDBRANCH   1  20
TORSDOF 16
ENDMDL
MODEL 3
REMARK VINA RESULT:      -9.5      4.171     10.981
REMARK SMILES C[C@H]1C[C@@H]([NH+]2CC(CC(=O)NCCCCNC(=O)c3ccc(-c4c5nc(c(-c6ccc(S(=O)(=O)[O-])cc6)c6ccc([nH]6)c(-c6ccc(S(=O)(=O)[O-])cc6)c6nc(c(-c7ccc(S(=O)(=O)[O-])cc7)c7ccc4[nH]7)C=C6)C=C5)cc3)C2)CS1
REMARK SMILES IDX 14 1 13 2 12 3 11 4 9 5 10 6 8 8 7 9 5 10 6 11 79 12 4 14
REMARK SMILES IDX 1 15 2 16 3 17 81 18 80 19 15 20 16 21 17 22 18 24 19 25
REMARK SMILES IDX 20 26 78 27 21 28 77 29 22 30 23 31 24 32 71 33 25 34 76 35
REMARK SMILES IDX 70 36 72 37 26 38 75 39 69 40 68 41 27 43 57 44 38 45 56 46
REMARK SMILES IDX 39 47 42 48 55 49 73 50 40 51 41 52 54 54 74 55 43 56 28 57
REMARK SMILES IDX 29 58 37 59 30 60 36 61 31 62 32 63 33 64 34 65 35 66 58 67
REMARK SMILES IDX 59 68 67 69 60 70 66 71 61 72 62 73 63 74 64 75 65 76 44 77
REMARK SMILES IDX 45 78 53 79 46 80 52 81 47 82 48 83 49 84 50 85 51 86
REMARK H PARENT 11 7 5 13 16 23 72 42 42 53
REMARK Flexibility Score: inf
ROOT
ATOM      1  C   UNL A   1      35.780  22.956  24.942  1.00  0.00     0.023 C 
ENDROOT
BRANCH   1   2
ATOM      2  C   UNL A   1      34.791  23.306  26.046  1.00  0.00     0.023 C 
BRANCH   2   3
ATOM      3  C   UNL A   1      33.832  24.455  25.740  1.00  0.00     0.116 C 
BRANCH   3   4
ATOM      4  N   UNL A   1      33.026  24.167  24.573  1.00  0.00    -0.356 N 
ATOM      5  C   UNL A   1      32.561  25.021  23.620  1.00  0.00     0.220 C 
ATOM      6  O   UNL A   1      31.797  24.588  22.757  1.00  0.00    -0.275 OA
ATOM      7  H   UNL A   1      32.779  23.222  24.452  1.00  0.00     0.163 HD
BRANCH   5   8
ATOM      8  C   UNL A   1      32.954  26.486  23.643  1.00  0.00     0.115 C 
BRANCH   8   9
ATOM      9  C   UNL A   1      31.750  27.414  23.694  1.00  0.00     0.108 C 
ATOM     10  N   UNL A   1      31.122  29.402  23.243  1.00  0.00    -0.331 N 
ATOM     11  C   UNL A   1      31.379  28.208  22.422  1.00  0.00     0.272 C 
ATOM     12  C   UNL A   1      31.911  28.819  24.338  1.00  0.00     0.272 C 
ATOM     13  H   UNL A   1      31.328  30.313  22.835  1.00  0.00     0.348 HD
BRANCH  10  14
ATOM     14  C   UNL A   1      29.721  29.665  23.647  1.00  0.00     0.195 C 
ATOM     15  C   UNL A   1      28.174  30.768  20.920  1.00  0.00     0.019 C 
ATOM     16  C   UNL A   1      27.674  30.256  22.262  1.00  0.00     0.049 C 
ATOM     17  C   UNL A   1      28.496  29.126  22.864  1.00  0.00     0.080 C 
ATOM     18  S   UNL A   1      27.775  31.542  23.533  1.00  0.00    -0.152 SA
ATOM     19  C   UNL A   1      29.488  31.150  23.983  1.00  0.00     0.134 C 
ENDBRANCH  10  14
ENDBRANCH   8   9
ENDBRANCH   5   8
ENDBRANCH   3   4
ENDBRANCH   2   3
ENDBRANCH   1   2
BRANCH   1  20
ATOM     20  C   UNL A   1      37.162  23.572  25.087  1.00  0.00     0.116 C 
BRANCH  20  21
ATOM     21  N   UNL A   1      38.179  22.646  25.567  1.00  0.00    -0.352 N 
ATOM     22  C   UNL A   1      39.243  22.911  26.399  1.00  0.00     0.251 C 
ATOM     23  H   UNL A   1      38.094  21.715  25.258  1.00  0.00     0.163 HD
ATOM     24  O   UNL A   1      40.061  22.035  26.660  1.00  0.00    -0.269 OA
BRANCH  22  25
ATOM     25  C   UNL A   1      39.409  24.281  26.928  1.00  0.00     0.039 A 
ATOM     26  C   UNL A   1      38.941  24.572  28.210  1.00  0.00     0.014 A 
ATOM     27  C   UNL A   1      40.107  25.240  26.192  1.00  0.00     0.014 A 
ATOM     28  C   UNL A   1      39.254  25.803  28.791  1.00  0.00     0.010 A 
ATOM     29  C   UNL A   1      40.493  26.426  26.804  1.00  0.00     0.010 A 
ATOM     30  C   UNL A   1      40.073  26.719  28.111  1.00  0.00    -0.014 A 
BRANCH  30  31
ATOM     31  C   UNL A   1      40.509  27.990  28.742  1.00  0.00     0.031 A 
ATOM     32  C   UNL A   1      41.893  28.102  29.321  1.00  0.00     0.074 A 
ATOM     33  C   UNL A   1      39.636  29.010  28.869  1.00  0.00     0.049 A 
ATOM     34  N   UNL A   1      42.430  29.089  29.989  1.00  0.00    -0.248 NA
ATOM     35  C   UNL A   1      42.777  26.935  29.160  1.00  0.00     0.031 C 
ATOM     36  C   UNL A   1      38.247  29.006  28.402  1.00  0.00     0.029 A 
ATOM     37  N   UNL A   1      39.787  30.248  29.442  1.00  0.00    -0.354 N 
ATOM     38  C   UNL A   1      43.699  28.654  30.349  1.00  0.00     0.074 A 
ATOM     39  C   UNL A   1      43.834  27.297  29.870  1.00  0.00     0.031 C 
ATOM     40  C   UNL A   1      37.686  30.194  28.678  1.00  0.00     0.029 A 
ATOM     41  C   UNL A   1      38.658  31.031  29.374  1.00  0.00     0.049 A 
ATOM     42  H   UNL A   1      40.626  30.548  29.861  1.00  0.00     0.167 HD
ATOM     43  C   UNL A   1      44.676  29.331  30.999  1.00  0.00     0.031 A 
ATOM     44  C   UNL A   1      38.431  32.280  29.824  1.00  0.00     0.031 A 
ATOM     45  C   UNL A   1      44.552  30.691  31.446  1.00  0.00     0.049 A 
ATOM     46  C   UNL A   1      39.539  33.021  30.520  1.00  0.00     0.074 A 
ATOM     47  C   UNL A   1      45.506  31.489  32.051  1.00  0.00     0.029 A 
ATOM     48  N   UNL A   1      43.402  31.458  31.330  1.00  0.00    -0.354 N 
ATOM     49  N   UNL A   1      40.755  32.615  30.794  1.00  0.00    -0.248 NA
ATOM     50  C   UNL A   1      39.245  34.392  30.960  1.00  0.00     0.031 C 
ATOM     51  C   UNL A   1      44.922  32.728  32.334  1.00  0.00     0.029 A 
ATOM     52  C   UNL A   1      43.618  32.716  31.866  1.00  0.00     0.049 A 
ATOM     53  H   UNL A   1      42.558  31.153  30.925  1.00  0.00     0.167 HD
ATOM     54  C   UNL A   1      41.379  33.687  31.420  1.00  0.00     0.074 A 
ATOM     55  C   UNL A   1      40.411  34.764  31.470  1.00  0.00     0.031 C 
ATOM     56  C   UNL A   1      42.640  33.773  31.908  1.00  0.00     0.031 A 
BRANCH  43  57
ATOM     57  C   UNL A   1      45.965  28.599  31.257  1.00  0.00    -0.014 A 
ATOM     58  C   UNL A   1      46.145  27.841  32.429  1.00  0.00     0.010 A 
ATOM     59  C   UNL A   1      47.004  28.656  30.312  1.00  0.00     0.010 A 
ATOM     60  C   UNL A   1      47.359  27.197  32.675  1.00  0.00     0.020 A 
ATOM     61  C   UNL A   1      48.211  27.989  30.542  1.00  0.00     0.020 A 
ATOM     62  C   UNL A   1      48.388  27.280  31.732  1.00  0.00     0.054 A 
BRANCH  62  63
ATOM     63  S   UNL A   1      49.952  26.428  32.073  1.00  0.00     0.124 S 
ATOM     64  O   UNL A   1      50.917  27.292  31.397  1.00  0.00    -0.237 OA
ATOM     65  O   UNL A   1      50.014  26.439  33.532  1.00  0.00    -0.237 OA
ATOM     66  O   UNL A   1      49.766  25.110  31.471  1.00  0.00    -0.744 OA
ENDBRANCH  62  63
ENDBRANCH  43  57
BRANCH  44  67
ATOM     67  C   UNL A   1      37.105  32.918  29.605  1.00  0.00    -0.014 A 
ATOM     68  C   UNL A   1      36.218  33.096  30.681  1.00  0.00     0.010 A 
ATOM     69  C   UNL A   1      36.728  33.365  28.327  1.00  0.00     0.010 A 
ATOM     70  C   UNL A   1      34.972  33.697  30.482  1.00  0.00     0.020 A 
ATOM     71  C   UNL A   1      35.492  33.987  28.126  1.00  0.00     0.020 A 
ATOM     72  C   UNL A   1      34.617  34.139  29.204  1.00  0.00     0.054 A 
BRANCH  72  73
ATOM     73  S   UNL A   1      33.019  34.970  28.977  1.00  0.00     0.124 S 
ATOM     74  O   UNL A   1      32.450  34.905  30.318  1.00  0.00    -0.237 OA
ATOM     75  O   UNL A   1      33.415  36.300  28.518  1.00  0.00    -0.237 OA
ATOM     76  O   UNL A   1      32.350  34.148  27.970  1.00  0.00    -0.744 OA
ENDBRANCH  72  73
ENDBRANCH  44  67
BRANCH  56  77
ATOM     77  C   UNL A   1      43.056  35.082  32.521  1.00  0.00    -0.014 A 
ATOM     78  C   UNL A   1      43.823  36.009  31.794  1.00  0.00     0.010 A 
ATOM     79  C   UNL A   1      42.624  35.410  33.818  1.00  0.00     0.010 A 
ATOM     80  C   UNL A   1      44.172  37.235  32.366  1.00  0.00     0.020 A 
ATOM     81  C   UNL A   1      42.952  36.644  34.384  1.00  0.00     0.020 A 
ATOM     82  C   UNL A   1      43.735  37.544  33.659  1.00  0.00     0.054 A 
BRANCH  82  83
ATOM     83  S   UNL A   1      44.160  39.160  34.363  1.00  0.00     0.124 S 
ATOM     84  O   UNL A   1      45.434  39.450  33.714  1.00  0.00    -0.237 OA
ATOM     85  O   UNL A   1      43.037  39.998  33.948  1.00  0.00    -0.237 OA
ATOM     86  O   UNL A   1      44.236  38.902  35.799  1.00  0.00    -0.744 OA
ENDBRANCH  82  83
ENDBRANCH  56  77
ENDBRANCH  30  31
ENDBRANCH  22  25
ENDBRANCH  20  21
ENDBRANCH   1  20
TORSDOF 16
ENDMDL
