MODEL 1
REMARK VINA RESULT:     -11.5      0.000      0.000
REMARK SMILES C[NH+](C)[C@H]1CCN(C(=O)C(=O)c2ccccc2)C[C@H]1CCC(=O)NCCCCNC(=O)c1ccc(-c2c3nc(c(-c4ccc(S(=O)(=O)[O-])cc4)c4ccc([nH]4)c(-c4ccc(S(=O)(=O)[O-])cc4)c4nc(c(-c5ccc(S(=O)(=O)[O-])cc5)c5ccc2[nH]5)C=C4)C=C3)cc1
REMARK SMILES IDX 25 1 24 2 22 3 23 4 21 6 20 7 19 8 4 9 5 10 6 11 18 12 7 13
REMARK SMILES IDX 2 14 1 15 3 16 8 18 9 19 10 20 11 21 12 22 13 23 17 24 14 25
REMARK SMILES IDX 16 26 15 27 26 28 27 29 28 30 29 31 30 32 31 34 32 35 33 36
REMARK SMILES IDX 91 37 34 38 90 39 35 40 36 41 37 42 84 43 38 44 89 45 83 46
REMARK SMILES IDX 85 47 39 48 88 49 82 50 81 51 40 53 70 54 51 55 69 56 52 57
REMARK SMILES IDX 55 58 68 59 86 60 53 61 54 62 67 64 87 65 56 66 41 67 42 68
REMARK SMILES IDX 50 69 43 70 49 71 44 72 45 73 46 74 47 75 48 76 71 77 72 78
REMARK SMILES IDX 80 79 73 80 79 81 74 82 75 83 76 84 77 85 78 86 57 87 58 88
REMARK SMILES IDX 66 89 59 90 65 91 60 92 61 93 62 94 63 95 64 96
REMARK H PARENT 24 5 2 17 29 33 85 52 55 63
REMARK Flexibility Score: inf
ROOT
ATOM      1  C   UNL A   1      32.446  29.705  25.806  1.00  0.00     0.116 C 
ENDROOT
BRANCH   1   2
ATOM      2  N   UNL A   1      31.571  28.643  26.281  1.00  0.00    -0.356 N 
ATOM      3  C   UNL A   1      31.652  27.303  26.464  1.00  0.00     0.220 C 
ATOM      4  O   UNL A   1      30.633  26.772  26.926  1.00  0.00    -0.275 OA
ATOM      5  H   UNL A   1      30.686  28.990  26.536  1.00  0.00     0.163 HD
BRANCH   3   6
ATOM      6  C   UNL A   1      32.886  26.430  26.236  1.00  0.00     0.100 C 
BRANCH   6   7
ATOM      7  C   UNL A   1      32.725  24.936  25.926  1.00  0.00     0.021 C 
BRANCH   7   8
ATOM      8  C   UNL A   1      33.962  24.157  25.431  1.00  0.00     0.067 C 
ATOM      9  C   UNL A   1      33.849  22.619  25.100  1.00  0.00     0.190 C 
ATOM     10  C   UNL A   1      33.047  22.453  23.787  1.00  0.00     0.087 C 
ATOM     11  C   UNL A   1      33.673  23.239  22.647  1.00  0.00     0.126 C 
ATOM     12  C   UNL A   1      34.553  24.912  24.203  1.00  0.00     0.129 C 
ATOM     13  N   UNL A   1      33.794  24.645  22.982  1.00  0.00    -0.335 N 
BRANCH   9  14
ATOM     14  N   UNL A   1      33.316  21.661  26.114  1.00  0.00    -0.337 N 
ATOM     15  C   UNL A   1      34.026  21.606  27.388  1.00  0.00     0.332 C 
ATOM     16  C   UNL A   1      33.365  20.271  25.604  1.00  0.00     0.332 C 
ATOM     17  H   UNL A   1      32.375  22.021  26.276  1.00  0.00     0.347 HD
ENDBRANCH   9  14
BRANCH  13  18
ATOM     18  C   UNL A   1      33.317  25.577  22.053  1.00  0.00     0.294 C 
ATOM     19  O   UNL A   1      33.236  25.326  20.850  1.00  0.00    -0.265 OA
BRANCH  18  20
ATOM     20  C   UNL A   1      32.899  26.982  22.499  1.00  0.00     0.250 C 
ATOM     21  O   UNL A   1      33.721  27.891  22.521  1.00  0.00    -0.283 OA
BRANCH  20  22
ATOM     22  C   UNL A   1      31.458  27.271  22.772  1.00  0.00     0.028 A 
ATOM     23  C   UNL A   1      30.656  26.227  23.259  1.00  0.00     0.012 A 
ATOM     24  C   UNL A   1      30.890  28.540  22.599  1.00  0.00     0.012 A 
ATOM     25  C   UNL A   1      29.321  26.458  23.603  1.00  0.00     0.001 A 
ATOM     26  C   UNL A   1      29.553  28.768  22.945  1.00  0.00     0.001 A 
ATOM     27  C   UNL A   1      28.773  27.730  23.453  1.00  0.00     0.000 A 
ENDBRANCH  20  22
ENDBRANCH  18  20
ENDBRANCH  13  18
ENDBRANCH   7   8
ENDBRANCH   6   7
ENDBRANCH   3   6
ENDBRANCH   1   2
BRANCH   1  28
ATOM     28  C   UNL A   1      33.280  30.313  26.947  1.00  0.00     0.023 C 
BRANCH  28  29
ATOM     29  C   UNL A   1      34.546  29.532  27.282  1.00  0.00     0.023 C 
BRANCH  29  30
ATOM     30  C   UNL A   1      35.633  30.363  27.953  1.00  0.00     0.116 C 
BRANCH  30  31
ATOM     31  N   UNL A   1      35.580  30.351  29.412  1.00  0.00    -0.352 N 
ATOM     32  C   UNL A   1      36.529  29.848  30.278  1.00  0.00     0.251 C 
ATOM     33  H   UNL A   1      34.777  30.746  29.823  1.00  0.00     0.163 HD
ATOM     34  O   UNL A   1      36.344  29.848  31.491  1.00  0.00    -0.269 OA
BRANCH  32  35
ATOM     35  C   UNL A   1      37.753  29.260  29.698  1.00  0.00     0.039 A 
ATOM     36  C   UNL A   1      38.082  29.547  28.371  1.00  0.00     0.014 A 
ATOM     37  C   UNL A   1      38.646  28.571  30.522  1.00  0.00     0.014 A 
ATOM     38  C   UNL A   1      39.359  29.230  27.900  1.00  0.00     0.010 A 
ATOM     39  C   UNL A   1      39.941  28.334  30.076  1.00  0.00     0.010 A 
ATOM     40  C   UNL A   1      40.317  28.675  28.766  1.00  0.00    -0.014 A 
BRANCH  40  41
ATOM     41  C   UNL A   1      41.723  28.460  28.333  1.00  0.00     0.031 A 
ATOM     42  C   UNL A   1      42.172  27.093  27.895  1.00  0.00     0.074 A 
ATOM     43  C   UNL A   1      42.617  29.468  28.419  1.00  0.00     0.049 A 
ATOM     44  N   UNL A   1      43.369  26.685  27.562  1.00  0.00    -0.248 NA
ATOM     45  C   UNL A   1      41.146  26.038  27.858  1.00  0.00     0.031 C 
ATOM     46  C   UNL A   1      42.328  30.826  28.888  1.00  0.00     0.029 A 
ATOM     47  N   UNL A   1      43.956  29.503  28.121  1.00  0.00    -0.354 N 
ATOM     48  C   UNL A   1      43.246  25.326  27.305  1.00  0.00     0.074 A 
ATOM     49  C   UNL A   1      41.870  24.967  27.570  1.00  0.00     0.031 C 
ATOM     50  C   UNL A   1      43.446  31.566  28.813  1.00  0.00     0.029 A 
ATOM     51  C   UNL A   1      44.541  30.731  28.328  1.00  0.00     0.049 A 
ATOM     52  H   UNL A   1      44.455  28.720  27.789  1.00  0.00     0.167 HD
ATOM     53  C   UNL A   1      44.185  24.455  26.864  1.00  0.00     0.031 A 
ATOM     54  C   UNL A   1      45.811  31.141  28.146  1.00  0.00     0.031 A 
ATOM     55  C   UNL A   1      45.545  24.818  26.568  1.00  0.00     0.049 A 
ATOM     56  C   UNL A   1      46.831  30.164  27.626  1.00  0.00     0.074 A 
ATOM     57  C   UNL A   1      46.553  24.024  26.052  1.00  0.00     0.029 A 
ATOM     58  N   UNL A   1      46.084  26.080  26.756  1.00  0.00    -0.354 N 
ATOM     59  N   UNL A   1      46.677  28.897  27.324  1.00  0.00    -0.248 NA
ATOM     60  C   UNL A   1      48.191  30.677  27.408  1.00  0.00     0.031 C 
ATOM     61  C   UNL A   1      47.714  24.799  25.960  1.00  0.00     0.029 A 
ATOM     62  C   UNL A   1      47.415  26.086  26.377  1.00  0.00     0.049 A 
ATOM     63  H   UNL A   1      45.593  26.858  27.106  1.00  0.00     0.167 HD
ATOM     64  C   UNL A   1      47.914  28.468  26.857  1.00  0.00     0.074 A 
ATOM     65  C   UNL A   1      48.801  29.612  26.905  1.00  0.00     0.031 C 
ATOM     66  C   UNL A   1      48.282  27.236  26.426  1.00  0.00     0.031 A 
BRANCH  53  67
ATOM     67  C   UNL A   1      43.760  23.025  26.668  1.00  0.00    -0.014 A 
ATOM     68  C   UNL A   1      44.034  22.347  25.467  1.00  0.00     0.010 A 
ATOM     69  C   UNL A   1      43.092  22.345  27.703  1.00  0.00     0.010 A 
ATOM     70  C   UNL A   1      43.601  21.032  25.282  1.00  0.00     0.020 A 
ATOM     71  C   UNL A   1      42.682  21.020  27.532  1.00  0.00     0.020 A 
ATOM     72  C   UNL A   1      42.921  20.380  26.314  1.00  0.00     0.054 A 
BRANCH  72  73
ATOM     73  S   UNL A   1      42.375  18.671  26.050  1.00  0.00     0.124 S 
ATOM     74  O   UNL A   1      43.268  18.232  24.981  1.00  0.00    -0.237 OA
ATOM     75  O   UNL A   1      42.605  18.054  27.354  1.00  0.00    -0.237 OA
ATOM     76  O   UNL A   1      40.971  18.811  25.671  1.00  0.00    -0.744 OA
ENDBRANCH  72  73
ENDBRANCH  53  67
BRANCH  54  77
ATOM     77  C   UNL A   1      46.188  32.553  28.429  1.00  0.00    -0.014 A 
ATOM     78  C   UNL A   1      46.610  32.931  29.717  1.00  0.00     0.010 A 
ATOM     79  C   UNL A   1      46.137  33.525  27.415  1.00  0.00     0.010 A 
ATOM     80  C   UNL A   1      46.956  34.257  29.989  1.00  0.00     0.020 A 
ATOM     81  C   UNL A   1      46.505  34.849  27.677  1.00  0.00     0.020 A 
ATOM     82  C   UNL A   1      46.901  35.208  28.967  1.00  0.00     0.054 A 
BRANCH  82  83
ATOM     83  S   UNL A   1      47.406  36.914  29.330  1.00  0.00     0.124 S 
ATOM     84  O   UNL A   1      47.374  37.527  28.007  1.00  0.00    -0.237 OA
ATOM     85  O   UNL A   1      46.372  37.359  30.260  1.00  0.00    -0.237 OA
ATOM     86  O   UNL A   1      48.735  36.757  29.918  1.00  0.00    -0.744 OA
ENDBRANCH  82  83
ENDBRANCH  54  77
BRANCH  66  87
ATOM     87  C   UNL A   1      49.694  27.065  25.939  1.00  0.00    -0.014 A 
ATOM     88  C   UNL A   1      50.707  26.599  26.794  1.00  0.00     0.010 A 
ATOM     89  C   UNL A   1      49.996  27.316  24.587  1.00  0.00     0.010 A 
ATOM     90  C   UNL A   1      52.005  26.410  26.312  1.00  0.00     0.020 A 
ATOM     91  C   UNL A   1      51.286  27.106  24.097  1.00  0.00     0.020 A 
ATOM     92  C   UNL A   1      52.286  26.665  24.966  1.00  0.00     0.054 A 
BRANCH  92  93
ATOM     93  S   UNL A   1      53.965  26.363  24.351  1.00  0.00     0.124 S 
ATOM     94  O   UNL A   1      54.296  25.090  24.985  1.00  0.00    -0.237 OA
ATOM     95  O   UNL A   1      53.775  26.315  22.903  1.00  0.00    -0.237 OA
ATOM     96  O   UNL A   1      54.722  27.515  24.836  1.00  0.00    -0.744 OA
ENDBRANCH  92  93
ENDBRANCH  66  87
ENDBRANCH  40  41
ENDBRANCH  32  35
ENDBRANCH  30  31
ENDBRANCH  29  30
ENDBRANCH  28  29
ENDBRANCH   1  28
TORSDOF 20
ENDMDL
MODEL 2
REMARK VINA RESULT:     -11.4      6.338     11.087
REMARK SMILES C[NH+](C)[C@H]1CCN(C(=O)C(=O)c2ccccc2)C[C@H]1CCC(=O)NCCCCNC(=O)c1ccc(-c2c3nc(c(-c4ccc(S(=O)(=O)[O-])cc4)c4ccc([nH]4)c(-c4ccc(S(=O)(=O)[O-])cc4)c4nc(c(-c5ccc(S(=O)(=O)[O-])cc5)c5ccc2[nH]5)C=C4)C=C3)cc1
REMARK SMILES IDX 25 1 24 2 22 3 23 4 21 6 20 7 19 8 4 9 5 10 6 11 18 12 7 13
REMARK SMILES IDX 2 14 1 15 3 16 8 18 9 19 10 20 11 21 12 22 13 23 17 24 14 25
REMARK SMILES IDX 16 26 15 27 26 28 27 29 28 30 29 31 30 32 31 34 32 35 33 36
REMARK SMILES IDX 91 37 34 38 90 39 35 40 36 41 37 42 84 43 38 44 89 45 83 46
REMARK SMILES IDX 85 47 39 48 88 49 82 50 81 51 40 53 70 54 51 55 69 56 52 57
REMARK SMILES IDX 55 58 68 59 86 60 53 61 54 62 67 64 87 65 56 66 41 67 42 68
REMARK SMILES IDX 50 69 43 70 49 71 44 72 45 73 46 74 47 75 48 76 71 77 72 78
REMARK SMILES IDX 80 79 73 80 79 81 74 82 75 83 76 84 77 85 78 86 57 87 58 88
REMARK SMILES IDX 66 89 59 90 65 91 60 92 61 93 62 94 63 95 64 96
REMARK H PARENT 24 5 2 17 29 33 85 52 55 63
REMARK Flexibility Score: inf
ROOT
ATOM      1  C   UNL A   1      37.409  22.670  25.914  1.00  0.00     0.116 C 
ENDROOT
BRANCH   1   2
ATOM      2  N   UNL A   1      37.238  22.701  24.468  1.00  0.00    -0.356 N 
ATOM      3  C   UNL A   1      36.308  23.152  23.592  1.00  0.00     0.220 C 
ATOM      4  O   UNL A   1      36.585  22.982  22.397  1.00  0.00    -0.275 OA
ATOM      5  H   UNL A   1      38.000  22.285  24.005  1.00  0.00     0.163 HD
BRANCH   3   6
ATOM      6  C   UNL A   1      35.025  23.906  23.940  1.00  0.00     0.100 C 
BRANCH   6   7
ATOM      7  C   UNL A   1      33.780  23.756  23.056  1.00  0.00     0.021 C 
BRANCH   7   8
ATOM      8  C   UNL A   1      32.683  22.768  23.503  1.00  0.00     0.067 C 
ATOM      9  C   UNL A   1      32.692  22.186  24.970  1.00  0.00     0.190 C 
ATOM     10  C   UNL A   1      32.276  23.308  25.950  1.00  0.00     0.087 C 
ATOM     11  C   UNL A   1      30.927  23.903  25.579  1.00  0.00     0.126 C 
ATOM     12  C   UNL A   1      31.296  23.415  23.208  1.00  0.00     0.129 C 
ATOM     13  N   UNL A   1      30.931  24.407  24.219  1.00  0.00    -0.335 N 
BRANCH   9  14
ATOM     14  N   UNL A   1      33.906  21.503  25.508  1.00  0.00    -0.337 N 
ATOM     15  C   UNL A   1      34.114  20.122  25.081  1.00  0.00     0.332 C 
ATOM     16  C   UNL A   1      33.858  21.429  26.986  1.00  0.00     0.332 C 
ATOM     17  H   UNL A   1      34.660  22.080  25.136  1.00  0.00     0.347 HD
ENDBRANCH   9  14
BRANCH  13  18
ATOM     18  C   UNL A   1      30.455  25.705  24.006  1.00  0.00     0.294 C 
ATOM     19  O   UNL A   1      29.256  25.954  23.873  1.00  0.00    -0.265 OA
BRANCH  18  20
ATOM     20  C   UNL A   1      31.425  26.886  23.896  1.00  0.00     0.250 C 
ATOM     21  O   UNL A   1      31.954  27.151  22.822  1.00  0.00    -0.283 OA
BRANCH  20  22
ATOM     22  C   UNL A   1      31.616  27.795  25.067  1.00  0.00     0.028 A 
ATOM     23  C   UNL A   1      31.898  29.147  24.814  1.00  0.00     0.012 A 
ATOM     24  C   UNL A   1      31.489  27.365  26.395  1.00  0.00     0.012 A 
ATOM     25  C   UNL A   1      32.012  30.058  25.868  1.00  0.00     0.001 A 
ATOM     26  C   UNL A   1      31.604  28.280  27.447  1.00  0.00     0.001 A 
ATOM     27  C   UNL A   1      31.857  29.626  27.183  1.00  0.00     0.000 A 
ENDBRANCH  20  22
ENDBRANCH  18  20
ENDBRANCH  13  18
ENDBRANCH   7   8
ENDBRANCH   6   7
ENDBRANCH   3   6
ENDBRANCH   1   2
BRANCH   1  28
ATOM     28  C   UNL A   1      38.698  23.385  26.355  1.00  0.00     0.023 C 
BRANCH  28  29
ATOM     29  C   UNL A   1      39.792  22.450  26.858  1.00  0.00     0.023 C 
BRANCH  29  30
ATOM     30  C   UNL A   1      41.167  23.099  26.965  1.00  0.00     0.116 C 
BRANCH  30  31
ATOM     31  N   UNL A   1      41.479  24.020  25.876  1.00  0.00    -0.352 N 
ATOM     32  C   UNL A   1      41.714  25.377  25.973  1.00  0.00     0.251 C 
ATOM     33  H   UNL A   1      41.527  23.630  24.974  1.00  0.00     0.163 HD
ATOM     34  O   UNL A   1      41.916  26.058  24.972  1.00  0.00    -0.269 OA
BRANCH  32  35
ATOM     35  C   UNL A   1      41.664  25.995  27.313  1.00  0.00     0.039 A 
ATOM     36  C   UNL A   1      42.763  26.730  27.764  1.00  0.00     0.014 A 
ATOM     37  C   UNL A   1      40.469  25.982  28.035  1.00  0.00     0.014 A 
ATOM     38  C   UNL A   1      42.626  27.540  28.895  1.00  0.00     0.010 A 
ATOM     39  C   UNL A   1      40.311  26.851  29.108  1.00  0.00     0.010 A 
ATOM     40  C   UNL A   1      41.382  27.651  29.540  1.00  0.00    -0.014 A 
BRANCH  40  41
ATOM     41  C   UNL A   1      41.169  28.612  30.655  1.00  0.00     0.031 A 
ATOM     42  C   UNL A   1      42.018  28.522  31.893  1.00  0.00     0.074 A 
ATOM     43  C   UNL A   1      40.159  29.505  30.593  1.00  0.00     0.049 A 
ATOM     44  N   UNL A   1      41.933  29.210  33.003  1.00  0.00    -0.248 NA
ATOM     45  C   UNL A   1      43.079  27.502  31.899  1.00  0.00     0.031 C 
ATOM     46  C   UNL A   1      39.222  29.656  29.476  1.00  0.00     0.029 A 
ATOM     47  N   UNL A   1      39.747  30.453  31.497  1.00  0.00    -0.354 N 
ATOM     48  C   UNL A   1      42.908  28.688  33.844  1.00  0.00     0.074 A 
ATOM     49  C   UNL A   1      43.536  27.593  33.138  1.00  0.00     0.031 C 
ATOM     50  C   UNL A   1      38.369  30.658  29.748  1.00  0.00     0.029 A 
ATOM     51  C   UNL A   1      38.670  31.197  31.070  1.00  0.00     0.049 A 
ATOM     52  H   UNL A   1      40.181  30.587  32.371  1.00  0.00     0.167 HD
ATOM     53  C   UNL A   1      43.268  29.096  35.085  1.00  0.00     0.031 A 
ATOM     54  C   UNL A   1      38.003  32.200  31.673  1.00  0.00     0.031 A 
ATOM     55  C   UNL A   1      42.666  30.205  35.775  1.00  0.00     0.049 A 
ATOM     56  C   UNL A   1      38.441  32.657  33.039  1.00  0.00     0.074 A 
ATOM     57  C   UNL A   1      43.006  30.739  37.004  1.00  0.00     0.029 A 
ATOM     58  N   UNL A   1      41.606  30.955  35.290  1.00  0.00    -0.354 N 
ATOM     59  N   UNL A   1      39.410  32.193  33.790  1.00  0.00    -0.248 NA
ATOM     60  C   UNL A   1      37.703  33.783  33.630  1.00  0.00     0.031 C 
ATOM     61  C   UNL A   1      42.128  31.792  37.280  1.00  0.00     0.029 A 
ATOM     62  C   UNL A   1      41.270  31.941  36.202  1.00  0.00     0.049 A 
ATOM     63  H   UNL A   1      41.158  30.808  34.426  1.00  0.00     0.167 HD
ATOM     64  C   UNL A   1      39.415  32.987  34.932  1.00  0.00     0.074 A 
ATOM     65  C   UNL A   1      38.361  33.966  34.767  1.00  0.00     0.031 C 
ATOM     66  C   UNL A   1      40.221  32.911  36.019  1.00  0.00     0.031 A 
BRANCH  53  67
ATOM     67  C   UNL A   1      44.373  28.335  35.766  1.00  0.00    -0.014 A 
ATOM     68  C   UNL A   1      45.720  28.682  35.564  1.00  0.00     0.010 A 
ATOM     69  C   UNL A   1      44.060  27.270  36.631  1.00  0.00     0.010 A 
ATOM     70  C   UNL A   1      46.739  27.944  36.171  1.00  0.00     0.020 A 
ATOM     71  C   UNL A   1      45.076  26.548  37.262  1.00  0.00     0.020 A 
ATOM     72  C   UNL A   1      46.410  26.877  37.011  1.00  0.00     0.054 A 
BRANCH  72  73
ATOM     73  S   UNL A   1      47.752  25.939  37.792  1.00  0.00     0.124 S 
ATOM     74  O   UNL A   1      48.586  27.007  38.337  1.00  0.00    -0.237 OA
ATOM     75  O   UNL A   1      47.045  25.127  38.780  1.00  0.00    -0.237 OA
ATOM     76  O   UNL A   1      48.341  25.191  36.684  1.00  0.00    -0.744 OA
ENDBRANCH  72  73
ENDBRANCH  53  67
BRANCH  54  77
ATOM     77  C   UNL A   1      36.868  32.865  30.977  1.00  0.00    -0.014 A 
ATOM     78  C   UNL A   1      37.112  33.790  29.946  1.00  0.00     0.010 A 
ATOM     79  C   UNL A   1      35.539  32.573  31.332  1.00  0.00     0.010 A 
ATOM     80  C   UNL A   1      36.050  34.424  29.295  1.00  0.00     0.020 A 
ATOM     81  C   UNL A   1      34.473  33.187  30.667  1.00  0.00     0.020 A 
ATOM     82  C   UNL A   1      34.736  34.118  29.660  1.00  0.00     0.054 A 
BRANCH  82  83
ATOM     83  S   UNL A   1      33.371  34.914  28.766  1.00  0.00     0.124 S 
ATOM     84  O   UNL A   1      32.979  33.872  27.823  1.00  0.00    -0.237 OA
ATOM     85  O   UNL A   1      32.414  35.195  29.834  1.00  0.00    -0.237 OA
ATOM     86  O   UNL A   1      33.996  36.095  28.174  1.00  0.00    -0.744 OA
ENDBRANCH  82  83
ENDBRANCH  54  77
BRANCH  66  87
ATOM     87  C   UNL A   1      40.021  33.934  37.103  1.00  0.00    -0.014 A 
ATOM     88  C   UNL A   1      40.588  35.216  37.008  1.00  0.00     0.010 A 
ATOM     89  C   UNL A   1      39.198  33.625  38.203  1.00  0.00     0.010 A 
ATOM     90  C   UNL A   1      40.358  36.165  38.007  1.00  0.00     0.020 A 
ATOM     91  C   UNL A   1      38.947  34.579  39.191  1.00  0.00     0.020 A 
ATOM     92  C   UNL A   1      39.538  35.840  39.093  1.00  0.00     0.054 A 
BRANCH  92  93
ATOM     93  S   UNL A   1      39.211  37.105  40.350  1.00  0.00     0.124 S 
ATOM     94  O   UNL A   1      38.572  38.156  39.565  1.00  0.00    -0.237 OA
ATOM     95  O   UNL A   1      38.341  36.406  41.293  1.00  0.00    -0.237 OA
ATOM     96  O   UNL A   1      40.540  37.432  40.864  1.00  0.00    -0.744 OA
ENDBRANCH  92  93
ENDBRANCH  66  87
ENDBRANCH  40  41
ENDBRANCH  32  35
ENDBRANCH  30  31
ENDBRANCH  29  30
ENDBRANCH  28  29
ENDBRANCH   1  28
TORSDOF 20
ENDMDL
MODEL 3
REMARK VINA RESULT:     -11.4      2.415      8.594
REMARK SMILES C[NH+](C)[C@H]1CCN(C(=O)C(=O)c2ccccc2)C[C@H]1CCC(=O)NCCCCNC(=O)c1ccc(-c2c3nc(c(-c4ccc(S(=O)(=O)[O-])cc4)c4ccc([nH]4)c(-c4ccc(S(=O)(=O)[O-])cc4)c4nc(c(-c5ccc(S(=O)(=O)[O-])cc5)c5ccc2[nH]5)C=C4)C=C3)cc1
REMARK SMILES IDX 25 1 24 2 22 3 23 4 21 6 20 7 19 8 4 9 5 10 6 11 18 12 7 13
REMARK SMILES IDX 2 14 1 15 3 16 8 18 9 19 10 20 11 21 12 22 13 23 17 24 14 25
REMARK SMILES IDX 16 26 15 27 26 28 27 29 28 30 29 31 30 32 31 34 32 35 33 36
REMARK SMILES IDX 91 37 34 38 90 39 35 40 36 41 37 42 84 43 38 44 89 45 83 46
REMARK SMILES IDX 85 47 39 48 88 49 82 50 81 51 40 53 70 54 51 55 69 56 52 57
REMARK SMILES IDX 55 58 68 59 86 60 53 61 54 62 67 64 87 65 56 66 41 67 42 68
REMARK SMILES IDX 50 69 43 70 49 71 44 72 45 73 46 74 47 75 48 76 71 77 72 78
REMARK SMILES IDX 80 79 73 80 79 81 74 82 75 83 76 84 77 85 78 86 57 87 58 88
REMARK SMILES IDX 66 89 59 90 65 91 60 92 61 93 62 94 63 95 64 96
REMARK H PARENT 24 5 2 17 29 33 85 52 55 63
REMARK Flexibility Score: inf
ROOT
ATOM      1  C   UNL A   1      38.437  24.243  26.539  1.00  0.00     0.116 C 
ENDROOT
BRANCH   1   2
ATOM      2  N   UNL A   1      37.786  23.661  25.373  1.00  0.00    -0.356 N 
ATOM      3  C   UNL A   1      36.548  23.674  24.823  1.00  0.00     0.220 C 
ATOM      4  O   UNL A   1      36.433  23.029  23.773  1.00  0.00    -0.275 OA
ATOM      5  H   UNL A   1      38.412  23.115  24.845  1.00  0.00     0.163 HD
BRANCH   3   6
ATOM      6  C   UNL A   1      35.340  24.461  25.328  1.00  0.00     0.100 C 
BRANCH   6   7
ATOM      7  C   UNL A   1      34.174  24.774  24.381  1.00  0.00     0.021 C 
BRANCH   7   8
ATOM      8  C   UNL A   1      33.267  25.977  24.714  1.00  0.00     0.067 C 
ATOM      9  C   UNL A   1      32.159  26.440  23.690  1.00  0.00     0.190 C 
ATOM     10  C   UNL A   1      31.015  25.399  23.694  1.00  0.00     0.087 C 
ATOM     11  C   UNL A   1      30.452  25.193  25.090  1.00  0.00     0.126 C 
ATOM     12  C   UNL A   1      32.615  25.724  26.106  1.00  0.00     0.129 C 
ATOM     13  N   UNL A   1      31.490  24.794  26.021  1.00  0.00    -0.335 N 
BRANCH   9  14
ATOM     14  N   UNL A   1      32.518  26.757  22.275  1.00  0.00    -0.337 N 
ATOM     15  C   UNL A   1      32.828  25.618  21.416  1.00  0.00     0.332 C 
ATOM     16  C   UNL A   1      33.732  27.605  22.216  1.00  0.00     0.332 C 
ATOM     17  H   UNL A   1      31.669  27.207  21.934  1.00  0.00     0.347 HD
ENDBRANCH   9  14
BRANCH  13  18
ATOM     18  C   UNL A   1      31.245  23.675  26.826  1.00  0.00     0.294 C 
ATOM     19  O   UNL A   1      30.150  23.465  27.347  1.00  0.00    -0.265 OA
BRANCH  18  20
ATOM     20  C   UNL A   1      32.360  22.666  27.122  1.00  0.00     0.250 C 
ATOM     21  O   UNL A   1      32.807  22.559  28.259  1.00  0.00    -0.283 OA
BRANCH  20  22
ATOM     22  C   UNL A   1      32.800  21.719  26.053  1.00  0.00     0.028 A 
ATOM     23  C   UNL A   1      34.099  21.193  26.133  1.00  0.00     0.012 A 
ATOM     24  C   UNL A   1      31.964  21.309  25.006  1.00  0.00     0.012 A 
ATOM     25  C   UNL A   1      34.539  20.245  25.204  1.00  0.00     0.001 A 
ATOM     26  C   UNL A   1      32.409  20.360  24.079  1.00  0.00     0.001 A 
ATOM     27  C   UNL A   1      33.691  19.824  24.182  1.00  0.00     0.000 A 
ENDBRANCH  20  22
ENDBRANCH  18  20
ENDBRANCH  13  18
ENDBRANCH   7   8
ENDBRANCH   6   7
ENDBRANCH   3   6
ENDBRANCH   1   2
BRANCH   1  28
ATOM     28  C   UNL A   1      39.646  23.407  26.997  1.00  0.00     0.023 C 
BRANCH  28  29
ATOM     29  C   UNL A   1      39.684  21.996  26.423  1.00  0.00     0.023 C 
BRANCH  29  30
ATOM     30  C   UNL A   1      40.584  21.034  27.191  1.00  0.00     0.116 C 
BRANCH  30  31
ATOM     31  N   UNL A   1      41.181  19.988  26.367  1.00  0.00    -0.352 N 
ATOM     32  C   UNL A   1      42.397  20.031  25.716  1.00  0.00     0.251 C 
ATOM     33  H   UNL A   1      40.658  19.160  26.264  1.00  0.00     0.163 HD
ATOM     34  O   UNL A   1      42.769  19.102  25.005  1.00  0.00    -0.269 OA
BRANCH  32  35
ATOM     35  C   UNL A   1      43.216  21.252  25.858  1.00  0.00     0.039 A 
ATOM     36  C   UNL A   1      43.158  22.228  24.861  1.00  0.00     0.014 A 
ATOM     37  C   UNL A   1      43.898  21.490  27.053  1.00  0.00     0.014 A 
ATOM     38  C   UNL A   1      43.703  23.491  25.110  1.00  0.00     0.010 A 
ATOM     39  C   UNL A   1      44.364  22.770  27.328  1.00  0.00     0.010 A 
ATOM     40  C   UNL A   1      44.257  23.789  26.366  1.00  0.00    -0.014 A 
BRANCH  40  41
ATOM     41  C   UNL A   1      44.714  25.163  26.708  1.00  0.00     0.031 A 
ATOM     42  C   UNL A   1      43.732  26.164  27.252  1.00  0.00     0.074 A 
ATOM     43  C   UNL A   1      45.984  25.537  26.445  1.00  0.00     0.049 A 
ATOM     44  N   UNL A   1      43.914  27.429  27.530  1.00  0.00    -0.248 NA
ATOM     45  C   UNL A   1      42.358  25.690  27.481  1.00  0.00     0.031 C 
ATOM     46  C   UNL A   1      47.021  24.682  25.860  1.00  0.00     0.029 A 
ATOM     47  N   UNL A   1      46.618  26.740  26.632  1.00  0.00    -0.354 N 
ATOM     48  C   UNL A   1      42.675  27.906  27.939  1.00  0.00     0.074 A 
ATOM     49  C   UNL A   1      41.739  26.810  27.823  1.00  0.00     0.031 C 
ATOM     50  C   UNL A   1      48.166  25.378  25.767  1.00  0.00     0.029 A 
ATOM     51  C   UNL A   1      47.940  26.737  26.251  1.00  0.00     0.049 A 
ATOM     52  H   UNL A   1      46.168  27.533  27.005  1.00  0.00     0.167 HD
ATOM     53  C   UNL A   1      42.346  29.138  28.395  1.00  0.00     0.031 A 
ATOM     54  C   UNL A   1      48.866  27.715  26.287  1.00  0.00     0.031 A 
ATOM     55  C   UNL A   1      43.283  30.220  28.542  1.00  0.00     0.049 A 
ATOM     56  C   UNL A   1      48.486  29.067  26.827  1.00  0.00     0.074 A 
ATOM     57  C   UNL A   1      43.062  31.484  29.059  1.00  0.00     0.029 A 
ATOM     58  N   UNL A   1      44.619  30.162  28.180  1.00  0.00    -0.354 N 
ATOM     59  N   UNL A   1      47.323  29.478  27.272  1.00  0.00    -0.248 NA
ATOM     60  C   UNL A   1      49.548  30.082  26.881  1.00  0.00     0.031 C 
ATOM     61  C   UNL A   1      44.259  32.203  28.977  1.00  0.00     0.029 A 
ATOM     62  C   UNL A   1      45.234  31.372  28.451  1.00  0.00     0.049 A 
ATOM     63  H   UNL A   1      45.065  29.376  27.789  1.00  0.00     0.167 HD
ATOM     64  C   UNL A   1      47.520  30.791  27.683  1.00  0.00     0.074 A 
ATOM     65  C   UNL A   1      48.914  31.102  27.445  1.00  0.00     0.031 C 
ATOM     66  C   UNL A   1      46.625  31.662  28.212  1.00  0.00     0.031 A 
BRANCH  53  67
ATOM     67  C   UNL A   1      40.908  29.372  28.774  1.00  0.00    -0.014 A 
ATOM     68  C   UNL A   1      39.913  29.502  27.789  1.00  0.00     0.010 A 
ATOM     69  C   UNL A   1      40.545  29.447  30.131  1.00  0.00     0.010 A 
ATOM     70  C   UNL A   1      38.589  29.757  28.151  1.00  0.00     0.020 A 
ATOM     71  C   UNL A   1      39.216  29.674  30.498  1.00  0.00     0.020 A 
ATOM     72  C   UNL A   1      38.250  29.849  29.504  1.00  0.00     0.054 A 
BRANCH  72  73
ATOM     73  S   UNL A   1      36.522  30.175  29.947  1.00  0.00     0.124 S 
ATOM     74  O   UNL A   1      35.808  29.619  28.800  1.00  0.00    -0.237 OA
ATOM     75  O   UNL A   1      36.366  29.439  31.200  1.00  0.00    -0.237 OA
ATOM     76  O   UNL A   1      36.466  31.629  30.072  1.00  0.00    -0.744 OA
ENDBRANCH  72  73
ENDBRANCH  53  67
BRANCH  54  77
ATOM     77  C   UNL A   1      50.256  27.443  25.828  1.00  0.00    -0.014 A 
ATOM     78  C   UNL A   1      51.249  27.069  26.751  1.00  0.00     0.010 A 
ATOM     79  C   UNL A   1      50.594  27.547  24.467  1.00  0.00     0.010 A 
ATOM     80  C   UNL A   1      52.556  26.822  26.326  1.00  0.00     0.020 A 
ATOM     81  C   UNL A   1      51.897  27.278  24.034  1.00  0.00     0.020 A 
ATOM     82  C   UNL A   1      52.873  26.928  24.970  1.00  0.00     0.054 A 
BRANCH  82  83
ATOM     83  S   UNL A   1      54.565  26.551  24.432  1.00  0.00     0.124 S 
ATOM     84  O   UNL A   1      54.514  26.888  23.013  1.00  0.00    -0.237 OA
ATOM     85  O   UNL A   1      55.369  27.441  25.266  1.00  0.00    -0.237 OA
ATOM     86  O   UNL A   1      54.709  25.128  24.735  1.00  0.00    -0.744 OA
ENDBRANCH  82  83
ENDBRANCH  54  77
BRANCH  66  87
ATOM     87  C   UNL A   1      47.130  33.024  28.602  1.00  0.00    -0.014 A 
ATOM     88  C   UNL A   1      47.173  34.076  27.672  1.00  0.00     0.010 A 
ATOM     89  C   UNL A   1      47.506  33.267  29.936  1.00  0.00     0.010 A 
ATOM     90  C   UNL A   1      47.610  35.345  28.063  1.00  0.00     0.020 A 
ATOM     91  C   UNL A   1      47.920  34.539  30.336  1.00  0.00     0.020 A 
ATOM     92  C   UNL A   1      47.980  35.568  29.394  1.00  0.00     0.054 A 
BRANCH  92  93
ATOM     93  S   UNL A   1      48.493  37.235  29.891  1.00  0.00     0.124 S 
ATOM     94  O   UNL A   1      49.745  36.971  30.593  1.00  0.00    -0.237 OA
ATOM     95  O   UNL A   1      48.623  37.928  28.611  1.00  0.00    -0.237 OA
ATOM     96  O   UNL A   1      47.391  37.698  30.733  1.00  0.00    -0.744 OA
ENDBRANCH  92  93
ENDBRANCH  66  87
ENDBRANCH  40  41
ENDBRANCH  32  35
ENDBRANCH  30  31
ENDBRANCH  29  30
ENDBRANCH  28  29
ENDBRANCH   1  28
TORSDOF 20
ENDMDL
