MODEL 1
REMARK VINA RESULT:     -12.2      0.000      0.000
REMARK SMILES CC(=O)c1nnn(-c2ccc(C(=O)NCCCCNC(=O)c3ccc(-c4c5nc(c(-c6ccc(S(=O)(=O)[O-])cc6)c6ccc([nH]6)c(-c6ccc(S(=O)(=O)[O-])cc6)c6nc(c(-c7ccc(S(=O)(=O)[O-])cc7)c7ccc4[nH]7)C=C6)C=C5)cc3)cc2)c1C
REMARK SMILES IDX 17 1 16 2 15 3 14 4 12 5 13 6 11 8 8 9 9 10 83 11 10 12
REMARK SMILES IDX 82 13 7 14 4 15 5 16 84 17 6 18 85 19 2 20 1 21 3 22 18 23
REMARK SMILES IDX 19 24 20 25 21 27 22 28 23 29 81 30 24 31 80 32 25 33 26 34
REMARK SMILES IDX 27 35 74 36 28 37 79 38 73 39 75 40 29 41 78 42 72 43 71 44
REMARK SMILES IDX 30 46 60 47 41 48 59 49 42 50 45 51 58 52 76 53 43 54 44 55
REMARK SMILES IDX 57 57 77 58 46 59 31 60 32 61 40 62 33 63 39 64 34 65 35 66
REMARK SMILES IDX 36 67 37 68 38 69 61 70 62 71 70 72 63 73 69 74 64 75 65 76
REMARK SMILES IDX 66 77 67 78 68 79 47 80 48 81 56 82 49 83 55 84 50 85 51 86
REMARK SMILES IDX 52 87 53 88 54 89
REMARK H PARENT 14 7 19 26 75 45 45 56
REMARK Flexibility Score: inf
ROOT
ATOM      1  C   UNL A   1      39.010  22.309  26.296  1.00  0.00     0.023 C 
ENDROOT
BRANCH   1   2
ATOM      2  C   UNL A   1      38.280  23.656  26.416  1.00  0.00     0.023 C 
BRANCH   2   3
ATOM      3  C   UNL A   1      36.949  23.751  25.651  1.00  0.00     0.116 C 
BRANCH   3   4
ATOM      4  N   UNL A   1      35.877  23.111  26.394  1.00  0.00    -0.352 N 
ATOM      5  C   UNL A   1      34.555  23.427  26.597  1.00  0.00     0.251 C 
ATOM      6  O   UNL A   1      33.903  22.688  27.335  1.00  0.00    -0.269 OA
ATOM      7  H   UNL A   1      36.155  22.280  26.844  1.00  0.00     0.163 HD
BRANCH   5   8
ATOM      8  C   UNL A   1      33.862  24.574  25.937  1.00  0.00     0.039 A 
ATOM      9  C   UNL A   1      32.331  26.518  24.630  1.00  0.00     0.067 A 
ATOM     10  C   UNL A   1      31.796  25.872  25.742  1.00  0.00     0.029 A 
ATOM     11  C   UNL A   1      33.651  26.291  24.239  1.00  0.00     0.029 A 
ATOM     12  C   UNL A   1      32.555  24.878  26.370  1.00  0.00     0.016 A 
ATOM     13  C   UNL A   1      34.422  25.355  24.924  1.00  0.00     0.016 A 
BRANCH   9  14
ATOM     14  N   UNL A   1      31.527  27.365  23.848  1.00  0.00    -0.217 N 
ATOM     15  C   UNL A   1      30.229  28.955  23.129  1.00  0.00     0.151 A 
ATOM     16  N   UNL A   1      30.168  27.898  22.256  1.00  0.00    -0.126 NA
ATOM     17  C   UNL A   1      31.114  28.652  24.150  1.00  0.00     0.073 A 
ATOM     18  N   UNL A   1      31.035  26.977  22.656  1.00  0.00    -0.061 NA
ATOM     19  C   UNL A   1      31.653  29.441  25.286  1.00  0.00     0.069 C 
BRANCH  15  20
ATOM     20  C   UNL A   1      29.494  30.187  22.897  1.00  0.00     0.181 C 
ATOM     21  C   UNL A   1      29.183  30.548  21.466  1.00  0.00     0.095 C 
ATOM     22  O   UNL A   1      29.105  30.895  23.825  1.00  0.00    -0.293 OA
ENDBRANCH  15  20
ENDBRANCH   9  14
ENDBRANCH   5   8
ENDBRANCH   3   4
ENDBRANCH   2   3
ENDBRANCH   1   2
BRANCH   1  23
ATOM     23  C   UNL A   1      40.284  22.209  27.123  1.00  0.00     0.116 C 
BRANCH  23  24
ATOM     24  N   UNL A   1      41.499  22.099  26.301  1.00  0.00    -0.352 N 
ATOM     25  C   UNL A   1      42.224  23.115  25.684  1.00  0.00     0.251 C 
ATOM     26  H   UNL A   1      41.846  21.187  26.169  1.00  0.00     0.163 HD
ATOM     27  O   UNL A   1      42.960  22.888  24.742  1.00  0.00    -0.269 OA
BRANCH  25  28
ATOM     28  C   UNL A   1      42.107  24.472  26.247  1.00  0.00     0.039 A 
ATOM     29  C   UNL A   1      41.293  25.481  25.717  1.00  0.00     0.014 A 
ATOM     30  C   UNL A   1      42.831  24.683  27.410  1.00  0.00     0.014 A 
ATOM     31  C   UNL A   1      41.200  26.693  26.408  1.00  0.00     0.010 A 
ATOM     32  C   UNL A   1      42.486  25.714  28.219  1.00  0.00     0.010 A 
ATOM     33  C   UNL A   1      41.814  26.791  27.660  1.00  0.00    -0.014 A 
BRANCH  33  34
ATOM     34  C   UNL A   1      41.820  27.974  28.504  1.00  0.00     0.031 A 
ATOM     35  C   UNL A   1      42.920  28.928  28.206  1.00  0.00     0.074 A 
ATOM     36  C   UNL A   1      40.680  28.324  29.151  1.00  0.00     0.049 A 
ATOM     37  N   UNL A   1      43.932  29.233  28.949  1.00  0.00    -0.248 NA
ATOM     38  C   UNL A   1      43.004  29.479  26.839  1.00  0.00     0.031 C 
ATOM     39  C   UNL A   1      39.385  27.617  29.161  1.00  0.00     0.029 A 
ATOM     40  N   UNL A   1      40.379  29.472  29.806  1.00  0.00    -0.354 N 
ATOM     41  C   UNL A   1      44.634  30.202  28.237  1.00  0.00     0.074 A 
ATOM     42  C   UNL A   1      44.186  30.095  26.875  1.00  0.00     0.031 C 
ATOM     43  C   UNL A   1      38.407  28.459  29.569  1.00  0.00     0.029 A 
ATOM     44  C   UNL A   1      39.018  29.701  30.003  1.00  0.00     0.049 A 
ATOM     45  H   UNL A   1      41.070  30.099  30.120  1.00  0.00     0.167 HD
ATOM     46  C   UNL A   1      45.279  31.227  28.864  1.00  0.00     0.031 A 
ATOM     47  C   UNL A   1      38.440  30.848  30.453  1.00  0.00     0.031 A 
ATOM     48  C   UNL A   1      45.336  31.008  30.289  1.00  0.00     0.049 A 
ATOM     49  C   UNL A   1      39.522  31.638  31.095  1.00  0.00     0.074 A 
ATOM     50  C   UNL A   1      45.874  30.037  31.107  1.00  0.00     0.029 A 
ATOM     51  N   UNL A   1      44.388  31.664  31.044  1.00  0.00    -0.354 N 
ATOM     52  N   UNL A   1      40.166  31.233  32.156  1.00  0.00    -0.248 NA
ATOM     53  C   UNL A   1      40.225  32.615  30.278  1.00  0.00     0.031 C 
ATOM     54  C   UNL A   1      44.904  29.847  32.135  1.00  0.00     0.029 A 
ATOM     55  C   UNL A   1      43.871  30.770  31.946  1.00  0.00     0.049 A 
ATOM     56  H   UNL A   1      44.129  32.609  30.953  1.00  0.00     0.167 HD
ATOM     57  C   UNL A   1      41.495  31.554  31.911  1.00  0.00     0.074 A 
ATOM     58  C   UNL A   1      41.455  32.488  30.786  1.00  0.00     0.031 C 
ATOM     59  C   UNL A   1      42.510  30.806  32.442  1.00  0.00     0.031 A 
BRANCH  46  60
ATOM     60  C   UNL A   1      45.452  32.613  28.277  1.00  0.00    -0.014 A 
ATOM     61  C   UNL A   1      46.329  33.508  28.924  1.00  0.00     0.010 A 
ATOM     62  C   UNL A   1      44.600  33.162  27.296  1.00  0.00     0.010 A 
ATOM     63  C   UNL A   1      46.285  34.886  28.671  1.00  0.00     0.020 A 
ATOM     64  C   UNL A   1      44.578  34.527  27.004  1.00  0.00     0.020 A 
ATOM     65  C   UNL A   1      45.393  35.386  27.725  1.00  0.00     0.054 A 
BRANCH  65  66
ATOM     66  S   UNL A   1      45.246  37.174  27.501  1.00  0.00     0.124 S 
ATOM     67  O   UNL A   1      45.632  37.672  28.818  1.00  0.00    -0.237 OA
ATOM     68  O   UNL A   1      46.196  37.428  26.422  1.00  0.00    -0.237 OA
ATOM     69  O   UNL A   1      43.841  37.360  27.147  1.00  0.00    -0.744 OA
ENDBRANCH  65  66
ENDBRANCH  46  60
BRANCH  47  70
ATOM     70  C   UNL A   1      37.126  31.439  30.077  1.00  0.00    -0.014 A 
ATOM     71  C   UNL A   1      36.312  32.102  31.017  1.00  0.00     0.010 A 
ATOM     72  C   UNL A   1      36.798  31.597  28.714  1.00  0.00     0.010 A 
ATOM     73  C   UNL A   1      35.243  32.926  30.607  1.00  0.00     0.020 A 
ATOM     74  C   UNL A   1      35.737  32.415  28.298  1.00  0.00     0.020 A 
ATOM     75  C   UNL A   1      34.974  33.092  29.246  1.00  0.00     0.054 A 
BRANCH  75  76
ATOM     76  S   UNL A   1      33.699  34.279  28.713  1.00  0.00     0.124 S 
ATOM     77  O   UNL A   1      33.030  34.603  29.969  1.00  0.00    -0.237 OA
ATOM     78  O   UNL A   1      34.490  35.353  28.121  1.00  0.00    -0.237 OA
ATOM     79  O   UNL A   1      32.891  33.511  27.765  1.00  0.00    -0.744 OA
ENDBRANCH  75  76
ENDBRANCH  47  70
BRANCH  59  80
ATOM     80  C   UNL A   1      42.162  29.767  33.487  1.00  0.00    -0.014 A 
ATOM     81  C   UNL A   1      41.740  28.455  33.184  1.00  0.00     0.010 A 
ATOM     82  C   UNL A   1      42.450  30.081  34.825  1.00  0.00     0.010 A 
ATOM     83  C   UNL A   1      41.599  27.491  34.196  1.00  0.00     0.020 A 
ATOM     84  C   UNL A   1      42.326  29.123  35.834  1.00  0.00     0.020 A 
ATOM     85  C   UNL A   1      41.896  27.834  35.518  1.00  0.00     0.054 A 
BRANCH  85  86
ATOM     86  S   UNL A   1      41.768  26.575  36.821  1.00  0.00     0.124 S 
ATOM     87  O   UNL A   1      42.964  26.823  37.621  1.00  0.00    -0.237 OA
ATOM     88  O   UNL A   1      40.499  26.903  37.467  1.00  0.00    -0.237 OA
ATOM     89  O   UNL A   1      41.768  25.311  36.085  1.00  0.00    -0.744 OA
ENDBRANCH  85  86
ENDBRANCH  59  80
ENDBRANCH  33  34
ENDBRANCH  25  28
ENDBRANCH  23  24
ENDBRANCH   1  23
TORSDOF 16
ENDMDL
MODEL 2
REMARK VINA RESULT:     -12.0      4.142      7.562
REMARK SMILES CC(=O)c1nnn(-c2ccc(C(=O)NCCCCNC(=O)c3ccc(-c4c5nc(c(-c6ccc(S(=O)(=O)[O-])cc6)c6ccc([nH]6)c(-c6ccc(S(=O)(=O)[O-])cc6)c6nc(c(-c7ccc(S(=O)(=O)[O-])cc7)c7ccc4[nH]7)C=C6)C=C5)cc3)cc2)c1C
REMARK SMILES IDX 17 1 16 2 15 3 14 4 12 5 13 6 11 8 8 9 9 10 83 11 10 12
REMARK SMILES IDX 82 13 7 14 4 15 5 16 84 17 6 18 85 19 2 20 1 21 3 22 18 23
REMARK SMILES IDX 19 24 20 25 21 27 22 28 23 29 81 30 24 31 80 32 25 33 26 34
REMARK SMILES IDX 27 35 74 36 28 37 79 38 73 39 75 40 29 41 78 42 72 43 71 44
REMARK SMILES IDX 30 46 60 47 41 48 59 49 42 50 45 51 58 52 76 53 43 54 44 55
REMARK SMILES IDX 57 57 77 58 46 59 31 60 32 61 40 62 33 63 39 64 34 65 35 66
REMARK SMILES IDX 36 67 37 68 38 69 61 70 62 71 70 72 63 73 69 74 64 75 65 76
REMARK SMILES IDX 66 77 67 78 68 79 47 80 48 81 56 82 49 83 55 84 50 85 51 86
REMARK SMILES IDX 52 87 53 88 54 89
REMARK H PARENT 14 7 19 26 75 45 45 56
REMARK Flexibility Score: inf
ROOT
ATOM      1  C   UNL A   1      46.011  26.428  27.740  1.00  0.00     0.023 C 
ENDROOT
BRANCH   1   2
ATOM      2  C   UNL A   1      45.884  27.797  27.054  1.00  0.00     0.023 C 
BRANCH   2   3
ATOM      3  C   UNL A   1      44.640  28.612  27.443  1.00  0.00     0.116 C 
BRANCH   3   4
ATOM      4  N   UNL A   1      43.736  28.750  26.313  1.00  0.00    -0.352 N 
ATOM      5  C   UNL A   1      43.056  27.842  25.537  1.00  0.00     0.251 C 
ATOM      6  O   UNL A   1      42.390  28.285  24.601  1.00  0.00    -0.269 OA
ATOM      7  H   UNL A   1      43.578  29.687  26.051  1.00  0.00     0.163 HD
BRANCH   5   8
ATOM      8  C   UNL A   1      43.040  26.371  25.796  1.00  0.00     0.039 A 
ATOM      9  C   UNL A   1      42.916  23.581  25.980  1.00  0.00     0.067 A 
ATOM     10  C   UNL A   1      43.782  24.160  25.054  1.00  0.00     0.029 A 
ATOM     11  C   UNL A   1      42.207  24.372  26.884  1.00  0.00     0.029 A 
ATOM     12  C   UNL A   1      43.814  25.555  24.946  1.00  0.00     0.016 A 
ATOM     13  C   UNL A   1      42.310  25.759  26.816  1.00  0.00     0.016 A 
BRANCH   9  14
ATOM     14  N   UNL A   1      42.699  22.193  25.974  1.00  0.00    -0.217 N 
ATOM     15  C   UNL A   1      42.887  20.038  25.750  1.00  0.00     0.151 A 
ATOM     16  N   UNL A   1      41.558  20.364  25.850  1.00  0.00    -0.126 NA
ATOM     17  C   UNL A   1      43.647  21.192  25.851  1.00  0.00     0.073 A 
ATOM     18  N   UNL A   1      41.464  21.666  26.083  1.00  0.00    -0.061 NA
ATOM     19  C   UNL A   1      45.110  21.433  25.925  1.00  0.00     0.069 C 
BRANCH  15  20
ATOM     20  C   UNL A   1      43.334  18.661  25.627  1.00  0.00     0.181 C 
ATOM     21  C   UNL A   1      43.218  17.783  26.848  1.00  0.00     0.095 C 
ATOM     22  O   UNL A   1      43.757  18.209  24.563  1.00  0.00    -0.293 OA
ENDBRANCH  15  20
ENDBRANCH   9  14
ENDBRANCH   5   8
ENDBRANCH   3   4
ENDBRANCH   2   3
ENDBRANCH   1   2
BRANCH   1  23
ATOM     23  C   UNL A   1      46.491  26.491  29.183  1.00  0.00     0.116 C 
BRANCH  23  24
ATOM     24  N   UNL A   1      45.844  25.495  30.051  1.00  0.00    -0.352 N 
ATOM     25  C   UNL A   1      44.808  25.683  30.964  1.00  0.00     0.251 C 
ATOM     26  H   UNL A   1      46.187  24.576  29.978  1.00  0.00     0.163 HD
ATOM     27  O   UNL A   1      44.619  24.902  31.877  1.00  0.00    -0.269 OA
BRANCH  25  28
ATOM     28  C   UNL A   1      43.917  26.837  30.752  1.00  0.00     0.039 A 
ATOM     29  C   UNL A   1      42.794  26.826  29.915  1.00  0.00     0.014 A 
ATOM     30  C   UNL A   1      44.230  27.958  31.504  1.00  0.00     0.014 A 
ATOM     31  C   UNL A   1      41.977  27.960  29.882  1.00  0.00     0.010 A 
ATOM     32  C   UNL A   1      43.276  28.901  31.704  1.00  0.00     0.010 A 
ATOM     33  C   UNL A   1      42.243  28.995  30.784  1.00  0.00    -0.014 A 
BRANCH  33  34
ATOM     34  C   UNL A   1      41.499  30.240  30.878  1.00  0.00     0.031 A 
ATOM     35  C   UNL A   1      42.298  31.451  30.561  1.00  0.00     0.074 A 
ATOM     36  C   UNL A   1      40.144  30.201  30.822  1.00  0.00     0.049 A 
ATOM     37  N   UNL A   1      42.656  32.401  31.360  1.00  0.00    -0.248 NA
ATOM     38  C   UNL A   1      42.934  31.529  29.230  1.00  0.00     0.031 C 
ATOM     39  C   UNL A   1      39.271  29.015  30.720  1.00  0.00     0.029 A 
ATOM     40  N   UNL A   1      39.258  31.216  30.675  1.00  0.00    -0.354 N 
ATOM     41  C   UNL A   1      43.343  33.314  30.564  1.00  0.00     0.074 A 
ATOM     42  C   UNL A   1      43.715  32.600  29.373  1.00  0.00     0.031 C 
ATOM     43  C   UNL A   1      38.043  29.387  30.289  1.00  0.00     0.029 A 
ATOM     44  C   UNL A   1      37.989  30.836  30.240  1.00  0.00     0.049 A 
ATOM     45  H   UNL A   1      39.493  32.154  30.861  1.00  0.00     0.167 HD
ATOM     46  C   UNL A   1      43.273  34.658  30.789  1.00  0.00     0.031 A 
ATOM     47  C   UNL A   1      36.985  31.659  29.834  1.00  0.00     0.031 A 
ATOM     48  C   UNL A   1      42.635  34.939  32.052  1.00  0.00     0.049 A 
ATOM     49  C   UNL A   1      37.324  33.014  30.339  1.00  0.00     0.074 A 
ATOM     50  C   UNL A   1      42.902  34.632  33.370  1.00  0.00     0.029 A 
ATOM     51  N   UNL A   1      41.301  35.276  31.999  1.00  0.00    -0.354 N 
ATOM     52  N   UNL A   1      37.403  33.302  31.610  1.00  0.00    -0.248 NA
ATOM     53  C   UNL A   1      38.065  33.902  29.456  1.00  0.00     0.031 C 
ATOM     54  C   UNL A   1      41.628  34.340  33.941  1.00  0.00     0.029 A 
ATOM     55  C   UNL A   1      40.646  34.570  32.974  1.00  0.00     0.049 A 
ATOM     56  H   UNL A   1      40.890  35.914  31.372  1.00  0.00     0.167 HD
ATOM     57  C   UNL A   1      38.526  34.110  31.726  1.00  0.00     0.074 A 
ATOM     58  C   UNL A   1      38.834  34.523  30.356  1.00  0.00     0.031 C 
ATOM     59  C   UNL A   1      39.271  34.121  32.873  1.00  0.00     0.031 A 
BRANCH  46  60
ATOM     60  C   UNL A   1      43.356  35.710  29.702  1.00  0.00    -0.014 A 
ATOM     61  C   UNL A   1      44.092  36.885  29.964  1.00  0.00     0.010 A 
ATOM     62  C   UNL A   1      42.533  35.723  28.556  1.00  0.00     0.010 A 
ATOM     63  C   UNL A   1      43.935  38.035  29.180  1.00  0.00     0.020 A 
ATOM     64  C   UNL A   1      42.403  36.849  27.742  1.00  0.00     0.020 A 
ATOM     65  C   UNL A   1      43.074  38.014  28.084  1.00  0.00     0.054 A 
BRANCH  65  66
ATOM     66  S   UNL A   1      42.774  39.537  27.159  1.00  0.00     0.124 S 
ATOM     67  O   UNL A   1      42.662  40.521  28.233  1.00  0.00    -0.237 OA
ATOM     68  O   UNL A   1      43.971  39.634  26.330  1.00  0.00    -0.237 OA
ATOM     69  O   UNL A   1      41.537  39.258  26.433  1.00  0.00    -0.744 OA
ENDBRANCH  65  66
ENDBRANCH  46  60
BRANCH  47  70
ATOM     70  C   UNL A   1      35.958  31.426  28.781  1.00  0.00    -0.014 A 
ATOM     71  C   UNL A   1      35.985  30.284  27.956  1.00  0.00     0.010 A 
ATOM     72  C   UNL A   1      34.778  32.199  28.777  1.00  0.00     0.010 A 
ATOM     73  C   UNL A   1      34.860  29.906  27.194  1.00  0.00     0.020 A 
ATOM     74  C   UNL A   1      33.654  31.829  28.023  1.00  0.00     0.020 A 
ATOM     75  C   UNL A   1      33.693  30.673  27.247  1.00  0.00     0.054 A 
BRANCH  75  76
ATOM     76  S   UNL A   1      32.191  30.098  26.391  1.00  0.00     0.124 S 
ATOM     77  O   UNL A   1      31.657  29.113  27.326  1.00  0.00    -0.237 OA
ATOM     78  O   UNL A   1      31.413  31.325  26.252  1.00  0.00    -0.237 OA
ATOM     79  O   UNL A   1      32.702  29.545  25.137  1.00  0.00    -0.744 OA
ENDBRANCH  75  76
ENDBRANCH  47  70
BRANCH  59  80
ATOM     80  C   UNL A   1      38.717  33.416  34.093  1.00  0.00    -0.014 A 
ATOM     81  C   UNL A   1      39.027  32.084  34.442  1.00  0.00     0.010 A 
ATOM     82  C   UNL A   1      37.999  34.196  35.014  1.00  0.00     0.010 A 
ATOM     83  C   UNL A   1      38.617  31.549  35.674  1.00  0.00     0.020 A 
ATOM     84  C   UNL A   1      37.602  33.674  36.248  1.00  0.00     0.020 A 
ATOM     85  C   UNL A   1      37.907  32.352  36.571  1.00  0.00     0.054 A 
BRANCH  85  86
ATOM     86  S   UNL A   1      37.423  31.680  38.187  1.00  0.00     0.124 S 
ATOM     87  O   UNL A   1      36.183  32.396  38.472  1.00  0.00    -0.237 OA
ATOM     88  O   UNL A   1      37.277  30.251  37.916  1.00  0.00    -0.237 OA
ATOM     89  O   UNL A   1      38.548  32.023  39.057  1.00  0.00    -0.744 OA
ENDBRANCH  85  86
ENDBRANCH  59  80
ENDBRANCH  33  34
ENDBRANCH  25  28
ENDBRANCH  23  24
ENDBRANCH   1  23
TORSDOF 16
ENDMDL
MODEL 3
REMARK VINA RESULT:     -11.9      3.534      8.240
REMARK SMILES CC(=O)c1nnn(-c2ccc(C(=O)NCCCCNC(=O)c3ccc(-c4c5nc(c(-c6ccc(S(=O)(=O)[O-])cc6)c6ccc([nH]6)c(-c6ccc(S(=O)(=O)[O-])cc6)c6nc(c(-c7ccc(S(=O)(=O)[O-])cc7)c7ccc4[nH]7)C=C6)C=C5)cc3)cc2)c1C
REMARK SMILES IDX 17 1 16 2 15 3 14 4 12 5 13 6 11 8 8 9 9 10 83 11 10 12
REMARK SMILES IDX 82 13 7 14 4 15 5 16 84 17 6 18 85 19 2 20 1 21 3 22 18 23
REMARK SMILES IDX 19 24 20 25 21 27 22 28 23 29 81 30 24 31 80 32 25 33 26 34
REMARK SMILES IDX 27 35 74 36 28 37 79 38 73 39 75 40 29 41 78 42 72 43 71 44
REMARK SMILES IDX 30 46 60 47 41 48 59 49 42 50 45 51 58 52 76 53 43 54 44 55
REMARK SMILES IDX 57 57 77 58 46 59 31 60 32 61 40 62 33 63 39 64 34 65 35 66
REMARK SMILES IDX 36 67 37 68 38 69 61 70 62 71 70 72 63 73 69 74 64 75 65 76
REMARK SMILES IDX 66 77 67 78 68 79 47 80 48 81 56 82 49 83 55 84 50 85 51 86
REMARK SMILES IDX 52 87 53 88 54 89
REMARK H PARENT 14 7 19 26 75 45 45 56
REMARK Flexibility Score: inf
ROOT
ATOM      1  C   UNL A   1      37.519  19.606  25.004  1.00  0.00     0.023 C 
ENDROOT
BRANCH   1   2
ATOM      2  C   UNL A   1      36.485  20.695  24.677  1.00  0.00     0.023 C 
BRANCH   2   3
ATOM      3  C   UNL A   1      35.599  21.132  25.855  1.00  0.00     0.116 C 
BRANCH   3   4
ATOM      4  N   UNL A   1      34.230  20.680  25.670  1.00  0.00    -0.352 N 
ATOM      5  C   UNL A   1      33.061  21.329  25.351  1.00  0.00     0.251 C 
ATOM      6  O   UNL A   1      32.032  20.655  25.314  1.00  0.00    -0.269 OA
ATOM      7  H   UNL A   1      34.118  19.710  25.800  1.00  0.00     0.163 HD
BRANCH   5   8
ATOM      8  C   UNL A   1      32.982  22.778  24.999  1.00  0.00     0.039 A 
ATOM      9  C   UNL A   1      32.567  25.503  24.511  1.00  0.00     0.067 A 
ATOM     10  C   UNL A   1      32.734  25.069  25.825  1.00  0.00     0.029 A 
ATOM     11  C   UNL A   1      32.719  24.619  23.443  1.00  0.00     0.029 A 
ATOM     12  C   UNL A   1      32.909  23.700  26.062  1.00  0.00     0.016 A 
ATOM     13  C   UNL A   1      32.972  23.272  23.692  1.00  0.00     0.016 A 
BRANCH   9  14
ATOM     14  N   UNL A   1      32.181  26.827  24.247  1.00  0.00    -0.217 N 
ATOM     15  C   UNL A   1      31.107  28.626  23.664  1.00  0.00     0.151 A 
ATOM     16  N   UNL A   1      32.449  28.905  23.723  1.00  0.00    -0.126 NA
ATOM     17  C   UNL A   1      30.901  27.304  24.020  1.00  0.00     0.073 A 
ATOM     18  N   UNL A   1      33.079  27.828  24.172  1.00  0.00    -0.061 NA
ATOM     19  C   UNL A   1      29.674  26.497  24.240  1.00  0.00     0.069 C 
BRANCH  15  20
ATOM     20  C   UNL A   1      30.124  29.644  23.334  1.00  0.00     0.181 C 
ATOM     21  C   UNL A   1      29.488  29.576  21.967  1.00  0.00     0.095 C 
ATOM     22  O   UNL A   1      29.790  30.510  24.142  1.00  0.00    -0.293 OA
ENDBRANCH  15  20
ENDBRANCH   9  14
ENDBRANCH   5   8
ENDBRANCH   3   4
ENDBRANCH   2   3
ENDBRANCH   1   2
BRANCH   1  23
ATOM     23  C   UNL A   1      38.898  20.138  25.368  1.00  0.00     0.116 C 
BRANCH  23  24
ATOM     24  N   UNL A   1      39.847  19.078  25.740  1.00  0.00    -0.352 N 
ATOM     25  C   UNL A   1      41.209  19.188  26.010  1.00  0.00     0.251 C 
ATOM     26  H   UNL A   1      39.471  18.171  25.807  1.00  0.00     0.163 HD
ATOM     27  O   UNL A   1      41.951  18.228  25.929  1.00  0.00    -0.269 OA
BRANCH  25  28
ATOM     28  C   UNL A   1      41.711  20.503  26.449  1.00  0.00     0.039 A 
ATOM     29  C   UNL A   1      42.600  21.295  25.712  1.00  0.00     0.014 A 
ATOM     30  C   UNL A   1      41.188  20.953  27.650  1.00  0.00     0.014 A 
ATOM     31  C   UNL A   1      42.919  22.566  26.199  1.00  0.00     0.010 A 
ATOM     32  C   UNL A   1      41.248  22.277  27.936  1.00  0.00     0.010 A 
ATOM     33  C   UNL A   1      42.233  23.036  27.323  1.00  0.00    -0.014 A 
BRANCH  33  34
ATOM     34  C   UNL A   1      42.446  24.326  27.960  1.00  0.00     0.031 A 
ATOM     35  C   UNL A   1      41.290  25.254  27.855  1.00  0.00     0.074 A 
ATOM     36  C   UNL A   1      43.415  24.441  28.901  1.00  0.00     0.049 A 
ATOM     37  N   UNL A   1      41.216  26.361  27.195  1.00  0.00    -0.248 NA
ATOM     38  C   UNL A   1      39.995  24.807  28.406  1.00  0.00     0.031 C 
ATOM     39  C   UNL A   1      44.363  23.408  29.363  1.00  0.00     0.029 A 
ATOM     40  N   UNL A   1      43.659  25.453  29.769  1.00  0.00    -0.354 N 
ATOM     41  C   UNL A   1      39.946  26.867  27.462  1.00  0.00     0.074 A 
ATOM     42  C   UNL A   1      39.175  25.758  27.957  1.00  0.00     0.031 C 
ATOM     43  C   UNL A   1      44.885  23.767  30.559  1.00  0.00     0.029 A 
ATOM     44  C   UNL A   1      44.443  25.113  30.870  1.00  0.00     0.049 A 
ATOM     45  H   UNL A   1      43.307  26.362  29.632  1.00  0.00     0.167 HD
ATOM     46  C   UNL A   1      39.714  28.207  27.569  1.00  0.00     0.031 A 
ATOM     47  C   UNL A   1      44.675  25.875  31.973  1.00  0.00     0.031 A 
ATOM     48  C   UNL A   1      40.858  28.967  27.127  1.00  0.00     0.049 A 
ATOM     49  C   UNL A   1      44.310  27.268  31.605  1.00  0.00     0.074 A 
ATOM     50  C   UNL A   1      41.556  29.081  25.944  1.00  0.00     0.029 A 
ATOM     51  N   UNL A   1      41.698  29.432  28.115  1.00  0.00    -0.354 N 
ATOM     52  N   UNL A   1      44.932  27.946  30.679  1.00  0.00    -0.248 NA
ATOM     53  C   UNL A   1      42.956  27.713  31.895  1.00  0.00     0.031 C 
ATOM     54  C   UNL A   1      42.926  29.156  26.334  1.00  0.00     0.029 A 
ATOM     55  C   UNL A   1      42.988  29.175  27.730  1.00  0.00     0.049 A 
ATOM     56  H   UNL A   1      41.420  29.873  28.950  1.00  0.00     0.167 HD
ATOM     57  C   UNL A   1      43.928  28.599  29.978  1.00  0.00     0.074 A 
ATOM     58  C   UNL A   1      42.744  28.494  30.831  1.00  0.00     0.031 C 
ATOM     59  C   UNL A   1      44.073  28.894  28.650  1.00  0.00     0.031 A 
BRANCH  46  60
ATOM     60  C   UNL A   1      38.667  28.822  28.475  1.00  0.00    -0.014 A 
ATOM     61  C   UNL A   1      37.908  29.903  27.981  1.00  0.00     0.010 A 
ATOM     62  C   UNL A   1      38.582  28.571  29.860  1.00  0.00     0.010 A 
ATOM     63  C   UNL A   1      37.187  30.743  28.840  1.00  0.00     0.020 A 
ATOM     64  C   UNL A   1      37.831  29.375  30.720  1.00  0.00     0.020 A 
ATOM     65  C   UNL A   1      37.171  30.482  30.208  1.00  0.00     0.054 A 
BRANCH  65  66
ATOM     66  S   UNL A   1      36.352  31.644  31.325  1.00  0.00     0.124 S 
ATOM     67  O   UNL A   1      36.270  30.866  32.557  1.00  0.00    -0.237 OA
ATOM     68  O   UNL A   1      37.287  32.765  31.342  1.00  0.00    -0.237 OA
ATOM     69  O   UNL A   1      35.076  31.910  30.665  1.00  0.00    -0.744 OA
ENDBRANCH  65  66
ENDBRANCH  46  60
BRANCH  47  70
ATOM     70  C   UNL A   1      44.862  25.439  33.384  1.00  0.00    -0.014 A 
ATOM     71  C   UNL A   1      43.882  24.692  34.068  1.00  0.00     0.010 A 
ATOM     72  C   UNL A   1      46.140  25.520  33.974  1.00  0.00     0.010 A 
ATOM     73  C   UNL A   1      44.183  24.016  35.269  1.00  0.00     0.020 A 
ATOM     74  C   UNL A   1      46.449  24.849  35.168  1.00  0.00     0.020 A 
ATOM     75  C   UNL A   1      45.473  24.084  35.802  1.00  0.00     0.054 A 
BRANCH  75  76
ATOM     76  S   UNL A   1      45.905  23.083  37.261  1.00  0.00     0.124 S 
ATOM     77  O   UNL A   1      45.587  21.730  36.816  1.00  0.00    -0.237 OA
ATOM     78  O   UNL A   1      47.324  23.373  37.440  1.00  0.00    -0.237 OA
ATOM     79  O   UNL A   1      45.030  23.609  38.308  1.00  0.00    -0.744 OA
ENDBRANCH  75  76
ENDBRANCH  47  70
BRANCH  59  80
ATOM     80  C   UNL A   1      45.438  28.707  28.021  1.00  0.00    -0.014 A 
ATOM     81  C   UNL A   1      46.439  29.702  27.999  1.00  0.00     0.010 A 
ATOM     82  C   UNL A   1      45.779  27.412  27.599  1.00  0.00     0.010 A 
ATOM     83  C   UNL A   1      47.738  29.408  27.554  1.00  0.00     0.020 A 
ATOM     84  C   UNL A   1      47.073  27.109  27.170  1.00  0.00     0.020 A 
ATOM     85  C   UNL A   1      48.046  28.108  27.143  1.00  0.00     0.054 A 
BRANCH  85  86
ATOM     86  S   UNL A   1      49.739  27.711  26.620  1.00  0.00     0.124 S 
ATOM     87  O   UNL A   1      49.649  26.289  26.303  1.00  0.00    -0.237 OA
ATOM     88  O   UNL A   1      49.944  28.599  25.478  1.00  0.00    -0.237 OA
ATOM     89  O   UNL A   1      50.550  28.031  27.795  1.00  0.00    -0.744 OA
ENDBRANCH  85  86
ENDBRANCH  59  80
ENDBRANCH  33  34
ENDBRANCH  25  28
ENDBRANCH  23  24
ENDBRANCH   1  23
TORSDOF 16
ENDMDL
