MODEL 1
REMARK VINA RESULT:     -10.7      0.000      0.000
REMARK SMILES CCOc1ncnc(N[C@@H]2C=C[C@H](C(=O)NCCCCNC(=O)c3ccc(-c4c5nc(c(-c6ccc(S(=O)(=O)[O-])cc6)c6ccc([nH]6)c(-c6ccc(S(=O)(=O)[O-])cc6)c6nc(c(-c7ccc(S(=O)(=O)[O-])cc7)c7ccc4[nH]7)C=C6)C=C5)cc3)C2)c1C
REMARK SMILES IDX 18 1 17 2 16 3 14 4 15 5 13 7 10 8 11 9 84 10 12 11 9 12
REMARK SMILES IDX 8 14 4 15 5 16 85 17 6 18 86 19 7 20 3 21 2 22 1 23 19 24
REMARK SMILES IDX 20 25 21 26 22 27 23 29 24 30 25 31 83 32 26 33 82 34 27 35
REMARK SMILES IDX 28 36 29 37 76 38 30 39 81 40 75 41 77 42 31 43 80 44 74 45
REMARK SMILES IDX 73 46 32 48 62 49 43 50 61 51 44 52 47 53 60 54 78 55 45 56
REMARK SMILES IDX 46 57 59 59 79 60 48 61 33 62 34 63 42 64 35 65 41 66 36 67
REMARK SMILES IDX 37 68 38 69 39 70 40 71 63 72 64 73 72 74 65 75 71 76 66 77
REMARK SMILES IDX 67 78 68 79 69 80 70 81 49 82 50 83 58 84 51 85 57 86 52 87
REMARK SMILES IDX 53 88 54 89 55 90 56 91
REMARK H PARENT 16 6 9 13 21 28 77 47 47 58
REMARK Flexibility Score: inf
ROOT
ATOM      1  C   UNL A   1      38.760  23.378  26.533  1.00  0.00     0.023 C 
ENDROOT
BRANCH   1   2
ATOM      2  C   UNL A   1      37.701  22.667  25.692  1.00  0.00     0.116 C 
BRANCH   2   3
ATOM      3  N   UNL A   1      36.403  22.770  26.327  1.00  0.00    -0.356 N 
ATOM      4  C   UNL A   1      35.184  22.923  25.727  1.00  0.00     0.227 C 
ATOM      5  O   UNL A   1      34.291  23.444  26.394  1.00  0.00    -0.274 OA
ATOM      6  H   UNL A   1      36.400  22.727  27.311  1.00  0.00     0.163 HD
BRANCH   4   7
ATOM      7  C   UNL A   1      35.028  22.502  24.261  1.00  0.00     0.103 C 
ATOM      8  C   UNL A   1      33.502  23.697  22.736  1.00  0.00     0.104 C 
ATOM      9  C   UNL A   1      32.906  22.422  23.211  1.00  0.00    -0.006 C 
ATOM     10  C   UNL A   1      34.928  23.699  23.298  1.00  0.00     0.046 C 
ATOM     11  C   UNL A   1      33.736  21.762  24.026  1.00  0.00    -0.016 C 
BRANCH   8  12
ATOM     12  N   UNL A   1      32.722  24.861  23.088  1.00  0.00    -0.363 N 
ATOM     13  H   UNL A   1      31.788  24.704  23.359  1.00  0.00     0.162 HD
BRANCH  12  14
ATOM     14  C   UNL A   1      33.156  26.175  23.081  1.00  0.00     0.136 A 
ATOM     15  C   UNL A   1      33.704  28.168  24.189  1.00  0.00     0.221 A 
ATOM     16  N   UNL A   1      34.053  28.780  23.050  1.00  0.00    -0.201 NA
ATOM     17  C   UNL A   1      33.208  26.879  24.277  1.00  0.00     0.054 A 
ATOM     18  C   UNL A   1      33.895  28.033  21.956  1.00  0.00     0.228 A 
ATOM     19  C   UNL A   1      32.800  26.276  25.583  1.00  0.00     0.054 C 
ATOM     20  N   UNL A   1      33.502  26.751  21.922  1.00  0.00    -0.219 NA
BRANCH  15  21
ATOM     21  O   UNL A   1      33.783  28.929  25.331  1.00  0.00    -0.478 OA
BRANCH  21  22
ATOM     22  C   UNL A   1      32.588  29.691  25.517  1.00  0.00     0.228 C 
ATOM     23  C   UNL A   1      32.262  29.710  27.001  1.00  0.00     0.049 C 
ENDBRANCH  21  22
ENDBRANCH  15  21
ENDBRANCH  12  14
ENDBRANCH   8  12
ENDBRANCH   4   7
ENDBRANCH   2   3
ENDBRANCH   1   2
BRANCH   1  24
ATOM     24  C   UNL A   1      40.056  22.581  26.719  1.00  0.00     0.023 C 
BRANCH  24  25
ATOM     25  C   UNL A   1      41.293  23.424  27.014  1.00  0.00     0.116 C 
BRANCH  25  26
ATOM     26  N   UNL A   1      41.609  24.346  25.934  1.00  0.00    -0.352 N 
ATOM     27  C   UNL A   1      41.677  25.718  25.967  1.00  0.00     0.251 C 
ATOM     28  H   UNL A   1      41.801  23.931  25.063  1.00  0.00     0.163 HD
ATOM     29  O   UNL A   1      41.808  26.352  24.925  1.00  0.00    -0.269 OA
BRANCH  27  30
ATOM     30  C   UNL A   1      41.559  26.422  27.262  1.00  0.00     0.039 A 
ATOM     31  C   UNL A   1      42.463  27.443  27.562  1.00  0.00     0.014 A 
ATOM     32  C   UNL A   1      40.546  26.087  28.165  1.00  0.00     0.014 A 
ATOM     33  C   UNL A   1      42.311  28.175  28.742  1.00  0.00     0.010 A 
ATOM     34  C   UNL A   1      40.357  26.861  29.306  1.00  0.00     0.010 A 
ATOM     35  C   UNL A   1      41.236  27.913  29.606  1.00  0.00    -0.014 A 
BRANCH  35  36
ATOM     36  C   UNL A   1      41.005  28.728  30.826  1.00  0.00     0.031 A 
ATOM     37  C   UNL A   1      39.914  29.762  30.846  1.00  0.00     0.074 A 
ATOM     38  C   UNL A   1      41.829  28.594  31.885  1.00  0.00     0.049 A 
ATOM     39  N   UNL A   1      39.618  30.631  31.778  1.00  0.00    -0.248 NA
ATOM     40  C   UNL A   1      39.061  29.849  29.650  1.00  0.00     0.031 C 
ATOM     41  C   UNL A   1      42.948  27.654  31.975  1.00  0.00     0.029 A 
ATOM     42  N   UNL A   1      41.858  29.261  33.084  1.00  0.00    -0.354 N 
ATOM     43  C   UNL A   1      38.560  31.379  31.275  1.00  0.00     0.074 A 
ATOM     44  C   UNL A   1      38.300  30.894  29.936  1.00  0.00     0.031 C 
ATOM     45  C   UNL A   1      43.545  27.794  33.170  1.00  0.00     0.029 A 
ATOM     46  C   UNL A   1      42.879  28.859  33.913  1.00  0.00     0.049 A 
ATOM     47  H   UNL A   1      41.211  29.962  33.327  1.00  0.00     0.167 HD
ATOM     48  C   UNL A   1      37.858  32.369  31.877  1.00  0.00     0.031 A 
ATOM     49  C   UNL A   1      43.248  29.304  35.130  1.00  0.00     0.031 A 
ATOM     50  C   UNL A   1      38.117  32.847  33.209  1.00  0.00     0.049 A 
ATOM     51  C   UNL A   1      42.460  30.411  35.778  1.00  0.00     0.074 A 
ATOM     52  C   UNL A   1      37.432  33.812  33.927  1.00  0.00     0.029 A 
ATOM     53  N   UNL A   1      39.147  32.400  34.024  1.00  0.00    -0.354 N 
ATOM     54  N   UNL A   1      41.425  31.067  35.309  1.00  0.00    -0.248 NA
ATOM     55  C   UNL A   1      42.883  30.828  37.121  1.00  0.00     0.031 C 
ATOM     56  C   UNL A   1      38.077  33.982  35.157  1.00  0.00     0.029 A 
ATOM     57  C   UNL A   1      39.129  33.082  35.229  1.00  0.00     0.049 A 
ATOM     58  H   UNL A   1      39.796  31.700  33.781  1.00  0.00     0.167 HD
ATOM     59  C   UNL A   1      41.056  31.957  36.312  1.00  0.00     0.074 A 
ATOM     60  C   UNL A   1      41.970  31.745  37.415  1.00  0.00     0.031 C 
ATOM     61  C   UNL A   1      40.049  32.864  36.318  1.00  0.00     0.031 A 
BRANCH  48  62
ATOM     62  C   UNL A   1      36.747  33.007  31.084  1.00  0.00    -0.014 A 
ATOM     63  C   UNL A   1      37.024  33.831  29.977  1.00  0.00     0.010 A 
ATOM     64  C   UNL A   1      35.406  32.772  31.440  1.00  0.00     0.010 A 
ATOM     65  C   UNL A   1      35.986  34.454  29.278  1.00  0.00     0.020 A 
ATOM     66  C   UNL A   1      34.363  33.368  30.725  1.00  0.00     0.020 A 
ATOM     67  C   UNL A   1      34.662  34.224  29.662  1.00  0.00     0.054 A 
BRANCH  67  68
ATOM     68  S   UNL A   1      33.335  35.049  28.741  1.00  0.00     0.124 S 
ATOM     69  O   UNL A   1      34.078  36.033  27.960  1.00  0.00    -0.237 OA
ATOM     70  O   UNL A   1      32.746  33.954  27.974  1.00  0.00    -0.237 OA
ATOM     71  O   UNL A   1      32.479  35.602  29.787  1.00  0.00    -0.744 OA
ENDBRANCH  67  68
ENDBRANCH  48  62
BRANCH  49  72
ATOM     72  C   UNL A   1      44.414  28.686  35.819  1.00  0.00    -0.014 A 
ATOM     73  C   UNL A   1      44.240  27.554  36.633  1.00  0.00     0.010 A 
ATOM     74  C   UNL A   1      45.708  29.206  35.633  1.00  0.00     0.010 A 
ATOM     75  C   UNL A   1      45.340  26.956  37.256  1.00  0.00     0.020 A 
ATOM     76  C   UNL A   1      46.813  28.595  36.234  1.00  0.00     0.020 A 
ATOM     77  C   UNL A   1      46.621  27.477  37.048  1.00  0.00     0.054 A 
BRANCH  77  78
ATOM     78  S   UNL A   1      48.040  26.641  37.810  1.00  0.00     0.124 S 
ATOM     79  O   UNL A   1      48.224  27.410  39.036  1.00  0.00    -0.237 OA
ATOM     80  O   UNL A   1      47.544  25.277  37.986  1.00  0.00    -0.237 OA
ATOM     81  O   UNL A   1      49.098  26.786  36.812  1.00  0.00    -0.744 OA
ENDBRANCH  77  78
ENDBRANCH  49  72
BRANCH  61  82
ATOM     82  C   UNL A   1      39.855  33.678  37.570  1.00  0.00    -0.014 A 
ATOM     83  C   UNL A   1      40.304  35.007  37.655  1.00  0.00     0.010 A 
ATOM     84  C   UNL A   1      39.160  33.118  38.658  1.00  0.00     0.010 A 
ATOM     85  C   UNL A   1      40.084  35.753  38.816  1.00  0.00     0.020 A 
ATOM     86  C   UNL A   1      38.915  33.869  39.810  1.00  0.00     0.020 A 
ATOM     87  C   UNL A   1      39.391  35.179  39.887  1.00  0.00     0.054 A 
BRANCH  87  88
ATOM     88  S   UNL A   1      39.077  36.184  41.365  1.00  0.00     0.124 S 
ATOM     89  O   UNL A   1      38.953  37.524  40.800  1.00  0.00    -0.237 OA
ATOM     90  O   UNL A   1      37.842  35.605  41.889  1.00  0.00    -0.237 OA
ATOM     91  O   UNL A   1      40.261  35.962  42.192  1.00  0.00    -0.744 OA
ENDBRANCH  87  88
ENDBRANCH  61  82
ENDBRANCH  35  36
ENDBRANCH  27  30
ENDBRANCH  25  26
ENDBRANCH  24  25
ENDBRANCH   1  24
TORSDOF 18
ENDMDL
MODEL 2
REMARK VINA RESULT:     -10.6      6.489     10.987
REMARK SMILES CCOc1ncnc(N[C@@H]2C=C[C@H](C(=O)NCCCCNC(=O)c3ccc(-c4c5nc(c(-c6ccc(S(=O)(=O)[O-])cc6)c6ccc([nH]6)c(-c6ccc(S(=O)(=O)[O-])cc6)c6nc(c(-c7ccc(S(=O)(=O)[O-])cc7)c7ccc4[nH]7)C=C6)C=C5)cc3)C2)c1C
REMARK SMILES IDX 18 1 17 2 16 3 14 4 15 5 13 7 10 8 11 9 84 10 12 11 9 12
REMARK SMILES IDX 8 14 4 15 5 16 85 17 6 18 86 19 7 20 3 21 2 22 1 23 19 24
REMARK SMILES IDX 20 25 21 26 22 27 23 29 24 30 25 31 83 32 26 33 82 34 27 35
REMARK SMILES IDX 28 36 29 37 76 38 30 39 81 40 75 41 77 42 31 43 80 44 74 45
REMARK SMILES IDX 73 46 32 48 62 49 43 50 61 51 44 52 47 53 60 54 78 55 45 56
REMARK SMILES IDX 46 57 59 59 79 60 48 61 33 62 34 63 42 64 35 65 41 66 36 67
REMARK SMILES IDX 37 68 38 69 39 70 40 71 63 72 64 73 72 74 65 75 71 76 66 77
REMARK SMILES IDX 67 78 68 79 69 80 70 81 49 82 50 83 58 84 51 85 57 86 52 87
REMARK SMILES IDX 53 88 54 89 55 90 56 91
REMARK H PARENT 16 6 9 13 21 28 77 47 47 58
REMARK Flexibility Score: inf
ROOT
ATOM      1  C   UNL A   1      40.499  22.049  26.938  1.00  0.00     0.023 C 
ENDROOT
BRANCH   1   2
ATOM      2  C   UNL A   1      39.148  22.604  26.489  1.00  0.00     0.116 C 
BRANCH   2   3
ATOM      3  N   UNL A   1      38.379  21.574  25.823  1.00  0.00    -0.356 N 
ATOM      4  C   UNL A   1      37.226  21.720  25.100  1.00  0.00     0.227 C 
ATOM      5  O   UNL A   1      36.489  20.739  25.013  1.00  0.00    -0.274 OA
ATOM      6  H   UNL A   1      38.727  20.656  25.900  1.00  0.00     0.163 HD
BRANCH   4   7
ATOM      7  C   UNL A   1      36.898  23.097  24.510  1.00  0.00     0.103 C 
ATOM      8  C   UNL A   1      34.575  23.915  24.368  1.00  0.00     0.104 C 
ATOM      9  C   UNL A   1      35.057  23.417  23.054  1.00  0.00    -0.006 C 
ATOM     10  C   UNL A   1      35.799  23.841  25.290  1.00  0.00     0.046 C 
ATOM     11  C   UNL A   1      36.322  22.987  23.121  1.00  0.00    -0.016 C 
BRANCH   8  12
ATOM     12  N   UNL A   1      33.416  23.207  24.859  1.00  0.00    -0.363 N 
ATOM     13  H   UNL A   1      32.841  23.686  25.499  1.00  0.00     0.162 HD
BRANCH  12  14
ATOM     14  C   UNL A   1      33.034  21.921  24.521  1.00  0.00     0.136 A 
ATOM     15  C   UNL A   1      32.644  19.675  25.073  1.00  0.00     0.221 A 
ATOM     16  N   UNL A   1      32.238  19.373  23.833  1.00  0.00    -0.201 NA
ATOM     17  C   UNL A   1      33.095  20.919  25.480  1.00  0.00     0.054 A 
ATOM     18  C   UNL A   1      32.288  20.395  22.977  1.00  0.00     0.228 A 
ATOM     19  C   UNL A   1      33.572  21.170  26.875  1.00  0.00     0.054 C 
ATOM     20  N   UNL A   1      32.627  21.659  23.271  1.00  0.00    -0.219 NA
BRANCH  15  21
ATOM     21  O   UNL A   1      32.677  18.631  25.967  1.00  0.00    -0.478 OA
BRANCH  21  22
ATOM     22  C   UNL A   1      32.423  17.389  25.306  1.00  0.00     0.228 C 
ATOM     23  C   UNL A   1      33.672  16.529  25.416  1.00  0.00     0.049 C 
ENDBRANCH  21  22
ENDBRANCH  15  21
ENDBRANCH  12  14
ENDBRANCH   8  12
ENDBRANCH   4   7
ENDBRANCH   2   3
ENDBRANCH   1   2
BRANCH   1  24
ATOM     24  C   UNL A   1      40.643  20.532  26.773  1.00  0.00     0.023 C 
BRANCH  24  25
ATOM     25  C   UNL A   1      42.021  19.976  27.117  1.00  0.00     0.116 C 
BRANCH  25  26
ATOM     26  N   UNL A   1      42.709  19.434  25.954  1.00  0.00    -0.352 N 
ATOM     27  C   UNL A   1      43.586  20.063  25.104  1.00  0.00     0.251 C 
ATOM     28  H   UNL A   1      42.521  18.490  25.751  1.00  0.00     0.163 HD
ATOM     29  O   UNL A   1      43.958  19.501  24.080  1.00  0.00    -0.269 OA
BRANCH  27  30
ATOM     30  C   UNL A   1      44.050  21.431  25.418  1.00  0.00     0.039 A 
ATOM     31  C   UNL A   1      43.474  22.512  24.750  1.00  0.00     0.014 A 
ATOM     32  C   UNL A   1      45.037  21.643  26.386  1.00  0.00     0.014 A 
ATOM     33  C   UNL A   1      43.841  23.814  25.097  1.00  0.00     0.010 A 
ATOM     34  C   UNL A   1      45.351  22.941  26.777  1.00  0.00     0.010 A 
ATOM     35  C   UNL A   1      44.756  24.040  26.138  1.00  0.00    -0.014 A 
BRANCH  35  36
ATOM     36  C   UNL A   1      45.102  25.414  26.581  1.00  0.00     0.031 A 
ATOM     37  C   UNL A   1      46.458  25.987  26.275  1.00  0.00     0.074 A 
ATOM     38  C   UNL A   1      44.226  26.115  27.329  1.00  0.00     0.049 A 
ATOM     39  N   UNL A   1      46.979  27.125  26.654  1.00  0.00    -0.248 NA
ATOM     40  C   UNL A   1      47.358  25.157  25.457  1.00  0.00     0.031 C 
ATOM     41  C   UNL A   1      42.894  25.656  27.727  1.00  0.00     0.029 A 
ATOM     42  N   UNL A   1      44.334  27.360  27.899  1.00  0.00    -0.354 N 
ATOM     43  C   UNL A   1      48.270  27.141  26.140  1.00  0.00     0.074 A 
ATOM     44  C   UNL A   1      48.470  25.877  25.464  1.00  0.00     0.031 C 
ATOM     45  C   UNL A   1      42.302  26.612  28.463  1.00  0.00     0.029 A 
ATOM     46  C   UNL A   1      43.226  27.730  28.625  1.00  0.00     0.049 A 
ATOM     47  H   UNL A   1      45.129  27.931  27.799  1.00  0.00     0.167 HD
ATOM     48  C   UNL A   1      49.199  28.124  26.208  1.00  0.00     0.031 A 
ATOM     49  C   UNL A   1      42.983  28.840  29.350  1.00  0.00     0.031 A 
ATOM     50  C   UNL A   1      48.997  29.381  26.879  1.00  0.00     0.049 A 
ATOM     51  C   UNL A   1      44.032  29.915  29.421  1.00  0.00     0.074 A 
ATOM     52  C   UNL A   1      49.859  30.460  26.964  1.00  0.00     0.029 A 
ATOM     53  N   UNL A   1      47.852  29.726  27.584  1.00  0.00    -0.354 N 
ATOM     54  N   UNL A   1      45.226  29.937  28.877  1.00  0.00    -0.248 NA
ATOM     55  C   UNL A   1      43.696  31.120  30.192  1.00  0.00     0.031 C 
ATOM     56  C   UNL A   1      49.255  31.439  27.762  1.00  0.00     0.029 A 
ATOM     57  C   UNL A   1      47.994  30.993  28.125  1.00  0.00     0.049 A 
ATOM     58  H   UNL A   1      47.058  29.153  27.686  1.00  0.00     0.167 HD
ATOM     59  C   UNL A   1      45.775  31.168  29.220  1.00  0.00     0.074 A 
ATOM     60  C   UNL A   1      44.777  31.866  30.005  1.00  0.00     0.031 C 
ATOM     61  C   UNL A   1      46.993  31.675  28.908  1.00  0.00     0.031 A 
BRANCH  48  62
ATOM     62  C   UNL A   1      50.528  27.864  25.547  1.00  0.00    -0.014 A 
ATOM     63  C   UNL A   1      50.715  28.103  24.172  1.00  0.00     0.010 A 
ATOM     64  C   UNL A   1      51.610  27.386  26.309  1.00  0.00     0.010 A 
ATOM     65  C   UNL A   1      51.939  27.814  23.562  1.00  0.00     0.020 A 
ATOM     66  C   UNL A   1      52.845  27.125  25.709  1.00  0.00     0.020 A 
ATOM     67  C   UNL A   1      52.994  27.319  24.334  1.00  0.00     0.054 A 
BRANCH  67  68
ATOM     68  S   UNL A   1      54.570  26.948  23.515  1.00  0.00     0.124 S 
ATOM     69  O   UNL A   1      55.256  28.235  23.587  1.00  0.00    -0.237 OA
ATOM     70  O   UNL A   1      55.127  25.891  24.353  1.00  0.00    -0.237 OA
ATOM     71  O   UNL A   1      54.172  26.530  22.173  1.00  0.00    -0.744 OA
ENDBRANCH  67  68
ENDBRANCH  48  62
BRANCH  49  72
ATOM     72  C   UNL A   1      41.679  28.990  30.052  1.00  0.00    -0.014 A 
ATOM     73  C   UNL A   1      40.635  29.725  29.464  1.00  0.00     0.010 A 
ATOM     74  C   UNL A   1      41.464  28.367  31.295  1.00  0.00     0.010 A 
ATOM     75  C   UNL A   1      39.401  29.841  30.111  1.00  0.00     0.020 A 
ATOM     76  C   UNL A   1      40.223  28.460  31.932  1.00  0.00     0.020 A 
ATOM     77  C   UNL A   1      39.200  29.203  31.338  1.00  0.00     0.054 A 
BRANCH  77  78
ATOM     78  S   UNL A   1      37.568  29.309  32.124  1.00  0.00     0.124 S 
ATOM     79  O   UNL A   1      37.605  30.638  32.725  1.00  0.00    -0.237 OA
ATOM     80  O   UNL A   1      36.661  29.152  30.988  1.00  0.00    -0.237 OA
ATOM     81  O   UNL A   1      37.569  28.193  33.067  1.00  0.00    -0.744 OA
ENDBRANCH  77  78
ENDBRANCH  49  72
BRANCH  61  82
ATOM     82  C   UNL A   1      47.309  33.068  29.386  1.00  0.00    -0.014 A 
ATOM     83  C   UNL A   1      47.970  33.290  30.606  1.00  0.00     0.010 A 
ATOM     84  C   UNL A   1      46.989  34.168  28.569  1.00  0.00     0.010 A 
ATOM     85  C   UNL A   1      48.280  34.590  31.014  1.00  0.00     0.020 A 
ATOM     86  C   UNL A   1      47.321  35.467  28.961  1.00  0.00     0.020 A 
ATOM     87  C   UNL A   1      47.954  35.671  30.189  1.00  0.00     0.054 A 
BRANCH  87  88
ATOM     88  S   UNL A   1      48.411  37.345  30.718  1.00  0.00     0.124 S 
ATOM     89  O   UNL A   1      48.023  38.146  29.560  1.00  0.00    -0.237 OA
ATOM     90  O   UNL A   1      47.596  37.535  31.916  1.00  0.00    -0.237 OA
ATOM     91  O   UNL A   1      49.848  37.252  30.960  1.00  0.00    -0.744 OA
ENDBRANCH  87  88
ENDBRANCH  61  82
ENDBRANCH  35  36
ENDBRANCH  27  30
ENDBRANCH  25  26
ENDBRANCH  24  25
ENDBRANCH   1  24
TORSDOF 18
ENDMDL
MODEL 3
REMARK VINA RESULT:     -10.6      4.668     11.858
REMARK SMILES CCOc1ncnc(N[C@@H]2C=C[C@H](C(=O)NCCCCNC(=O)c3ccc(-c4c5nc(c(-c6ccc(S(=O)(=O)[O-])cc6)c6ccc([nH]6)c(-c6ccc(S(=O)(=O)[O-])cc6)c6nc(c(-c7ccc(S(=O)(=O)[O-])cc7)c7ccc4[nH]7)C=C6)C=C5)cc3)C2)c1C
REMARK SMILES IDX 18 1 17 2 16 3 14 4 15 5 13 7 10 8 11 9 84 10 12 11 9 12
REMARK SMILES IDX 8 14 4 15 5 16 85 17 6 18 86 19 7 20 3 21 2 22 1 23 19 24
REMARK SMILES IDX 20 25 21 26 22 27 23 29 24 30 25 31 83 32 26 33 82 34 27 35
REMARK SMILES IDX 28 36 29 37 76 38 30 39 81 40 75 41 77 42 31 43 80 44 74 45
REMARK SMILES IDX 73 46 32 48 62 49 43 50 61 51 44 52 47 53 60 54 78 55 45 56
REMARK SMILES IDX 46 57 59 59 79 60 48 61 33 62 34 63 42 64 35 65 41 66 36 67
REMARK SMILES IDX 37 68 38 69 39 70 40 71 63 72 64 73 72 74 65 75 71 76 66 77
REMARK SMILES IDX 67 78 68 79 69 80 70 81 49 82 50 83 58 84 51 85 57 86 52 87
REMARK SMILES IDX 53 88 54 89 55 90 56 91
REMARK H PARENT 16 6 9 13 21 28 77 47 47 58
REMARK Flexibility Score: inf
ROOT
ATOM      1  C   UNL A   1      33.950  34.618  30.037  1.00  0.00     0.023 C 
ENDROOT
BRANCH   1   2
ATOM      2  C   UNL A   1      34.726  33.823  31.087  1.00  0.00     0.116 C 
BRANCH   2   3
ATOM      3  N   UNL A   1      35.273  34.715  32.088  1.00  0.00    -0.356 N 
ATOM      4  C   UNL A   1      36.491  34.639  32.707  1.00  0.00     0.227 C 
ATOM      5  O   UNL A   1      36.593  35.169  33.813  1.00  0.00    -0.274 OA
ATOM      6  H   UNL A   1      34.697  35.468  32.357  1.00  0.00     0.163 HD
BRANCH   4   7
ATOM      7  C   UNL A   1      37.615  33.851  32.024  1.00  0.00     0.103 C 
ATOM      8  C   UNL A   1      39.543  32.992  33.300  1.00  0.00     0.104 C 
ATOM      9  C   UNL A   1      39.893  34.226  32.552  1.00  0.00    -0.006 C 
ATOM     10  C   UNL A   1      38.112  32.659  32.862  1.00  0.00     0.046 C 
ATOM     11  C   UNL A   1      38.855  34.688  31.845  1.00  0.00    -0.016 C 
BRANCH   8  12
ATOM     12  N   UNL A   1      39.714  33.120  34.729  1.00  0.00    -0.363 N 
ATOM     13  H   UNL A   1      40.409  33.745  35.038  1.00  0.00     0.162 HD
BRANCH  12  14
ATOM     14  C   UNL A   1      38.998  32.450  35.706  1.00  0.00     0.136 A 
ATOM     15  C   UNL A   1      37.765  32.423  37.700  1.00  0.00     0.221 A 
ATOM     16  N   UNL A   1      37.549  31.104  37.624  1.00  0.00    -0.201 NA
ATOM     17  C   UNL A   1      38.515  33.158  36.798  1.00  0.00     0.054 A 
ATOM     18  C   UNL A   1      38.120  30.515  36.572  1.00  0.00     0.228 A 
ATOM     19  C   UNL A   1      38.745  34.625  36.972  1.00  0.00     0.054 C 
ATOM     20  N   UNL A   1      38.798  31.130  35.592  1.00  0.00    -0.219 NA
BRANCH  15  21
ATOM     21  O   UNL A   1      37.254  33.054  38.809  1.00  0.00    -0.478 OA
BRANCH  21  22
ATOM     22  C   UNL A   1      36.606  32.117  39.673  1.00  0.00     0.228 C 
ATOM     23  C   UNL A   1      35.164  32.561  39.861  1.00  0.00     0.049 C 
ENDBRANCH  21  22
ENDBRANCH  15  21
ENDBRANCH  12  14
ENDBRANCH   8  12
ENDBRANCH   4   7
ENDBRANCH   2   3
ENDBRANCH   1   2
BRANCH   1  24
ATOM     24  C   UNL A   1      34.380  34.340  28.592  1.00  0.00     0.023 C 
BRANCH  24  25
ATOM     25  C   UNL A   1      35.087  33.006  28.377  1.00  0.00     0.116 C 
BRANCH  25  26
ATOM     26  N   UNL A   1      34.174  31.952  27.961  1.00  0.00    -0.352 N 
ATOM     27  C   UNL A   1      34.442  30.626  27.723  1.00  0.00     0.251 C 
ATOM     28  H   UNL A   1      33.237  32.226  27.835  1.00  0.00     0.163 HD
ATOM     29  O   UNL A   1      33.583  29.903  27.230  1.00  0.00    -0.269 OA
BRANCH  27  30
ATOM     30  C   UNL A   1      35.783  30.086  28.037  1.00  0.00     0.039 A 
ATOM     31  C   UNL A   1      36.795  30.191  27.082  1.00  0.00     0.014 A 
ATOM     32  C   UNL A   1      36.041  29.499  29.279  1.00  0.00     0.014 A 
ATOM     33  C   UNL A   1      38.088  29.765  27.395  1.00  0.00     0.010 A 
ATOM     34  C   UNL A   1      37.343  29.138  29.613  1.00  0.00     0.010 A 
ATOM     35  C   UNL A   1      38.380  29.267  28.676  1.00  0.00    -0.014 A 
BRANCH  35  36
ATOM     36  C   UNL A   1      39.761  28.883  29.062  1.00  0.00     0.031 A 
ATOM     37  C   UNL A   1      40.668  29.886  29.719  1.00  0.00     0.074 A 
ATOM     38  C   UNL A   1      40.225  27.656  28.748  1.00  0.00     0.049 A 
ATOM     39  N   UNL A   1      41.929  29.770  30.044  1.00  0.00    -0.248 NA
ATOM     40  C   UNL A   1      40.087  31.204  30.024  1.00  0.00     0.031 C 
ATOM     41  C   UNL A   1      39.458  26.605  28.077  1.00  0.00     0.029 A 
ATOM     42  N   UNL A   1      41.462  27.092  28.942  1.00  0.00    -0.354 N 
ATOM     43  C   UNL A   1      42.298  31.001  30.574  1.00  0.00     0.074 A 
ATOM     44  C   UNL A   1      41.141  31.864  30.479  1.00  0.00     0.031 C 
ATOM     45  C   UNL A   1      40.235  25.520  27.929  1.00  0.00     0.029 A 
ATOM     46  C   UNL A   1      41.565  25.810  28.455  1.00  0.00     0.049 A 
ATOM     47  H   UNL A   1      42.204  27.562  29.387  1.00  0.00     0.167 HD
ATOM     48  C   UNL A   1      43.487  31.375  31.106  1.00  0.00     0.031 A 
ATOM     49  C   UNL A   1      42.615  24.966  28.422  1.00  0.00     0.031 A 
ATOM     50  C   UNL A   1      44.635  30.513  31.201  1.00  0.00     0.049 A 
ATOM     51  C   UNL A   1      43.929  25.404  29.010  1.00  0.00     0.074 A 
ATOM     52  C   UNL A   1      45.870  30.782  31.765  1.00  0.00     0.029 A 
ATOM     53  N   UNL A   1      44.693  29.214  30.714  1.00  0.00    -0.354 N 
ATOM     54  N   UNL A   1      44.241  26.554  29.560  1.00  0.00    -0.248 NA
ATOM     55  C   UNL A   1      45.026  24.428  28.983  1.00  0.00     0.031 C 
ATOM     56  C   UNL A   1      46.689  29.663  31.577  1.00  0.00     0.029 A 
ATOM     57  C   UNL A   1      45.947  28.677  30.947  1.00  0.00     0.049 A 
ATOM     58  H   UNL A   1      43.951  28.746  30.267  1.00  0.00     0.167 HD
ATOM     59  C   UNL A   1      45.565  26.429  29.968  1.00  0.00     0.074 A 
ATOM     60  C   UNL A   1      45.987  25.090  29.614  1.00  0.00     0.031 C 
ATOM     61  C   UNL A   1      46.356  27.342  30.585  1.00  0.00     0.031 A 
BRANCH  48  62
ATOM     62  C   UNL A   1      43.601  32.789  31.614  1.00  0.00    -0.014 A 
ATOM     63  C   UNL A   1      43.882  33.855  30.739  1.00  0.00     0.010 A 
ATOM     64  C   UNL A   1      43.413  33.061  32.982  1.00  0.00     0.010 A 
ATOM     65  C   UNL A   1      44.030  35.155  31.230  1.00  0.00     0.020 A 
ATOM     66  C   UNL A   1      43.530  34.364  33.472  1.00  0.00     0.020 A 
ATOM     67  C   UNL A   1      43.861  35.399  32.596  1.00  0.00     0.054 A 
BRANCH  67  68
ATOM     68  S   UNL A   1      44.064  37.096  33.206  1.00  0.00     0.124 S 
ATOM     69  O   UNL A   1      45.227  36.963  34.079  1.00  0.00    -0.237 OA
ATOM     70  O   UNL A   1      44.284  37.855  31.979  1.00  0.00    -0.237 OA
ATOM     71  O   UNL A   1      42.802  37.372  33.888  1.00  0.00    -0.744 OA
ENDBRANCH  67  68
ENDBRANCH  48  62
BRANCH  49  72
ATOM     72  C   UNL A   1      42.454  23.614  27.823  1.00  0.00    -0.014 A 
ATOM     73  C   UNL A   1      42.787  23.388  26.476  1.00  0.00     0.010 A 
ATOM     74  C   UNL A   1      42.000  22.537  28.606  1.00  0.00     0.010 A 
ATOM     75  C   UNL A   1      42.663  22.111  25.921  1.00  0.00     0.020 A 
ATOM     76  C   UNL A   1      41.900  21.253  28.062  1.00  0.00     0.020 A 
ATOM     77  C   UNL A   1      42.226  21.050  26.719  1.00  0.00     0.054 A 
BRANCH  77  78
ATOM     78  S   UNL A   1      42.141  19.388  25.995  1.00  0.00     0.124 S 
ATOM     79  O   UNL A   1      42.986  19.526  24.815  1.00  0.00    -0.237 OA
ATOM     80  O   UNL A   1      42.678  18.550  27.066  1.00  0.00    -0.237 OA
ATOM     81  O   UNL A   1      40.716  19.204  25.729  1.00  0.00    -0.744 OA
ENDBRANCH  77  78
ENDBRANCH  49  72
BRANCH  61  82
ATOM     82  C   UNL A   1      47.754  26.915  30.950  1.00  0.00    -0.014 A 
ATOM     83  C   UNL A   1      48.019  26.228  32.147  1.00  0.00     0.010 A 
ATOM     84  C   UNL A   1      48.807  27.157  30.050  1.00  0.00     0.010 A 
ATOM     85  C   UNL A   1      49.319  25.814  32.449  1.00  0.00     0.020 A 
ATOM     86  C   UNL A   1      50.104  26.722  30.337  1.00  0.00     0.020 A 
ATOM     87  C   UNL A   1      50.354  26.063  31.542  1.00  0.00     0.054 A 
BRANCH  87  88
ATOM     88  S   UNL A   1      52.024  25.474  31.936  1.00  0.00     0.124 S 
ATOM     89  O   UNL A   1      52.370  26.295  33.093  1.00  0.00    -0.237 OA
ATOM     90  O   UNL A   1      51.806  24.056  32.213  1.00  0.00    -0.237 OA
ATOM     91  O   UNL A   1      52.785  25.755  30.722  1.00  0.00    -0.744 OA
ENDBRANCH  87  88
ENDBRANCH  61  82
ENDBRANCH  35  36
ENDBRANCH  27  30
ENDBRANCH  25  26
ENDBRANCH  24  25
ENDBRANCH   1  24
TORSDOF 18
ENDMDL
