MODEL 1
REMARK VINA RESULT:     -10.9      0.000      0.000
REMARK SMILES C[C@@H](C(=O)NCCCCNC(=O)c1ccc(-c2c3nc(c(-c4ccc(S(=O)(=O)[O-])cc4)c4ccc([nH]4)c(-c4ccc(S(=O)(=O)[O-])cc4)c4nc(c(-c5ccc(S(=O)(=O)[O-])cc5)c5ccc2[nH]5)C=C4)C=C3)cc1)c1ccc(-c2ccccc2)c(F)c1
REMARK SMILES IDX 8 1 7 2 6 3 5 4 3 5 4 6 2 8 1 9 73 10 74 11 85 12 75 13
REMARK SMILES IDX 83 14 76 15 84 16 77 17 78 18 82 19 79 20 81 21 80 22 9 23
REMARK SMILES IDX 10 24 11 25 12 27 13 28 14 29 72 30 15 31 71 32 16 33 17 34
REMARK SMILES IDX 18 35 65 36 19 37 70 38 64 39 66 40 20 41 69 42 63 43 62 44
REMARK SMILES IDX 21 46 51 47 32 48 50 49 33 50 36 51 49 52 67 53 34 54 35 55
REMARK SMILES IDX 48 57 68 58 37 59 22 60 23 61 31 62 24 63 30 64 25 65 26 66
REMARK SMILES IDX 27 67 28 68 29 69 52 70 53 71 61 72 54 73 60 74 55 75 56 76
REMARK SMILES IDX 57 77 58 78 59 79 38 80 39 81 47 82 40 83 46 84 41 85 42 86
REMARK SMILES IDX 43 87 44 88 45 89
REMARK H PARENT 5 7 10 26 66 45 36 56
REMARK Flexibility Score: inf
ROOT
ATOM      1  C   UNL A   1      33.724  27.783  26.696  1.00  0.00     0.023 C 
ENDROOT
BRANCH   1   2
ATOM      2  C   UNL A   1      32.293  28.020  27.186  1.00  0.00     0.023 C 
BRANCH   2   3
ATOM      3  C   UNL A   1      31.200  27.568  26.215  1.00  0.00     0.116 C 
BRANCH   3   4
ATOM      4  N   UNL A   1      30.609  26.317  26.636  1.00  0.00    -0.356 N 
ATOM      5  C   UNL A   1      30.638  25.081  26.062  1.00  0.00     0.227 C 
ATOM      6  O   UNL A   1      30.009  24.203  26.656  1.00  0.00    -0.274 OA
ATOM      7  H   UNL A   1      30.101  26.365  27.478  1.00  0.00     0.163 HD
BRANCH   5   8
ATOM      8  C   UNL A   1      31.462  24.836  24.780  1.00  0.00     0.105 C 
ATOM      9  C   UNL A   1      30.808  23.830  23.829  1.00  0.00     0.023 C 
BRANCH   8  10
ATOM     10  C   UNL A   1      32.896  24.369  25.017  1.00  0.00    -0.033 A 
ATOM     11  C   UNL A   1      33.912  24.574  24.073  1.00  0.00     0.005 A 
ATOM     12  C   UNL A   1      33.252  23.811  26.253  1.00  0.00     0.044 A 
ATOM     13  C   UNL A   1      35.228  24.188  24.335  1.00  0.00     0.012 A 
ATOM     14  C   UNL A   1      34.576  23.453  26.518  1.00  0.00     0.131 A 
ATOM     15  C   UNL A   1      35.592  23.628  25.569  1.00  0.00     0.017 A 
ATOM     16  F   UNL A   1      34.860  22.952  27.732  1.00  0.00    -0.206 F 
BRANCH  15  17
ATOM     17  C   UNL A   1      36.992  23.251  25.821  1.00  0.00    -0.015 A 
ATOM     18  C   UNL A   1      37.466  21.975  25.465  1.00  0.00     0.009 A 
ATOM     19  C   UNL A   1      37.880  24.124  26.465  1.00  0.00     0.009 A 
ATOM     20  C   UNL A   1      38.772  21.579  25.761  1.00  0.00     0.001 A 
ATOM     21  C   UNL A   1      39.188  23.731  26.762  1.00  0.00     0.001 A 
ATOM     22  C   UNL A   1      39.631  22.457  26.415  1.00  0.00     0.000 A 
ENDBRANCH  15  17
ENDBRANCH   8  10
ENDBRANCH   5   8
ENDBRANCH   3   4
ENDBRANCH   2   3
ENDBRANCH   1   2
BRANCH   1  23
ATOM     23  C   UNL A   1      34.369  28.970  25.997  1.00  0.00     0.116 C 
BRANCH  23  24
ATOM     24  N   UNL A   1      33.872  30.245  26.490  1.00  0.00    -0.352 N 
ATOM     25  C   UNL A   1      34.334  30.998  27.540  1.00  0.00     0.251 C 
ATOM     26  H   UNL A   1      33.101  30.618  26.005  1.00  0.00     0.163 HD
ATOM     27  O   UNL A   1      33.692  31.975  27.918  1.00  0.00    -0.269 OA
BRANCH  25  28
ATOM     28  C   UNL A   1      35.588  30.616  28.224  1.00  0.00     0.039 A 
ATOM     29  C   UNL A   1      35.540  29.653  29.235  1.00  0.00     0.014 A 
ATOM     30  C   UNL A   1      36.805  31.204  27.870  1.00  0.00     0.014 A 
ATOM     31  C   UNL A   1      36.720  29.259  29.867  1.00  0.00     0.010 A 
ATOM     32  C   UNL A   1      37.988  30.742  28.436  1.00  0.00     0.010 A 
ATOM     33  C   UNL A   1      37.957  29.786  29.460  1.00  0.00    -0.014 A 
BRANCH  33  34
ATOM     34  C   UNL A   1      39.221  29.389  30.130  1.00  0.00     0.031 A 
ATOM     35  C   UNL A   1      39.650  30.086  31.395  1.00  0.00     0.074 A 
ATOM     36  C   UNL A   1      40.001  28.434  29.586  1.00  0.00     0.049 A 
ATOM     37  N   UNL A   1      40.720  29.892  32.122  1.00  0.00    -0.248 NA
ATOM     38  C   UNL A   1      38.778  31.164  31.891  1.00  0.00     0.031 C 
ATOM     39  C   UNL A   1      39.714  27.708  28.346  1.00  0.00     0.029 A 
ATOM     40  N   UNL A   1      41.193  27.905  30.012  1.00  0.00    -0.354 N 
ATOM     41  C   UNL A   1      40.659  30.836  33.143  1.00  0.00     0.074 A 
ATOM     42  C   UNL A   1      39.482  31.639  32.906  1.00  0.00     0.031 C 
ATOM     43  C   UNL A   1      40.680  26.799  28.136  1.00  0.00     0.029 A 
ATOM     44  C   UNL A   1      41.674  26.904  29.201  1.00  0.00     0.049 A 
ATOM     45  H   UNL A   1      41.661  28.213  30.821  1.00  0.00     0.167 HD
ATOM     46  C   UNL A   1      41.494  31.006  34.196  1.00  0.00     0.031 A 
ATOM     47  C   UNL A   1      42.785  26.149  29.306  1.00  0.00     0.031 A 
ATOM     48  C   UNL A   1      42.659  30.196  34.433  1.00  0.00     0.049 A 
ATOM     49  C   UNL A   1      43.702  26.358  30.482  1.00  0.00     0.074 A 
ATOM     50  C   UNL A   1      43.537  30.243  35.501  1.00  0.00     0.029 A 
ATOM     51  N   UNL A   1      43.111  29.193  33.587  1.00  0.00    -0.354 N 
ATOM     52  N   UNL A   1      43.591  27.208  31.475  1.00  0.00    -0.248 NA
ATOM     53  C   UNL A   1      44.883  25.489  30.559  1.00  0.00     0.031 C 
ATOM     54  C   UNL A   1      44.555  29.312  35.269  1.00  0.00     0.029 A 
ATOM     55  C   UNL A   1      44.270  28.632  34.096  1.00  0.00     0.049 A 
ATOM     56  H   UNL A   1      42.672  28.921  32.748  1.00  0.00     0.167 HD
ATOM     57  C   UNL A   1      44.666  26.946  32.319  1.00  0.00     0.074 A 
ATOM     58  C   UNL A   1      45.408  25.855  31.720  1.00  0.00     0.031 C 
ATOM     59  C   UNL A   1      45.000  27.546  33.489  1.00  0.00     0.031 A 
BRANCH  46  60
ATOM     60  C   UNL A   1      41.184  32.128  35.155  1.00  0.00    -0.014 A 
ATOM     61  C   UNL A   1      40.453  31.905  36.337  1.00  0.00     0.010 A 
ATOM     62  C   UNL A   1      41.639  33.428  34.873  1.00  0.00     0.010 A 
ATOM     63  C   UNL A   1      40.131  32.968  37.184  1.00  0.00     0.020 A 
ATOM     64  C   UNL A   1      41.351  34.489  35.735  1.00  0.00     0.020 A 
ATOM     65  C   UNL A   1      40.577  34.256  36.875  1.00  0.00     0.054 A 
BRANCH  65  66
ATOM     66  S   UNL A   1      40.144  35.618  37.990  1.00  0.00     0.124 S 
ATOM     67  O   UNL A   1      38.911  35.125  38.600  1.00  0.00    -0.237 OA
ATOM     68  O   UNL A   1      41.301  35.685  38.879  1.00  0.00    -0.237 OA
ATOM     69  O   UNL A   1      39.981  36.762  37.096  1.00  0.00    -0.744 OA
ENDBRANCH  65  66
ENDBRANCH  46  60
BRANCH  47  70
ATOM     70  C   UNL A   1      43.065  25.094  28.294  1.00  0.00    -0.014 A 
ATOM     71  C   UNL A   1      43.759  25.409  27.112  1.00  0.00     0.010 A 
ATOM     72  C   UNL A   1      42.660  23.765  28.512  1.00  0.00     0.010 A 
ATOM     73  C   UNL A   1      44.029  24.422  26.161  1.00  0.00     0.020 A 
ATOM     74  C   UNL A   1      42.954  22.767  27.578  1.00  0.00     0.020 A 
ATOM     75  C   UNL A   1      43.629  23.104  26.403  1.00  0.00     0.054 A 
BRANCH  75  76
ATOM     76  S   UNL A   1      44.045  21.829  25.182  1.00  0.00     0.124 S 
ATOM     77  O   UNL A   1      43.910  22.555  23.924  1.00  0.00    -0.237 OA
ATOM     78  O   UNL A   1      45.408  21.465  25.560  1.00  0.00    -0.237 OA
ATOM     79  O   UNL A   1      43.044  20.791  25.417  1.00  0.00    -0.744 OA
ENDBRANCH  75  76
ENDBRANCH  47  70
BRANCH  59  80
ATOM     80  C   UNL A   1      46.189  26.998  34.236  1.00  0.00    -0.014 A 
ATOM     81  C   UNL A   1      47.485  27.505  34.041  1.00  0.00     0.010 A 
ATOM     82  C   UNL A   1      45.990  25.977  35.184  1.00  0.00     0.010 A 
ATOM     83  C   UNL A   1      48.567  26.966  34.743  1.00  0.00     0.020 A 
ATOM     84  C   UNL A   1      47.063  25.461  35.913  1.00  0.00     0.020 A 
ATOM     85  C   UNL A   1      48.349  25.946  35.674  1.00  0.00     0.054 A 
BRANCH  85  86
ATOM     86  S   UNL A   1      49.764  25.279  36.590  1.00  0.00     0.124 S 
ATOM     87  O   UNL A   1      49.614  25.923  37.892  1.00  0.00    -0.237 OA
ATOM     88  O   UNL A   1      49.512  23.841  36.568  1.00  0.00    -0.237 OA
ATOM     89  O   UNL A   1      50.921  25.714  35.808  1.00  0.00    -0.744 OA
ENDBRANCH  85  86
ENDBRANCH  59  80
ENDBRANCH  33  34
ENDBRANCH  25  28
ENDBRANCH  23  24
ENDBRANCH   1  23
TORSDOF 16
ENDMDL
MODEL 2
REMARK VINA RESULT:     -10.8      2.901      3.607
REMARK SMILES C[C@@H](C(=O)NCCCCNC(=O)c1ccc(-c2c3nc(c(-c4ccc(S(=O)(=O)[O-])cc4)c4ccc([nH]4)c(-c4ccc(S(=O)(=O)[O-])cc4)c4nc(c(-c5ccc(S(=O)(=O)[O-])cc5)c5ccc2[nH]5)C=C4)C=C3)cc1)c1ccc(-c2ccccc2)c(F)c1
REMARK SMILES IDX 8 1 7 2 6 3 5 4 3 5 4 6 2 8 1 9 73 10 74 11 85 12 75 13
REMARK SMILES IDX 83 14 76 15 84 16 77 17 78 18 82 19 79 20 81 21 80 22 9 23
REMARK SMILES IDX 10 24 11 25 12 27 13 28 14 29 72 30 15 31 71 32 16 33 17 34
REMARK SMILES IDX 18 35 65 36 19 37 70 38 64 39 66 40 20 41 69 42 63 43 62 44
REMARK SMILES IDX 21 46 51 47 32 48 50 49 33 50 36 51 49 52 67 53 34 54 35 55
REMARK SMILES IDX 48 57 68 58 37 59 22 60 23 61 31 62 24 63 30 64 25 65 26 66
REMARK SMILES IDX 27 67 28 68 29 69 52 70 53 71 61 72 54 73 60 74 55 75 56 76
REMARK SMILES IDX 57 77 58 78 59 79 38 80 39 81 47 82 40 83 46 84 41 85 42 86
REMARK SMILES IDX 43 87 44 88 45 89
REMARK H PARENT 5 7 10 26 66 45 36 56
REMARK Flexibility Score: inf
ROOT
ATOM      1  C   UNL A   1      33.735  28.181  25.542  1.00  0.00     0.023 C 
ENDROOT
BRANCH   1   2
ATOM      2  C   UNL A   1      32.978  29.332  24.875  1.00  0.00     0.023 C 
BRANCH   2   3
ATOM      3  C   UNL A   1      31.463  29.140  24.792  1.00  0.00     0.116 C 
BRANCH   3   4
ATOM      4  N   UNL A   1      30.950  29.569  23.509  1.00  0.00    -0.356 N 
ATOM      5  C   UNL A   1      30.359  28.860  22.506  1.00  0.00     0.227 C 
ATOM      6  O   UNL A   1      30.043  29.512  21.508  1.00  0.00    -0.274 OA
ATOM      7  H   UNL A   1      31.041  30.532  23.332  1.00  0.00     0.163 HD
BRANCH   5   8
ATOM      8  C   UNL A   1      30.078  27.352  22.676  1.00  0.00     0.105 C 
ATOM      9  C   UNL A   1      29.025  27.055  23.748  1.00  0.00     0.023 C 
BRANCH   8  10
ATOM     10  C   UNL A   1      31.305  26.501  22.998  1.00  0.00    -0.033 A 
ATOM     11  C   UNL A   1      32.497  26.608  22.269  1.00  0.00     0.005 A 
ATOM     12  C   UNL A   1      31.293  25.658  24.118  1.00  0.00     0.044 A 
ATOM     13  C   UNL A   1      33.624  25.860  22.617  1.00  0.00     0.012 A 
ATOM     14  C   UNL A   1      32.433  24.934  24.476  1.00  0.00     0.131 A 
ATOM     15  C   UNL A   1      33.620  25.013  23.736  1.00  0.00     0.017 A 
ATOM     16  F   UNL A   1      32.369  24.167  25.577  1.00  0.00    -0.206 F 
BRANCH  15  17
ATOM     17  C   UNL A   1      34.831  24.254  24.087  1.00  0.00    -0.015 A 
ATOM     18  C   UNL A   1      35.385  23.330  23.182  1.00  0.00     0.009 A 
ATOM     19  C   UNL A   1      35.438  24.387  25.345  1.00  0.00     0.009 A 
ATOM     20  C   UNL A   1      36.493  22.553  23.529  1.00  0.00     0.001 A 
ATOM     21  C   UNL A   1      36.546  23.611  25.694  1.00  0.00     0.001 A 
ATOM     22  C   UNL A   1      37.069  22.690  24.788  1.00  0.00     0.000 A 
ENDBRANCH  15  17
ENDBRANCH   8  10
ENDBRANCH   5   8
ENDBRANCH   3   4
ENDBRANCH   2   3
ENDBRANCH   1   2
BRANCH   1  23
ATOM     23  C   UNL A   1      34.026  28.376  27.023  1.00  0.00     0.116 C 
BRANCH  23  24
ATOM     24  N   UNL A   1      33.761  29.734  27.470  1.00  0.00    -0.352 N 
ATOM     25  C   UNL A   1      34.575  30.577  28.183  1.00  0.00     0.251 C 
ATOM     26  H   UNL A   1      32.879  30.097  27.228  1.00  0.00     0.163 HD
ATOM     27  O   UNL A   1      34.127  31.637  28.614  1.00  0.00    -0.269 OA
BRANCH  25  28
ATOM     28  C   UNL A   1      35.979  30.195  28.448  1.00  0.00     0.039 A 
ATOM     29  C   UNL A   1      36.316  29.686  29.704  1.00  0.00     0.014 A 
ATOM     30  C   UNL A   1      36.958  30.339  27.461  1.00  0.00     0.014 A 
ATOM     31  C   UNL A   1      37.630  29.290  29.957  1.00  0.00     0.010 A 
ATOM     32  C   UNL A   1      38.243  29.859  27.686  1.00  0.00     0.010 A 
ATOM     33  C   UNL A   1      38.602  29.356  28.944  1.00  0.00    -0.014 A 
BRANCH  33  34
ATOM     34  C   UNL A   1      40.008  28.953  29.199  1.00  0.00     0.031 A 
ATOM     35  C   UNL A   1      40.955  29.918  29.863  1.00  0.00     0.074 A 
ATOM     36  C   UNL A   1      40.445  27.742  28.802  1.00  0.00     0.049 A 
ATOM     37  N   UNL A   1      42.219  29.760  30.164  1.00  0.00    -0.248 NA
ATOM     38  C   UNL A   1      40.420  31.246  30.209  1.00  0.00     0.031 C 
ATOM     39  C   UNL A   1      39.636  26.731  28.116  1.00  0.00     0.029 A 
ATOM     40  N   UNL A   1      41.678  27.153  28.923  1.00  0.00    -0.354 N 
ATOM     41  C   UNL A   1      42.632  30.972  30.709  1.00  0.00     0.074 A 
ATOM     42  C   UNL A   1      41.504  31.872  30.641  1.00  0.00     0.031 C 
ATOM     43  C   UNL A   1      40.382  25.632  27.919  1.00  0.00     0.029 A 
ATOM     44  C   UNL A   1      41.730  25.873  28.425  1.00  0.00     0.049 A 
ATOM     45  H   UNL A   1      42.453  27.605  29.329  1.00  0.00     0.167 HD
ATOM     46  C   UNL A   1      43.835  31.301  31.238  1.00  0.00     0.031 A 
ATOM     47  C   UNL A   1      42.746  24.989  28.386  1.00  0.00     0.031 A 
ATOM     48  C   UNL A   1      44.950  30.397  31.313  1.00  0.00     0.049 A 
ATOM     49  C   UNL A   1      44.076  25.377  28.976  1.00  0.00     0.074 A 
ATOM     50  C   UNL A   1      46.192  30.608  31.886  1.00  0.00     0.029 A 
ATOM     51  N   UNL A   1      44.962  29.110  30.796  1.00  0.00    -0.354 N 
ATOM     52  N   UNL A   1      44.428  26.503  29.550  1.00  0.00    -0.248 NA
ATOM     53  C   UNL A   1      45.139  24.364  28.930  1.00  0.00     0.031 C 
ATOM     54  C   UNL A   1      46.976  29.472  31.658  1.00  0.00     0.029 A 
ATOM     55  C   UNL A   1      46.198  28.524  31.012  1.00  0.00     0.049 A 
ATOM     56  H   UNL A   1      44.204  28.677  30.341  1.00  0.00     0.167 HD
ATOM     57  C   UNL A   1      45.741  26.318  29.973  1.00  0.00     0.074 A 
ATOM     58  C   UNL A   1      46.114  24.970  29.593  1.00  0.00     0.031 C 
ATOM     59  C   UNL A   1      46.557  27.181  30.628  1.00  0.00     0.031 A 
BRANCH  46  60
ATOM     60  C   UNL A   1      44.004  32.707  31.757  1.00  0.00    -0.014 A 
ATOM     61  C   UNL A   1      44.446  33.751  30.923  1.00  0.00     0.010 A 
ATOM     62  C   UNL A   1      43.709  32.991  33.102  1.00  0.00     0.010 A 
ATOM     63  C   UNL A   1      44.646  35.034  31.437  1.00  0.00     0.020 A 
ATOM     64  C   UNL A   1      43.873  34.281  33.613  1.00  0.00     0.020 A 
ATOM     65  C   UNL A   1      44.365  35.291  32.782  1.00  0.00     0.054 A 
BRANCH  65  66
ATOM     66  S   UNL A   1      44.636  36.964  33.424  1.00  0.00     0.124 S 
ATOM     67  O   UNL A   1      43.964  36.901  34.720  1.00  0.00    -0.237 OA
ATOM     68  O   UNL A   1      46.093  37.054  33.477  1.00  0.00    -0.237 OA
ATOM     69  O   UNL A   1      43.996  37.826  32.433  1.00  0.00    -0.744 OA
ENDBRANCH  65  66
ENDBRANCH  46  60
BRANCH  47  70
ATOM     70  C   UNL A   1      42.530  23.633  27.809  1.00  0.00    -0.014 A 
ATOM     71  C   UNL A   1      42.961  23.340  26.503  1.00  0.00     0.010 A 
ATOM     72  C   UNL A   1      41.912  22.622  28.566  1.00  0.00     0.010 A 
ATOM     73  C   UNL A   1      42.766  22.068  25.958  1.00  0.00     0.020 A 
ATOM     74  C   UNL A   1      41.741  21.339  28.036  1.00  0.00     0.020 A 
ATOM     75  C   UNL A   1      42.161  21.073  26.732  1.00  0.00     0.054 A 
BRANCH  75  76
ATOM     76  S   UNL A   1      41.974  19.412  26.025  1.00  0.00     0.124 S 
ATOM     77  O   UNL A   1      40.532  19.330  25.819  1.00  0.00    -0.237 OA
ATOM     78  O   UNL A   1      42.784  19.495  24.812  1.00  0.00    -0.237 OA
ATOM     79  O   UNL A   1      42.510  18.536  27.064  1.00  0.00    -0.744 OA
ENDBRANCH  75  76
ENDBRANCH  47  70
BRANCH  59  80
ATOM     80  C   UNL A   1      47.919  26.677  31.032  1.00  0.00    -0.014 A 
ATOM     81  C   UNL A   1      49.044  26.836  30.204  1.00  0.00     0.010 A 
ATOM     82  C   UNL A   1      48.077  26.066  32.290  1.00  0.00     0.010 A 
ATOM     83  C   UNL A   1      50.291  26.348  30.606  1.00  0.00     0.020 A 
ATOM     84  C   UNL A   1      49.328  25.609  32.710  1.00  0.00     0.020 A 
ATOM     85  C   UNL A   1      50.424  25.735  31.856  1.00  0.00     0.054 A 
BRANCH  85  86
ATOM     86  S   UNL A   1      52.055  25.131  32.365  1.00  0.00     0.124 S 
ATOM     87  O   UNL A   1      51.861  23.683  32.352  1.00  0.00    -0.237 OA
ATOM     88  O   UNL A   1      52.932  25.656  31.321  1.00  0.00    -0.237 OA
ATOM     89  O   UNL A   1      52.249  25.722  33.688  1.00  0.00    -0.744 OA
ENDBRANCH  85  86
ENDBRANCH  59  80
ENDBRANCH  33  34
ENDBRANCH  25  28
ENDBRANCH  23  24
ENDBRANCH   1  23
TORSDOF 16
ENDMDL
MODEL 3
REMARK VINA RESULT:     -10.7      3.168      3.880
REMARK SMILES C[C@@H](C(=O)NCCCCNC(=O)c1ccc(-c2c3nc(c(-c4ccc(S(=O)(=O)[O-])cc4)c4ccc([nH]4)c(-c4ccc(S(=O)(=O)[O-])cc4)c4nc(c(-c5ccc(S(=O)(=O)[O-])cc5)c5ccc2[nH]5)C=C4)C=C3)cc1)c1ccc(-c2ccccc2)c(F)c1
REMARK SMILES IDX 8 1 7 2 6 3 5 4 3 5 4 6 2 8 1 9 73 10 74 11 85 12 75 13
REMARK SMILES IDX 83 14 76 15 84 16 77 17 78 18 82 19 79 20 81 21 80 22 9 23
REMARK SMILES IDX 10 24 11 25 12 27 13 28 14 29 72 30 15 31 71 32 16 33 17 34
REMARK SMILES IDX 18 35 65 36 19 37 70 38 64 39 66 40 20 41 69 42 63 43 62 44
REMARK SMILES IDX 21 46 51 47 32 48 50 49 33 50 36 51 49 52 67 53 34 54 35 55
REMARK SMILES IDX 48 57 68 58 37 59 22 60 23 61 31 62 24 63 30 64 25 65 26 66
REMARK SMILES IDX 27 67 28 68 29 69 52 70 53 71 61 72 54 73 60 74 55 75 56 76
REMARK SMILES IDX 57 77 58 78 59 79 38 80 39 81 47 82 40 83 46 84 41 85 42 86
REMARK SMILES IDX 43 87 44 88 45 89
REMARK H PARENT 5 7 10 26 66 45 36 56
REMARK Flexibility Score: inf
ROOT
ATOM      1  C   UNL A   1      33.904  28.150  25.092  1.00  0.00     0.023 C 
ENDROOT
BRANCH   1   2
ATOM      2  C   UNL A   1      32.510  28.141  24.460  1.00  0.00     0.023 C 
BRANCH   2   3
ATOM      3  C   UNL A   1      31.913  26.750  24.243  1.00  0.00     0.116 C 
BRANCH   3   4
ATOM      4  N   UNL A   1      32.654  26.012  23.243  1.00  0.00    -0.356 N 
ATOM      5  C   UNL A   1      33.531  24.976  23.370  1.00  0.00     0.227 C 
ATOM      6  O   UNL A   1      34.026  24.566  22.318  1.00  0.00    -0.274 OA
ATOM      7  H   UNL A   1      32.498  26.305  22.317  1.00  0.00     0.163 HD
BRANCH   5   8
ATOM      8  C   UNL A   1      33.812  24.357  24.756  1.00  0.00     0.105 C 
ATOM      9  C   UNL A   1      35.190  24.730  25.311  1.00  0.00     0.023 C 
BRANCH   8  10
ATOM     10  C   UNL A   1      33.697  22.836  24.816  1.00  0.00    -0.033 A 
ATOM     11  C   UNL A   1      32.479  22.172  24.612  1.00  0.00     0.005 A 
ATOM     12  C   UNL A   1      34.851  22.055  24.974  1.00  0.00     0.044 A 
ATOM     13  C   UNL A   1      32.408  20.778  24.616  1.00  0.00     0.012 A 
ATOM     14  C   UNL A   1      34.776  20.660  24.950  1.00  0.00     0.131 A 
ATOM     15  C   UNL A   1      33.558  19.990  24.775  1.00  0.00     0.017 A 
ATOM     16  F   UNL A   1      35.920  19.968  25.076  1.00  0.00    -0.206 F 
BRANCH  15  17
ATOM     17  C   UNL A   1      33.452  18.522  24.755  1.00  0.00    -0.015 A 
ATOM     18  C   UNL A   1      34.003  17.778  23.696  1.00  0.00     0.009 A 
ATOM     19  C   UNL A   1      32.758  17.825  25.756  1.00  0.00     0.009 A 
ATOM     20  C   UNL A   1      33.849  16.391  23.629  1.00  0.00     0.001 A 
ATOM     21  C   UNL A   1      32.603  16.438  25.691  1.00  0.00     0.001 A 
ATOM     22  C   UNL A   1      33.144  15.723  24.624  1.00  0.00     0.000 A 
ENDBRANCH  15  17
ENDBRANCH   8  10
ENDBRANCH   5   8
ENDBRANCH   3   4
ENDBRANCH   2   3
ENDBRANCH   1   2
BRANCH   1  23
ATOM     23  C   UNL A   1      33.922  28.287  26.607  1.00  0.00     0.116 C 
BRANCH  23  24
ATOM     24  N   UNL A   1      33.612  29.637  27.049  1.00  0.00    -0.352 N 
ATOM     25  C   UNL A   1      34.374  30.489  27.808  1.00  0.00     0.251 C 
ATOM     26  H   UNL A   1      32.737  29.988  26.765  1.00  0.00     0.163 HD
ATOM     27  O   UNL A   1      33.887  31.538  28.223  1.00  0.00    -0.269 OA
BRANCH  25  28
ATOM     28  C   UNL A   1      35.770  30.129  28.140  1.00  0.00     0.039 A 
ATOM     29  C   UNL A   1      36.062  29.671  29.426  1.00  0.00     0.014 A 
ATOM     30  C   UNL A   1      36.785  30.243  27.186  1.00  0.00     0.014 A 
ATOM     31  C   UNL A   1      37.369  29.296  29.744  1.00  0.00     0.010 A 
ATOM     32  C   UNL A   1      38.064  29.782  27.477  1.00  0.00     0.010 A 
ATOM     33  C   UNL A   1      38.377  29.331  28.767  1.00  0.00    -0.014 A 
BRANCH  33  34
ATOM     34  C   UNL A   1      39.775  28.949  29.090  1.00  0.00     0.031 A 
ATOM     35  C   UNL A   1      40.675  29.929  29.799  1.00  0.00     0.074 A 
ATOM     36  C   UNL A   1      40.249  27.745  28.716  1.00  0.00     0.049 A 
ATOM     37  N   UNL A   1      41.924  29.790  30.160  1.00  0.00    -0.248 NA
ATOM     38  C   UNL A   1      40.103  31.249  30.116  1.00  0.00     0.031 C 
ATOM     39  C   UNL A   1      39.489  26.721  27.994  1.00  0.00     0.029 A 
ATOM     40  N   UNL A   1      41.484  27.174  28.898  1.00  0.00    -0.354 N 
ATOM     41  C   UNL A   1      42.292  31.009  30.723  1.00  0.00     0.074 A 
ATOM     42  C   UNL A   1      41.155  31.891  30.600  1.00  0.00     0.031 C 
ATOM     43  C   UNL A   1      40.261  25.633  27.835  1.00  0.00     0.029 A 
ATOM     44  C   UNL A   1      41.579  25.895  28.405  1.00  0.00     0.049 A 
ATOM     45  H   UNL A   1      42.231  27.638  29.340  1.00  0.00     0.167 HD
ATOM     46  C   UNL A   1      43.463  31.356  31.310  1.00  0.00     0.031 A 
ATOM     47  C   UNL A   1      42.609  25.027  28.416  1.00  0.00     0.031 A 
ATOM     48  C   UNL A   1      44.587  30.469  31.440  1.00  0.00     0.049 A 
ATOM     49  C   UNL A   1      43.903  25.435  29.070  1.00  0.00     0.074 A 
ATOM     50  C   UNL A   1      45.797  30.700  32.071  1.00  0.00     0.029 A 
ATOM     51  N   UNL A   1      44.644  29.182  30.925  1.00  0.00    -0.354 N 
ATOM     52  N   UNL A   1      44.209  26.566  29.659  1.00  0.00    -0.248 NA
ATOM     53  C   UNL A   1      44.981  24.438  29.077  1.00  0.00     0.031 C 
ATOM     54  C   UNL A   1      46.607  29.575  31.883  1.00  0.00     0.029 A 
ATOM     55  C   UNL A   1      45.876  28.615  31.202  1.00  0.00     0.049 A 
ATOM     56  H   UNL A   1      43.914  28.737  30.435  1.00  0.00     0.167 HD
ATOM     57  C   UNL A   1      45.503  26.401  30.145  1.00  0.00     0.074 A 
ATOM     58  C   UNL A   1      45.914  25.059  29.786  1.00  0.00     0.031 C 
ATOM     59  C   UNL A   1      46.273  27.277  30.837  1.00  0.00     0.031 A 
BRANCH  46  60
ATOM     60  C   UNL A   1      43.586  32.765  31.834  1.00  0.00    -0.014 A 
ATOM     61  C   UNL A   1      43.240  33.091  33.158  1.00  0.00     0.010 A 
ATOM     62  C   UNL A   1      44.065  33.781  30.987  1.00  0.00     0.010 A 
ATOM     63  C   UNL A   1      43.312  34.412  33.606  1.00  0.00     0.020 A 
ATOM     64  C   UNL A   1      44.173  35.098  31.441  1.00  0.00     0.020 A 
ATOM     65  C   UNL A   1      43.772  35.410  32.742  1.00  0.00     0.054 A 
BRANCH  65  66
ATOM     66  S   UNL A   1      43.853  37.116  33.348  1.00  0.00     0.124 S 
ATOM     67  O   UNL A   1      45.131  37.122  34.058  1.00  0.00    -0.237 OA
ATOM     68  O   UNL A   1      43.817  37.896  32.115  1.00  0.00    -0.237 OA
ATOM     69  O   UNL A   1      42.671  37.241  34.197  1.00  0.00    -0.744 OA
ENDBRANCH  65  66
ENDBRANCH  46  60
BRANCH  47  70
ATOM     70  C   UNL A   1      42.442  23.667  27.832  1.00  0.00    -0.014 A 
ATOM     71  C   UNL A   1      42.752  23.432  26.480  1.00  0.00     0.010 A 
ATOM     72  C   UNL A   1      41.992  22.596  28.624  1.00  0.00     0.010 A 
ATOM     73  C   UNL A   1      42.602  22.158  25.927  1.00  0.00     0.020 A 
ATOM     74  C   UNL A   1      41.868  21.312  28.083  1.00  0.00     0.020 A 
ATOM     75  C   UNL A   1      42.166  21.104  26.735  1.00  0.00     0.054 A 
BRANCH  75  76
ATOM     76  S   UNL A   1      42.037  19.445  26.010  1.00  0.00     0.124 S 
ATOM     77  O   UNL A   1      42.879  19.565  24.825  1.00  0.00    -0.237 OA
ATOM     78  O   UNL A   1      42.562  18.596  27.077  1.00  0.00    -0.237 OA
ATOM     79  O   UNL A   1      40.607  19.295  25.751  1.00  0.00    -0.744 OA
ENDBRANCH  75  76
ENDBRANCH  47  70
BRANCH  59  80
ATOM     80  C   UNL A   1      47.622  26.795  31.308  1.00  0.00    -0.014 A 
ATOM     81  C   UNL A   1      48.815  27.216  30.696  1.00  0.00     0.010 A 
ATOM     82  C   UNL A   1      47.690  25.928  32.415  1.00  0.00     0.010 A 
ATOM     83  C   UNL A   1      50.048  26.740  31.151  1.00  0.00     0.020 A 
ATOM     84  C   UNL A   1      48.922  25.479  32.895  1.00  0.00     0.020 A 
ATOM     85  C   UNL A   1      50.093  25.873  32.247  1.00  0.00     0.054 A 
BRANCH  85  86
ATOM     86  S   UNL A   1      51.705  25.288  32.835  1.00  0.00     0.124 S 
ATOM     87  O   UNL A   1      51.383  23.952  33.329  1.00  0.00    -0.237 OA
ATOM     88  O   UNL A   1      52.522  25.330  31.624  1.00  0.00    -0.237 OA
ATOM     89  O   UNL A   1      52.076  26.261  33.861  1.00  0.00    -0.744 OA
ENDBRANCH  85  86
ENDBRANCH  59  80
ENDBRANCH  33  34
ENDBRANCH  25  28
ENDBRANCH  23  24
ENDBRANCH   1  23
TORSDOF 16
ENDMDL
