MODEL 1
REMARK VINA RESULT:     -10.2      0.000      0.000
REMARK SMILES CCC(CC)(CC(=O)Nc1cccc(OC)c1)C(=O)NCCCCNC(=O)c1ccc(-c2c3nc(c(-c4ccc(S(=O)(=O)[O-])cc4)c4ccc([nH]4)c(-c4ccc(S(=O)(=O)[O-])cc4)c4nc(c(-c5ccc(S(=O)(=O)[O-])cc5)c5ccc2[nH]5)C=C4)C=C3)cc1
REMARK SMILES IDX 22 1 21 2 20 3 18 4 19 5 3 7 2 8 1 9 4 10 5 11 6 12 7 13
REMARK SMILES IDX 8 14 9 15 10 17 11 18 17 19 12 20 14 21 13 22 15 23 16 24
REMARK SMILES IDX 23 25 24 26 25 27 26 28 27 30 28 31 29 32 87 33 30 34 86 35
REMARK SMILES IDX 31 36 32 37 33 38 80 39 34 40 85 41 79 42 81 43 35 44 84 45
REMARK SMILES IDX 78 46 77 47 36 49 66 50 47 51 65 52 48 53 51 54 64 55 82 56
REMARK SMILES IDX 49 57 50 58 63 60 83 61 52 62 37 63 38 64 46 65 39 66 45 67
REMARK SMILES IDX 40 68 41 69 42 70 43 71 44 72 67 73 68 74 76 75 69 76 75 77
REMARK SMILES IDX 70 78 71 79 72 80 73 81 74 82 53 83 54 84 62 85 55 86 61 87
REMARK SMILES IDX 56 88 57 89 58 90 59 91 60 92
REMARK H PARENT 20 6 9 16 25 29 81 48 51 59
REMARK Flexibility Score: inf
ROOT
ATOM      1  C   UNL A   1      38.999  22.906  26.312  1.00  0.00     0.023 C 
ENDROOT
BRANCH   1   2
ATOM      2  C   UNL A   1      37.594  23.392  25.968  1.00  0.00     0.116 C 
BRANCH   2   3
ATOM      3  N   UNL A   1      37.459  23.565  24.539  1.00  0.00    -0.356 N 
ATOM      4  C   UNL A   1      36.432  23.322  23.701  1.00  0.00     0.226 C 
ATOM      5  O   UNL A   1      36.758  23.021  22.549  1.00  0.00    -0.274 OA
ATOM      6  H   UNL A   1      38.262  23.924  24.099  1.00  0.00     0.163 HD
BRANCH   4   7
ATOM      7  C   UNL A   1      34.953  23.456  24.113  1.00  0.00     0.057 C 
BRANCH   7   8
ATOM      8  C   UNL A   1      34.985  24.141  25.505  1.00  0.00     0.014 C 
ATOM      9  C   UNL A   1      34.265  25.476  25.689  1.00  0.00     0.005 C 
ENDBRANCH   7   8
BRANCH   7  10
ATOM     10  C   UNL A   1      34.222  22.075  24.272  1.00  0.00     0.014 C 
ATOM     11  C   UNL A   1      34.641  21.228  25.473  1.00  0.00     0.005 C 
ENDBRANCH   7  10
BRANCH   7  12
ATOM     12  C   UNL A   1      34.188  24.377  23.117  1.00  0.00     0.117 C 
BRANCH  12  13
ATOM     13  C   UNL A   1      33.110  23.764  22.225  1.00  0.00     0.225 C 
ATOM     14  O   UNL A   1      33.423  23.173  21.189  1.00  0.00    -0.275 OA
ATOM     15  N   UNL A   1      31.799  23.699  22.649  1.00  0.00    -0.326 N 
ATOM     16  H   UNL A   1      31.190  23.188  22.069  1.00  0.00     0.169 HD
BRANCH  15  17
ATOM     17  C   UNL A   1      31.213  24.262  23.793  1.00  0.00     0.044 A 
ATOM     18  C   UNL A   1      30.676  25.547  23.731  1.00  0.00     0.026 A 
ATOM     19  C   UNL A   1      31.236  23.597  25.017  1.00  0.00     0.072 A 
ATOM     20  C   UNL A   1      30.054  26.101  24.857  1.00  0.00     0.006 A 
ATOM     21  C   UNL A   1      30.553  24.117  26.115  1.00  0.00     0.120 A 
ATOM     22  C   UNL A   1      29.971  25.375  26.046  1.00  0.00     0.046 A 
BRANCH  21  23
ATOM     23  O   UNL A   1      30.489  23.421  27.290  1.00  0.00    -0.497 OA
ATOM     24  C   UNL A   1      29.234  22.743  27.418  1.00  0.00     0.278 C 
ENDBRANCH  21  23
ENDBRANCH  15  17
ENDBRANCH  12  13
ENDBRANCH   7  12
ENDBRANCH   4   7
ENDBRANCH   2   3
ENDBRANCH   1   2
BRANCH   1  25
ATOM     25  C   UNL A   1      39.335  21.489  25.833  1.00  0.00     0.023 C 
BRANCH  25  26
ATOM     26  C   UNL A   1      40.083  20.611  26.830  1.00  0.00     0.116 C 
BRANCH  26  27
ATOM     27  N   UNL A   1      40.977  19.662  26.192  1.00  0.00    -0.352 N 
ATOM     28  C   UNL A   1      42.281  19.842  25.796  1.00  0.00     0.251 C 
ATOM     29  H   UNL A   1      40.598  18.769  26.019  1.00  0.00     0.163 HD
ATOM     30  O   UNL A   1      42.869  18.965  25.183  1.00  0.00    -0.269 OA
BRANCH  28  31
ATOM     31  C   UNL A   1      42.943  21.130  26.087  1.00  0.00     0.039 A 
ATOM     32  C   UNL A   1      43.212  21.996  25.026  1.00  0.00     0.014 A 
ATOM     33  C   UNL A   1      43.243  21.497  27.402  1.00  0.00     0.014 A 
ATOM     34  C   UNL A   1      43.728  23.265  25.291  1.00  0.00     0.010 A 
ATOM     35  C   UNL A   1      43.695  22.786  27.668  1.00  0.00     0.010 A 
ATOM     36  C   UNL A   1      43.941  23.682  26.615  1.00  0.00    -0.014 A 
BRANCH  36  37
ATOM     37  C   UNL A   1      44.423  25.053  26.915  1.00  0.00     0.031 A 
ATOM     38  C   UNL A   1      43.461  26.094  27.414  1.00  0.00     0.074 A 
ATOM     39  C   UNL A   1      45.713  25.371  26.686  1.00  0.00     0.049 A 
ATOM     40  N   UNL A   1      43.680  27.354  27.689  1.00  0.00    -0.248 NA
ATOM     41  C   UNL A   1      42.064  25.671  27.605  1.00  0.00     0.031 C 
ATOM     42  C   UNL A   1      46.732  24.460  26.160  1.00  0.00     0.029 A 
ATOM     43  N   UNL A   1      46.387  26.554  26.863  1.00  0.00    -0.354 N 
ATOM     44  C   UNL A   1      42.450  27.877  28.068  1.00  0.00     0.074 A 
ATOM     45  C   UNL A   1      41.480  26.812  27.940  1.00  0.00     0.031 C 
ATOM     46  C   UNL A   1      47.905  25.109  26.079  1.00  0.00     0.029 A 
ATOM     47  C   UNL A   1      47.716  26.490  26.514  1.00  0.00     0.049 A 
ATOM     48  H   UNL A   1      45.959  27.372  27.207  1.00  0.00     0.167 HD
ATOM     49  C   UNL A   1      42.157  29.125  28.506  1.00  0.00     0.031 A 
ATOM     50  C   UNL A   1      48.673  27.437  26.538  1.00  0.00     0.031 A 
ATOM     51  C   UNL A   1      43.128  30.178  28.641  1.00  0.00     0.049 A 
ATOM     52  C   UNL A   1      48.326  28.815  27.032  1.00  0.00     0.074 A 
ATOM     53  C   UNL A   1      42.944  31.462  29.122  1.00  0.00     0.029 A 
ATOM     54  N   UNL A   1      44.467  30.067  28.298  1.00  0.00    -0.354 N 
ATOM     55  N   UNL A   1      47.169  29.272  27.448  1.00  0.00    -0.248 NA
ATOM     56  C   UNL A   1      49.416  29.799  27.074  1.00  0.00     0.031 C 
ATOM     57  C   UNL A   1      44.163  32.141  29.030  1.00  0.00     0.029 A 
ATOM     58  C   UNL A   1      45.118  31.264  28.540  1.00  0.00     0.049 A 
ATOM     59  H   UNL A   1      44.892  29.256  27.935  1.00  0.00     0.167 HD
ATOM     60  C   UNL A   1      47.397  30.591  27.823  1.00  0.00     0.074 A 
ATOM     61  C   UNL A   1      48.804  30.853  27.599  1.00  0.00     0.031 C 
ATOM     62  C   UNL A   1      46.521  31.504  28.311  1.00  0.00     0.031 A 
BRANCH  49  63
ATOM     63  C   UNL A   1      40.724  29.414  28.865  1.00  0.00    -0.014 A 
ATOM     64  C   UNL A   1      39.758  29.637  27.865  1.00  0.00     0.010 A 
ATOM     65  C   UNL A   1      40.330  29.443  30.214  1.00  0.00     0.010 A 
ATOM     66  C   UNL A   1      38.437  29.931  28.209  1.00  0.00     0.020 A 
ATOM     67  C   UNL A   1      39.002  29.709  30.562  1.00  0.00     0.020 A 
ATOM     68  C   UNL A   1      38.069  29.971  29.557  1.00  0.00     0.054 A 
BRANCH  68  69
ATOM     69  S   UNL A   1      36.343  30.343  29.976  1.00  0.00     0.124 S 
ATOM     70  O   UNL A   1      35.627  29.764  28.843  1.00  0.00    -0.237 OA
ATOM     71  O   UNL A   1      36.166  29.652  31.250  1.00  0.00    -0.237 OA
ATOM     72  O   UNL A   1      36.312  31.802  30.052  1.00  0.00    -0.744 OA
ENDBRANCH  68  69
ENDBRANCH  49  63
BRANCH  50  73
ATOM     73  C   UNL A   1      50.057  27.106  26.100  1.00  0.00    -0.014 A 
ATOM     74  C   UNL A   1      51.040  26.762  27.043  1.00  0.00     0.010 A 
ATOM     75  C   UNL A   1      50.391  27.113  24.734  1.00  0.00     0.010 A 
ATOM     76  C   UNL A   1      52.339  26.448  26.630  1.00  0.00     0.020 A 
ATOM     77  C   UNL A   1      51.681  26.775  24.315  1.00  0.00     0.020 A 
ATOM     78  C   UNL A   1      52.651  26.455  25.267  1.00  0.00     0.054 A 
BRANCH  78  79
ATOM     79  S   UNL A   1      54.327  25.991  24.751  1.00  0.00     0.124 S 
ATOM     80  O   UNL A   1      55.150  26.654  25.759  1.00  0.00    -0.237 OA
ATOM     81  O   UNL A   1      54.290  24.533  24.826  1.00  0.00    -0.237 OA
ATOM     82  O   UNL A   1      54.431  26.535  23.400  1.00  0.00    -0.744 OA
ENDBRANCH  78  79
ENDBRANCH  50  73
BRANCH  62  83
ATOM     83  C   UNL A   1      47.062  32.863  28.664  1.00  0.00    -0.014 A 
ATOM     84  C   UNL A   1      47.630  33.116  29.925  1.00  0.00     0.010 A 
ATOM     85  C   UNL A   1      47.052  33.884  27.697  1.00  0.00     0.010 A 
ATOM     86  C   UNL A   1      48.153  34.377  30.223  1.00  0.00     0.020 A 
ATOM     87  C   UNL A   1      47.598  35.139  27.982  1.00  0.00     0.020 A 
ATOM     88  C   UNL A   1      48.134  35.380  29.249  1.00  0.00     0.054 A 
BRANCH  88  89
ATOM     89  S   UNL A   1      48.863  36.994  29.642  1.00  0.00     0.124 S 
ATOM     90  O   UNL A   1      47.760  37.904  29.349  1.00  0.00    -0.237 OA
ATOM     91  O   UNL A   1      49.205  36.855  31.056  1.00  0.00    -0.237 OA
ATOM     92  O   UNL A   1      50.006  37.086  28.737  1.00  0.00    -0.744 OA
ENDBRANCH  88  89
ENDBRANCH  62  83
ENDBRANCH  36  37
ENDBRANCH  28  31
ENDBRANCH  26  27
ENDBRANCH  25  26
ENDBRANCH   1  25
TORSDOF 20
ENDMDL
MODEL 2
REMARK VINA RESULT:     -10.2      1.378      2.353
REMARK SMILES CCC(CC)(CC(=O)Nc1cccc(OC)c1)C(=O)NCCCCNC(=O)c1ccc(-c2c3nc(c(-c4ccc(S(=O)(=O)[O-])cc4)c4ccc([nH]4)c(-c4ccc(S(=O)(=O)[O-])cc4)c4nc(c(-c5ccc(S(=O)(=O)[O-])cc5)c5ccc2[nH]5)C=C4)C=C3)cc1
REMARK SMILES IDX 22 1 21 2 20 3 18 4 19 5 3 7 2 8 1 9 4 10 5 11 6 12 7 13
REMARK SMILES IDX 8 14 9 15 10 17 11 18 17 19 12 20 14 21 13 22 15 23 16 24
REMARK SMILES IDX 23 25 24 26 25 27 26 28 27 30 28 31 29 32 87 33 30 34 86 35
REMARK SMILES IDX 31 36 32 37 33 38 80 39 34 40 85 41 79 42 81 43 35 44 84 45
REMARK SMILES IDX 78 46 77 47 36 49 66 50 47 51 65 52 48 53 51 54 64 55 82 56
REMARK SMILES IDX 49 57 50 58 63 60 83 61 52 62 37 63 38 64 46 65 39 66 45 67
REMARK SMILES IDX 40 68 41 69 42 70 43 71 44 72 67 73 68 74 76 75 69 76 75 77
REMARK SMILES IDX 70 78 71 79 72 80 73 81 74 82 53 83 54 84 62 85 55 86 61 87
REMARK SMILES IDX 56 88 57 89 58 90 59 91 60 92
REMARK H PARENT 20 6 9 16 25 29 81 48 51 59
REMARK Flexibility Score: inf
ROOT
ATOM      1  C   UNL A   1      37.363  21.986  24.184  1.00  0.00     0.023 C 
ENDROOT
BRANCH   1   2
ATOM      2  C   UNL A   1      36.259  23.008  24.438  1.00  0.00     0.116 C 
BRANCH   2   3
ATOM      3  N   UNL A   1      35.026  22.580  23.819  1.00  0.00    -0.356 N 
ATOM      4  C   UNL A   1      33.747  22.622  24.246  1.00  0.00     0.226 C 
ATOM      5  O   UNL A   1      33.022  21.723  23.810  1.00  0.00    -0.274 OA
ATOM      6  H   UNL A   1      35.139  22.187  22.925  1.00  0.00     0.163 HD
BRANCH   4   7
ATOM      7  C   UNL A   1      33.198  23.730  25.165  1.00  0.00     0.057 C 
BRANCH   7   8
ATOM      8  C   UNL A   1      33.665  25.059  24.514  1.00  0.00     0.014 C 
ATOM      9  C   UNL A   1      33.210  25.387  23.093  1.00  0.00     0.005 C 
ENDBRANCH   7   8
BRANCH   7  10
ATOM     10  C   UNL A   1      33.779  23.676  26.623  1.00  0.00     0.014 C 
ATOM     11  C   UNL A   1      34.043  22.282  27.190  1.00  0.00     0.005 C 
ENDBRANCH   7  10
BRANCH   7  12
ATOM     12  C   UNL A   1      31.641  23.702  25.187  1.00  0.00     0.117 C 
BRANCH  12  13
ATOM     13  C   UNL A   1      30.913  24.176  26.444  1.00  0.00     0.225 C 
ATOM     14  O   UNL A   1      30.771  23.416  27.404  1.00  0.00    -0.275 OA
ATOM     15  N   UNL A   1      30.569  25.503  26.599  1.00  0.00    -0.326 N 
ATOM     16  H   UNL A   1      30.208  25.747  27.482  1.00  0.00     0.169 HD
BRANCH  15  17
ATOM     17  C   UNL A   1      30.659  26.552  25.672  1.00  0.00     0.044 A 
ATOM     18  C   UNL A   1      29.922  26.493  24.489  1.00  0.00     0.026 A 
ATOM     19  C   UNL A   1      31.540  27.614  25.867  1.00  0.00     0.072 A 
ATOM     20  C   UNL A   1      29.977  27.554  23.577  1.00  0.00     0.006 A 
ATOM     21  C   UNL A   1      31.538  28.702  24.996  1.00  0.00     0.120 A 
ATOM     22  C   UNL A   1      30.768  28.673  23.841  1.00  0.00     0.046 A 
BRANCH  21  23
ATOM     23  O   UNL A   1      32.330  29.790  25.237  1.00  0.00    -0.497 OA
ATOM     24  C   UNL A   1      33.227  29.541  26.325  1.00  0.00     0.278 C 
ENDBRANCH  21  23
ENDBRANCH  15  17
ENDBRANCH  12  13
ENDBRANCH   7  12
ENDBRANCH   4   7
ENDBRANCH   2   3
ENDBRANCH   1   2
BRANCH   1  25
ATOM     25  C   UNL A   1      37.691  21.072  25.370  1.00  0.00     0.023 C 
BRANCH  25  26
ATOM     26  C   UNL A   1      39.059  21.281  26.009  1.00  0.00     0.116 C 
BRANCH  26  27
ATOM     27  N   UNL A   1      39.885  20.087  25.986  1.00  0.00    -0.352 N 
ATOM     28  C   UNL A   1      41.248  19.981  26.137  1.00  0.00     0.251 C 
ATOM     29  H   UNL A   1      39.405  19.238  25.843  1.00  0.00     0.163 HD
ATOM     30  O   UNL A   1      41.805  18.904  25.996  1.00  0.00    -0.269 OA
BRANCH  28  31
ATOM     31  C   UNL A   1      42.030  21.201  26.427  1.00  0.00     0.039 A 
ATOM     32  C   UNL A   1      42.371  22.042  25.368  1.00  0.00     0.014 A 
ATOM     33  C   UNL A   1      42.370  21.533  27.742  1.00  0.00     0.014 A 
ATOM     34  C   UNL A   1      43.006  23.256  25.634  1.00  0.00     0.010 A 
ATOM     35  C   UNL A   1      42.942  22.773  28.009  1.00  0.00     0.010 A 
ATOM     36  C   UNL A   1      43.265  23.646  26.958  1.00  0.00    -0.014 A 
BRANCH  36  37
ATOM     37  C   UNL A   1      43.876  24.964  27.259  1.00  0.00     0.031 A 
ATOM     38  C   UNL A   1      43.021  26.086  27.778  1.00  0.00     0.074 A 
ATOM     39  C   UNL A   1      45.186  25.164  27.015  1.00  0.00     0.049 A 
ATOM     40  N   UNL A   1      43.358  27.319  28.057  1.00  0.00    -0.248 NA
ATOM     41  C   UNL A   1      41.593  25.792  27.986  1.00  0.00     0.031 C 
ATOM     42  C   UNL A   1      46.110  24.167  26.469  1.00  0.00     0.029 A 
ATOM     43  N   UNL A   1      45.968  26.279  27.189  1.00  0.00    -0.354 N 
ATOM     44  C   UNL A   1      42.187  27.949  28.457  1.00  0.00     0.074 A 
ATOM     45  C   UNL A   1      41.121  26.979  28.336  1.00  0.00     0.031 C 
ATOM     46  C   UNL A   1      47.336  24.706  26.376  1.00  0.00     0.029 A 
ATOM     47  C   UNL A   1      47.281  26.095  26.821  1.00  0.00     0.049 A 
ATOM     48  H   UNL A   1      45.623  27.130  27.544  1.00  0.00     0.167 HD
ATOM     49  C   UNL A   1      42.016  29.216  28.906  1.00  0.00     0.031 A 
ATOM     50  C   UNL A   1      48.321  26.950  26.838  1.00  0.00     0.031 A 
ATOM     51  C   UNL A   1      43.081  30.174  29.035  1.00  0.00     0.049 A 
ATOM     52  C   UNL A   1      48.110  28.350  27.345  1.00  0.00     0.074 A 
ATOM     53  C   UNL A   1      43.023  31.466  29.526  1.00  0.00     0.029 A 
ATOM     54  N   UNL A   1      44.399  29.943  28.671  1.00  0.00    -0.354 N 
ATOM     55  N   UNL A   1      47.006  28.909  27.780  1.00  0.00    -0.248 NA
ATOM     56  C   UNL A   1      49.287  29.229  27.377  1.00  0.00     0.031 C 
ATOM     57  C   UNL A   1      44.298  32.031  29.420  1.00  0.00     0.029 A 
ATOM     58  C   UNL A   1      45.162  31.073  28.912  1.00  0.00     0.049 A 
ATOM     59  H   UNL A   1      44.743  29.099  28.298  1.00  0.00     0.167 HD
ATOM     60  C   UNL A   1      47.359  30.198  28.160  1.00  0.00     0.074 A 
ATOM     61  C   UNL A   1      48.781  30.331  27.917  1.00  0.00     0.031 C 
ATOM     62  C   UNL A   1      46.577  31.184  28.664  1.00  0.00     0.031 A 
BRANCH  49  63
ATOM     63  C   UNL A   1      40.620  29.633  29.287  1.00  0.00    -0.014 A 
ATOM     64  C   UNL A   1      39.616  29.775  28.311  1.00  0.00     0.010 A 
ATOM     65  C   UNL A   1      40.301  29.866  30.636  1.00  0.00     0.010 A 
ATOM     66  C   UNL A   1      38.331  30.188  28.671  1.00  0.00     0.020 A 
ATOM     67  C   UNL A   1      39.007  30.253  31.004  1.00  0.00     0.020 A 
ATOM     68  C   UNL A   1      38.037  30.431  30.015  1.00  0.00     0.054 A 
BRANCH  68  69
ATOM     69  S   UNL A   1      36.358  30.955  30.457  1.00  0.00     0.124 S 
ATOM     70  O   UNL A   1      35.678  30.907  29.165  1.00  0.00    -0.237 OA
ATOM     71  O   UNL A   1      35.947  29.938  31.421  1.00  0.00    -0.237 OA
ATOM     72  O   UNL A   1      36.547  32.294  31.011  1.00  0.00    -0.744 OA
ENDBRANCH  68  69
ENDBRANCH  49  63
BRANCH  50  73
ATOM     73  C   UNL A   1      49.663  26.496  26.378  1.00  0.00    -0.014 A 
ATOM     74  C   UNL A   1      50.100  26.771  25.071  1.00  0.00     0.010 A 
ATOM     75  C   UNL A   1      50.518  25.803  27.254  1.00  0.00     0.010 A 
ATOM     76  C   UNL A   1      51.361  26.346  24.642  1.00  0.00     0.020 A 
ATOM     77  C   UNL A   1      51.790  25.400  26.837  1.00  0.00     0.020 A 
ATOM     78  C   UNL A   1      52.199  25.664  25.529  1.00  0.00     0.054 A 
BRANCH  78  79
ATOM     79  S   UNL A   1      53.852  25.171  24.966  1.00  0.00     0.124 S 
ATOM     80  O   UNL A   1      53.716  23.722  24.855  1.00  0.00    -0.237 OA
ATOM     81  O   UNL A   1      53.986  25.893  23.703  1.00  0.00    -0.237 OA
ATOM     82  O   UNL A   1      54.730  25.638  26.037  1.00  0.00    -0.744 OA
ENDBRANCH  78  79
ENDBRANCH  50  73
BRANCH  62  83
ATOM     83  C   UNL A   1      47.246  32.485  29.018  1.00  0.00    -0.014 A 
ATOM     84  C   UNL A   1      47.303  33.549  28.100  1.00  0.00     0.010 A 
ATOM     85  C   UNL A   1      47.774  32.663  30.309  1.00  0.00     0.010 A 
ATOM     86  C   UNL A   1      47.903  34.758  28.459  1.00  0.00     0.020 A 
ATOM     87  C   UNL A   1      48.351  33.880  30.681  1.00  0.00     0.020 A 
ATOM     88  C   UNL A   1      48.423  34.917  29.747  1.00  0.00     0.054 A 
BRANCH  88  89
ATOM     89  S   UNL A   1      49.153  36.513  30.205  1.00  0.00     0.124 S 
ATOM     90  O   UNL A   1      50.305  36.587  29.310  1.00  0.00    -0.237 OA
ATOM     91  O   UNL A   1      48.073  37.454  29.920  1.00  0.00    -0.237 OA
ATOM     92  O   UNL A   1      49.474  36.352  31.621  1.00  0.00    -0.744 OA
ENDBRANCH  88  89
ENDBRANCH  62  83
ENDBRANCH  36  37
ENDBRANCH  28  31
ENDBRANCH  26  27
ENDBRANCH  25  26
ENDBRANCH   1  25
TORSDOF 20
ENDMDL
MODEL 3
REMARK VINA RESULT:     -10.0      2.359      8.395
REMARK SMILES CCC(CC)(CC(=O)Nc1cccc(OC)c1)C(=O)NCCCCNC(=O)c1ccc(-c2c3nc(c(-c4ccc(S(=O)(=O)[O-])cc4)c4ccc([nH]4)c(-c4ccc(S(=O)(=O)[O-])cc4)c4nc(c(-c5ccc(S(=O)(=O)[O-])cc5)c5ccc2[nH]5)C=C4)C=C3)cc1
REMARK SMILES IDX 22 1 21 2 20 3 18 4 19 5 3 7 2 8 1 9 4 10 5 11 6 12 7 13
REMARK SMILES IDX 8 14 9 15 10 17 11 18 17 19 12 20 14 21 13 22 15 23 16 24
REMARK SMILES IDX 23 25 24 26 25 27 26 28 27 30 28 31 29 32 87 33 30 34 86 35
REMARK SMILES IDX 31 36 32 37 33 38 80 39 34 40 85 41 79 42 81 43 35 44 84 45
REMARK SMILES IDX 78 46 77 47 36 49 66 50 47 51 65 52 48 53 51 54 64 55 82 56
REMARK SMILES IDX 49 57 50 58 63 60 83 61 52 62 37 63 38 64 46 65 39 66 45 67
REMARK SMILES IDX 40 68 41 69 42 70 43 71 44 72 67 73 68 74 76 75 69 76 75 77
REMARK SMILES IDX 70 78 71 79 72 80 73 81 74 82 53 83 54 84 62 85 55 86 61 87
REMARK SMILES IDX 56 88 57 89 58 90 59 91 60 92
REMARK H PARENT 20 6 9 16 25 29 81 48 51 59
REMARK Flexibility Score: inf
ROOT
ATOM      1  C   UNL A   1      33.321  29.320  26.771  1.00  0.00     0.023 C 
ENDROOT
BRANCH   1   2
ATOM      2  C   UNL A   1      32.274  28.300  27.207  1.00  0.00     0.116 C 
BRANCH   2   3
ATOM      3  N   UNL A   1      31.294  28.109  26.163  1.00  0.00    -0.356 N 
ATOM      4  C   UNL A   1      31.347  27.435  24.996  1.00  0.00     0.226 C 
ATOM      5  O   UNL A   1      30.636  27.892  24.096  1.00  0.00    -0.274 OA
ATOM      6  H   UNL A   1      30.432  28.551  26.333  1.00  0.00     0.163 HD
BRANCH   4   7
ATOM      7  C   UNL A   1      32.182  26.156  24.795  1.00  0.00     0.057 C 
BRANCH   7   8
ATOM      8  C   UNL A   1      32.307  25.531  26.211  1.00  0.00     0.014 C 
ATOM      9  C   UNL A   1      33.185  24.295  26.399  1.00  0.00     0.005 C 
ENDBRANCH   7   8
BRANCH   7  10
ATOM     10  C   UNL A   1      33.633  26.436  24.263  1.00  0.00     0.014 C 
ATOM     11  C   UNL A   1      33.841  27.773  23.552  1.00  0.00     0.005 C 
ENDBRANCH   7  10
BRANCH   7  12
ATOM     12  C   UNL A   1      31.435  25.152  23.869  1.00  0.00     0.117 C 
BRANCH  12  13
ATOM     13  C   UNL A   1      31.934  24.960  22.437  1.00  0.00     0.225 C 
ATOM     14  O   UNL A   1      31.655  25.786  21.565  1.00  0.00    -0.275 OA
ATOM     15  N   UNL A   1      32.847  23.970  22.138  1.00  0.00    -0.326 N 
ATOM     16  H   UNL A   1      33.204  23.985  21.221  1.00  0.00     0.169 HD
BRANCH  15  17
ATOM     17  C   UNL A   1      33.335  22.943  22.960  1.00  0.00     0.044 A 
ATOM     18  C   UNL A   1      34.648  22.999  23.426  1.00  0.00     0.026 A 
ATOM     19  C   UNL A   1      32.562  21.820  23.248  1.00  0.00     0.072 A 
ATOM     20  C   UNL A   1      35.131  21.998  24.279  1.00  0.00     0.006 A 
ATOM     21  C   UNL A   1      33.018  20.864  24.155  1.00  0.00     0.120 A 
ATOM     22  C   UNL A   1      34.306  20.940  24.664  1.00  0.00     0.046 A 
BRANCH  21  23
ATOM     23  O   UNL A   1      32.223  19.812  24.517  1.00  0.00    -0.497 OA
ATOM     24  C   UNL A   1      32.164  18.831  23.475  1.00  0.00     0.278 C 
ENDBRANCH  21  23
ENDBRANCH  15  17
ENDBRANCH  12  13
ENDBRANCH   7  12
ENDBRANCH   4   7
ENDBRANCH   2   3
ENDBRANCH   1   2
BRANCH   1  25
ATOM     25  C   UNL A   1      34.778  28.877  26.951  1.00  0.00     0.023 C 
BRANCH  25  26
ATOM     26  C   UNL A   1      35.682  29.854  27.694  1.00  0.00     0.116 C 
BRANCH  26  27
ATOM     27  N   UNL A   1      35.529  29.785  29.136  1.00  0.00    -0.352 N 
ATOM     28  C   UNL A   1      36.497  29.595  30.094  1.00  0.00     0.251 C 
ATOM     29  H   UNL A   1      34.610  29.889  29.473  1.00  0.00     0.163 HD
ATOM     30  O   UNL A   1      36.188  29.466  31.269  1.00  0.00    -0.269 OA
BRANCH  28  31
ATOM     31  C   UNL A   1      37.910  29.504  29.673  1.00  0.00     0.039 A 
ATOM     32  C   UNL A   1      38.884  29.288  30.649  1.00  0.00     0.014 A 
ATOM     33  C   UNL A   1      38.257  29.577  28.321  1.00  0.00     0.014 A 
ATOM     34  C   UNL A   1      40.208  29.082  30.261  1.00  0.00     0.010 A 
ATOM     35  C   UNL A   1      39.565  29.305  27.933  1.00  0.00     0.010 A 
ATOM     36  C   UNL A   1      40.553  29.056  28.900  1.00  0.00    -0.014 A 
BRANCH  36  37
ATOM     37  C   UNL A   1      41.944  28.768  28.470  1.00  0.00     0.031 A 
ATOM     38  C   UNL A   1      42.327  27.378  28.047  1.00  0.00     0.074 A 
ATOM     39  C   UNL A   1      42.871  29.746  28.514  1.00  0.00     0.049 A 
ATOM     40  N   UNL A   1      43.497  26.920  27.683  1.00  0.00    -0.248 NA
ATOM     41  C   UNL A   1      41.261  26.362  28.059  1.00  0.00     0.031 C 
ATOM     42  C   UNL A   1      42.632  31.123  28.950  1.00  0.00     0.029 A 
ATOM     43  N   UNL A   1      44.205  29.728  28.192  1.00  0.00    -0.354 N 
ATOM     44  C   UNL A   1      43.312  25.565  27.439  1.00  0.00     0.074 A 
ATOM     45  C   UNL A   1      41.931  25.263  27.745  1.00  0.00     0.031 C 
ATOM     46  C   UNL A   1      43.773  31.824  28.845  1.00  0.00     0.029 A 
ATOM     47  C   UNL A   1      44.832  30.939  28.369  1.00  0.00     0.049 A 
ATOM     48  H   UNL A   1      44.670  28.924  27.865  1.00  0.00     0.167 HD
ATOM     49  C   UNL A   1      44.206  24.656  26.980  1.00  0.00     0.031 A 
ATOM     50  C   UNL A   1      46.116  31.297  28.173  1.00  0.00     0.031 A 
ATOM     51  C   UNL A   1      45.576  24.962  26.666  1.00  0.00     0.049 A 
ATOM     52  C   UNL A   1      47.090  30.272  27.658  1.00  0.00     0.074 A 
ATOM     53  C   UNL A   1      46.549  24.126  26.148  1.00  0.00     0.029 A 
ATOM     54  N   UNL A   1      46.166  26.205  26.840  1.00  0.00    -0.354 N 
ATOM     55  N   UNL A   1      46.880  29.009  27.372  1.00  0.00    -0.248 NA
ATOM     56  C   UNL A   1      48.468  30.725  27.426  1.00  0.00     0.031 C 
ATOM     57  C   UNL A   1      47.740  24.853  26.048  1.00  0.00     0.029 A 
ATOM     58  C   UNL A   1      47.495  26.156  26.454  1.00  0.00     0.049 A 
ATOM     59  H   UNL A   1      45.709  27.005  27.186  1.00  0.00     0.167 HD
ATOM     60  C   UNL A   1      48.094  28.522  26.904  1.00  0.00     0.074 A 
ATOM     61  C   UNL A   1      49.029  29.628  26.931  1.00  0.00     0.031 C 
ATOM     62  C   UNL A   1      48.408  27.270  26.488  1.00  0.00     0.031 A 
BRANCH  49  63
ATOM     63  C   UNL A   1      43.722  23.242  26.795  1.00  0.00    -0.014 A 
ATOM     64  C   UNL A   1      43.136  22.533  27.859  1.00  0.00     0.010 A 
ATOM     65  C   UNL A   1      43.834  22.621  25.539  1.00  0.00     0.010 A 
ATOM     66  C   UNL A   1      42.715  21.213  27.684  1.00  0.00     0.020 A 
ATOM     67  C   UNL A   1      43.388  21.308  25.352  1.00  0.00     0.020 A 
ATOM     68  C   UNL A   1      42.849  20.606  26.433  1.00  0.00     0.054 A 
BRANCH  68  69
ATOM     69  S   UNL A   1      42.284  18.895  26.230  1.00  0.00     0.124 S 
ATOM     70  O   UNL A   1      40.907  19.085  25.780  1.00  0.00    -0.237 OA
ATOM     71  O   UNL A   1      43.205  18.369  25.225  1.00  0.00    -0.237 OA
ATOM     72  O   UNL A   1      42.429  18.320  27.565  1.00  0.00    -0.744 OA
ENDBRANCH  68  69
ENDBRANCH  49  63
BRANCH  50  73
ATOM     73  C   UNL A   1      46.547  32.696  28.445  1.00  0.00    -0.014 A 
ATOM     74  C   UNL A   1      47.041  33.056  29.711  1.00  0.00     0.010 A 
ATOM     75  C   UNL A   1      46.486  33.669  27.432  1.00  0.00     0.010 A 
ATOM     76  C   UNL A   1      47.448  34.369  29.964  1.00  0.00     0.020 A 
ATOM     77  C   UNL A   1      46.916  34.977  27.674  1.00  0.00     0.020 A 
ATOM     78  C   UNL A   1      47.385  35.322  28.943  1.00  0.00     0.054 A 
BRANCH  78  79
ATOM     79  S   UNL A   1      47.970  37.006  29.280  1.00  0.00     0.124 S 
ATOM     80  O   UNL A   1      48.149  37.540  27.933  1.00  0.00    -0.237 OA
ATOM     81  O   UNL A   1      46.866  37.578  30.045  1.00  0.00    -0.237 OA
ATOM     82  O   UNL A   1      49.200  36.794  30.039  1.00  0.00    -0.744 OA
ENDBRANCH  78  79
ENDBRANCH  50  73
BRANCH  62  83
ATOM     83  C   UNL A   1      49.812  27.035  25.999  1.00  0.00    -0.014 A 
ATOM     84  C   UNL A   1      50.839  26.661  26.885  1.00  0.00     0.010 A 
ATOM     85  C   UNL A   1      50.092  27.135  24.625  1.00  0.00     0.010 A 
ATOM     86  C   UNL A   1      52.129  26.419  26.405  1.00  0.00     0.020 A 
ATOM     87  C   UNL A   1      51.374  26.868  24.138  1.00  0.00     0.020 A 
ATOM     88  C   UNL A   1      52.389  26.524  25.035  1.00  0.00     0.054 A 
BRANCH  88  89
ATOM     89  S   UNL A   1      54.059  26.158  24.431  1.00  0.00     0.124 S 
ATOM     90  O   UNL A   1      54.873  27.091  25.206  1.00  0.00    -0.237 OA
ATOM     91  O   UNL A   1      54.223  24.747  24.774  1.00  0.00    -0.237 OA
ATOM     92  O   UNL A   1      53.979  26.441  23.000  1.00  0.00    -0.744 OA
ENDBRANCH  88  89
ENDBRANCH  62  83
ENDBRANCH  36  37
ENDBRANCH  28  31
ENDBRANCH  26  27
ENDBRANCH  25  26
ENDBRANCH   1  25
TORSDOF 20
ENDMDL
