MODEL 1
REMARK VINA RESULT:     -11.9      0.000      0.000
REMARK SMILES O=C(NCCCCNC(=O)c1ccc(-c2c3nc(c(-c4ccc(S(=O)(=O)[O-])cc4)c4ccc([nH]4)c(-c4ccc(S(=O)(=O)[O-])cc4)c4nc(c(-c5ccc(S(=O)(=O)[O-])cc5)c5ccc2[nH]5)C=C4)C=C3)cc1)C1=Cc2cc(Cl)c(Cl)c(Cl)c2O[C@@H]1C(F)(F)F
REMARK SMILES IDX 6 1 5 2 4 3 3 4 1 5 2 6 71 8 72 9 83 10 73 11 82 12 74 13
REMARK SMILES IDX 81 14 75 15 79 16 76 17 77 18 80 19 78 20 84 21 85 22 86 23
REMARK SMILES IDX 87 24 7 25 8 26 9 27 10 29 11 30 12 31 70 32 13 33 69 34
REMARK SMILES IDX 14 35 15 36 16 37 63 38 17 39 68 40 62 41 64 42 18 43 67 44
REMARK SMILES IDX 61 45 60 46 19 48 49 49 30 50 48 51 31 52 34 53 47 54 65 55
REMARK SMILES IDX 32 56 33 57 46 59 66 60 35 61 20 62 21 63 29 64 22 65 28 66
REMARK SMILES IDX 23 67 24 68 25 69 26 70 27 71 50 72 51 73 59 74 52 75 58 76
REMARK SMILES IDX 53 77 54 78 55 79 56 80 57 81 36 82 37 83 45 84 38 85 44 86
REMARK SMILES IDX 39 87 40 88 41 89 42 90 43 91
REMARK H PARENT 3 7 8 28 64 47 34 58
REMARK Flexibility Score: inf
ROOT
ATOM      1  C   UNL A   1      32.460  28.325  26.200  1.00  0.00     0.023 C 
ENDROOT
BRANCH   1   2
ATOM      2  C   UNL A   1      31.332  27.488  26.804  1.00  0.00     0.023 C 
BRANCH   2   3
ATOM      3  C   UNL A   1      31.104  26.142  26.114  1.00  0.00     0.116 C 
BRANCH   3   4
ATOM      4  N   UNL A   1      31.231  24.990  27.009  1.00  0.00    -0.352 N 
ATOM      5  O   UNL A   1      32.169  23.092  27.836  1.00  0.00    -0.270 OA
ATOM      6  C   UNL A   1      32.001  23.854  26.892  1.00  0.00     0.251 C 
ATOM      7  H   UNL A   1      30.680  25.034  27.824  1.00  0.00     0.163 HD
BRANCH   6   8
ATOM      8  C   UNL A   1      32.710  23.632  25.617  1.00  0.00     0.067 C 
ATOM      9  C   UNL A   1      33.980  24.040  25.502  1.00  0.00     0.025 C 
ATOM     10  C   UNL A   1      32.101  22.663  24.653  1.00  0.00     0.314 C 
ATOM     11  C   UNL A   1      34.861  22.974  24.991  1.00  0.00     0.020 A 
ATOM     12  O   UNL A   1      32.970  21.529  24.432  1.00  0.00    -0.474 OA
ATOM     13  C   UNL A   1      36.219  23.073  25.307  1.00  0.00     0.034 A 
ATOM     14  C   UNL A   1      34.322  21.721  24.633  1.00  0.00     0.148 A 
ATOM     15  C   UNL A   1      37.012  21.923  25.362  1.00  0.00     0.062 A 
ATOM     16  C   UNL A   1      35.131  20.570  24.654  1.00  0.00     0.103 A 
ATOM     17  Cl  UNL A   1      38.627  22.128  25.949  1.00  0.00    -0.083 Cl
ATOM     18  C   UNL A   1      36.475  20.664  25.050  1.00  0.00     0.082 A 
ATOM     19  Cl  UNL A   1      34.396  19.027  24.327  1.00  0.00    -0.079 Cl
ATOM     20  Cl  UNL A   1      37.442  19.236  25.234  1.00  0.00    -0.081 Cl
BRANCH  10  21
ATOM     21  C   UNL A   1      31.738  23.341  23.320  1.00  0.00     0.429 C 
ATOM     22  F   UNL A   1      31.945  24.679  23.375  1.00  0.00    -0.167 F 
ATOM     23  F   UNL A   1      32.481  22.871  22.291  1.00  0.00    -0.167 F 
ATOM     24  F   UNL A   1      30.437  23.155  22.988  1.00  0.00    -0.167 F 
ENDBRANCH  10  21
ENDBRANCH   6   8
ENDBRANCH   3   4
ENDBRANCH   2   3
ENDBRANCH   1   2
BRANCH   1  25
ATOM     25  C   UNL A   1      33.613  28.685  27.136  1.00  0.00     0.116 C 
BRANCH  25  26
ATOM     26  N   UNL A   1      33.559  30.037  27.671  1.00  0.00    -0.352 N 
ATOM     27  C   UNL A   1      34.563  30.745  28.300  1.00  0.00     0.251 C 
ATOM     28  H   UNL A   1      32.699  30.507  27.571  1.00  0.00     0.163 HD
ATOM     29  O   UNL A   1      34.337  31.862  28.757  1.00  0.00    -0.269 OA
BRANCH  27  30
ATOM     30  C   UNL A   1      35.894  30.120  28.475  1.00  0.00     0.039 A 
ATOM     31  C   UNL A   1      36.811  30.178  27.422  1.00  0.00     0.014 A 
ATOM     32  C   UNL A   1      36.259  29.545  29.695  1.00  0.00     0.014 A 
ATOM     33  C   UNL A   1      38.122  29.741  27.624  1.00  0.00     0.010 A 
ATOM     34  C   UNL A   1      37.586  29.186  29.918  1.00  0.00     0.010 A 
ATOM     35  C   UNL A   1      38.534  29.283  28.887  1.00  0.00    -0.014 A 
BRANCH  35  36
ATOM     36  C   UNL A   1      39.944  28.889  29.144  1.00  0.00     0.031 A 
ATOM     37  C   UNL A   1      40.897  29.878  29.762  1.00  0.00     0.074 A 
ATOM     38  C   UNL A   1      40.382  27.668  28.774  1.00  0.00     0.049 A 
ATOM     39  N   UNL A   1      42.176  29.751  30.003  1.00  0.00    -0.248 NA
ATOM     40  C   UNL A   1      40.345  31.193  30.131  1.00  0.00     0.031 C 
ATOM     41  C   UNL A   1      39.575  26.636  28.118  1.00  0.00     0.029 A 
ATOM     42  N   UNL A   1      41.621  27.087  28.893  1.00  0.00    -0.354 N 
ATOM     43  C   UNL A   1      42.581  30.968  30.541  1.00  0.00     0.074 A 
ATOM     44  C   UNL A   1      41.429  31.840  30.533  1.00  0.00     0.031 C 
ATOM     45  C   UNL A   1      40.331  25.543  27.917  1.00  0.00     0.029 A 
ATOM     46  C   UNL A   1      41.683  25.803  28.400  1.00  0.00     0.049 A 
ATOM     47  H   UNL A   1      42.394  27.546  29.293  1.00  0.00     0.167 HD
ATOM     48  C   UNL A   1      43.796  31.320  31.027  1.00  0.00     0.031 A 
ATOM     49  C   UNL A   1      42.711  24.934  28.346  1.00  0.00     0.031 A 
ATOM     50  C   UNL A   1      44.937  30.446  31.056  1.00  0.00     0.049 A 
ATOM     51  C   UNL A   1      44.043  25.342  28.919  1.00  0.00     0.074 A 
ATOM     52  C   UNL A   1      46.207  30.701  31.544  1.00  0.00     0.029 A 
ATOM     53  N   UNL A   1      44.940  29.139  30.595  1.00  0.00    -0.354 N 
ATOM     54  N   UNL A   1      44.394  26.488  29.454  1.00  0.00    -0.248 NA
ATOM     55  C   UNL A   1      45.110  24.332  28.903  1.00  0.00     0.031 C 
ATOM     56  C   UNL A   1      46.984  29.554  31.359  1.00  0.00     0.029 A 
ATOM     57  C   UNL A   1      46.186  28.572  30.799  1.00  0.00     0.049 A 
ATOM     58  H   UNL A   1      44.171  28.682  30.186  1.00  0.00     0.167 HD
ATOM     59  C   UNL A   1      45.709  26.321  29.874  1.00  0.00     0.074 A 
ATOM     60  C   UNL A   1      46.086  24.962  29.542  1.00  0.00     0.031 C 
ATOM     61  C   UNL A   1      46.532  27.211  30.481  1.00  0.00     0.031 A 
BRANCH  48  62
ATOM     62  C   UNL A   1      43.939  32.708  31.592  1.00  0.00    -0.014 A 
ATOM     63  C   UNL A   1      44.281  33.790  30.760  1.00  0.00     0.010 A 
ATOM     64  C   UNL A   1      43.690  32.946  32.955  1.00  0.00     0.010 A 
ATOM     65  C   UNL A   1      44.405  35.077  31.285  1.00  0.00     0.020 A 
ATOM     66  C   UNL A   1      43.785  34.238  33.481  1.00  0.00     0.020 A 
ATOM     67  C   UNL A   1      44.157  35.293  32.644  1.00  0.00     0.054 A 
BRANCH  67  68
ATOM     68  S   UNL A   1      44.286  36.983  33.290  1.00  0.00     0.124 S 
ATOM     69  O   UNL A   1      42.956  37.190  33.859  1.00  0.00    -0.237 OA
ATOM     70  O   UNL A   1      45.373  36.874  34.259  1.00  0.00    -0.237 OA
ATOM     71  O   UNL A   1      44.588  37.784  32.106  1.00  0.00    -0.744 OA
ENDBRANCH  67  68
ENDBRANCH  48  62
BRANCH  49  72
ATOM     72  C   UNL A   1      42.528  23.582  27.749  1.00  0.00    -0.014 A 
ATOM     73  C   UNL A   1      41.994  22.527  28.512  1.00  0.00     0.010 A 
ATOM     74  C   UNL A   1      42.919  23.333  26.420  1.00  0.00     0.010 A 
ATOM     75  C   UNL A   1      41.896  21.241  27.974  1.00  0.00     0.020 A 
ATOM     76  C   UNL A   1      42.794  22.054  25.869  1.00  0.00     0.020 A 
ATOM     77  C   UNL A   1      42.304  21.011  26.657  1.00  0.00     0.054 A 
BRANCH  77  78
ATOM     78  S   UNL A   1      42.159  19.336  25.971  1.00  0.00     0.124 S 
ATOM     79  O   UNL A   1      42.981  19.430  24.769  1.00  0.00    -0.237 OA
ATOM     80  O   UNL A   1      42.697  18.504  27.044  1.00  0.00    -0.237 OA
ATOM     81  O   UNL A   1      40.724  19.188  25.739  1.00  0.00    -0.744 OA
ENDBRANCH  77  78
ENDBRANCH  49  72
BRANCH  61  82
ATOM     82  C   UNL A   1      47.897  26.724  30.887  1.00  0.00    -0.014 A 
ATOM     83  C   UNL A   1      49.019  26.906  30.059  1.00  0.00     0.010 A 
ATOM     84  C   UNL A   1      48.060  26.106  32.140  1.00  0.00     0.010 A 
ATOM     85  C   UNL A   1      50.273  26.439  30.458  1.00  0.00     0.020 A 
ATOM     86  C   UNL A   1      49.318  25.662  32.555  1.00  0.00     0.020 A 
ATOM     87  C   UNL A   1      50.413  25.814  31.702  1.00  0.00     0.054 A 
BRANCH  87  88
ATOM     88  S   UNL A   1      52.056  25.237  32.212  1.00  0.00     0.124 S 
ATOM     89  O   UNL A   1      52.888  25.667  31.092  1.00  0.00    -0.237 OA
ATOM     90  O   UNL A   1      52.273  25.952  33.468  1.00  0.00    -0.237 OA
ATOM     91  O   UNL A   1      51.888  23.792  32.346  1.00  0.00    -0.744 OA
ENDBRANCH  87  88
ENDBRANCH  61  82
ENDBRANCH  35  36
ENDBRANCH  27  30
ENDBRANCH  25  26
ENDBRANCH   1  25
TORSDOF 15
ENDMDL
MODEL 2
REMARK VINA RESULT:     -11.6      4.757     10.311
REMARK SMILES O=C(NCCCCNC(=O)c1ccc(-c2c3nc(c(-c4ccc(S(=O)(=O)[O-])cc4)c4ccc([nH]4)c(-c4ccc(S(=O)(=O)[O-])cc4)c4nc(c(-c5ccc(S(=O)(=O)[O-])cc5)c5ccc2[nH]5)C=C4)C=C3)cc1)C1=Cc2cc(Cl)c(Cl)c(Cl)c2O[C@@H]1C(F)(F)F
REMARK SMILES IDX 6 1 5 2 4 3 3 4 1 5 2 6 71 8 72 9 83 10 73 11 82 12 74 13
REMARK SMILES IDX 81 14 75 15 79 16 76 17 77 18 80 19 78 20 84 21 85 22 86 23
REMARK SMILES IDX 87 24 7 25 8 26 9 27 10 29 11 30 12 31 70 32 13 33 69 34
REMARK SMILES IDX 14 35 15 36 16 37 63 38 17 39 68 40 62 41 64 42 18 43 67 44
REMARK SMILES IDX 61 45 60 46 19 48 49 49 30 50 48 51 31 52 34 53 47 54 65 55
REMARK SMILES IDX 32 56 33 57 46 59 66 60 35 61 20 62 21 63 29 64 22 65 28 66
REMARK SMILES IDX 23 67 24 68 25 69 26 70 27 71 50 72 51 73 59 74 52 75 58 76
REMARK SMILES IDX 53 77 54 78 55 79 56 80 57 81 36 82 37 83 45 84 38 85 44 86
REMARK SMILES IDX 39 87 40 88 41 89 42 90 43 91
REMARK H PARENT 3 7 8 28 64 47 34 58
REMARK Flexibility Score: inf
ROOT
ATOM      1  C   UNL A   1      40.231  22.289  27.460  1.00  0.00     0.023 C 
ENDROOT
BRANCH   1   2
ATOM      2  C   UNL A   1      39.511  21.869  26.178  1.00  0.00     0.023 C 
BRANCH   2   3
ATOM      3  C   UNL A   1      38.152  22.537  25.969  1.00  0.00     0.116 C 
BRANCH   3   4
ATOM      4  N   UNL A   1      37.707  22.548  24.573  1.00  0.00    -0.352 N 
ATOM      5  O   UNL A   1      36.357  23.081  22.825  1.00  0.00    -0.270 OA
ATOM      6  C   UNL A   1      36.495  22.909  24.029  1.00  0.00     0.251 C 
ATOM      7  H   UNL A   1      38.382  22.251  23.921  1.00  0.00     0.163 HD
BRANCH   6   8
ATOM      8  C   UNL A   1      35.381  23.189  24.957  1.00  0.00     0.067 C 
ATOM      9  C   UNL A   1      35.304  24.396  25.532  1.00  0.00     0.025 C 
ATOM     10  C   UNL A   1      34.217  22.249  24.934  1.00  0.00     0.314 C 
ATOM     11  C   UNL A   1      33.969  25.001  25.377  1.00  0.00     0.020 A 
ATOM     12  O   UNL A   1      33.008  22.924  24.518  1.00  0.00    -0.474 OA
ATOM     13  C   UNL A   1      33.897  26.395  25.449  1.00  0.00     0.034 A 
ATOM     14  C   UNL A   1      32.937  24.285  24.734  1.00  0.00     0.148 A 
ATOM     15  C   UNL A   1      32.860  27.078  24.805  1.00  0.00     0.062 A 
ATOM     16  C   UNL A   1      31.877  24.973  24.117  1.00  0.00     0.103 A 
ATOM     17  Cl  UNL A   1      32.967  28.805  24.791  1.00  0.00    -0.083 Cl
ATOM     18  C   UNL A   1      31.852  26.377  24.125  1.00  0.00     0.082 A 
ATOM     19  Cl  UNL A   1      30.694  24.057  23.229  1.00  0.00    -0.079 Cl
ATOM     20  Cl  UNL A   1      30.640  27.242  23.235  1.00  0.00    -0.081 Cl
BRANCH  10  21
ATOM     21  C   UNL A   1      34.018  21.560  26.296  1.00  0.00     0.429 C 
ATOM     22  F   UNL A   1      35.190  21.446  26.966  1.00  0.00    -0.167 F 
ATOM     23  F   UNL A   1      33.174  22.252  27.096  1.00  0.00    -0.167 F 
ATOM     24  F   UNL A   1      33.510  20.310  26.168  1.00  0.00    -0.167 F 
ENDBRANCH  10  21
ENDBRANCH   6   8
ENDBRANCH   3   4
ENDBRANCH   2   3
ENDBRANCH   1   2
BRANCH   1  25
ATOM     25  C   UNL A   1      41.555  23.032  27.282  1.00  0.00     0.116 C 
BRANCH  25  26
ATOM     26  N   UNL A   1      41.612  23.896  26.112  1.00  0.00    -0.352 N 
ATOM     27  C   UNL A   1      41.555  25.274  26.068  1.00  0.00     0.251 C 
ATOM     28  H   UNL A   1      41.704  23.441  25.243  1.00  0.00     0.163 HD
ATOM     29  O   UNL A   1      41.550  25.856  24.987  1.00  0.00    -0.269 OA
BRANCH  27  30
ATOM     30  C   UNL A   1      41.435  26.038  27.330  1.00  0.00     0.039 A 
ATOM     31  C   UNL A   1      42.457  26.924  27.683  1.00  0.00     0.014 A 
ATOM     32  C   UNL A   1      40.289  25.936  28.123  1.00  0.00     0.014 A 
ATOM     33  C   UNL A   1      42.288  27.771  28.781  1.00  0.00     0.010 A 
ATOM     34  C   UNL A   1      40.089  26.835  29.166  1.00  0.00     0.010 A 
ATOM     35  C   UNL A   1      41.083  27.766  29.505  1.00  0.00    -0.014 A 
BRANCH  35  36
ATOM     36  C   UNL A   1      40.853  28.715  30.626  1.00  0.00     0.031 A 
ATOM     37  C   UNL A   1      41.675  28.605  31.882  1.00  0.00     0.074 A 
ATOM     38  C   UNL A   1      39.872  29.638  30.538  1.00  0.00     0.049 A 
ATOM     39  N   UNL A   1      41.582  29.291  32.992  1.00  0.00    -0.248 NA
ATOM     40  C   UNL A   1      42.720  27.567  31.904  1.00  0.00     0.031 C 
ATOM     41  C   UNL A   1      38.969  29.816  29.397  1.00  0.00     0.029 A 
ATOM     42  N   UNL A   1      39.467  30.601  31.430  1.00  0.00    -0.354 N 
ATOM     43  C   UNL A   1      42.546  28.762  33.844  1.00  0.00     0.074 A 
ATOM     44  C   UNL A   1      43.170  27.659  33.147  1.00  0.00     0.031 C 
ATOM     45  C   UNL A   1      38.136  30.840  29.648  1.00  0.00     0.029 A 
ATOM     46  C   UNL A   1      38.421  31.374  30.976  1.00  0.00     0.049 A 
ATOM     47  H   UNL A   1      39.884  30.728  32.312  1.00  0.00     0.167 HD
ATOM     48  C   UNL A   1      42.904  29.176  35.083  1.00  0.00     0.031 A 
ATOM     49  C   UNL A   1      37.770  32.397  31.561  1.00  0.00     0.031 A 
ATOM     50  C   UNL A   1      42.300  30.286  35.768  1.00  0.00     0.049 A 
ATOM     51  C   UNL A   1      38.207  32.854  32.929  1.00  0.00     0.074 A 
ATOM     52  C   UNL A   1      42.603  30.796  37.019  1.00  0.00     0.029 A 
ATOM     53  N   UNL A   1      41.283  31.072  35.250  1.00  0.00    -0.354 N 
ATOM     54  N   UNL A   1      39.145  32.360  33.702  1.00  0.00    -0.248 NA
ATOM     55  C   UNL A   1      37.513  34.021  33.492  1.00  0.00     0.031 C 
ATOM     56  C   UNL A   1      41.753  31.879  37.266  1.00  0.00     0.029 A 
ATOM     57  C   UNL A   1      40.955  32.070  36.151  1.00  0.00     0.049 A 
ATOM     58  H   UNL A   1      40.858  30.941  34.373  1.00  0.00     0.167 HD
ATOM     59  C   UNL A   1      39.180  33.182  34.824  1.00  0.00     0.074 A 
ATOM     60  C   UNL A   1      38.179  34.209  34.623  1.00  0.00     0.031 C 
ATOM     61  C   UNL A   1      39.970  33.095  35.922  1.00  0.00     0.031 A 
BRANCH  48  62
ATOM     62  C   UNL A   1      44.022  28.433  35.765  1.00  0.00    -0.014 A 
ATOM     63  C   UNL A   1      45.354  28.869  35.640  1.00  0.00     0.010 A 
ATOM     64  C   UNL A   1      43.741  27.316  36.572  1.00  0.00     0.010 A 
ATOM     65  C   UNL A   1      46.388  28.184  36.280  1.00  0.00     0.020 A 
ATOM     66  C   UNL A   1      44.770  26.643  37.238  1.00  0.00     0.020 A 
ATOM     67  C   UNL A   1      46.089  27.074  37.075  1.00  0.00     0.054 A 
BRANCH  67  68
ATOM     68  S   UNL A   1      47.448  26.227  37.927  1.00  0.00     0.124 S 
ATOM     69  O   UNL A   1      48.270  25.775  36.808  1.00  0.00    -0.237 OA
ATOM     70  O   UNL A   1      48.028  27.291  38.742  1.00  0.00    -0.237 OA
ATOM     71  O   UNL A   1      46.779  25.166  38.677  1.00  0.00    -0.744 OA
ENDBRANCH  67  68
ENDBRANCH  48  62
BRANCH  49  72
ATOM     72  C   UNL A   1      36.648  33.081  30.859  1.00  0.00    -0.014 A 
ATOM     73  C   UNL A   1      36.900  33.949  29.780  1.00  0.00     0.010 A 
ATOM     74  C   UNL A   1      35.322  32.894  31.288  1.00  0.00     0.010 A 
ATOM     75  C   UNL A   1      35.854  34.650  29.174  1.00  0.00     0.020 A 
ATOM     76  C   UNL A   1      34.269  33.571  30.663  1.00  0.00     0.020 A 
ATOM     77  C   UNL A   1      34.545  34.461  29.624  1.00  0.00     0.054 A 
BRANCH  77  78
ATOM     78  S   UNL A   1      33.197  35.371  28.818  1.00  0.00     0.124 S 
ATOM     79  O   UNL A   1      33.929  36.340  28.007  1.00  0.00    -0.237 OA
ATOM     80  O   UNL A   1      32.501  34.322  28.077  1.00  0.00    -0.237 OA
ATOM     81  O   UNL A   1      32.447  35.932  29.940  1.00  0.00    -0.744 OA
ENDBRANCH  77  78
ENDBRANCH  49  72
BRANCH  61  82
ATOM     82  C   UNL A   1      39.833  34.177  36.959  1.00  0.00    -0.014 A 
ATOM     83  C   UNL A   1      39.028  34.003  38.099  1.00  0.00     0.010 A 
ATOM     84  C   UNL A   1      40.555  35.374  36.802  1.00  0.00     0.010 A 
ATOM     85  C   UNL A   1      38.914  35.027  39.043  1.00  0.00     0.020 A 
ATOM     86  C   UNL A   1      40.465  36.389  37.758  1.00  0.00     0.020 A 
ATOM     87  C   UNL A   1      39.629  36.215  38.863  1.00  0.00     0.054 A 
BRANCH  87  88
ATOM     88  S   UNL A   1      39.486  37.522  40.113  1.00  0.00     0.124 S 
ATOM     89  O   UNL A   1      40.851  38.038  40.169  1.00  0.00    -0.237 OA
ATOM     90  O   UNL A   1      38.496  38.422  39.528  1.00  0.00    -0.237 OA
ATOM     91  O   UNL A   1      39.040  36.808  41.308  1.00  0.00    -0.744 OA
ENDBRANCH  87  88
ENDBRANCH  61  82
ENDBRANCH  35  36
ENDBRANCH  27  30
ENDBRANCH  25  26
ENDBRANCH   1  25
TORSDOF 15
ENDMDL
MODEL 3
REMARK VINA RESULT:     -11.4      4.888      7.122
REMARK SMILES O=C(NCCCCNC(=O)c1ccc(-c2c3nc(c(-c4ccc(S(=O)(=O)[O-])cc4)c4ccc([nH]4)c(-c4ccc(S(=O)(=O)[O-])cc4)c4nc(c(-c5ccc(S(=O)(=O)[O-])cc5)c5ccc2[nH]5)C=C4)C=C3)cc1)C1=Cc2cc(Cl)c(Cl)c(Cl)c2O[C@@H]1C(F)(F)F
REMARK SMILES IDX 6 1 5 2 4 3 3 4 1 5 2 6 71 8 72 9 83 10 73 11 82 12 74 13
REMARK SMILES IDX 81 14 75 15 79 16 76 17 77 18 80 19 78 20 84 21 85 22 86 23
REMARK SMILES IDX 87 24 7 25 8 26 9 27 10 29 11 30 12 31 70 32 13 33 69 34
REMARK SMILES IDX 14 35 15 36 16 37 63 38 17 39 68 40 62 41 64 42 18 43 67 44
REMARK SMILES IDX 61 45 60 46 19 48 49 49 30 50 48 51 31 52 34 53 47 54 65 55
REMARK SMILES IDX 32 56 33 57 46 59 66 60 35 61 20 62 21 63 29 64 22 65 28 66
REMARK SMILES IDX 23 67 24 68 25 69 26 70 27 71 50 72 51 73 59 74 52 75 58 76
REMARK SMILES IDX 53 77 54 78 55 79 56 80 57 81 36 82 37 83 45 84 38 85 44 86
REMARK SMILES IDX 39 87 40 88 41 89 42 90 43 91
REMARK H PARENT 3 7 8 28 64 47 34 58
REMARK Flexibility Score: inf
ROOT
ATOM      1  C   UNL A   1      34.729  34.079  29.525  1.00  0.00     0.023 C 
ENDROOT
BRANCH   1   2
ATOM      2  C   UNL A   1      34.587  33.335  30.853  1.00  0.00     0.023 C 
BRANCH   2   3
ATOM      3  C   UNL A   1      35.208  34.056  32.050  1.00  0.00     0.116 C 
BRANCH   3   4
ATOM      4  N   UNL A   1      36.561  34.559  31.800  1.00  0.00    -0.352 N 
ATOM      5  O   UNL A   1      38.833  34.525  31.840  1.00  0.00    -0.270 OA
ATOM      6  C   UNL A   1      37.770  34.157  32.323  1.00  0.00     0.251 C 
ATOM      7  H   UNL A   1      36.615  35.302  31.156  1.00  0.00     0.163 HD
BRANCH   6   8
ATOM      8  C   UNL A   1      37.749  33.178  33.428  1.00  0.00     0.067 C 
ATOM      9  C   UNL A   1      37.201  31.975  33.217  1.00  0.00     0.025 C 
ATOM     10  C   UNL A   1      38.642  33.445  34.598  1.00  0.00     0.314 C 
ATOM     11  C   UNL A   1      38.094  30.877  33.630  1.00  0.00     0.020 A 
ATOM     12  O   UNL A   1      39.641  32.410  34.740  1.00  0.00    -0.474 OA
ATOM     13  C   UNL A   1      37.897  29.638  33.014  1.00  0.00     0.034 A 
ATOM     14  C   UNL A   1      39.339  31.165  34.228  1.00  0.00     0.148 A 
ATOM     15  C   UNL A   1      38.956  28.731  32.907  1.00  0.00     0.062 A 
ATOM     16  C   UNL A   1      40.393  30.236  34.150  1.00  0.00     0.103 A 
ATOM     17  Cl  UNL A   1      38.664  27.312  31.961  1.00  0.00    -0.083 Cl
ATOM     18  C   UNL A   1      40.213  29.026  33.460  1.00  0.00     0.082 A 
ATOM     19  Cl  UNL A   1      41.947  30.683  34.791  1.00  0.00    -0.079 Cl
ATOM     20  Cl  UNL A   1      41.545  27.942  33.218  1.00  0.00    -0.081 Cl
BRANCH  10  21
ATOM     21  C   UNL A   1      37.837  33.609  35.900  1.00  0.00     0.429 C 
ATOM     22  F   UNL A   1      36.576  34.038  35.648  1.00  0.00    -0.167 F 
ATOM     23  F   UNL A   1      37.728  32.445  36.580  1.00  0.00    -0.167 F 
ATOM     24  F   UNL A   1      38.402  34.510  36.741  1.00  0.00    -0.167 F 
ENDBRANCH  10  21
ENDBRANCH   6   8
ENDBRANCH   3   4
ENDBRANCH   2   3
ENDBRANCH   1   2
BRANCH   1  25
ATOM     25  C   UNL A   1      35.100  33.229  28.309  1.00  0.00     0.116 C 
BRANCH  25  26
ATOM     26  N   UNL A   1      34.097  32.247  27.927  1.00  0.00    -0.352 N 
ATOM     27  C   UNL A   1      34.243  30.880  27.817  1.00  0.00     0.251 C 
ATOM     28  H   UNL A   1      33.201  32.602  27.721  1.00  0.00     0.163 HD
ATOM     29  O   UNL A   1      33.309  30.191  27.415  1.00  0.00    -0.269 OA
BRANCH  27  30
ATOM     30  C   UNL A   1      35.551  30.260  28.125  1.00  0.00     0.039 A 
ATOM     31  C   UNL A   1      36.520  30.190  27.120  1.00  0.00     0.014 A 
ATOM     32  C   UNL A   1      35.847  29.818  29.417  1.00  0.00     0.014 A 
ATOM     33  C   UNL A   1      37.811  29.761  27.433  1.00  0.00     0.010 A 
ATOM     34  C   UNL A   1      37.154  29.468  29.744  1.00  0.00     0.010 A 
ATOM     35  C   UNL A   1      38.152  29.439  28.758  1.00  0.00    -0.014 A 
BRANCH  35  36
ATOM     36  C   UNL A   1      39.541  29.057  29.126  1.00  0.00     0.031 A 
ATOM     37  C   UNL A   1      40.429  30.049  29.831  1.00  0.00     0.074 A 
ATOM     38  C   UNL A   1      40.022  27.844  28.781  1.00  0.00     0.049 A 
ATOM     39  N   UNL A   1      41.685  29.932  30.175  1.00  0.00    -0.248 NA
ATOM     40  C   UNL A   1      39.834  31.354  30.165  1.00  0.00     0.031 C 
ATOM     41  C   UNL A   1      39.283  26.811  28.052  1.00  0.00     0.029 A 
ATOM     42  N   UNL A   1      41.253  27.275  28.997  1.00  0.00    -0.354 N 
ATOM     43  C   UNL A   1      42.031  31.148  30.755  1.00  0.00     0.074 A 
ATOM     44  C   UNL A   1      40.874  32.009  30.661  1.00  0.00     0.031 C 
ATOM     45  C   UNL A   1      40.065  25.728  27.903  1.00  0.00     0.029 A 
ATOM     46  C   UNL A   1      41.370  25.997  28.498  1.00  0.00     0.049 A 
ATOM     47  H   UNL A   1      41.986  27.738  29.464  1.00  0.00     0.167 HD
ATOM     48  C   UNL A   1      43.198  31.507  31.343  1.00  0.00     0.031 A 
ATOM     49  C   UNL A   1      42.408  25.140  28.521  1.00  0.00     0.031 A 
ATOM     50  C   UNL A   1      44.342  30.645  31.458  1.00  0.00     0.049 A 
ATOM     51  C   UNL A   1      43.684  25.555  29.206  1.00  0.00     0.074 A 
ATOM     52  C   UNL A   1      45.564  30.908  32.052  1.00  0.00     0.029 A 
ATOM     53  N   UNL A   1      44.398  29.343  30.987  1.00  0.00    -0.354 N 
ATOM     54  N   UNL A   1      43.977  26.699  29.779  1.00  0.00    -0.248 NA
ATOM     55  C   UNL A   1      44.760  24.557  29.268  1.00  0.00     0.031 C 
ATOM     56  C   UNL A   1      46.367  29.771  31.920  1.00  0.00     0.029 A 
ATOM     57  C   UNL A   1      45.628  28.787  31.287  1.00  0.00     0.049 A 
ATOM     58  H   UNL A   1      43.670  28.883  30.511  1.00  0.00     0.167 HD
ATOM     59  C   UNL A   1      45.255  26.541  30.305  1.00  0.00     0.074 A 
ATOM     60  C   UNL A   1      45.673  25.190  29.992  1.00  0.00     0.031 C 
ATOM     61  C   UNL A   1      46.015  27.433  30.985  1.00  0.00     0.031 A 
BRANCH  48  62
ATOM     62  C   UNL A   1      43.278  32.891  31.932  1.00  0.00    -0.014 A 
ATOM     63  C   UNL A   1      43.674  33.985  31.141  1.00  0.00     0.010 A 
ATOM     64  C   UNL A   1      42.916  33.111  33.273  1.00  0.00     0.010 A 
ATOM     65  C   UNL A   1      43.740  35.268  31.687  1.00  0.00     0.020 A 
ATOM     66  C   UNL A   1      42.954  34.399  33.816  1.00  0.00     0.020 A 
ATOM     67  C   UNL A   1      43.380  35.467  33.023  1.00  0.00     0.054 A 
BRANCH  67  68
ATOM     68  S   UNL A   1      43.436  37.151  33.694  1.00  0.00     0.124 S 
ATOM     69  O   UNL A   1      42.133  37.259  34.346  1.00  0.00    -0.237 OA
ATOM     70  O   UNL A   1      44.586  37.100  34.593  1.00  0.00    -0.237 OA
ATOM     71  O   UNL A   1      43.611  37.990  32.510  1.00  0.00    -0.744 OA
ENDBRANCH  67  68
ENDBRANCH  48  62
BRANCH  49  72
ATOM     72  C   UNL A   1      42.291  23.792  27.898  1.00  0.00    -0.014 A 
ATOM     73  C   UNL A   1      41.641  22.743  28.575  1.00  0.00     0.010 A 
ATOM     74  C   UNL A   1      42.857  23.541  26.635  1.00  0.00     0.010 A 
ATOM     75  C   UNL A   1      41.600  21.459  28.022  1.00  0.00     0.020 A 
ATOM     76  C   UNL A   1      42.791  22.265  26.066  1.00  0.00     0.020 A 
ATOM     77  C   UNL A   1      42.182  21.227  26.773  1.00  0.00     0.054 A 
BRANCH  77  78
ATOM     78  S   UNL A   1      42.110  19.557  26.066  1.00  0.00     0.124 S 
ATOM     79  O   UNL A   1      40.695  19.431  25.731  1.00  0.00    -0.237 OA
ATOM     80  O   UNL A   1      43.024  19.651  24.931  1.00  0.00    -0.237 OA
ATOM     81  O   UNL A   1      42.574  18.705  27.160  1.00  0.00    -0.744 OA
ENDBRANCH  77  78
ENDBRANCH  49  72
BRANCH  61  82
ATOM     82  C   UNL A   1      47.347  26.956  31.498  1.00  0.00    -0.014 A 
ATOM     83  C   UNL A   1      47.474  26.343  32.757  1.00  0.00     0.010 A 
ATOM     84  C   UNL A   1      48.485  27.092  30.682  1.00  0.00     0.010 A 
ATOM     85  C   UNL A   1      48.724  25.916  33.210  1.00  0.00     0.020 A 
ATOM     86  C   UNL A   1      49.733  26.640  31.120  1.00  0.00     0.020 A 
ATOM     87  C   UNL A   1      49.846  26.072  32.390  1.00  0.00     0.054 A 
BRANCH  87  88
ATOM     88  S   UNL A   1      51.456  25.487  32.988  1.00  0.00     0.124 S 
ATOM     89  O   UNL A   1      51.186  25.255  34.404  1.00  0.00    -0.237 OA
ATOM     90  O   UNL A   1      51.681  24.287  32.186  1.00  0.00    -0.237 OA
ATOM     91  O   UNL A   1      52.357  26.600  32.699  1.00  0.00    -0.744 OA
ENDBRANCH  87  88
ENDBRANCH  61  82
ENDBRANCH  35  36
ENDBRANCH  27  30
ENDBRANCH  25  26
ENDBRANCH   1  25
TORSDOF 15
ENDMDL
