MODEL 1
REMARK VINA RESULT:     -14.2      0.000      0.000
REMARK SMILES Cc1ccc(-c2cc(Cl)cc3c2O[C@@H](C(F)(F)F)C(C(=O)NCCCCNC(=O)c2ccc(-c4c5nc(c(-c6ccc(S(=O)(=O)[O-])cc6)c6ccc([nH]6)c(-c6ccc(S(=O)(=O)[O-])cc6)c6nc(c(-c7ccc(S(=O)(=O)[O-])cc7)c7ccc4[nH]7)C=C6)C=C5)cc2)=C3)cc1
REMARK SMILES IDX 25 1 24 2 23 3 22 4 20 5 21 6 19 8 6 9 7 10 12 11 8 12 11 13
REMARK SMILES IDX 13 14 9 15 10 16 90 17 14 18 5 19 1 20 2 21 3 22 92 23 4 24
REMARK SMILES IDX 91 25 15 26 16 27 17 28 18 29 26 30 27 31 28 32 29 34 30 35
REMARK SMILES IDX 31 36 89 37 32 38 88 39 33 40 34 41 35 42 82 43 36 44 87 45
REMARK SMILES IDX 81 46 83 47 37 48 86 49 80 50 79 51 38 53 68 54 49 55 67 56
REMARK SMILES IDX 50 57 53 58 66 59 84 60 51 61 52 62 65 64 85 65 54 66 39 67
REMARK SMILES IDX 40 68 48 69 41 70 47 71 42 72 43 73 44 74 45 75 46 76 69 77
REMARK SMILES IDX 70 78 78 79 71 80 77 81 72 82 73 83 74 84 75 85 76 86 55 87
REMARK SMILES IDX 56 88 64 89 57 90 63 91 58 92 59 93 60 94 61 95 62 96
REMARK H PARENT 22 7 27 33 83 52 53 63
REMARK Flexibility Score: inf
ROOT
ATOM      1  C   UNL A   1      36.915  22.376  25.877  1.00  0.00     0.023 C 
ENDROOT
BRANCH   1   2
ATOM      2  C   UNL A   1      35.511  22.940  26.117  1.00  0.00     0.023 C 
BRANCH   2   3
ATOM      3  C   UNL A   1      35.117  24.237  25.387  1.00  0.00     0.116 C 
BRANCH   3   4
ATOM      4  N   UNL A   1      34.020  24.994  25.982  1.00  0.00    -0.352 N 
ATOM      5  C   UNL A   1      32.667  24.789  26.027  1.00  0.00     0.251 C 
ATOM      6  O   UNL A   1      32.079  25.214  27.027  1.00  0.00    -0.270 OA
ATOM      7  H   UNL A   1      34.311  25.814  26.441  1.00  0.00     0.163 HD
BRANCH   5   8
ATOM      8  C   UNL A   1      31.843  24.216  24.867  1.00  0.00     0.067 C 
ATOM      9  C   UNL A   1      31.558  28.074  23.883  1.00  0.00     0.026 A 
ATOM     10  C   UNL A   1      30.366  28.617  23.365  1.00  0.00     0.033 A 
ATOM     11  C   UNL A   1      31.592  26.682  23.933  1.00  0.00     0.135 A 
ATOM     12  C   UNL A   1      29.204  27.839  23.313  1.00  0.00     0.042 A 
ATOM     13  C   UNL A   1      30.401  25.977  24.234  1.00  0.00     0.019 A 
ATOM     14  O   UNL A   1      32.741  25.962  23.528  1.00  0.00    -0.475 OA
ATOM     15  Cl  UNL A   1      27.742  28.545  22.742  1.00  0.00    -0.084 Cl
ATOM     16  C   UNL A   1      29.192  26.548  23.849  1.00  0.00     0.032 A 
ATOM     17  C   UNL A   1      30.544  24.627  24.890  1.00  0.00     0.025 C 
ATOM     18  C   UNL A   1      32.392  24.539  23.491  1.00  0.00     0.314 C 
BRANCH   9  19
ATOM     19  C   UNL A   1      32.096  28.845  25.049  1.00  0.00    -0.015 A 
ATOM     20  C   UNL A   1      33.720  31.629  27.963  1.00  0.00     0.044 C 
ATOM     21  C   UNL A   1      33.136  30.642  26.994  1.00  0.00    -0.051 A 
ATOM     22  C   UNL A   1      33.802  29.448  26.674  1.00  0.00     0.004 A 
ATOM     23  C   UNL A   1      31.911  30.905  26.390  1.00  0.00     0.004 A 
ATOM     24  C   UNL A   1      33.291  28.557  25.708  1.00  0.00     0.009 A 
ATOM     25  C   UNL A   1      31.401  30.016  25.444  1.00  0.00     0.009 A 
ENDBRANCH   9  19
BRANCH  18  26
ATOM     26  C   UNL A   1      33.257  23.451  22.839  1.00  0.00     0.429 C 
ATOM     27  F   UNL A   1      34.530  23.919  22.671  1.00  0.00    -0.167 F 
ATOM     28  F   UNL A   1      33.355  22.323  23.561  1.00  0.00    -0.167 F 
ATOM     29  F   UNL A   1      32.843  23.139  21.587  1.00  0.00    -0.167 F 
ENDBRANCH  18  26
ENDBRANCH   5   8
ENDBRANCH   3   4
ENDBRANCH   2   3
ENDBRANCH   1   2
BRANCH   1  30
ATOM     30  C   UNL A   1      38.064  23.366  26.000  1.00  0.00     0.116 C 
BRANCH  30  31
ATOM     31  N   UNL A   1      39.168  23.010  26.875  1.00  0.00    -0.352 N 
ATOM     32  C   UNL A   1      40.103  23.895  27.412  1.00  0.00     0.251 C 
ATOM     33  H   UNL A   1      39.265  22.059  27.109  1.00  0.00     0.163 HD
ATOM     34  O   UNL A   1      41.211  23.547  27.775  1.00  0.00    -0.269 OA
BRANCH  32  35
ATOM     35  C   UNL A   1      39.632  25.280  27.677  1.00  0.00     0.039 A 
ATOM     36  C   UNL A   1      40.131  26.301  26.858  1.00  0.00     0.014 A 
ATOM     37  C   UNL A   1      38.982  25.583  28.867  1.00  0.00     0.014 A 
ATOM     38  C   UNL A   1      40.163  27.610  27.338  1.00  0.00     0.010 A 
ATOM     39  C   UNL A   1      39.147  26.843  29.400  1.00  0.00     0.010 A 
ATOM     40  C   UNL A   1      39.772  27.848  28.654  1.00  0.00    -0.014 A 
BRANCH  40  41
ATOM     41  C   UNL A   1      39.983  29.104  29.364  1.00  0.00     0.031 A 
ATOM     42  C   UNL A   1      38.941  30.156  29.283  1.00  0.00     0.074 A 
ATOM     43  C   UNL A   1      41.044  29.254  30.188  1.00  0.00     0.049 A 
ATOM     44  N   UNL A   1      39.144  31.412  29.499  1.00  0.00    -0.248 NA
ATOM     45  C   UNL A   1      37.562  29.861  28.902  1.00  0.00     0.031 C 
ATOM     46  C   UNL A   1      41.243  30.319  31.171  1.00  0.00     0.029 A 
ATOM     47  N   UNL A   1      42.272  28.584  30.179  1.00  0.00    -0.354 N 
ATOM     48  C   UNL A   1      37.908  32.016  29.607  1.00  0.00     0.074 A 
ATOM     49  C   UNL A   1      36.964  31.031  29.138  1.00  0.00     0.031 C 
ATOM     50  C   UNL A   1      42.558  30.434  31.418  1.00  0.00     0.029 A 
ATOM     51  C   UNL A   1      43.242  29.554  30.485  1.00  0.00     0.049 A 
ATOM     52  H   UNL A   1      42.425  27.630  29.996  1.00  0.00     0.167 HD
ATOM     53  C   UNL A   1      37.799  33.227  30.225  1.00  0.00     0.031 A 
ATOM     54  C   UNL A   1      44.217  29.952  29.612  1.00  0.00     0.031 A 
ATOM     55  C   UNL A   1      39.113  33.755  30.590  1.00  0.00     0.049 A 
ATOM     56  C   UNL A   1      44.151  31.434  29.290  1.00  0.00     0.074 A 
ATOM     57  C   UNL A   1      39.813  33.795  31.785  1.00  0.00     0.029 A 
ATOM     58  N   UNL A   1      40.029  34.055  29.587  1.00  0.00    -0.354 N 
ATOM     59  N   UNL A   1      43.117  32.192  29.535  1.00  0.00    -0.248 NA
ATOM     60  C   UNL A   1      45.231  32.173  28.641  1.00  0.00     0.031 C 
ATOM     61  C   UNL A   1      41.180  34.032  31.482  1.00  0.00     0.029 A 
ATOM     62  C   UNL A   1      41.302  34.172  30.110  1.00  0.00     0.049 A 
ATOM     63  H   UNL A   1      39.801  34.169  28.636  1.00  0.00     0.167 HD
ATOM     64  C   UNL A   1      43.361  33.472  29.110  1.00  0.00     0.074 A 
ATOM     65  C   UNL A   1      44.706  33.410  28.565  1.00  0.00     0.031 C 
ATOM     66  C   UNL A   1      42.434  34.469  29.238  1.00  0.00     0.031 A 
BRANCH  53  67
ATOM     67  C   UNL A   1      36.493  33.786  30.759  1.00  0.00    -0.014 A 
ATOM     68  C   UNL A   1      35.479  34.172  29.857  1.00  0.00     0.010 A 
ATOM     69  C   UNL A   1      36.219  34.015  32.121  1.00  0.00     0.010 A 
ATOM     70  C   UNL A   1      34.314  34.835  30.276  1.00  0.00     0.020 A 
ATOM     71  C   UNL A   1      35.078  34.710  32.555  1.00  0.00     0.020 A 
ATOM     72  C   UNL A   1      34.133  35.127  31.625  1.00  0.00     0.054 A 
BRANCH  72  73
ATOM     73  S   UNL A   1      32.663  36.048  32.148  1.00  0.00     0.124 S 
ATOM     74  O   UNL A   1      32.248  36.709  30.913  1.00  0.00    -0.237 OA
ATOM     75  O   UNL A   1      31.780  34.987  32.622  1.00  0.00    -0.237 OA
ATOM     76  O   UNL A   1      33.166  36.946  33.186  1.00  0.00    -0.744 OA
ENDBRANCH  72  73
ENDBRANCH  53  67
BRANCH  54  77
ATOM     77  C   UNL A   1      44.675  28.885  28.677  1.00  0.00    -0.014 A 
ATOM     78  C   UNL A   1      44.019  28.795  27.431  1.00  0.00     0.010 A 
ATOM     79  C   UNL A   1      45.958  28.326  28.810  1.00  0.00     0.010 A 
ATOM     80  C   UNL A   1      44.704  28.345  26.298  1.00  0.00     0.020 A 
ATOM     81  C   UNL A   1      46.643  27.867  27.674  1.00  0.00     0.020 A 
ATOM     82  C   UNL A   1      46.038  27.960  26.418  1.00  0.00     0.054 A 
BRANCH  82  83
ATOM     83  S   UNL A   1      47.018  27.780  24.895  1.00  0.00     0.124 S 
ATOM     84  O   UNL A   1      48.380  27.661  25.409  1.00  0.00    -0.237 OA
ATOM     85  O   UNL A   1      46.455  26.560  24.316  1.00  0.00    -0.237 OA
ATOM     86  O   UNL A   1      46.728  29.010  24.166  1.00  0.00    -0.744 OA
ENDBRANCH  82  83
ENDBRANCH  54  77
BRANCH  66  87
ATOM     87  C   UNL A   1      42.510  35.856  28.634  1.00  0.00    -0.014 A 
ATOM     88  C   UNL A   1      41.985  36.210  27.382  1.00  0.00     0.010 A 
ATOM     89  C   UNL A   1      43.041  36.913  29.418  1.00  0.00     0.010 A 
ATOM     90  C   UNL A   1      42.044  37.531  26.910  1.00  0.00     0.020 A 
ATOM     91  C   UNL A   1      43.060  38.240  28.980  1.00  0.00     0.020 A 
ATOM     92  C   UNL A   1      42.584  38.538  27.711  1.00  0.00     0.054 A 
BRANCH  92  93
ATOM     93  S   UNL A   1      42.598  40.247  27.116  1.00  0.00     0.124 S 
ATOM     94  O   UNL A   1      43.348  40.926  28.169  1.00  0.00    -0.237 OA
ATOM     95  O   UNL A   1      43.283  40.140  25.829  1.00  0.00    -0.237 OA
ATOM     96  O   UNL A   1      41.182  40.593  27.031  1.00  0.00    -0.744 OA
ENDBRANCH  92  93
ENDBRANCH  66  87
ENDBRANCH  40  41
ENDBRANCH  32  35
ENDBRANCH  30  31
ENDBRANCH   1  30
TORSDOF 16
ENDMDL
MODEL 2
REMARK VINA RESULT:     -13.5      1.172      1.571
REMARK SMILES Cc1ccc(-c2cc(Cl)cc3c2O[C@@H](C(F)(F)F)C(C(=O)NCCCCNC(=O)c2ccc(-c4c5nc(c(-c6ccc(S(=O)(=O)[O-])cc6)c6ccc([nH]6)c(-c6ccc(S(=O)(=O)[O-])cc6)c6nc(c(-c7ccc(S(=O)(=O)[O-])cc7)c7ccc4[nH]7)C=C6)C=C5)cc2)=C3)cc1
REMARK SMILES IDX 25 1 24 2 23 3 22 4 20 5 21 6 19 8 6 9 7 10 12 11 8 12 11 13
REMARK SMILES IDX 13 14 9 15 10 16 90 17 14 18 5 19 1 20 2 21 3 22 92 23 4 24
REMARK SMILES IDX 91 25 15 26 16 27 17 28 18 29 26 30 27 31 28 32 29 34 30 35
REMARK SMILES IDX 31 36 89 37 32 38 88 39 33 40 34 41 35 42 82 43 36 44 87 45
REMARK SMILES IDX 81 46 83 47 37 48 86 49 80 50 79 51 38 53 68 54 49 55 67 56
REMARK SMILES IDX 50 57 53 58 66 59 84 60 51 61 52 62 65 64 85 65 54 66 39 67
REMARK SMILES IDX 40 68 48 69 41 70 47 71 42 72 43 73 44 74 45 75 46 76 69 77
REMARK SMILES IDX 70 78 78 79 71 80 77 81 72 82 73 83 74 84 75 85 76 86 55 87
REMARK SMILES IDX 56 88 64 89 57 90 63 91 58 92 59 93 60 94 61 95 62 96
REMARK H PARENT 22 7 27 33 83 52 53 63
REMARK Flexibility Score: inf
ROOT
ATOM      1  C   UNL A   1      36.662  22.164  25.802  1.00  0.00     0.023 C 
ENDROOT
BRANCH   1   2
ATOM      2  C   UNL A   1      35.817  23.399  26.133  1.00  0.00     0.023 C 
BRANCH   2   3
ATOM      3  C   UNL A   1      34.287  23.236  26.187  1.00  0.00     0.116 C 
BRANCH   3   4
ATOM      4  N   UNL A   1      33.523  24.463  26.386  1.00  0.00    -0.352 N 
ATOM      5  C   UNL A   1      32.230  24.810  26.100  1.00  0.00     0.251 C 
ATOM      6  O   UNL A   1      31.699  25.629  26.858  1.00  0.00    -0.270 OA
ATOM      7  H   UNL A   1      34.042  25.185  26.809  1.00  0.00     0.163 HD
BRANCH   5   8
ATOM      8  C   UNL A   1      31.478  24.367  24.840  1.00  0.00     0.067 C 
ATOM      9  C   UNL A   1      31.997  28.198  23.847  1.00  0.00     0.026 A 
ATOM     10  C   UNL A   1      30.996  28.930  23.179  1.00  0.00     0.033 A 
ATOM     11  C   UNL A   1      31.783  26.822  23.893  1.00  0.00     0.135 A 
ATOM     12  C   UNL A   1      29.733  28.363  22.970  1.00  0.00     0.042 A 
ATOM     13  C   UNL A   1      30.458  26.339  24.031  1.00  0.00     0.019 A 
ATOM     14  O   UNL A   1      32.832  25.908  23.639  1.00  0.00    -0.475 OA
ATOM     15  Cl  UNL A   1      28.503  29.300  22.215  1.00  0.00    -0.084 Cl
ATOM     16  C   UNL A   1      29.428  27.103  23.493  1.00  0.00     0.032 A 
ATOM     17  C   UNL A   1      30.278  24.996  24.693  1.00  0.00     0.025 C 
ATOM     18  C   UNL A   1      32.249  24.566  23.549  1.00  0.00     0.314 C 
BRANCH   9  19
ATOM     19  C   UNL A   1      32.503  28.885  25.077  1.00  0.00    -0.015 A 
ATOM     20  C   UNL A   1      34.037  31.461  28.223  1.00  0.00     0.044 C 
ATOM     21  C   UNL A   1      33.484  30.543  27.171  1.00  0.00    -0.051 A 
ATOM     22  C   UNL A   1      34.172  29.384  26.775  1.00  0.00     0.004 A 
ATOM     23  C   UNL A   1      32.267  30.835  26.566  1.00  0.00     0.004 A 
ATOM     24  C   UNL A   1      33.690  28.562  25.736  1.00  0.00     0.009 A 
ATOM     25  C   UNL A   1      31.785  30.014  25.547  1.00  0.00     0.009 A 
ENDBRANCH   9  19
BRANCH  18  26
ATOM     26  C   UNL A   1      32.990  23.334  23.011  1.00  0.00     0.429 C 
ATOM     27  F   UNL A   1      32.659  22.239  23.759  1.00  0.00    -0.167 F 
ATOM     28  F   UNL A   1      32.694  23.030  21.736  1.00  0.00    -0.167 F 
ATOM     29  F   UNL A   1      34.334  23.438  23.139  1.00  0.00    -0.167 F 
ENDBRANCH  18  26
ENDBRANCH   5   8
ENDBRANCH   3   4
ENDBRANCH   2   3
ENDBRANCH   1   2
BRANCH   1  30
ATOM     30  C   UNL A   1      38.036  22.433  25.206  1.00  0.00     0.116 C 
BRANCH  30  31
ATOM     31  N   UNL A   1      39.195  21.976  25.953  1.00  0.00    -0.352 N 
ATOM     32  C   UNL A   1      40.228  22.783  26.432  1.00  0.00     0.251 C 
ATOM     33  H   UNL A   1      39.257  21.012  26.138  1.00  0.00     0.163 HD
ATOM     34  O   UNL A   1      41.343  22.358  26.671  1.00  0.00    -0.269 OA
BRANCH  32  35
ATOM     35  C   UNL A   1      39.868  24.178  26.797  1.00  0.00     0.039 A 
ATOM     36  C   UNL A   1      40.507  25.214  26.105  1.00  0.00     0.014 A 
ATOM     37  C   UNL A   1      39.173  24.438  27.973  1.00  0.00     0.014 A 
ATOM     38  C   UNL A   1      40.627  26.467  26.704  1.00  0.00     0.010 A 
ATOM     39  C   UNL A   1      39.418  25.624  28.628  1.00  0.00     0.010 A 
ATOM     40  C   UNL A   1      40.176  26.627  28.013  1.00  0.00    -0.014 A 
BRANCH  40  41
ATOM     41  C   UNL A   1      40.454  27.790  28.847  1.00  0.00     0.031 A 
ATOM     42  C   UNL A   1      39.478  28.906  28.867  1.00  0.00     0.074 A 
ATOM     43  C   UNL A   1      41.515  27.793  29.685  1.00  0.00     0.049 A 
ATOM     44  N   UNL A   1      39.752  30.119  29.209  1.00  0.00    -0.248 NA
ATOM     45  C   UNL A   1      38.087  28.734  28.454  1.00  0.00     0.031 C 
ATOM     46  C   UNL A   1      41.767  28.741  30.771  1.00  0.00     0.029 A 
ATOM     47  N   UNL A   1      42.700  27.055  29.614  1.00  0.00    -0.354 N 
ATOM     48  C   UNL A   1      38.553  30.783  29.373  1.00  0.00     0.074 A 
ATOM     49  C   UNL A   1      37.557  29.908  28.803  1.00  0.00     0.031 C 
ATOM     50  C   UNL A   1      43.084  28.752  31.033  1.00  0.00     0.029 A 
ATOM     51  C   UNL A   1      43.723  27.930  30.019  1.00  0.00     0.049 A 
ATOM     52  H   UNL A   1      42.799  26.117  29.337  1.00  0.00     0.167 HD
ATOM     53  C   UNL A   1      38.510  31.930  30.109  1.00  0.00     0.031 A 
ATOM     54  C   UNL A   1      44.728  28.354  29.195  1.00  0.00     0.031 A 
ATOM     55  C   UNL A   1      39.849  32.339  30.530  1.00  0.00     0.049 A 
ATOM     56  C   UNL A   1      44.753  29.863  29.022  1.00  0.00     0.074 A 
ATOM     57  C   UNL A   1      40.538  32.217  31.725  1.00  0.00     0.029 A 
ATOM     58  N   UNL A   1      40.791  32.683  29.566  1.00  0.00    -0.354 N 
ATOM     59  N   UNL A   1      43.764  30.652  29.339  1.00  0.00    -0.248 NA
ATOM     60  C   UNL A   1      45.882  30.597  28.455  1.00  0.00     0.031 C 
ATOM     61  C   UNL A   1      41.921  32.401  31.453  1.00  0.00     0.029 A 
ATOM     62  C   UNL A   1      42.064  32.670  30.103  1.00  0.00     0.049 A 
ATOM     63  H   UNL A   1      40.579  32.905  28.630  1.00  0.00     0.167 HD
ATOM     64  C   UNL A   1      44.088  31.952  29.044  1.00  0.00     0.074 A 
ATOM     65  C   UNL A   1      45.431  31.865  28.502  1.00  0.00     0.031 C 
ATOM     66  C   UNL A   1      43.220  32.985  29.269  1.00  0.00     0.031 A 
BRANCH  53  67
ATOM     67  C   UNL A   1      37.235  32.510  30.691  1.00  0.00    -0.014 A 
ATOM     68  C   UNL A   1      36.446  33.382  29.911  1.00  0.00     0.010 A 
ATOM     69  C   UNL A   1      36.785  32.291  32.008  1.00  0.00     0.010 A 
ATOM     70  C   UNL A   1      35.340  34.069  30.441  1.00  0.00     0.020 A 
ATOM     71  C   UNL A   1      35.706  32.998  32.564  1.00  0.00     0.020 A 
ATOM     72  C   UNL A   1      34.994  33.895  31.777  1.00  0.00     0.054 A 
BRANCH  72  73
ATOM     73  S   UNL A   1      33.614  34.842  32.471  1.00  0.00     0.124 S 
ATOM     74  O   UNL A   1      32.838  33.813  33.158  1.00  0.00    -0.237 OA
ATOM     75  O   UNL A   1      34.295  35.801  33.336  1.00  0.00    -0.237 OA
ATOM     76  O   UNL A   1      32.963  35.420  31.297  1.00  0.00    -0.744 OA
ENDBRANCH  72  73
ENDBRANCH  53  67
BRANCH  54  77
ATOM     77  C   UNL A   1      45.132  27.361  28.158  1.00  0.00    -0.014 A 
ATOM     78  C   UNL A   1      44.618  27.542  26.856  1.00  0.00     0.010 A 
ATOM     79  C   UNL A   1      46.296  26.591  28.327  1.00  0.00     0.010 A 
ATOM     80  C   UNL A   1      45.356  27.142  25.738  1.00  0.00     0.020 A 
ATOM     81  C   UNL A   1      47.034  26.183  27.205  1.00  0.00     0.020 A 
ATOM     82  C   UNL A   1      46.598  26.536  25.925  1.00  0.00     0.054 A 
BRANCH  82  83
ATOM     83  S   UNL A   1      47.710  26.404  24.491  1.00  0.00     0.124 S 
ATOM     84  O   UNL A   1      47.479  25.036  24.037  1.00  0.00    -0.237 OA
ATOM     85  O   UNL A   1      47.197  27.455  23.612  1.00  0.00    -0.237 OA
ATOM     86  O   UNL A   1      49.027  26.659  25.068  1.00  0.00    -0.744 OA
ENDBRANCH  82  83
ENDBRANCH  54  77
BRANCH  66  87
ATOM     87  C   UNL A   1      43.383  34.418  28.807  1.00  0.00    -0.014 A 
ATOM     88  C   UNL A   1      43.442  34.822  27.465  1.00  0.00     0.010 A 
ATOM     89  C   UNL A   1      43.362  35.453  29.778  1.00  0.00     0.010 A 
ATOM     90  C   UNL A   1      43.539  36.177  27.111  1.00  0.00     0.020 A 
ATOM     91  C   UNL A   1      43.408  36.807  29.436  1.00  0.00     0.020 A 
ATOM     92  C   UNL A   1      43.524  37.162  28.099  1.00  0.00     0.054 A 
BRANCH  92  93
ATOM     93  S   UNL A   1      43.588  38.908  27.627  1.00  0.00     0.124 S 
ATOM     94  O   UNL A   1      43.836  39.559  28.910  1.00  0.00    -0.237 OA
ATOM     95  O   UNL A   1      44.699  38.950  26.678  1.00  0.00    -0.237 OA
ATOM     96  O   UNL A   1      42.272  39.154  27.042  1.00  0.00    -0.744 OA
ENDBRANCH  92  93
ENDBRANCH  66  87
ENDBRANCH  40  41
ENDBRANCH  32  35
ENDBRANCH  30  31
ENDBRANCH   1  30
TORSDOF 16
ENDMDL
MODEL 3
REMARK VINA RESULT:     -12.9      2.141      2.668
REMARK SMILES Cc1ccc(-c2cc(Cl)cc3c2O[C@@H](C(F)(F)F)C(C(=O)NCCCCNC(=O)c2ccc(-c4c5nc(c(-c6ccc(S(=O)(=O)[O-])cc6)c6ccc([nH]6)c(-c6ccc(S(=O)(=O)[O-])cc6)c6nc(c(-c7ccc(S(=O)(=O)[O-])cc7)c7ccc4[nH]7)C=C6)C=C5)cc2)=C3)cc1
REMARK SMILES IDX 25 1 24 2 23 3 22 4 20 5 21 6 19 8 6 9 7 10 12 11 8 12 11 13
REMARK SMILES IDX 13 14 9 15 10 16 90 17 14 18 5 19 1 20 2 21 3 22 92 23 4 24
REMARK SMILES IDX 91 25 15 26 16 27 17 28 18 29 26 30 27 31 28 32 29 34 30 35
REMARK SMILES IDX 31 36 89 37 32 38 88 39 33 40 34 41 35 42 82 43 36 44 87 45
REMARK SMILES IDX 81 46 83 47 37 48 86 49 80 50 79 51 38 53 68 54 49 55 67 56
REMARK SMILES IDX 50 57 53 58 66 59 84 60 51 61 52 62 65 64 85 65 54 66 39 67
REMARK SMILES IDX 40 68 48 69 41 70 47 71 42 72 43 73 44 74 45 75 46 76 69 77
REMARK SMILES IDX 70 78 78 79 71 80 77 81 72 82 73 83 74 84 75 85 76 86 55 87
REMARK SMILES IDX 56 88 64 89 57 90 63 91 58 92 59 93 60 94 61 95 62 96
REMARK H PARENT 22 7 27 33 83 52 53 63
REMARK Flexibility Score: inf
ROOT
ATOM      1  C   UNL A   1      37.875  23.033  25.677  1.00  0.00     0.023 C 
ENDROOT
BRANCH   1   2
ATOM      2  C   UNL A   1      36.555  23.388  24.985  1.00  0.00     0.023 C 
BRANCH   2   3
ATOM      3  C   UNL A   1      35.241  23.020  25.701  1.00  0.00     0.116 C 
BRANCH   3   4
ATOM      4  N   UNL A   1      34.371  24.140  26.046  1.00  0.00    -0.352 N 
ATOM      5  C   UNL A   1      33.012  24.305  26.012  1.00  0.00     0.251 C 
ATOM      6  O   UNL A   1      32.529  25.063  26.860  1.00  0.00    -0.270 OA
ATOM      7  H   UNL A   1      34.858  24.934  26.365  1.00  0.00     0.163 HD
BRANCH   5   8
ATOM      8  C   UNL A   1      32.102  23.738  24.916  1.00  0.00     0.067 C 
ATOM      9  C   UNL A   1      31.813  27.595  23.925  1.00  0.00     0.026 A 
ATOM     10  C   UNL A   1      30.598  28.154  23.485  1.00  0.00     0.033 A 
ATOM     11  C   UNL A   1      31.828  26.202  23.983  1.00  0.00     0.135 A 
ATOM     12  C   UNL A   1      29.422  27.396  23.519  1.00  0.00     0.042 A 
ATOM     13  C   UNL A   1      30.648  25.520  24.370  1.00  0.00     0.019 A 
ATOM     14  O   UNL A   1      32.935  25.461  23.505  1.00  0.00    -0.475 OA
ATOM     15  Cl  UNL A   1      27.936  28.122  23.043  1.00  0.00    -0.084 Cl
ATOM     16  C   UNL A   1      29.426  26.108  24.063  1.00  0.00     0.032 A 
ATOM     17  C   UNL A   1      30.814  24.171  25.024  1.00  0.00     0.025 C 
ATOM     18  C   UNL A   1      32.561  24.044  23.503  1.00  0.00     0.314 C 
BRANCH   9  19
ATOM     19  C   UNL A   1      32.441  28.364  25.046  1.00  0.00    -0.015 A 
ATOM     20  C   UNL A   1      34.260  31.153  27.838  1.00  0.00     0.044 C 
ATOM     21  C   UNL A   1      33.614  30.163  26.912  1.00  0.00    -0.051 A 
ATOM     22  C   UNL A   1      34.286  29.001  26.498  1.00  0.00     0.004 A 
ATOM     23  C   UNL A   1      32.324  30.389  26.445  1.00  0.00     0.004 A 
ATOM     24  C   UNL A   1      33.708  28.109  25.571  1.00  0.00     0.009 A 
ATOM     25  C   UNL A   1      31.750  29.499  25.537  1.00  0.00     0.009 A 
ENDBRANCH   9  19
BRANCH  18  26
ATOM     26  C   UNL A   1      33.361  22.937  22.801  1.00  0.00     0.429 C 
ATOM     27  F   UNL A   1      32.754  22.614  21.621  1.00  0.00    -0.167 F 
ATOM     28  F   UNL A   1      34.624  23.281  22.501  1.00  0.00    -0.167 F 
ATOM     29  F   UNL A   1      33.373  21.780  23.504  1.00  0.00    -0.167 F 
ENDBRANCH  18  26
ENDBRANCH   5   8
ENDBRANCH   3   4
ENDBRANCH   2   3
ENDBRANCH   1   2
BRANCH   1  30
ATOM     30  C   UNL A   1      38.556  24.161  26.438  1.00  0.00     0.116 C 
BRANCH  30  31
ATOM     31  N   UNL A   1      40.005  24.246  26.360  1.00  0.00    -0.352 N 
ATOM     32  C   UNL A   1      40.751  25.422  26.274  1.00  0.00     0.251 C 
ATOM     33  H   UNL A   1      40.504  23.398  26.369  1.00  0.00     0.163 HD
ATOM     34  O   UNL A   1      41.873  25.461  25.804  1.00  0.00    -0.269 OA
BRANCH  32  35
ATOM     35  C   UNL A   1      40.175  26.624  26.932  1.00  0.00     0.039 A 
ATOM     36  C   UNL A   1      40.787  27.858  26.675  1.00  0.00     0.014 A 
ATOM     37  C   UNL A   1      39.283  26.485  27.988  1.00  0.00     0.014 A 
ATOM     38  C   UNL A   1      40.663  28.890  27.604  1.00  0.00     0.010 A 
ATOM     39  C   UNL A   1      39.281  27.446  28.974  1.00  0.00     0.010 A 
ATOM     40  C   UNL A   1      40.000  28.634  28.803  1.00  0.00    -0.014 A 
BRANCH  40  41
ATOM     41  C   UNL A   1      40.007  29.524  29.958  1.00  0.00     0.031 A 
ATOM     42  C   UNL A   1      39.125  30.716  29.947  1.00  0.00     0.074 A 
ATOM     43  C   UNL A   1      40.704  29.198  31.070  1.00  0.00     0.049 A 
ATOM     44  N   UNL A   1      39.303  31.771  30.668  1.00  0.00    -0.248 NA
ATOM     45  C   UNL A   1      37.964  30.821  29.066  1.00  0.00     0.031 C 
ATOM     46  C   UNL A   1      40.589  29.824  32.386  1.00  0.00     0.029 A 
ATOM     47  N   UNL A   1      41.812  28.356  31.203  1.00  0.00    -0.354 N 
ATOM     48  C   UNL A   1      38.147  32.521  30.594  1.00  0.00     0.074 A 
ATOM     49  C   UNL A   1      37.386  31.936  29.517  1.00  0.00     0.031 C 
ATOM     50  C   UNL A   1      41.729  29.609  33.064  1.00  0.00     0.029 A 
ATOM     51  C   UNL A   1      42.656  28.977  32.140  1.00  0.00     0.049 A 
ATOM     52  H   UNL A   1      41.970  27.505  30.737  1.00  0.00     0.167 HD
ATOM     53  C   UNL A   1      37.887  33.459  31.550  1.00  0.00     0.031 A 
ATOM     54  C   UNL A   1      43.901  29.455  31.838  1.00  0.00     0.031 A 
ATOM     55  C   UNL A   1      39.005  33.587  32.483  1.00  0.00     0.049 A 
ATOM     56  C   UNL A   1      44.037  30.947  32.089  1.00  0.00     0.074 A 
ATOM     57  C   UNL A   1      39.224  33.103  33.762  1.00  0.00     0.029 A 
ATOM     58  N   UNL A   1      40.237  34.029  32.013  1.00  0.00    -0.354 N 
ATOM     59  N   UNL A   1      43.028  31.756  32.256  1.00  0.00    -0.248 NA
ATOM     60  C   UNL A   1      45.318  31.647  32.143  1.00  0.00     0.031 C 
ATOM     61  C   UNL A   1      40.619  33.173  34.022  1.00  0.00     0.029 A 
ATOM     62  C   UNL A   1      41.238  33.732  32.918  1.00  0.00     0.049 A 
ATOM     63  H   UNL A   1      40.377  34.490  31.154  1.00  0.00     0.167 HD
ATOM     64  C   UNL A   1      43.479  33.038  32.440  1.00  0.00     0.074 A 
ATOM     65  C   UNL A   1      44.924  32.914  32.371  1.00  0.00     0.031 C 
ATOM     66  C   UNL A   1      42.623  34.088  32.629  1.00  0.00     0.031 A 
BRANCH  53  67
ATOM     67  C   UNL A   1      36.508  34.039  31.808  1.00  0.00    -0.014 A 
ATOM     68  C   UNL A   1      35.464  33.787  30.894  1.00  0.00     0.010 A 
ATOM     69  C   UNL A   1      36.186  34.885  32.887  1.00  0.00     0.010 A 
ATOM     70  C   UNL A   1      34.211  34.417  30.993  1.00  0.00     0.020 A 
ATOM     71  C   UNL A   1      34.953  35.552  32.981  1.00  0.00     0.020 A 
ATOM     72  C   UNL A   1      33.973  35.322  32.023  1.00  0.00     0.054 A 
BRANCH  72  73
ATOM     73  S   UNL A   1      32.382  36.186  32.100  1.00  0.00     0.124 S 
ATOM     74  O   UNL A   1      32.253  36.731  30.752  1.00  0.00    -0.237 OA
ATOM     75  O   UNL A   1      31.456  35.108  32.435  1.00  0.00    -0.237 OA
ATOM     76  O   UNL A   1      32.579  37.184  33.150  1.00  0.00    -0.744 OA
ENDBRANCH  72  73
ENDBRANCH  53  67
BRANCH  54  77
ATOM     77  C   UNL A   1      44.609  28.691  30.771  1.00  0.00    -0.014 A 
ATOM     78  C   UNL A   1      45.370  27.574  31.174  1.00  0.00     0.010 A 
ATOM     79  C   UNL A   1      44.179  28.773  29.435  1.00  0.00     0.010 A 
ATOM     80  C   UNL A   1      45.522  26.473  30.326  1.00  0.00     0.020 A 
ATOM     81  C   UNL A   1      44.337  27.671  28.580  1.00  0.00     0.020 A 
ATOM     82  C   UNL A   1      44.933  26.502  29.062  1.00  0.00     0.054 A 
BRANCH  82  83
ATOM     83  S   UNL A   1      44.784  24.935  28.150  1.00  0.00     0.124 S 
ATOM     84  O   UNL A   1      43.454  24.471  28.534  1.00  0.00    -0.237 OA
ATOM     85  O   UNL A   1      44.920  25.379  26.762  1.00  0.00    -0.237 OA
ATOM     86  O   UNL A   1      45.898  24.144  28.665  1.00  0.00    -0.744 OA
ENDBRANCH  82  83
ENDBRANCH  54  77
BRANCH  66  87
ATOM     87  C   UNL A   1      42.989  35.558  32.643  1.00  0.00    -0.014 A 
ATOM     88  C   UNL A   1      42.820  36.411  33.744  1.00  0.00     0.010 A 
ATOM     89  C   UNL A   1      43.656  36.105  31.517  1.00  0.00     0.010 A 
ATOM     90  C   UNL A   1      43.234  37.752  33.703  1.00  0.00     0.020 A 
ATOM     91  C   UNL A   1      44.117  37.424  31.482  1.00  0.00     0.020 A 
ATOM     92  C   UNL A   1      43.878  38.251  32.569  1.00  0.00     0.054 A 
BRANCH  92  93
ATOM     93  S   UNL A   1      44.461  39.964  32.551  1.00  0.00     0.124 S 
ATOM     94  O   UNL A   1      45.911  39.789  32.552  1.00  0.00    -0.237 OA
ATOM     95  O   UNL A   1      43.895  40.490  31.311  1.00  0.00    -0.237 OA
ATOM     96  O   UNL A   1      43.898  40.532  33.773  1.00  0.00    -0.744 OA
ENDBRANCH  92  93
ENDBRANCH  66  87
ENDBRANCH  40  41
ENDBRANCH  32  35
ENDBRANCH  30  31
ENDBRANCH   1  30
TORSDOF 16
ENDMDL
