MODEL 1
REMARK VINA RESULT:     -11.4      0.000      0.000
REMARK SMILES C[C@@H]1[C@H](C(=O)NCCCCNC(=O)c2ccc(-c3c4nc(c(-c5ccc(S(=O)(=O)[O-])cc5)c5ccc([nH]5)c(-c5ccc(S(=O)(=O)[O-])cc5)c5nc(c(-c6ccc(S(=O)(=O)[O-])cc6)c6ccc3[nH]6)C=C5)C=C4)cc2)CCN1C(=O)/C=C/c1cccc(Br)c1
REMARK SMILES IDX 8 1 7 2 6 3 4 4 5 5 3 7 1 8 2 9 76 10 74 11 75 12 77 13
REMARK SMILES IDX 78 14 79 15 80 16 81 17 82 18 87 19 83 20 85 21 84 22 86 23
REMARK SMILES IDX 9 24 10 25 11 26 12 27 13 29 14 30 15 31 73 32 16 33 72 34
REMARK SMILES IDX 17 35 18 36 19 37 66 38 20 39 71 40 65 41 67 42 21 43 70 44
REMARK SMILES IDX 64 45 63 46 22 48 52 49 33 50 51 51 34 52 37 53 50 54 68 55
REMARK SMILES IDX 35 56 36 57 49 59 69 60 38 61 23 62 24 63 32 64 25 65 31 66
REMARK SMILES IDX 26 67 27 68 28 69 29 70 30 71 53 72 54 73 62 74 55 75 61 76
REMARK SMILES IDX 56 77 57 78 58 79 59 80 60 81 39 82 40 83 48 84 41 85 47 86
REMARK SMILES IDX 42 87 43 88 44 89 45 90 46 91
REMARK H PARENT 6 6 11 28 67 47 37 58
REMARK Flexibility Score: inf
ROOT
ATOM      1  C   UNL A   1      32.865  29.271  24.911  1.00  0.00     0.023 C 
ENDROOT
BRANCH   1   2
ATOM      2  C   UNL A   1      31.613  28.557  24.388  1.00  0.00     0.116 C 
BRANCH   2   3
ATOM      3  N   UNL A   1      31.880  27.731  23.224  1.00  0.00    -0.356 N 
ATOM      4  C   UNL A   1      31.785  26.401  22.971  1.00  0.00     0.225 C 
ATOM      5  O   UNL A   1      32.125  26.046  21.834  1.00  0.00    -0.275 OA
ATOM      6  H   UNL A   1      32.201  28.248  22.449  1.00  0.00     0.163 HD
BRANCH   4   7
ATOM      7  C   UNL A   1      31.346  25.326  23.964  1.00  0.00     0.102 C 
ATOM      8  C   UNL A   1      33.778  24.939  24.694  1.00  0.00     0.032 C 
ATOM      9  C   UNL A   1      32.417  24.334  24.452  1.00  0.00     0.094 C 
ATOM     10  N   UNL A   1      31.863  23.774  25.691  1.00  0.00    -0.336 N 
ATOM     11  C   UNL A   1      30.577  25.727  25.215  1.00  0.00     0.037 C 
ATOM     12  C   UNL A   1      30.643  24.470  26.078  1.00  0.00     0.121 C 
BRANCH  10  13
ATOM     13  C   UNL A   1      32.338  22.737  26.470  1.00  0.00     0.246 C 
ATOM     14  O   UNL A   1      32.548  22.862  27.677  1.00  0.00    -0.270 OA
BRANCH  13  15
ATOM     15  C   UNL A   1      32.767  21.465  25.819  1.00  0.00     0.072 C 
ATOM     16  C   UNL A   1      31.999  20.686  25.043  1.00  0.00     0.014 C 
BRANCH  16  17
ATOM     17  C   UNL A   1      32.530  19.528  24.313  1.00  0.00    -0.024 A 
ATOM     18  C   UNL A   1      32.192  19.314  22.965  1.00  0.00     0.008 A 
ATOM     19  C   UNL A   1      33.336  18.596  24.967  1.00  0.00     0.023 A 
ATOM     20  C   UNL A   1      32.640  18.177  22.288  1.00  0.00     0.002 A 
ATOM     21  C   UNL A   1      33.774  17.457  24.286  1.00  0.00     0.018 A 
ATOM     22  C   UNL A   1      33.428  17.241  22.951  1.00  0.00     0.016 A 
ATOM     23  Br  UNL A   1      34.831  16.178  25.192  1.00  0.00    -0.051 Br
ENDBRANCH  16  17
ENDBRANCH  13  15
ENDBRANCH  10  13
ENDBRANCH   4   7
ENDBRANCH   2   3
ENDBRANCH   1   2
BRANCH   1  24
ATOM     24  C   UNL A   1      33.849  28.413  25.682  1.00  0.00     0.023 C 
BRANCH  24  25
ATOM     25  C   UNL A   1      33.711  28.517  27.185  1.00  0.00     0.116 C 
BRANCH  25  26
ATOM     26  N   UNL A   1      33.602  29.888  27.665  1.00  0.00    -0.352 N 
ATOM     27  C   UNL A   1      34.564  30.650  28.290  1.00  0.00     0.251 C 
ATOM     28  H   UNL A   1      32.730  30.326  27.524  1.00  0.00     0.163 HD
ATOM     29  O   UNL A   1      34.299  31.754  28.737  1.00  0.00    -0.269 OA
BRANCH  27  30
ATOM     30  C   UNL A   1      35.913  30.069  28.436  1.00  0.00     0.039 A 
ATOM     31  C   UNL A   1      36.795  30.114  27.356  1.00  0.00     0.014 A 
ATOM     32  C   UNL A   1      36.324  29.591  29.682  1.00  0.00     0.014 A 
ATOM     33  C   UNL A   1      38.125  29.742  27.552  1.00  0.00     0.010 A 
ATOM     34  C   UNL A   1      37.667  29.336  29.900  1.00  0.00     0.010 A 
ATOM     35  C   UNL A   1      38.577  29.388  28.834  1.00  0.00    -0.014 A 
BRANCH  35  36
ATOM     36  C   UNL A   1      39.986  29.010  29.089  1.00  0.00     0.031 A 
ATOM     37  C   UNL A   1      40.919  30.030  29.684  1.00  0.00     0.074 A 
ATOM     38  C   UNL A   1      40.440  27.798  28.714  1.00  0.00     0.049 A 
ATOM     39  N   UNL A   1      42.207  29.951  29.887  1.00  0.00    -0.248 NA
ATOM     40  C   UNL A   1      40.332  31.330  30.056  1.00  0.00     0.031 C 
ATOM     41  C   UNL A   1      39.643  26.747  28.076  1.00  0.00     0.029 A 
ATOM     42  N   UNL A   1      41.693  27.249  28.813  1.00  0.00    -0.354 N 
ATOM     43  C   UNL A   1      42.587  31.197  30.371  1.00  0.00     0.074 A 
ATOM     44  C   UNL A   1      41.407  32.032  30.372  1.00  0.00     0.031 C 
ATOM     45  C   UNL A   1      40.419  25.668  27.875  1.00  0.00     0.029 A 
ATOM     46  C   UNL A   1      41.771  25.963  28.336  1.00  0.00     0.049 A 
ATOM     47  H   UNL A   1      42.464  27.731  29.191  1.00  0.00     0.167 HD
ATOM     48  C   UNL A   1      43.801  31.604  30.809  1.00  0.00     0.031 A 
ATOM     49  C   UNL A   1      42.818  25.117  28.282  1.00  0.00     0.031 A 
ATOM     50  C   UNL A   1      44.956  30.752  30.850  1.00  0.00     0.049 A 
ATOM     51  C   UNL A   1      44.147  25.571  28.820  1.00  0.00     0.074 A 
ATOM     52  C   UNL A   1      46.220  31.037  31.333  1.00  0.00     0.029 A 
ATOM     53  N   UNL A   1      44.981  29.439  30.405  1.00  0.00    -0.354 N 
ATOM     54  N   UNL A   1      44.476  26.737  29.324  1.00  0.00    -0.248 NA
ATOM     55  C   UNL A   1      45.241  24.590  28.798  1.00  0.00     0.031 C 
ATOM     56  C   UNL A   1      47.019  29.903  31.153  1.00  0.00     0.029 A 
ATOM     57  C   UNL A   1      46.239  28.899  30.598  1.00  0.00     0.049 A 
ATOM     58  H   UNL A   1      44.215  28.962  30.009  1.00  0.00     0.167 HD
ATOM     59  C   UNL A   1      45.808  26.622  29.707  1.00  0.00     0.074 A 
ATOM     60  C   UNL A   1      46.218  25.269  29.385  1.00  0.00     0.031 C 
ATOM     61  C   UNL A   1      46.617  27.548  30.276  1.00  0.00     0.031 A 
BRANCH  48  62
ATOM     62  C   UNL A   1      43.921  33.027  31.281  1.00  0.00    -0.014 A 
ATOM     63  C   UNL A   1      43.668  33.369  32.624  1.00  0.00     0.010 A 
ATOM     64  C   UNL A   1      44.284  34.038  30.374  1.00  0.00     0.010 A 
ATOM     65  C   UNL A   1      43.719  34.703  33.036  1.00  0.00     0.020 A 
ATOM     66  C   UNL A   1      44.366  35.370  30.790  1.00  0.00     0.020 A 
ATOM     67  C   UNL A   1      44.060  35.696  32.113  1.00  0.00     0.054 A 
BRANCH  67  68
ATOM     68  S   UNL A   1      44.121  37.420  32.673  1.00  0.00     0.124 S 
ATOM     69  O   UNL A   1      45.482  37.519  33.192  1.00  0.00    -0.237 OA
ATOM     70  O   UNL A   1      43.862  38.167  31.445  1.00  0.00    -0.237 OA
ATOM     71  O   UNL A   1      43.063  37.494  33.678  1.00  0.00    -0.744 OA
ENDBRANCH  67  68
ENDBRANCH  48  62
BRANCH  49  72
ATOM     72  C   UNL A   1      42.636  23.741  27.745  1.00  0.00    -0.014 A 
ATOM     73  C   UNL A   1      42.195  22.704  28.587  1.00  0.00     0.010 A 
ATOM     74  C   UNL A   1      42.875  23.464  26.387  1.00  0.00     0.010 A 
ATOM     75  C   UNL A   1      42.014  21.412  28.086  1.00  0.00     0.020 A 
ATOM     76  C   UNL A   1      42.672  22.177  25.877  1.00  0.00     0.020 A 
ATOM     77  C   UNL A   1      42.252  21.157  26.733  1.00  0.00     0.054 A 
BRANCH  77  78
ATOM     78  S   UNL A   1      41.953  19.486  26.091  1.00  0.00     0.124 S 
ATOM     79  O   UNL A   1      42.799  19.462  24.902  1.00  0.00    -0.237 OA
ATOM     80  O   UNL A   1      42.390  18.639  27.197  1.00  0.00    -0.237 OA
ATOM     81  O   UNL A   1      40.514  19.471  25.839  1.00  0.00    -0.744 OA
ENDBRANCH  77  78
ENDBRANCH  49  72
BRANCH  61  82
ATOM     82  C   UNL A   1      48.014  27.118  30.630  1.00  0.00    -0.014 A 
ATOM     83  C   UNL A   1      49.070  27.253  29.713  1.00  0.00     0.010 A 
ATOM     84  C   UNL A   1      48.278  26.629  31.922  1.00  0.00     0.010 A 
ATOM     85  C   UNL A   1      50.366  26.879  30.075  1.00  0.00     0.020 A 
ATOM     86  C   UNL A   1      49.577  26.277  32.295  1.00  0.00     0.020 A 
ATOM     87  C   UNL A   1      50.610  26.391  31.363  1.00  0.00     0.054 A 
BRANCH  87  88
ATOM     88  S   UNL A   1      52.309  25.956  31.826  1.00  0.00     0.124 S 
ATOM     89  O   UNL A   1      52.190  24.527  32.101  1.00  0.00    -0.237 OA
ATOM     90  O   UNL A   1      53.069  26.305  30.629  1.00  0.00    -0.237 OA
ATOM     91  O   UNL A   1      52.575  26.795  32.992  1.00  0.00    -0.744 OA
ENDBRANCH  87  88
ENDBRANCH  61  82
ENDBRANCH  35  36
ENDBRANCH  27  30
ENDBRANCH  25  26
ENDBRANCH  24  25
ENDBRANCH   1  24
TORSDOF 17
ENDMDL
MODEL 2
REMARK VINA RESULT:     -11.0      3.953      9.771
REMARK SMILES C[C@@H]1[C@H](C(=O)NCCCCNC(=O)c2ccc(-c3c4nc(c(-c5ccc(S(=O)(=O)[O-])cc5)c5ccc([nH]5)c(-c5ccc(S(=O)(=O)[O-])cc5)c5nc(c(-c6ccc(S(=O)(=O)[O-])cc6)c6ccc3[nH]6)C=C5)C=C4)cc2)CCN1C(=O)/C=C/c1cccc(Br)c1
REMARK SMILES IDX 8 1 7 2 6 3 4 4 5 5 3 7 1 8 2 9 76 10 74 11 75 12 77 13
REMARK SMILES IDX 78 14 79 15 80 16 81 17 82 18 87 19 83 20 85 21 84 22 86 23
REMARK SMILES IDX 9 24 10 25 11 26 12 27 13 29 14 30 15 31 73 32 16 33 72 34
REMARK SMILES IDX 17 35 18 36 19 37 66 38 20 39 71 40 65 41 67 42 21 43 70 44
REMARK SMILES IDX 64 45 63 46 22 48 52 49 33 50 51 51 34 52 37 53 50 54 68 55
REMARK SMILES IDX 35 56 36 57 49 59 69 60 38 61 23 62 24 63 32 64 25 65 31 66
REMARK SMILES IDX 26 67 27 68 28 69 29 70 30 71 53 72 54 73 62 74 55 75 61 76
REMARK SMILES IDX 56 77 57 78 58 79 59 80 60 81 39 82 40 83 48 84 41 85 47 86
REMARK SMILES IDX 42 87 43 88 44 89 45 90 46 91
REMARK H PARENT 6 6 11 28 67 47 37 58
REMARK Flexibility Score: inf
ROOT
ATOM      1  C   UNL A   1      39.060  22.721  26.342  1.00  0.00     0.023 C 
ENDROOT
BRANCH   1   2
ATOM      2  C   UNL A   1      37.790  23.346  25.753  1.00  0.00     0.116 C 
BRANCH   2   3
ATOM      3  N   UNL A   1      36.607  22.532  25.971  1.00  0.00    -0.356 N 
ATOM      4  C   UNL A   1      35.274  22.755  25.847  1.00  0.00     0.225 C 
ATOM      5  O   UNL A   1      34.541  21.803  26.148  1.00  0.00    -0.275 OA
ATOM      6  H   UNL A   1      36.818  21.620  26.277  1.00  0.00     0.163 HD
BRANCH   4   7
ATOM      7  C   UNL A   1      34.618  24.067  25.421  1.00  0.00     0.102 C 
ATOM      8  C   UNL A   1      33.991  23.068  23.139  1.00  0.00     0.032 C 
ATOM      9  C   UNL A   1      34.407  24.295  23.913  1.00  0.00     0.094 C 
ATOM     10  N   UNL A   1      33.375  25.338  23.840  1.00  0.00    -0.336 N 
ATOM     11  C   UNL A   1      33.316  24.505  26.075  1.00  0.00     0.037 C 
ATOM     12  C   UNL A   1      32.828  25.624  25.159  1.00  0.00     0.121 C 
BRANCH  10  13
ATOM     13  C   UNL A   1      32.904  26.024  22.737  1.00  0.00     0.246 C 
ATOM     14  O   UNL A   1      33.587  26.200  21.728  1.00  0.00    -0.270 OA
BRANCH  13  15
ATOM     15  C   UNL A   1      31.585  26.717  22.812  1.00  0.00     0.072 C 
ATOM     16  C   UNL A   1      31.390  28.040  22.707  1.00  0.00     0.014 C 
BRANCH  16  17
ATOM     17  C   UNL A   1      30.052  28.641  22.640  1.00  0.00    -0.024 A 
ATOM     18  C   UNL A   1      28.945  27.992  23.214  1.00  0.00     0.008 A 
ATOM     19  C   UNL A   1      29.856  29.841  21.956  1.00  0.00     0.023 A 
ATOM     20  C   UNL A   1      27.661  28.527  23.092  1.00  0.00     0.002 A 
ATOM     21  C   UNL A   1      28.567  30.366  21.831  1.00  0.00     0.018 A 
ATOM     22  C   UNL A   1      27.469  29.715  22.392  1.00  0.00     0.016 A 
ATOM     23  Br  UNL A   1      28.305  31.971  20.866  1.00  0.00    -0.051 Br
ENDBRANCH  16  17
ENDBRANCH  13  15
ENDBRANCH  10  13
ENDBRANCH   4   7
ENDBRANCH   2   3
ENDBRANCH   1   2
BRANCH   1  24
ATOM     24  C   UNL A   1      39.370  21.304  25.904  1.00  0.00     0.023 C 
BRANCH  24  25
ATOM     25  C   UNL A   1      40.180  20.511  26.907  1.00  0.00     0.116 C 
BRANCH  25  26
ATOM     26  N   UNL A   1      41.069  19.533  26.293  1.00  0.00    -0.352 N 
ATOM     27  C   UNL A   1      42.357  19.720  25.841  1.00  0.00     0.251 C 
ATOM     28  H   UNL A   1      40.702  18.625  26.188  1.00  0.00     0.163 HD
ATOM     29  O   UNL A   1      42.948  18.833  25.247  1.00  0.00    -0.269 OA
BRANCH  27  30
ATOM     30  C   UNL A   1      42.979  21.039  26.065  1.00  0.00     0.039 A 
ATOM     31  C   UNL A   1      43.068  21.939  25.003  1.00  0.00     0.014 A 
ATOM     32  C   UNL A   1      43.361  21.409  27.356  1.00  0.00     0.014 A 
ATOM     33  C   UNL A   1      43.477  23.248  25.258  1.00  0.00     0.010 A 
ATOM     34  C   UNL A   1      43.651  22.736  27.623  1.00  0.00     0.010 A 
ATOM     35  C   UNL A   1      43.734  23.663  26.575  1.00  0.00    -0.014 A 
BRANCH  35  36
ATOM     36  C   UNL A   1      44.147  25.051  26.890  1.00  0.00     0.031 A 
ATOM     37  C   UNL A   1      45.591  25.439  26.721  1.00  0.00     0.074 A 
ATOM     38  C   UNL A   1      43.256  25.923  27.401  1.00  0.00     0.049 A 
ATOM     39  N   UNL A   1      46.188  26.556  27.039  1.00  0.00    -0.248 NA
ATOM     40  C   UNL A   1      46.492  24.414  26.162  1.00  0.00     0.031 C 
ATOM     41  C   UNL A   1      41.841  25.644  27.664  1.00  0.00     0.029 A 
ATOM     42  N   UNL A   1      43.415  27.226  27.796  1.00  0.00    -0.354 N 
ATOM     43  C   UNL A   1      47.534  26.354  26.755  1.00  0.00     0.074 A 
ATOM     44  C   UNL A   1      47.675  24.990  26.300  1.00  0.00     0.031 C 
ATOM     45  C   UNL A   1      41.255  26.755  28.141  1.00  0.00     0.029 A 
ATOM     46  C   UNL A   1      42.257  27.810  28.252  1.00  0.00     0.049 A 
ATOM     47  H   UNL A   1      44.277  27.700  27.756  1.00  0.00     0.167 HD
ATOM     48  C   UNL A   1      48.559  27.234  26.834  1.00  0.00     0.031 A 
ATOM     49  C   UNL A   1      42.031  29.059  28.704  1.00  0.00     0.031 A 
ATOM     50  C   UNL A   1      48.401  28.602  27.241  1.00  0.00     0.049 A 
ATOM     51  C   UNL A   1      43.173  30.037  28.736  1.00  0.00     0.074 A 
ATOM     52  C   UNL A   1      49.357  29.600  27.297  1.00  0.00     0.029 A 
ATOM     53  N   UNL A   1      47.202  29.168  27.647  1.00  0.00    -0.354 N 
ATOM     54  N   UNL A   1      44.431  29.844  28.414  1.00  0.00    -0.248 NA
ATOM     55  C   UNL A   1      42.863  31.404  29.175  1.00  0.00     0.031 C 
ATOM     56  C   UNL A   1      48.740  30.766  27.764  1.00  0.00     0.029 A 
ATOM     57  C   UNL A   1      47.391  30.502  27.957  1.00  0.00     0.049 A 
ATOM     58  H   UNL A   1      46.343  28.691  27.705  1.00  0.00     0.167 HD
ATOM     59  C   UNL A   1      45.057  31.074  28.583  1.00  0.00     0.074 A 
ATOM     60  C   UNL A   1      44.037  32.004  29.027  1.00  0.00     0.031 C 
ATOM     61  C   UNL A   1      46.356  31.407  28.388  1.00  0.00     0.031 A 
BRANCH  48  62
ATOM     62  C   UNL A   1      49.927  26.733  26.462  1.00  0.00    -0.014 A 
ATOM     63  C   UNL A   1      50.342  26.688  25.117  1.00  0.00     0.010 A 
ATOM     64  C   UNL A   1      50.808  26.292  27.465  1.00  0.00     0.010 A 
ATOM     65  C   UNL A   1      51.590  26.159  24.779  1.00  0.00     0.020 A 
ATOM     66  C   UNL A   1      52.070  25.791  27.132  1.00  0.00     0.020 A 
ATOM     67  C   UNL A   1      52.443  25.707  25.789  1.00  0.00     0.054 A 
BRANCH  67  68
ATOM     68  S   UNL A   1      54.058  25.025  25.323  1.00  0.00     0.124 S 
ATOM     69  O   UNL A   1      54.782  25.077  26.591  1.00  0.00    -0.237 OA
ATOM     70  O   UNL A   1      53.718  23.686  24.850  1.00  0.00    -0.237 OA
ATOM     71  O   UNL A   1      54.537  25.944  24.294  1.00  0.00    -0.744 OA
ENDBRANCH  67  68
ENDBRANCH  48  62
BRANCH  49  72
ATOM     72  C   UNL A   1      40.659  29.465  29.112  1.00  0.00    -0.014 A 
ATOM     73  C   UNL A   1      40.369  29.720  30.464  1.00  0.00     0.010 A 
ATOM     74  C   UNL A   1      39.643  29.625  28.153  1.00  0.00     0.010 A 
ATOM     75  C   UNL A   1      39.085  30.110  30.853  1.00  0.00     0.020 A 
ATOM     76  C   UNL A   1      38.363  30.038  28.536  1.00  0.00     0.020 A 
ATOM     77  C   UNL A   1      38.089  30.269  29.886  1.00  0.00     0.054 A 
BRANCH  77  78
ATOM     78  S   UNL A   1      36.445  30.834  30.405  1.00  0.00     0.124 S 
ATOM     79  O   UNL A   1      35.660  30.641  29.190  1.00  0.00    -0.237 OA
ATOM     80  O   UNL A   1      36.133  29.930  31.509  1.00  0.00    -0.237 OA
ATOM     81  O   UNL A   1      36.670  32.224  30.795  1.00  0.00    -0.744 OA
ENDBRANCH  77  78
ENDBRANCH  49  72
BRANCH  61  82
ATOM     82  C   UNL A   1      46.741  32.843  28.607  1.00  0.00    -0.014 A 
ATOM     83  C   UNL A   1      47.211  33.288  29.854  1.00  0.00     0.010 A 
ATOM     84  C   UNL A   1      46.686  33.743  27.527  1.00  0.00     0.010 A 
ATOM     85  C   UNL A   1      47.594  34.620  30.025  1.00  0.00     0.020 A 
ATOM     86  C   UNL A   1      47.092  35.069  27.689  1.00  0.00     0.020 A 
ATOM     87  C   UNL A   1      47.530  35.503  28.941  1.00  0.00     0.054 A 
BRANCH  87  88
ATOM     88  S   UNL A   1      48.078  37.216  29.175  1.00  0.00     0.124 S 
ATOM     89  O   UNL A   1      49.306  37.038  29.944  1.00  0.00    -0.237 OA
ATOM     90  O   UNL A   1      48.257  37.687  27.804  1.00  0.00    -0.237 OA
ATOM     91  O   UNL A   1      46.972  37.836  29.900  1.00  0.00    -0.744 OA
ENDBRANCH  87  88
ENDBRANCH  61  82
ENDBRANCH  35  36
ENDBRANCH  27  30
ENDBRANCH  25  26
ENDBRANCH  24  25
ENDBRANCH   1  24
TORSDOF 17
ENDMDL
MODEL 3
REMARK VINA RESULT:     -10.9      3.648      9.574
REMARK SMILES C[C@@H]1[C@H](C(=O)NCCCCNC(=O)c2ccc(-c3c4nc(c(-c5ccc(S(=O)(=O)[O-])cc5)c5ccc([nH]5)c(-c5ccc(S(=O)(=O)[O-])cc5)c5nc(c(-c6ccc(S(=O)(=O)[O-])cc6)c6ccc3[nH]6)C=C5)C=C4)cc2)CCN1C(=O)/C=C/c1cccc(Br)c1
REMARK SMILES IDX 8 1 7 2 6 3 4 4 5 5 3 7 1 8 2 9 76 10 74 11 75 12 77 13
REMARK SMILES IDX 78 14 79 15 80 16 81 17 82 18 87 19 83 20 85 21 84 22 86 23
REMARK SMILES IDX 9 24 10 25 11 26 12 27 13 29 14 30 15 31 73 32 16 33 72 34
REMARK SMILES IDX 17 35 18 36 19 37 66 38 20 39 71 40 65 41 67 42 21 43 70 44
REMARK SMILES IDX 64 45 63 46 22 48 52 49 33 50 51 51 34 52 37 53 50 54 68 55
REMARK SMILES IDX 35 56 36 57 49 59 69 60 38 61 23 62 24 63 32 64 25 65 31 66
REMARK SMILES IDX 26 67 27 68 28 69 29 70 30 71 53 72 54 73 62 74 55 75 61 76
REMARK SMILES IDX 56 77 57 78 58 79 59 80 60 81 39 82 40 83 48 84 41 85 47 86
REMARK SMILES IDX 42 87 43 88 44 89 45 90 46 91
REMARK H PARENT 6 6 11 28 67 47 37 58
REMARK Flexibility Score: inf
ROOT
ATOM      1  C   UNL A   1      37.744  20.774  24.930  1.00  0.00     0.023 C 
ENDROOT
BRANCH   1   2
ATOM      2  C   UNL A   1      36.275  21.097  25.231  1.00  0.00     0.116 C 
BRANCH   2   3
ATOM      3  N   UNL A   1      35.391  19.968  25.001  1.00  0.00    -0.356 N 
ATOM      4  C   UNL A   1      34.062  19.848  24.756  1.00  0.00     0.225 C 
ATOM      5  O   UNL A   1      33.643  18.690  24.627  1.00  0.00    -0.275 OA
ATOM      6  H   UNL A   1      35.858  19.101  25.031  1.00  0.00     0.163 HD
BRANCH   4   7
ATOM      7  C   UNL A   1      33.056  20.994  24.673  1.00  0.00     0.102 C 
ATOM      8  C   UNL A   1      33.353  21.500  27.174  1.00  0.00     0.032 C 
ATOM      9  C   UNL A   1      32.417  21.473  25.990  1.00  0.00     0.094 C 
ATOM     10  N   UNL A   1      31.912  22.818  25.687  1.00  0.00    -0.336 N 
ATOM     11  C   UNL A   1      33.426  22.268  23.926  1.00  0.00     0.037 C 
ATOM     12  C   UNL A   1      32.347  23.253  24.366  1.00  0.00     0.121 C 
BRANCH  10  13
ATOM     13  C   UNL A   1      31.129  23.651  26.462  1.00  0.00     0.246 C 
ATOM     14  O   UNL A   1      30.425  23.230  27.379  1.00  0.00    -0.270 OA
BRANCH  13  15
ATOM     15  C   UNL A   1      30.997  25.090  26.091  1.00  0.00     0.072 C 
ATOM     16  C   UNL A   1      31.803  26.081  26.501  1.00  0.00     0.014 C 
BRANCH  16  17
ATOM     17  C   UNL A   1      31.705  27.449  25.977  1.00  0.00    -0.024 A 
ATOM     18  C   UNL A   1      32.065  28.550  26.774  1.00  0.00     0.008 A 
ATOM     19  C   UNL A   1      31.202  27.674  24.695  1.00  0.00     0.023 A 
ATOM     20  C   UNL A   1      31.909  29.855  26.302  1.00  0.00     0.002 A 
ATOM     21  C   UNL A   1      31.040  28.983  24.233  1.00  0.00     0.018 A 
ATOM     22  C   UNL A   1      31.388  30.074  25.030  1.00  0.00     0.016 A 
ATOM     23  Br  UNL A   1      30.317  29.280  22.511  1.00  0.00    -0.051 Br
ENDBRANCH  16  17
ENDBRANCH  13  15
ENDBRANCH  10  13
ENDBRANCH   4   7
ENDBRANCH   2   3
ENDBRANCH   1   2
BRANCH   1  24
ATOM     24  C   UNL A   1      38.771  21.685  25.573  1.00  0.00     0.023 C 
BRANCH  24  25
ATOM     25  C   UNL A   1      39.504  21.061  26.741  1.00  0.00     0.116 C 
BRANCH  25  26
ATOM     26  N   UNL A   1      40.409  19.988  26.351  1.00  0.00    -0.352 N 
ATOM     27  C   UNL A   1      41.762  20.065  26.101  1.00  0.00     0.251 C 
ATOM     28  H   UNL A   1      40.003  19.095  26.255  1.00  0.00     0.163 HD
ATOM     29  O   UNL A   1      42.377  19.100  25.677  1.00  0.00    -0.269 OA
BRANCH  27  30
ATOM     30  C   UNL A   1      42.429  21.361  26.325  1.00  0.00     0.039 A 
ATOM     31  C   UNL A   1      42.643  22.214  25.242  1.00  0.00     0.014 A 
ATOM     32  C   UNL A   1      42.730  21.765  27.628  1.00  0.00     0.014 A 
ATOM     33  C   UNL A   1      43.094  23.512  25.481  1.00  0.00     0.010 A 
ATOM     34  C   UNL A   1      43.064  23.086  27.869  1.00  0.00     0.010 A 
ATOM     35  C   UNL A   1      43.271  23.967  26.798  1.00  0.00    -0.014 A 
BRANCH  35  36
ATOM     36  C   UNL A   1      43.726  25.345  27.094  1.00  0.00     0.031 A 
ATOM     37  C   UNL A   1      45.168  25.705  26.855  1.00  0.00     0.074 A 
ATOM     38  C   UNL A   1      42.878  26.234  27.648  1.00  0.00     0.049 A 
ATOM     39  N   UNL A   1      45.802  26.809  27.146  1.00  0.00    -0.248 NA
ATOM     40  C   UNL A   1      46.020  24.664  26.252  1.00  0.00     0.031 C 
ATOM     41  C   UNL A   1      41.473  25.982  27.979  1.00  0.00     0.029 A 
ATOM     42  N   UNL A   1      43.082  27.533  28.036  1.00  0.00    -0.354 N 
ATOM     43  C   UNL A   1      47.128  26.581  26.797  1.00  0.00     0.074 A 
ATOM     44  C   UNL A   1      47.220  25.215  26.335  1.00  0.00     0.031 C 
ATOM     45  C   UNL A   1      40.933  27.104  28.485  1.00  0.00     0.029 A 
ATOM     46  C   UNL A   1      41.959  28.139  28.549  1.00  0.00     0.049 A 
ATOM     47  H   UNL A   1      43.950  27.990  27.956  1.00  0.00     0.167 HD
ATOM     48  C   UNL A   1      48.173  27.441  26.827  1.00  0.00     0.031 A 
ATOM     49  C   UNL A   1      41.781  29.391  29.012  1.00  0.00     0.031 A 
ATOM     50  C   UNL A   1      48.063  28.811  27.243  1.00  0.00     0.049 A 
ATOM     51  C   UNL A   1      42.942  30.346  28.991  1.00  0.00     0.074 A 
ATOM     52  C   UNL A   1      49.039  29.789  27.254  1.00  0.00     0.029 A 
ATOM     53  N   UNL A   1      46.895  29.400  27.707  1.00  0.00    -0.354 N 
ATOM     54  N   UNL A   1      44.179  30.129  28.608  1.00  0.00    -0.248 NA
ATOM     55  C   UNL A   1      42.681  31.718  29.446  1.00  0.00     0.031 C 
ATOM     56  C   UNL A   1      48.469  30.966  27.752  1.00  0.00     0.029 A 
ATOM     57  C   UNL A   1      47.127  30.729  28.009  1.00  0.00     0.049 A 
ATOM     58  H   UNL A   1      46.031  28.939  27.806  1.00  0.00     0.167 HD
ATOM     59  C   UNL A   1      44.837  31.346  28.748  1.00  0.00     0.074 A 
ATOM     60  C   UNL A   1      43.858  32.295  29.241  1.00  0.00     0.031 C 
ATOM     61  C   UNL A   1      46.132  31.653  28.490  1.00  0.00     0.031 A 
BRANCH  48  62
ATOM     62  C   UNL A   1      49.512  26.913  26.389  1.00  0.00    -0.014 A 
ATOM     63  C   UNL A   1      49.950  27.063  25.059  1.00  0.00     0.010 A 
ATOM     64  C   UNL A   1      50.340  26.251  27.312  1.00  0.00     0.010 A 
ATOM     65  C   UNL A   1      51.166  26.511  24.649  1.00  0.00     0.020 A 
ATOM     66  C   UNL A   1      51.572  25.725  26.912  1.00  0.00     0.020 A 
ATOM     67  C   UNL A   1      51.965  25.838  25.577  1.00  0.00     0.054 A 
BRANCH  67  68
ATOM     68  S   UNL A   1      53.540  25.131  25.018  1.00  0.00     0.124 S 
ATOM     69  O   UNL A   1      53.551  25.504  23.606  1.00  0.00    -0.237 OA
ATOM     70  O   UNL A   1      54.517  25.820  25.857  1.00  0.00    -0.237 OA
ATOM     71  O   UNL A   1      53.391  23.703  25.285  1.00  0.00    -0.744 OA
ENDBRANCH  67  68
ENDBRANCH  48  62
BRANCH  49  72
ATOM     72  C   UNL A   1      40.439  29.824  29.487  1.00  0.00    -0.014 A 
ATOM     73  C   UNL A   1      40.180  29.945  30.864  1.00  0.00     0.010 A 
ATOM     74  C   UNL A   1      39.421  30.142  28.569  1.00  0.00     0.010 A 
ATOM     75  C   UNL A   1      38.924  30.358  31.315  1.00  0.00     0.020 A 
ATOM     76  C   UNL A   1      38.171  30.579  29.017  1.00  0.00     0.020 A 
ATOM     77  C   UNL A   1      37.927  30.675  30.389  1.00  0.00     0.054 A 
BRANCH  77  78
ATOM     78  S   UNL A   1      36.323  31.268  30.996  1.00  0.00     0.124 S 
ATOM     79  O   UNL A   1      35.905  30.174  31.868  1.00  0.00    -0.237 OA
ATOM     80  O   UNL A   1      36.680  32.514  31.669  1.00  0.00    -0.237 OA
ATOM     81  O   UNL A   1      35.537  31.434  29.776  1.00  0.00    -0.744 OA
ENDBRANCH  77  78
ENDBRANCH  49  72
BRANCH  61  82
ATOM     82  C   UNL A   1      46.555  33.080  28.692  1.00  0.00    -0.014 A 
ATOM     83  C   UNL A   1      47.177  33.494  29.882  1.00  0.00     0.010 A 
ATOM     84  C   UNL A   1      46.379  34.006  27.647  1.00  0.00     0.010 A 
ATOM     85  C   UNL A   1      47.593  34.818  30.034  1.00  0.00     0.020 A 
ATOM     86  C   UNL A   1      46.816  35.324  27.786  1.00  0.00     0.020 A 
ATOM     87  C   UNL A   1      47.407  35.726  28.985  1.00  0.00     0.054 A 
BRANCH  87  88
ATOM     88  S   UNL A   1      47.996  37.429  29.188  1.00  0.00     0.124 S 
ATOM     89  O   UNL A   1      49.357  37.342  28.664  1.00  0.00    -0.237 OA
ATOM     90  O   UNL A   1      47.056  38.194  28.373  1.00  0.00    -0.237 OA
ATOM     91  O   UNL A   1      47.896  37.661  30.626  1.00  0.00    -0.744 OA
ENDBRANCH  87  88
ENDBRANCH  61  82
ENDBRANCH  35  36
ENDBRANCH  27  30
ENDBRANCH  25  26
ENDBRANCH  24  25
ENDBRANCH   1  24
TORSDOF 17
ENDMDL
