MODEL 1
REMARK VINA RESULT:      -9.6      0.000      0.000
REMARK SMILES O=C(CSc1ccc(Cl)cc1)Nc1ccc(C(=O)NCCCCNC(=O)c2ccc(-c3c4nc(c(-c5ccc(S(=O)(=O)[O-])cc5)c5ccc([nH]5)c(-c5ccc(S(=O)(=O)[O-])cc5)c5nc(c(-c6ccc(S(=O)(=O)[O-])cc6)c6ccc3[nH]6)C=C5)C=C4)cc2)cc1
REMARK SMILES IDX 21 1 20 2 19 3 17 4 18 5 16 7 13 8 14 9 88 10 15 11 87 12
REMARK SMILES IDX 12 13 1 14 2 15 3 17 4 18 5 19 6 20 11 21 7 22 10 23 8 24
REMARK SMILES IDX 9 25 22 26 23 27 24 28 25 29 26 31 27 32 28 33 86 34 29 35
REMARK SMILES IDX 85 36 30 37 31 38 32 39 79 40 33 41 84 42 78 43 80 44 34 45
REMARK SMILES IDX 83 46 77 47 76 48 35 50 65 51 46 52 64 53 47 54 50 55 63 56
REMARK SMILES IDX 81 57 48 58 49 59 62 61 82 62 51 63 36 64 37 65 45 66 38 67
REMARK SMILES IDX 44 68 39 69 40 70 41 71 42 72 43 73 66 74 67 75 75 76 68 77
REMARK SMILES IDX 74 78 69 79 70 80 71 81 72 82 73 83 52 84 53 85 61 86 54 87
REMARK SMILES IDX 60 88 55 89 56 90 57 91 58 92 59 93
REMARK H PARENT 19 6 12 16 24 30 80 49 50 60
REMARK Flexibility Score: inf
ROOT
ATOM      1  C   UNL A   1      37.013  33.428  28.971  1.00  0.00     0.023 C 
ENDROOT
BRANCH   1   2
ATOM      2  C   UNL A   1      38.034  34.003  29.957  1.00  0.00     0.116 C 
BRANCH   2   3
ATOM      3  N   UNL A   1      37.365  34.614  31.091  1.00  0.00    -0.352 N 
ATOM      4  C   UNL A   1      37.281  34.249  32.412  1.00  0.00     0.251 C 
ATOM      5  O   UNL A   1      36.673  34.993  33.182  1.00  0.00    -0.269 OA
ATOM      6  H   UNL A   1      36.883  35.446  30.873  1.00  0.00     0.163 HD
BRANCH   4   7
ATOM      7  C   UNL A   1      37.941  33.032  32.963  1.00  0.00     0.039 A 
ATOM      8  C   UNL A   1      39.399  30.798  33.883  1.00  0.00     0.041 A 
ATOM      9  C   UNL A   1      39.926  32.084  34.016  1.00  0.00     0.027 A 
ATOM     10  C   UNL A   1      38.106  30.647  33.386  1.00  0.00     0.027 A 
ATOM     11  C   UNL A   1      39.209  33.190  33.542  1.00  0.00     0.016 A 
ATOM     12  C   UNL A   1      37.373  31.759  32.961  1.00  0.00     0.016 A 
BRANCH   8  13
ATOM     13  N   UNL A   1      40.202  29.707  34.259  1.00  0.00    -0.325 N 
ATOM     14  O   UNL A   1      40.775  30.331  36.422  1.00  0.00    -0.274 OA
ATOM     15  C   UNL A   1      40.849  29.552  35.472  1.00  0.00     0.234 C 
ATOM     16  H   UNL A   1      40.314  28.985  33.599  1.00  0.00     0.169 HD
BRANCH  15  17
ATOM     17  C   UNL A   1      41.731  28.320  35.593  1.00  0.00     0.175 C 
BRANCH  17  18
ATOM     18  S   UNL A   1      42.552  27.810  34.050  1.00  0.00    -0.116 SA
BRANCH  18  19
ATOM     19  C   UNL A   1      43.037  26.111  34.330  1.00  0.00     0.008 A 
ATOM     20  C   UNL A   1      44.198  25.691  33.661  1.00  0.00     0.016 A 
ATOM     21  C   UNL A   1      42.355  25.182  35.125  1.00  0.00     0.016 A 
ATOM     22  C   UNL A   1      44.661  24.378  33.769  1.00  0.00     0.021 A 
ATOM     23  C   UNL A   1      42.814  23.862  35.231  1.00  0.00     0.021 A 
ATOM     24  C   UNL A   1      43.963  23.465  34.551  1.00  0.00     0.041 A 
ATOM     25  Cl  UNL A   1      44.520  21.844  34.677  1.00  0.00    -0.084 Cl
ENDBRANCH  18  19
ENDBRANCH  17  18
ENDBRANCH  15  17
ENDBRANCH   8  13
ENDBRANCH   4   7
ENDBRANCH   2   3
ENDBRANCH   1   2
BRANCH   1  26
ATOM     26  C   UNL A   1      35.555  33.615  29.396  1.00  0.00     0.023 C 
BRANCH  26  27
ATOM     27  C   UNL A   1      34.848  32.339  29.841  1.00  0.00     0.116 C 
BRANCH  27  28
ATOM     28  N   UNL A   1      34.169  31.650  28.754  1.00  0.00    -0.352 N 
ATOM     29  C   UNL A   1      34.634  30.617  27.974  1.00  0.00     0.251 C 
ATOM     30  H   UNL A   1      33.259  31.965  28.551  1.00  0.00     0.163 HD
ATOM     31  O   UNL A   1      33.975  30.215  27.026  1.00  0.00    -0.269 OA
BRANCH  29  32
ATOM     32  C   UNL A   1      35.957  30.029  28.272  1.00  0.00     0.039 A 
ATOM     33  C   UNL A   1      36.964  30.119  27.308  1.00  0.00     0.014 A 
ATOM     34  C   UNL A   1      36.214  29.429  29.508  1.00  0.00     0.014 A 
ATOM     35  C   UNL A   1      38.250  29.667  27.609  1.00  0.00     0.010 A 
ATOM     36  C   UNL A   1      37.510  29.038  29.830  1.00  0.00     0.010 A 
ATOM     37  C   UNL A   1      38.541  29.157  28.885  1.00  0.00    -0.014 A 
BRANCH  37  38
ATOM     38  C   UNL A   1      39.920  28.750  29.254  1.00  0.00     0.031 A 
ATOM     39  C   UNL A   1      40.820  29.711  29.982  1.00  0.00     0.074 A 
ATOM     40  C   UNL A   1      40.380  27.540  28.879  1.00  0.00     0.049 A 
ATOM     41  N   UNL A   1      42.070  29.562  30.331  1.00  0.00    -0.248 NA
ATOM     42  C   UNL A   1      40.244  31.016  30.344  1.00  0.00     0.031 C 
ATOM     43  C   UNL A   1      39.616  26.533  28.137  1.00  0.00     0.029 A 
ATOM     44  N   UNL A   1      41.607  26.953  29.067  1.00  0.00    -0.354 N 
ATOM     45  C   UNL A   1      42.436  30.756  30.943  1.00  0.00     0.074 A 
ATOM     46  C   UNL A   1      41.290  31.636  30.871  1.00  0.00     0.031 C 
ATOM     47  C   UNL A   1      40.382  25.444  27.958  1.00  0.00     0.029 A 
ATOM     48  C   UNL A   1      41.700  25.688  28.536  1.00  0.00     0.049 A 
ATOM     49  H   UNL A   1      42.349  27.396  29.537  1.00  0.00     0.167 HD
ATOM     50  C   UNL A   1      43.613  31.084  31.530  1.00  0.00     0.031 A 
ATOM     51  C   UNL A   1      42.732  24.822  28.514  1.00  0.00     0.031 A 
ATOM     52  C   UNL A   1      44.748  30.203  31.609  1.00  0.00     0.049 A 
ATOM     53  C   UNL A   1      44.032  25.215  29.161  1.00  0.00     0.074 A 
ATOM     54  C   UNL A   1      45.971  30.429  32.216  1.00  0.00     0.029 A 
ATOM     55  N   UNL A   1      44.799  28.929  31.067  1.00  0.00    -0.354 N 
ATOM     56  N   UNL A   1      44.342  26.331  29.777  1.00  0.00    -0.248 NA
ATOM     57  C   UNL A   1      45.119  24.227  29.119  1.00  0.00     0.031 C 
ATOM     58  C   UNL A   1      46.775  29.304  32.008  1.00  0.00     0.029 A 
ATOM     59  C   UNL A   1      46.036  28.359  31.314  1.00  0.00     0.049 A 
ATOM     60  H   UNL A   1      44.063  28.492  30.578  1.00  0.00     0.167 HD
ATOM     61  C   UNL A   1      45.649  26.168  30.221  1.00  0.00     0.074 A 
ATOM     62  C   UNL A   1      46.067  24.842  29.813  1.00  0.00     0.031 C 
ATOM     63  C   UNL A   1      46.432  27.036  30.906  1.00  0.00     0.031 A 
BRANCH  50  64
ATOM     64  C   UNL A   1      43.724  32.456  32.138  1.00  0.00    -0.014 A 
ATOM     65  C   UNL A   1      43.419  32.671  33.493  1.00  0.00     0.010 A 
ATOM     66  C   UNL A   1      44.171  33.537  31.357  1.00  0.00     0.010 A 
ATOM     67  C   UNL A   1      43.518  33.949  34.048  1.00  0.00     0.020 A 
ATOM     68  C   UNL A   1      44.299  34.813  31.915  1.00  0.00     0.020 A 
ATOM     69  C   UNL A   1      43.954  35.013  33.253  1.00  0.00     0.054 A 
BRANCH  69  70
ATOM     70  S   UNL A   1      44.094  36.659  34.004  1.00  0.00     0.124 S 
ATOM     71  O   UNL A   1      43.112  37.422  33.237  1.00  0.00    -0.237 OA
ATOM     72  O   UNL A   1      43.740  36.406  35.399  1.00  0.00    -0.237 OA
ATOM     73  O   UNL A   1      45.488  37.028  33.774  1.00  0.00    -0.744 OA
ENDBRANCH  69  70
ENDBRANCH  50  64
BRANCH  51  74
ATOM     74  C   UNL A   1      42.575  23.488  27.875  1.00  0.00    -0.014 A 
ATOM     75  C   UNL A   1      41.916  22.448  28.555  1.00  0.00     0.010 A 
ATOM     76  C   UNL A   1      43.085  23.248  26.586  1.00  0.00     0.010 A 
ATOM     77  C   UNL A   1      41.792  21.185  27.970  1.00  0.00     0.020 A 
ATOM     78  C   UNL A   1      42.940  21.993  25.986  1.00  0.00     0.020 A 
ATOM     79  C   UNL A   1      42.307  20.965  26.689  1.00  0.00     0.054 A 
BRANCH  79  80
ATOM     80  S   UNL A   1      42.103  19.328  25.932  1.00  0.00     0.124 S 
ATOM     81  O   UNL A   1      40.659  19.264  25.734  1.00  0.00    -0.237 OA
ATOM     82  O   UNL A   1      42.905  19.438  24.716  1.00  0.00    -0.237 OA
ATOM     83  O   UNL A   1      42.639  18.418  26.942  1.00  0.00    -0.744 OA
ENDBRANCH  79  80
ENDBRANCH  51  74
BRANCH  63  84
ATOM     84  C   UNL A   1      47.809  26.566  31.293  1.00  0.00    -0.014 A 
ATOM     85  C   UNL A   1      48.911  26.761  30.443  1.00  0.00     0.010 A 
ATOM     86  C   UNL A   1      48.008  25.970  32.552  1.00  0.00     0.010 A 
ATOM     87  C   UNL A   1      50.185  26.340  30.834  1.00  0.00     0.020 A 
ATOM     88  C   UNL A   1      49.284  25.571  32.956  1.00  0.00     0.020 A 
ATOM     89  C   UNL A   1      50.363  25.746  32.088  1.00  0.00     0.054 A 
BRANCH  89  90
ATOM     90  S   UNL A   1      52.033  25.250  32.592  1.00  0.00     0.124 S 
ATOM     91  O   UNL A   1      51.969  23.797  32.464  1.00  0.00    -0.237 OA
ATOM     92  O   UNL A   1      52.880  25.931  31.614  1.00  0.00    -0.237 OA
ATOM     93  O   UNL A   1      52.145  25.752  33.959  1.00  0.00    -0.744 OA
ENDBRANCH  89  90
ENDBRANCH  63  84
ENDBRANCH  37  38
ENDBRANCH  29  32
ENDBRANCH  27  28
ENDBRANCH  26  27
ENDBRANCH   1  26
TORSDOF 18
ENDMDL
MODEL 2
REMARK VINA RESULT:      -8.8      0.966      8.186
REMARK SMILES O=C(CSc1ccc(Cl)cc1)Nc1ccc(C(=O)NCCCCNC(=O)c2ccc(-c3c4nc(c(-c5ccc(S(=O)(=O)[O-])cc5)c5ccc([nH]5)c(-c5ccc(S(=O)(=O)[O-])cc5)c5nc(c(-c6ccc(S(=O)(=O)[O-])cc6)c6ccc3[nH]6)C=C5)C=C4)cc2)cc1
REMARK SMILES IDX 21 1 20 2 19 3 17 4 18 5 16 7 13 8 14 9 88 10 15 11 87 12
REMARK SMILES IDX 12 13 1 14 2 15 3 17 4 18 5 19 6 20 11 21 7 22 10 23 8 24
REMARK SMILES IDX 9 25 22 26 23 27 24 28 25 29 26 31 27 32 28 33 86 34 29 35
REMARK SMILES IDX 85 36 30 37 31 38 32 39 79 40 33 41 84 42 78 43 80 44 34 45
REMARK SMILES IDX 83 46 77 47 76 48 35 50 65 51 46 52 64 53 47 54 50 55 63 56
REMARK SMILES IDX 81 57 48 58 49 59 62 61 82 62 51 63 36 64 37 65 45 66 38 67
REMARK SMILES IDX 44 68 39 69 40 70 41 71 42 72 43 73 66 74 67 75 75 76 68 77
REMARK SMILES IDX 74 78 69 79 70 80 71 81 72 82 73 83 52 84 53 85 61 86 54 87
REMARK SMILES IDX 60 88 55 89 56 90 57 91 58 92 59 93
REMARK H PARENT 19 6 12 16 24 30 80 49 50 60
REMARK Flexibility Score: inf
ROOT
ATOM      1  C   UNL A   1      37.309  33.110  29.039  1.00  0.00     0.023 C 
ENDROOT
BRANCH   1   2
ATOM      2  C   UNL A   1      37.904  34.211  29.921  1.00  0.00     0.116 C 
BRANCH   2   3
ATOM      3  N   UNL A   1      37.047  34.474  31.063  1.00  0.00    -0.352 N 
ATOM      4  C   UNL A   1      36.962  33.884  32.300  1.00  0.00     0.251 C 
ATOM      5  O   UNL A   1      36.158  34.348  33.109  1.00  0.00    -0.269 OA
ATOM      6  H   UNL A   1      36.410  35.213  30.926  1.00  0.00     0.163 HD
BRANCH   4   7
ATOM      7  C   UNL A   1      37.836  32.756  32.725  1.00  0.00     0.039 A 
ATOM      8  C   UNL A   1      39.684  30.740  33.422  1.00  0.00     0.041 A 
ATOM      9  C   UNL A   1      39.956  32.076  33.721  1.00  0.00     0.027 A 
ATOM     10  C   UNL A   1      38.447  30.411  32.873  1.00  0.00     0.027 A 
ATOM     11  C   UNL A   1      39.046  33.078  33.357  1.00  0.00     0.016 A 
ATOM     12  C   UNL A   1      37.519  31.408  32.558  1.00  0.00     0.016 A 
BRANCH   8  13
ATOM     13  N   UNL A   1      40.676  29.781  33.693  1.00  0.00    -0.325 N 
ATOM     14  O   UNL A   1      40.401  29.525  35.985  1.00  0.00    -0.274 OA
ATOM     15  C   UNL A   1      40.986  29.259  34.936  1.00  0.00     0.234 C 
ATOM     16  H   UNL A   1      41.198  29.450  32.928  1.00  0.00     0.169 HD
BRANCH  15  17
ATOM     17  C   UNL A   1      42.165  28.301  34.970  1.00  0.00     0.175 C 
BRANCH  17  18
ATOM     18  S   UNL A   1      42.611  27.577  33.360  1.00  0.00    -0.116 SA
BRANCH  18  19
ATOM     19  C   UNL A   1      44.124  26.673  33.668  1.00  0.00     0.008 A 
ATOM     20  C   UNL A   1      44.314  25.519  32.890  1.00  0.00     0.016 A 
ATOM     21  C   UNL A   1      45.099  27.002  34.618  1.00  0.00     0.016 A 
ATOM     22  C   UNL A   1      45.438  24.708  33.060  1.00  0.00     0.021 A 
ATOM     23  C   UNL A   1      46.224  26.186  34.795  1.00  0.00     0.021 A 
ATOM     24  C   UNL A   1      46.389  25.042  34.018  1.00  0.00     0.041 A 
ATOM     25  Cl  UNL A   1      47.766  24.040  34.242  1.00  0.00    -0.084 Cl
ENDBRANCH  18  19
ENDBRANCH  17  18
ENDBRANCH  15  17
ENDBRANCH   8  13
ENDBRANCH   4   7
ENDBRANCH   2   3
ENDBRANCH   1   2
BRANCH   1  26
ATOM     26  C   UNL A   1      35.817  33.277  28.746  1.00  0.00     0.023 C 
BRANCH  26  27
ATOM     27  C   UNL A   1      34.904  32.312  29.494  1.00  0.00     0.116 C 
BRANCH  27  28
ATOM     28  N   UNL A   1      34.176  31.411  28.614  1.00  0.00    -0.352 N 
ATOM     29  C   UNL A   1      34.641  30.293  27.962  1.00  0.00     0.251 C 
ATOM     30  H   UNL A   1      33.228  31.630  28.466  1.00  0.00     0.163 HD
ATOM     31  O   UNL A   1      33.925  29.698  27.169  1.00  0.00    -0.269 OA
BRANCH  29  32
ATOM     32  C   UNL A   1      36.031  29.847  28.199  1.00  0.00     0.039 A 
ATOM     33  C   UNL A   1      36.971  30.010  27.180  1.00  0.00     0.014 A 
ATOM     34  C   UNL A   1      36.410  29.307  29.432  1.00  0.00     0.014 A 
ATOM     35  C   UNL A   1      38.310  29.695  27.420  1.00  0.00     0.010 A 
ATOM     36  C   UNL A   1      37.754  29.054  29.690  1.00  0.00     0.010 A 
ATOM     37  C   UNL A   1      38.716  29.249  28.689  1.00  0.00    -0.014 A 
BRANCH  37  38
ATOM     38  C   UNL A   1      40.147  28.990  28.990  1.00  0.00     0.031 A 
ATOM     39  C   UNL A   1      40.753  27.651  28.672  1.00  0.00     0.074 A 
ATOM     40  C   UNL A   1      40.880  29.937  29.607  1.00  0.00     0.049 A 
ATOM     41  N   UNL A   1      41.961  27.215  28.917  1.00  0.00    -0.248 NA
ATOM     42  C   UNL A   1      39.881  26.666  28.009  1.00  0.00     0.031 C 
ATOM     43  C   UNL A   1      40.396  31.263  30.001  1.00  0.00     0.029 A 
ATOM     44  N   UNL A   1      42.190  29.928  30.016  1.00  0.00    -0.354 N 
ATOM     45  C   UNL A   1      41.991  25.905  28.452  1.00  0.00     0.074 A 
ATOM     46  C   UNL A   1      40.667  25.601  27.956  1.00  0.00     0.031 C 
ATOM     47  C   UNL A   1      41.403  31.948  30.569  1.00  0.00     0.029 A 
ATOM     48  C   UNL A   1      42.589  31.100  30.615  1.00  0.00     0.049 A 
ATOM     49  H   UNL A   1      42.787  29.155  29.892  1.00  0.00     0.167 HD
ATOM     50  C   UNL A   1      43.033  25.039  28.422  1.00  0.00     0.031 A 
ATOM     51  C   UNL A   1      43.778  31.451  31.144  1.00  0.00     0.031 A 
ATOM     52  C   UNL A   1      44.353  25.347  28.907  1.00  0.00     0.049 A 
ATOM     53  C   UNL A   1      44.915  30.467  31.110  1.00  0.00     0.074 A 
ATOM     54  C   UNL A   1      45.485  24.551  28.886  1.00  0.00     0.029 A 
ATOM     55  N   UNL A   1      44.718  26.546  29.498  1.00  0.00    -0.354 N 
ATOM     56  N   UNL A   1      44.937  29.250  30.622  1.00  0.00    -0.248 NA
ATOM     57  C   UNL A   1      46.191  30.909  31.689  1.00  0.00     0.031 C 
ATOM     58  C   UNL A   1      46.525  25.256  29.499  1.00  0.00     0.029 A 
ATOM     59  C   UNL A   1      46.054  26.509  29.857  1.00  0.00     0.049 A 
ATOM     60  H   UNL A   1      44.115  27.312  29.641  1.00  0.00     0.167 HD
ATOM     61  C   UNL A   1      46.236  28.791  30.808  1.00  0.00     0.074 A 
ATOM     62  C   UNL A   1      46.972  29.865  31.444  1.00  0.00     0.031 C 
ATOM     63  C   UNL A   1      46.772  27.590  30.483  1.00  0.00     0.031 A 
BRANCH  50  64
ATOM     64  C   UNL A   1      42.783  23.675  27.838  1.00  0.00    -0.014 A 
ATOM     65  C   UNL A   1      43.214  23.358  26.537  1.00  0.00     0.010 A 
ATOM     66  C   UNL A   1      42.142  22.688  28.606  1.00  0.00     0.010 A 
ATOM     67  C   UNL A   1      42.971  22.092  25.999  1.00  0.00     0.020 A 
ATOM     68  C   UNL A   1      41.921  21.410  28.082  1.00  0.00     0.020 A 
ATOM     69  C   UNL A   1      42.323  21.127  26.775  1.00  0.00     0.054 A 
BRANCH  69  70
ATOM     70  S   UNL A   1      42.038  19.484  26.059  1.00  0.00     0.124 S 
ATOM     71  O   UNL A   1      40.592  19.493  25.853  1.00  0.00    -0.237 OA
ATOM     72  O   UNL A   1      42.845  19.520  24.842  1.00  0.00    -0.237 OA
ATOM     73  O   UNL A   1      42.514  18.569  27.092  1.00  0.00    -0.744 OA
ENDBRANCH  69  70
ENDBRANCH  50  64
BRANCH  51  74
ATOM     74  C   UNL A   1      43.962  32.805  31.734  1.00  0.00    -0.014 A 
ATOM     75  C   UNL A   1      44.402  33.875  30.934  1.00  0.00     0.010 A 
ATOM     76  C   UNL A   1      43.703  33.032  33.098  1.00  0.00     0.010 A 
ATOM     77  C   UNL A   1      44.605  35.140  31.491  1.00  0.00     0.020 A 
ATOM     78  C   UNL A   1      43.878  34.303  33.653  1.00  0.00     0.020 A 
ATOM     79  C   UNL A   1      44.342  35.346  32.849  1.00  0.00     0.054 A 
BRANCH  79  80
ATOM     80  S   UNL A   1      44.576  37.006  33.544  1.00  0.00     0.124 S 
ATOM     81  O   UNL A   1      46.016  37.034  33.781  1.00  0.00    -0.237 OA
ATOM     82  O   UNL A   1      44.093  37.870  32.471  1.00  0.00    -0.237 OA
ATOM     83  O   UNL A   1      43.743  36.991  34.744  1.00  0.00    -0.744 OA
ENDBRANCH  79  80
ENDBRANCH  51  74
BRANCH  63  84
ATOM     84  C   UNL A   1      48.235  27.385  30.771  1.00  0.00    -0.014 A 
ATOM     85  C   UNL A   1      48.666  26.815  31.982  1.00  0.00     0.010 A 
ATOM     86  C   UNL A   1      49.186  27.719  29.790  1.00  0.00     0.010 A 
ATOM     87  C   UNL A   1      50.028  26.610  32.218  1.00  0.00     0.020 A 
ATOM     88  C   UNL A   1      50.546  27.492  30.013  1.00  0.00     0.020 A 
ATOM     89  C   UNL A   1      50.960  26.952  31.232  1.00  0.00     0.054 A 
BRANCH  89  90
ATOM     90  S   UNL A   1      52.718  26.634  31.543  1.00  0.00     0.124 S 
ATOM     91  O   UNL A   1      53.172  26.143  30.245  1.00  0.00    -0.237 OA
ATOM     92  O   UNL A   1      53.221  27.951  31.928  1.00  0.00    -0.237 OA
ATOM     93  O   UNL A   1      52.705  25.643  32.616  1.00  0.00    -0.744 OA
ENDBRANCH  89  90
ENDBRANCH  63  84
ENDBRANCH  37  38
ENDBRANCH  29  32
ENDBRANCH  27  28
ENDBRANCH  26  27
ENDBRANCH   1  26
TORSDOF 18
ENDMDL
MODEL 3
REMARK VINA RESULT:      -8.6      3.756     10.822
REMARK SMILES O=C(CSc1ccc(Cl)cc1)Nc1ccc(C(=O)NCCCCNC(=O)c2ccc(-c3c4nc(c(-c5ccc(S(=O)(=O)[O-])cc5)c5ccc([nH]5)c(-c5ccc(S(=O)(=O)[O-])cc5)c5nc(c(-c6ccc(S(=O)(=O)[O-])cc6)c6ccc3[nH]6)C=C5)C=C4)cc2)cc1
REMARK SMILES IDX 21 1 20 2 19 3 17 4 18 5 16 7 13 8 14 9 88 10 15 11 87 12
REMARK SMILES IDX 12 13 1 14 2 15 3 17 4 18 5 19 6 20 11 21 7 22 10 23 8 24
REMARK SMILES IDX 9 25 22 26 23 27 24 28 25 29 26 31 27 32 28 33 86 34 29 35
REMARK SMILES IDX 85 36 30 37 31 38 32 39 79 40 33 41 84 42 78 43 80 44 34 45
REMARK SMILES IDX 83 46 77 47 76 48 35 50 65 51 46 52 64 53 47 54 50 55 63 56
REMARK SMILES IDX 81 57 48 58 49 59 62 61 82 62 51 63 36 64 37 65 45 66 38 67
REMARK SMILES IDX 44 68 39 69 40 70 41 71 42 72 43 73 66 74 67 75 75 76 68 77
REMARK SMILES IDX 74 78 69 79 70 80 71 81 72 82 73 83 52 84 53 85 61 86 54 87
REMARK SMILES IDX 60 88 55 89 56 90 57 91 58 92 59 93
REMARK H PARENT 19 6 12 16 24 30 80 49 50 60
REMARK Flexibility Score: inf
ROOT
ATOM      1  C   UNL A   1      43.177  22.764  27.961  1.00  0.00     0.023 C 
ENDROOT
BRANCH   1   2
ATOM      2  C   UNL A   1      43.433  24.051  27.170  1.00  0.00     0.116 C 
BRANCH   2   3
ATOM      3  N   UNL A   1      44.764  24.040  26.590  1.00  0.00    -0.352 N 
ATOM      4  C   UNL A   1      45.668  25.046  26.353  1.00  0.00     0.251 C 
ATOM      5  O   UNL A   1      46.764  24.741  25.882  1.00  0.00    -0.269 OA
ATOM      6  H   UNL A   1      45.076  23.147  26.316  1.00  0.00     0.163 HD
BRANCH   4   7
ATOM      7  C   UNL A   1      45.408  26.472  26.697  1.00  0.00     0.039 A 
ATOM      8  C   UNL A   1      44.864  29.211  27.105  1.00  0.00     0.041 A 
ATOM      9  C   UNL A   1      43.952  28.408  26.419  1.00  0.00     0.027 A 
ATOM     10  C   UNL A   1      45.990  28.618  27.672  1.00  0.00     0.027 A 
ATOM     11  C   UNL A   1      44.232  27.053  26.200  1.00  0.00     0.016 A 
ATOM     12  C   UNL A   1      46.241  27.254  27.496  1.00  0.00     0.016 A 
BRANCH   8  13
ATOM     13  N   UNL A   1      44.602  30.589  27.196  1.00  0.00    -0.325 N 
ATOM     14  O   UNL A   1      46.072  31.404  25.592  1.00  0.00    -0.274 OA
ATOM     15  C   UNL A   1      45.225  31.586  26.467  1.00  0.00     0.234 C 
ATOM     16  H   UNL A   1      43.910  30.872  27.836  1.00  0.00     0.169 HD
BRANCH  15  17
ATOM     17  C   UNL A   1      44.822  33.008  26.820  1.00  0.00     0.175 C 
BRANCH  17  18
ATOM     18  S   UNL A   1      44.223  33.234  28.525  1.00  0.00    -0.116 SA
BRANCH  18  19
ATOM     19  C   UNL A   1      43.759  34.959  28.621  1.00  0.00     0.008 A 
ATOM     20  C   UNL A   1      42.399  35.236  28.406  1.00  0.00     0.016 A 
ATOM     21  C   UNL A   1      44.625  36.031  28.864  1.00  0.00     0.016 A 
ATOM     22  C   UNL A   1      41.917  36.547  28.419  1.00  0.00     0.021 A 
ATOM     23  C   UNL A   1      44.145  37.347  28.872  1.00  0.00     0.021 A 
ATOM     24  C   UNL A   1      42.795  37.601  28.648  1.00  0.00     0.041 A 
ATOM     25  Cl  UNL A   1      42.209  39.216  28.652  1.00  0.00    -0.084 Cl
ENDBRANCH  18  19
ENDBRANCH  17  18
ENDBRANCH  15  17
ENDBRANCH   8  13
ENDBRANCH   4   7
ENDBRANCH   2   3
ENDBRANCH   1   2
BRANCH   1  26
ATOM     26  C   UNL A   1      41.963  21.965  27.484  1.00  0.00     0.023 C 
BRANCH  26  27
ATOM     27  C   UNL A   1      41.520  22.263  26.055  1.00  0.00     0.116 C 
BRANCH  27  28
ATOM     28  N   UNL A   1      40.097  22.052  25.839  1.00  0.00    -0.352 N 
ATOM     29  C   UNL A   1      39.047  22.858  26.213  1.00  0.00     0.251 C 
ATOM     30  H   UNL A   1      39.854  21.225  25.364  1.00  0.00     0.163 HD
ATOM     31  O   UNL A   1      37.894  22.485  26.048  1.00  0.00    -0.269 OA
BRANCH  29  32
ATOM     32  C   UNL A   1      39.332  24.159  26.854  1.00  0.00     0.039 A 
ATOM     33  C   UNL A   1      38.938  24.354  28.180  1.00  0.00     0.014 A 
ATOM     34  C   UNL A   1      40.016  25.165  26.164  1.00  0.00     0.014 A 
ATOM     35  C   UNL A   1      39.291  25.534  28.838  1.00  0.00     0.010 A 
ATOM     36  C   UNL A   1      40.422  26.311  26.840  1.00  0.00     0.010 A 
ATOM     37  C   UNL A   1      40.067  26.505  28.183  1.00  0.00    -0.014 A 
BRANCH  37  38
ATOM     38  C   UNL A   1      40.525  27.727  28.890  1.00  0.00     0.031 A 
ATOM     39  C   UNL A   1      41.886  27.762  29.531  1.00  0.00     0.074 A 
ATOM     40  C   UNL A   1      39.693  28.780  29.008  1.00  0.00     0.049 A 
ATOM     41  N   UNL A   1      42.436  28.710  30.243  1.00  0.00    -0.248 NA
ATOM     42  C   UNL A   1      42.729  26.566  29.366  1.00  0.00     0.031 C 
ATOM     43  C   UNL A   1      38.335  28.855  28.462  1.00  0.00     0.029 A 
ATOM     44  N   UNL A   1      39.866  29.991  29.631  1.00  0.00    -0.354 N 
ATOM     45  C   UNL A   1      43.682  28.223  30.622  1.00  0.00     0.074 A 
ATOM     46  C   UNL A   1      43.785  26.877  30.104  1.00  0.00     0.031 C 
ATOM     47  C   UNL A   1      37.810  30.057  28.751  1.00  0.00     0.029 A 
ATOM     48  C   UNL A   1      38.775  30.823  29.533  1.00  0.00     0.049 A 
ATOM     49  H   UNL A   1      40.692  30.240  30.104  1.00  0.00     0.167 HD
ATOM     50  C   UNL A   1      44.660  28.847  31.322  1.00  0.00     0.031 A 
ATOM     51  C   UNL A   1      38.574  32.063  30.021  1.00  0.00     0.031 A 
ATOM     52  C   UNL A   1      44.559  30.190  31.828  1.00  0.00     0.049 A 
ATOM     53  C   UNL A   1      39.671  32.729  30.806  1.00  0.00     0.074 A 
ATOM     54  C   UNL A   1      45.510  30.924  32.516  1.00  0.00     0.029 A 
ATOM     55  N   UNL A   1      43.442  31.001  31.701  1.00  0.00    -0.354 N 
ATOM     56  N   UNL A   1      40.861  32.269  31.112  1.00  0.00    -0.248 NA
ATOM     57  C   UNL A   1      39.401  34.085  31.301  1.00  0.00     0.031 C 
ATOM     58  C   UNL A   1      44.953  32.167  32.837  1.00  0.00     0.029 A 
ATOM     59  C   UNL A   1      43.674  32.224  32.306  1.00  0.00     0.049 A 
ATOM     60  H   UNL A   1      42.607  30.745  31.246  1.00  0.00     0.167 HD
ATOM     61  C   UNL A   1      41.492  33.291  31.811  1.00  0.00     0.074 A 
ATOM     62  C   UNL A   1      40.557  34.396  31.873  1.00  0.00     0.031 C 
ATOM     63  C   UNL A   1      42.734  33.314  32.352  1.00  0.00     0.031 A 
BRANCH  50  64
ATOM     64  C   UNL A   1      45.929  28.078  31.573  1.00  0.00    -0.014 A 
ATOM     65  C   UNL A   1      47.078  28.310  30.797  1.00  0.00     0.010 A 
ATOM     66  C   UNL A   1      45.987  27.139  32.618  1.00  0.00     0.010 A 
ATOM     67  C   UNL A   1      48.250  27.586  31.032  1.00  0.00     0.020 A 
ATOM     68  C   UNL A   1      47.166  26.432  32.876  1.00  0.00     0.020 A 
ATOM     69  C   UNL A   1      48.285  26.649  32.068  1.00  0.00     0.054 A 
BRANCH  69  70
ATOM     70  S   UNL A   1      49.826  25.739  32.366  1.00  0.00     0.124 S 
ATOM     71  O   UNL A   1      50.620  26.724  33.095  1.00  0.00    -0.237 OA
ATOM     72  O   UNL A   1      49.374  24.592  33.151  1.00  0.00    -0.237 OA
ATOM     73  O   UNL A   1      50.305  25.421  31.024  1.00  0.00    -0.744 OA
ENDBRANCH  69  70
ENDBRANCH  50  64
BRANCH  51  74
ATOM     74  C   UNL A   1      37.288  32.767  29.765  1.00  0.00    -0.014 A 
ATOM     75  C   UNL A   1      36.258  32.737  30.722  1.00  0.00     0.010 A 
ATOM     76  C   UNL A   1      37.085  33.467  28.562  1.00  0.00     0.010 A 
ATOM     77  C   UNL A   1      35.039  33.372  30.472  1.00  0.00     0.020 A 
ATOM     78  C   UNL A   1      35.876  34.127  28.319  1.00  0.00     0.020 A 
ATOM     79  C   UNL A   1      34.855  34.063  29.270  1.00  0.00     0.054 A 
BRANCH  79  80
ATOM     80  S   UNL A   1      33.278  34.912  28.981  1.00  0.00     0.124 S 
ATOM     81  O   UNL A   1      32.654  34.058  27.976  1.00  0.00    -0.237 OA
ATOM     82  O   UNL A   1      32.659  34.891  30.303  1.00  0.00    -0.237 OA
ATOM     83  O   UNL A   1      33.685  36.235  28.514  1.00  0.00    -0.744 OA
ENDBRANCH  79  80
ENDBRANCH  51  74
BRANCH  63  84
ATOM     84  C   UNL A   1      43.172  34.588  33.025  1.00  0.00    -0.014 A 
ATOM     85  C   UNL A   1      43.650  35.678  32.278  1.00  0.00     0.010 A 
ATOM     86  C   UNL A   1      43.050  34.710  34.421  1.00  0.00     0.010 A 
ATOM     87  C   UNL A   1      44.027  36.861  32.921  1.00  0.00     0.020 A 
ATOM     88  C   UNL A   1      43.402  35.899  35.064  1.00  0.00     0.020 A 
ATOM     89  C   UNL A   1      43.902  36.963  34.310  1.00  0.00     0.054 A 
BRANCH  89  90
ATOM     90  S   UNL A   1      44.354  38.523  35.117  1.00  0.00     0.124 S 
ATOM     91  O   UNL A   1      43.884  38.306  36.482  1.00  0.00    -0.237 OA
ATOM     92  O   UNL A   1      45.805  38.564  34.950  1.00  0.00    -0.237 OA
ATOM     93  O   UNL A   1      43.618  39.531  34.357  1.00  0.00    -0.744 OA
ENDBRANCH  89  90
ENDBRANCH  63  84
ENDBRANCH  37  38
ENDBRANCH  29  32
ENDBRANCH  27  28
ENDBRANCH  26  27
ENDBRANCH   1  26
TORSDOF 18
ENDMDL
