MODEL 1
REMARK VINA RESULT:     -10.6      0.000      0.000
REMARK SMILES COC[C@H]1CC[N@@H+]([C@H]2CCC[C@]([NH2+]C(C)C)(C(=O)NCCCCNC(=O)c3ccc(-c4c5nc(c(-c6ccc(S(=O)(=O)[O-])cc6)c6ccc([nH]6)c(-c6ccc(S(=O)(=O)[O-])cc6)c6nc(c(-c7ccc(S(=O)(=O)[O-])cc7)c7ccc4[nH]7)C=C6)C=C5)cc3)C2)C1
REMARK SMILES IDX 21 1 20 2 19 3 17 4 18 5 12 7 8 8 9 9 87 10 10 11 11 12 7 13
REMARK SMILES IDX 4 14 5 15 88 16 6 17 3 19 2 20 1 21 13 22 14 25 15 26 16 27
REMARK SMILES IDX 22 28 23 29 24 30 25 31 26 33 27 34 28 35 86 36 29 37 85 38
REMARK SMILES IDX 30 39 31 40 32 41 79 42 33 43 84 44 78 45 80 46 34 47 83 48
REMARK SMILES IDX 77 49 76 50 35 52 65 53 46 54 64 55 47 56 50 57 63 58 81 59
REMARK SMILES IDX 48 60 49 61 62 63 82 64 51 65 36 66 37 67 45 68 38 69 44 70
REMARK SMILES IDX 39 71 40 72 41 73 42 74 43 75 66 76 67 77 75 78 68 79 74 80
REMARK SMILES IDX 69 81 70 82 71 83 72 84 73 85 52 86 53 87 61 88 54 89 60 90
REMARK SMILES IDX 55 91 56 92 57 93 58 94 59 95
REMARK H PARENT 19 6 7 18 13 23 13 24 24 32 80 51 50 62
REMARK Flexibility Score: inf
ROOT
ATOM      1  C   UNL A   1      35.157  24.448  25.034  1.00  0.00     0.023 C 
ENDROOT
BRANCH   1   2
ATOM      2  C   UNL A   1      33.985  23.590  24.547  1.00  0.00     0.116 C 
BRANCH   2   3
ATOM      3  N   UNL A   1      33.709  23.553  23.096  1.00  0.00    -0.351 N 
ATOM      4  C   UNL A   1      33.130  24.538  22.259  1.00  0.00     0.281 C 
ATOM      5  O   UNL A   1      33.216  24.421  21.038  1.00  0.00    -0.268 OA
ATOM      6  H   UNL A   1      33.966  22.718  22.643  1.00  0.00     0.163 HD
BRANCH   4   7
ATOM      7  C   UNL A   1      32.329  25.728  22.999  1.00  0.00     0.181 C 
ATOM      8  C   UNL A   1      30.972  28.074  22.472  1.00  0.00     0.190 C 
ATOM      9  C   UNL A   1      32.326  28.787  22.496  1.00  0.00     0.065 C 
ATOM     10  C   UNL A   1      31.222  26.510  22.191  1.00  0.00     0.144 C 
ATOM     11  C   UNL A   1      33.258  28.181  23.513  1.00  0.00     0.013 C 
ATOM     12  C   UNL A   1      33.528  26.727  23.191  1.00  0.00     0.079 C 
BRANCH   8  13
ATOM     13  N   UNL A   1      29.956  28.653  23.404  1.00  0.00    -0.332 N 
ATOM     14  C   UNL A   1      28.284  30.459  23.305  1.00  0.00     0.076 C 
ATOM     15  C   UNL A   1      27.683  29.147  22.816  1.00  0.00     0.073 C 
ATOM     16  C   UNL A   1      29.728  30.071  23.642  1.00  0.00     0.268 C 
ATOM     17  C   UNL A   1      28.613  28.061  23.357  1.00  0.00     0.263 C 
ATOM     18  H   UNL A   1      30.568  28.368  24.170  1.00  0.00     0.348 HD
BRANCH  14  19
ATOM     19  C   UNL A   1      28.097  31.599  22.278  1.00  0.00     0.169 C 
BRANCH  19  20
ATOM     20  O   UNL A   1      27.889  32.900  22.810  1.00  0.00    -0.384 OA
ATOM     21  C   UNL A   1      29.049  33.638  23.156  1.00  0.00     0.194 C 
ENDBRANCH  19  20
ENDBRANCH  14  19
ENDBRANCH   8  13
BRANCH   7  22
ATOM     22  N   UNL A   1      31.613  24.863  23.946  1.00  0.00    -0.331 N 
ATOM     23  H   UNL A   1      32.336  24.271  24.355  1.00  0.00     0.347 HD
ATOM     24  H   UNL A   1      30.879  24.520  23.328  1.00  0.00     0.347 HD
BRANCH  22  25
ATOM     25  C   UNL A   1      30.812  25.268  25.043  1.00  0.00     0.176 C 
ATOM     26  C   UNL A   1      30.405  24.086  25.924  1.00  0.00     0.075 C 
ATOM     27  C   UNL A   1      31.607  26.248  25.877  1.00  0.00     0.075 C 
ENDBRANCH  22  25
ENDBRANCH   7  22
ENDBRANCH   4   7
ENDBRANCH   2   3
ENDBRANCH   1   2
BRANCH   1  28
ATOM     28  C   UNL A   1      36.539  23.834  24.963  1.00  0.00     0.023 C 
BRANCH  28  29
ATOM     29  C   UNL A   1      36.962  23.050  26.192  1.00  0.00     0.116 C 
BRANCH  29  30
ATOM     30  N   UNL A   1      38.240  22.358  26.063  1.00  0.00    -0.352 N 
ATOM     31  C   UNL A   1      39.493  22.831  26.388  1.00  0.00     0.251 C 
ATOM     32  H   UNL A   1      38.203  21.443  25.702  1.00  0.00     0.163 HD
ATOM     33  O   UNL A   1      40.494  22.155  26.167  1.00  0.00    -0.269 OA
BRANCH  31  34
ATOM     34  C   UNL A   1      39.617  24.191  26.958  1.00  0.00     0.039 A 
ATOM     35  C   UNL A   1      39.171  24.422  28.260  1.00  0.00     0.014 A 
ATOM     36  C   UNL A   1      40.270  25.199  26.244  1.00  0.00     0.014 A 
ATOM     37  C   UNL A   1      39.464  25.638  28.880  1.00  0.00     0.010 A 
ATOM     38  C   UNL A   1      40.645  26.368  26.895  1.00  0.00     0.010 A 
ATOM     39  C   UNL A   1      40.250  26.600  28.221  1.00  0.00    -0.014 A 
BRANCH  39  40
ATOM     40  C   UNL A   1      40.684  27.843  28.907  1.00  0.00     0.031 A 
ATOM     41  C   UNL A   1      42.056  27.929  29.519  1.00  0.00     0.074 A 
ATOM     42  C   UNL A   1      39.820  28.869  29.040  1.00  0.00     0.049 A 
ATOM     43  N   UNL A   1      42.600  28.915  30.186  1.00  0.00    -0.248 NA
ATOM     44  C   UNL A   1      42.920  26.744  29.388  1.00  0.00     0.031 C 
ATOM     45  C   UNL A   1      38.440  28.887  28.545  1.00  0.00     0.029 A 
ATOM     46  N   UNL A   1      39.972  30.097  29.634  1.00  0.00    -0.354 N 
ATOM     47  C   UNL A   1      43.858  28.465  30.566  1.00  0.00     0.074 A 
ATOM     48  C   UNL A   1      43.976  27.098  30.105  1.00  0.00     0.031 C 
ATOM     49  C   UNL A   1      37.887  30.080  28.823  1.00  0.00     0.029 A 
ATOM     50  C   UNL A   1      38.855  30.896  29.548  1.00  0.00     0.049 A 
ATOM     51  H   UNL A   1      40.802  30.380  30.080  1.00  0.00     0.167 HD
ATOM     52  C   UNL A   1      44.839  29.134  31.215  1.00  0.00     0.031 A 
ATOM     53  C   UNL A   1      38.634  32.147  29.999  1.00  0.00     0.031 A 
ATOM     54  C   UNL A   1      44.725  30.497  31.661  1.00  0.00     0.049 A 
ATOM     55  C   UNL A   1      39.740  32.872  30.716  1.00  0.00     0.074 A 
ATOM     56  C   UNL A   1      45.683  31.284  32.274  1.00  0.00     0.029 A 
ATOM     57  N   UNL A   1      43.582  31.275  31.544  1.00  0.00    -0.354 N 
ATOM     58  N   UNL A   1      40.951  32.454  30.997  1.00  0.00    -0.248 NA
ATOM     59  C   UNL A   1      39.452  34.241  31.166  1.00  0.00     0.031 C 
ATOM     60  C   UNL A   1      45.105  32.522  32.573  1.00  0.00     0.029 A 
ATOM     61  C   UNL A   1      43.804  32.526  32.094  1.00  0.00     0.049 A 
ATOM     62  H   UNL A   1      42.739  30.981  31.130  1.00  0.00     0.167 HD
ATOM     63  C   UNL A   1      41.579  33.519  31.636  1.00  0.00     0.074 A 
ATOM     64  C   UNL A   1      40.618  34.603  31.683  1.00  0.00     0.031 C 
ATOM     65  C   UNL A   1      42.835  33.592  32.140  1.00  0.00     0.031 A 
BRANCH  52  66
ATOM     66  C   UNL A   1      46.125  28.396  31.480  1.00  0.00    -0.014 A 
ATOM     67  C   UNL A   1      46.283  27.607  32.635  1.00  0.00     0.010 A 
ATOM     68  C   UNL A   1      47.177  28.462  30.549  1.00  0.00     0.010 A 
ATOM     69  C   UNL A   1      47.484  26.936  32.875  1.00  0.00     0.020 A 
ATOM     70  C   UNL A   1      48.370  27.767  30.771  1.00  0.00     0.020 A 
ATOM     71  C   UNL A   1      48.522  27.024  31.944  1.00  0.00     0.054 A 
BRANCH  71  72
ATOM     72  S   UNL A   1      50.062  26.124  32.272  1.00  0.00     0.124 S 
ATOM     73  O   UNL A   1      51.071  27.095  31.857  1.00  0.00    -0.237 OA
ATOM     74  O   UNL A   1      49.987  25.873  33.709  1.00  0.00    -0.237 OA
ATOM     75  O   UNL A   1      49.957  24.936  31.429  1.00  0.00    -0.744 OA
ENDBRANCH  71  72
ENDBRANCH  52  66
BRANCH  53  76
ATOM     76  C   UNL A   1      37.318  32.802  29.763  1.00  0.00    -0.014 A 
ATOM     77  C   UNL A   1      37.110  33.590  28.619  1.00  0.00     0.010 A 
ATOM     78  C   UNL A   1      36.261  32.630  30.676  1.00  0.00     0.010 A 
ATOM     79  C   UNL A   1      35.876  34.210  28.398  1.00  0.00     0.020 A 
ATOM     80  C   UNL A   1      35.017  33.225  30.446  1.00  0.00     0.020 A 
ATOM     81  C   UNL A   1      34.836  34.020  29.313  1.00  0.00     0.054 A 
BRANCH  81  82
ATOM     82  S   UNL A   1      33.226  34.789  28.979  1.00  0.00     0.124 S 
ATOM     83  O   UNL A   1      32.618  33.833  28.059  1.00  0.00    -0.237 OA
ATOM     84  O   UNL A   1      32.626  34.856  30.310  1.00  0.00    -0.237 OA
ATOM     85  O   UNL A   1      33.580  36.082  28.398  1.00  0.00    -0.744 OA
ENDBRANCH  81  82
ENDBRANCH  53  76
BRANCH  65  86
ATOM     86  C   UNL A   1      43.255  34.896  32.762  1.00  0.00    -0.014 A 
ATOM     87  C   UNL A   1      43.811  35.927  31.985  1.00  0.00     0.010 A 
ATOM     88  C   UNL A   1      43.048  35.108  34.137  1.00  0.00     0.010 A 
ATOM     89  C   UNL A   1      44.187  37.135  32.578  1.00  0.00     0.020 A 
ATOM     90  C   UNL A   1      43.395  36.325  34.730  1.00  0.00     0.020 A 
ATOM     91  C   UNL A   1      43.978  37.325  33.949  1.00  0.00     0.054 A 
BRANCH  91  92
ATOM     92  S   UNL A   1      44.442  38.913  34.691  1.00  0.00     0.124 S 
ATOM     93  O   UNL A   1      45.762  39.144  34.111  1.00  0.00    -0.237 OA
ATOM     94  O   UNL A   1      43.386  39.807  34.223  1.00  0.00    -0.237 OA
ATOM     95  O   UNL A   1      44.430  38.643  36.127  1.00  0.00    -0.744 OA
ENDBRANCH  91  92
ENDBRANCH  65  86
ENDBRANCH  39  40
ENDBRANCH  31  34
ENDBRANCH  29  30
ENDBRANCH  28  29
ENDBRANCH   1  28
TORSDOF 19
ENDMDL
MODEL 2
REMARK VINA RESULT:     -10.1      3.209      8.758
REMARK SMILES COC[C@H]1CC[N@@H+]([C@H]2CCC[C@]([NH2+]C(C)C)(C(=O)NCCCCNC(=O)c3ccc(-c4c5nc(c(-c6ccc(S(=O)(=O)[O-])cc6)c6ccc([nH]6)c(-c6ccc(S(=O)(=O)[O-])cc6)c6nc(c(-c7ccc(S(=O)(=O)[O-])cc7)c7ccc4[nH]7)C=C6)C=C5)cc3)C2)C1
REMARK SMILES IDX 21 1 20 2 19 3 17 4 18 5 12 7 8 8 9 9 87 10 10 11 11 12 7 13
REMARK SMILES IDX 4 14 5 15 88 16 6 17 3 19 2 20 1 21 13 22 14 25 15 26 16 27
REMARK SMILES IDX 22 28 23 29 24 30 25 31 26 33 27 34 28 35 86 36 29 37 85 38
REMARK SMILES IDX 30 39 31 40 32 41 79 42 33 43 84 44 78 45 80 46 34 47 83 48
REMARK SMILES IDX 77 49 76 50 35 52 65 53 46 54 64 55 47 56 50 57 63 58 81 59
REMARK SMILES IDX 48 60 49 61 62 63 82 64 51 65 36 66 37 67 45 68 38 69 44 70
REMARK SMILES IDX 39 71 40 72 41 73 42 74 43 75 66 76 67 77 75 78 68 79 74 80
REMARK SMILES IDX 69 81 70 82 71 83 72 84 73 85 52 86 53 87 61 88 54 89 60 90
REMARK SMILES IDX 55 91 56 92 57 93 58 94 59 95
REMARK H PARENT 19 6 7 18 13 23 13 24 24 32 80 51 50 62
REMARK Flexibility Score: inf
ROOT
ATOM      1  C   UNL A   1      35.688  24.075  25.573  1.00  0.00     0.023 C 
ENDROOT
BRANCH   1   2
ATOM      2  C   UNL A   1      34.609  22.994  25.459  1.00  0.00     0.116 C 
BRANCH   2   3
ATOM      3  N   UNL A   1      34.161  22.602  24.107  1.00  0.00    -0.351 N 
ATOM      4  C   UNL A   1      33.456  23.352  23.134  1.00  0.00     0.281 C 
ATOM      5  O   UNL A   1      33.398  22.939  21.977  1.00  0.00    -0.268 OA
ATOM      6  H   UNL A   1      34.385  21.680  23.842  1.00  0.00     0.163 HD
BRANCH   4   7
ATOM      7  C   UNL A   1      32.717  24.689  23.655  1.00  0.00     0.181 C 
ATOM      8  C   UNL A   1      31.490  26.982  22.728  1.00  0.00     0.190 C 
ATOM      9  C   UNL A   1      32.881  27.618  22.652  1.00  0.00     0.065 C 
ATOM     10  C   UNL A   1      31.657  25.382  22.713  1.00  0.00     0.144 C 
ATOM     11  C   UNL A   1      33.774  27.141  23.768  1.00  0.00     0.013 C 
ATOM     12  C   UNL A   1      33.967  25.642  23.696  1.00  0.00     0.079 C 
BRANCH   8  13
ATOM     13  N   UNL A   1      30.503  27.759  23.537  1.00  0.00    -0.332 N 
ATOM     14  C   UNL A   1      29.139  29.784  23.202  1.00  0.00     0.076 C 
ATOM     15  C   UNL A   1      28.386  28.548  22.725  1.00  0.00     0.073 C 
ATOM     16  C   UNL A   1      30.474  29.208  23.686  1.00  0.00     0.268 C 
ATOM     17  C   UNL A   1      29.093  27.371  23.398  1.00  0.00     0.263 C 
ATOM     18  H   UNL A   1      30.999  27.434  24.367  1.00  0.00     0.348 HD
BRANCH  14  19
ATOM     19  C   UNL A   1      29.212  30.875  22.109  1.00  0.00     0.169 C 
BRANCH  19  20
ATOM     20  O   UNL A   1      28.540  32.095  22.391  1.00  0.00    -0.384 OA
ATOM     21  C   UNL A   1      27.948  32.763  21.290  1.00  0.00     0.194 C 
ENDBRANCH  19  20
ENDBRANCH  14  19
ENDBRANCH   8  13
BRANCH   7  22
ATOM     22  N   UNL A   1      31.951  24.031  24.722  1.00  0.00    -0.331 N 
ATOM     23  H   UNL A   1      32.655  23.593  25.315  1.00  0.00     0.347 HD
ATOM     24  H   UNL A   1      31.287  23.513  24.148  1.00  0.00     0.347 HD
BRANCH  22  25
ATOM     25  C   UNL A   1      31.041  24.637  25.624  1.00  0.00     0.176 C 
ATOM     26  C   UNL A   1      30.472  23.633  26.627  1.00  0.00     0.075 C 
ATOM     27  C   UNL A   1      31.774  25.721  26.384  1.00  0.00     0.075 C 
ENDBRANCH  22  25
ENDBRANCH   7  22
ENDBRANCH   4   7
ENDBRANCH   2   3
ENDBRANCH   1   2
BRANCH   1  28
ATOM     28  C   UNL A   1      37.130  23.628  25.464  1.00  0.00     0.023 C 
BRANCH  28  29
ATOM     29  C   UNL A   1      38.083  24.273  26.453  1.00  0.00     0.116 C 
BRANCH  29  30
ATOM     30  N   UNL A   1      39.497  24.116  26.128  1.00  0.00    -0.352 N 
ATOM     31  C   UNL A   1      40.560  24.850  26.608  1.00  0.00     0.251 C 
ATOM     32  H   UNL A   1      39.718  23.400  25.490  1.00  0.00     0.163 HD
ATOM     33  O   UNL A   1      41.699  24.644  26.196  1.00  0.00    -0.269 OA
BRANCH  31  34
ATOM     34  C   UNL A   1      40.300  25.927  27.589  1.00  0.00     0.039 A 
ATOM     35  C   UNL A   1      39.443  25.674  28.661  1.00  0.00     0.014 A 
ATOM     36  C   UNL A   1      40.986  27.141  27.503  1.00  0.00     0.014 A 
ATOM     37  C   UNL A   1      39.348  26.605  29.697  1.00  0.00     0.010 A 
ATOM     38  C   UNL A   1      40.965  28.020  28.579  1.00  0.00     0.010 A 
ATOM     39  C   UNL A   1      40.148  27.760  29.690  1.00  0.00    -0.014 A 
BRANCH  39  40
ATOM     40  C   UNL A   1      40.160  28.697  30.842  1.00  0.00     0.031 A 
ATOM     41  C   UNL A   1      39.200  29.854  30.885  1.00  0.00     0.074 A 
ATOM     42  C   UNL A   1      41.080  28.545  31.816  1.00  0.00     0.049 A 
ATOM     43  N   UNL A   1      39.083  30.794  31.789  1.00  0.00    -0.248 NA
ATOM     44  C   UNL A   1      38.267  29.990  29.754  1.00  0.00     0.031 C 
ATOM     45  C   UNL A   1      42.107  27.500  31.860  1.00  0.00     0.029 A 
ATOM     46  N   UNL A   1      41.304  29.274  32.958  1.00  0.00    -0.354 N 
ATOM     47  C   UNL A   1      38.079  31.637  31.329  1.00  0.00     0.074 A 
ATOM     48  C   UNL A   1      37.658  31.131  30.040  1.00  0.00     0.031 C 
ATOM     49  C   UNL A   1      42.825  27.633  32.989  1.00  0.00     0.029 A 
ATOM     50  C   UNL A   1      42.337  28.793  33.728  1.00  0.00     0.049 A 
ATOM     51  H   UNL A   1      40.775  30.067  33.202  1.00  0.00     0.167 HD
ATOM     52  C   UNL A   1      37.536  32.719  31.934  1.00  0.00     0.031 A 
ATOM     53  C   UNL A   1      42.836  29.232  34.900  1.00  0.00     0.031 A 
ATOM     54  C   UNL A   1      37.946  33.213  33.221  1.00  0.00     0.049 A 
ATOM     55  C   UNL A   1      42.215  30.436  35.555  1.00  0.00     0.074 A 
ATOM     56  C   UNL A   1      37.417  34.265  33.946  1.00  0.00     0.029 A 
ATOM     57  N   UNL A   1      38.987  32.690  33.974  1.00  0.00    -0.354 N 
ATOM     58  N   UNL A   1      41.213  31.173  35.139  1.00  0.00    -0.248 NA
ATOM     59  C   UNL A   1      42.783  30.857  36.842  1.00  0.00     0.031 C 
ATOM     60  C   UNL A   1      38.170  34.411  35.116  1.00  0.00     0.029 A 
ATOM     61  C   UNL A   1      39.132  33.412  35.146  1.00  0.00     0.049 A 
ATOM     62  H   UNL A   1      39.540  31.919  33.713  1.00  0.00     0.167 HD
ATOM     63  C   UNL A   1      41.016  32.133  36.126  1.00  0.00     0.074 A 
ATOM     64  C   UNL A   1      41.990  31.870  37.166  1.00  0.00     0.031 C 
ATOM     65  C   UNL A   1      40.111  33.142  36.167  1.00  0.00     0.031 A 
BRANCH  52  66
ATOM     66  C   UNL A   1      36.434  33.441  31.204  1.00  0.00    -0.014 A 
ATOM     67  C   UNL A   1      36.612  33.889  29.882  1.00  0.00     0.010 A 
ATOM     68  C   UNL A   1      35.193  33.646  31.834  1.00  0.00     0.010 A 
ATOM     69  C   UNL A   1      35.586  34.567  29.220  1.00  0.00     0.020 A 
ATOM     70  C   UNL A   1      34.153  34.298  31.163  1.00  0.00     0.020 A 
ATOM     71  C   UNL A   1      34.364  34.771  29.866  1.00  0.00     0.054 A 
BRANCH  71  72
ATOM     72  S   UNL A   1      33.043  35.637  28.973  1.00  0.00     0.124 S 
ATOM     73  O   UNL A   1      32.412  34.544  28.238  1.00  0.00    -0.237 OA
ATOM     74  O   UNL A   1      32.245  36.207  30.055  1.00  0.00    -0.237 OA
ATOM     75  O   UNL A   1      33.759  36.609  28.152  1.00  0.00    -0.744 OA
ENDBRANCH  71  72
ENDBRANCH  52  66
BRANCH  53  76
ATOM     76  C   UNL A   1      43.971  28.514  35.543  1.00  0.00    -0.014 A 
ATOM     77  C   UNL A   1      43.731  27.469  36.451  1.00  0.00     0.010 A 
ATOM     78  C   UNL A   1      45.300  28.863  35.239  1.00  0.00     0.010 A 
ATOM     79  C   UNL A   1      44.796  26.797  37.059  1.00  0.00     0.020 A 
ATOM     80  C   UNL A   1      46.368  28.175  35.822  1.00  0.00     0.020 A 
ATOM     81  C   UNL A   1      46.109  27.153  36.737  1.00  0.00     0.054 A 
BRANCH  81  82
ATOM     82  S   UNL A   1      47.476  26.231  37.495  1.00  0.00     0.124 S 
ATOM     83  O   UNL A   1      47.704  25.169  36.520  1.00  0.00    -0.237 OA
ATOM     84  O   UNL A   1      48.526  27.242  37.587  1.00  0.00    -0.237 OA
ATOM     85  O   UNL A   1      46.925  25.798  38.778  1.00  0.00    -0.744 OA
ENDBRANCH  81  82
ENDBRANCH  53  76
BRANCH  65  86
ATOM     86  C   UNL A   1      40.114  34.021  37.389  1.00  0.00    -0.014 A 
ATOM     87  C   UNL A   1      39.268  33.754  38.479  1.00  0.00     0.010 A 
ATOM     88  C   UNL A   1      41.008  35.105  37.463  1.00  0.00     0.010 A 
ATOM     89  C   UNL A   1      39.290  34.577  39.609  1.00  0.00     0.020 A 
ATOM     90  C   UNL A   1      41.054  35.913  38.602  1.00  0.00     0.020 A 
ATOM     91  C   UNL A   1      40.182  35.653  39.662  1.00  0.00     0.054 A 
BRANCH  91  92
ATOM     92  S   UNL A   1      40.218  36.686  41.151  1.00  0.00     0.124 S 
ATOM     93  O   UNL A   1      40.229  38.032  40.586  1.00  0.00    -0.237 OA
ATOM     94  O   UNL A   1      38.986  36.303  41.838  1.00  0.00    -0.237 OA
ATOM     95  O   UNL A   1      41.450  36.282  41.825  1.00  0.00    -0.744 OA
ENDBRANCH  91  92
ENDBRANCH  65  86
ENDBRANCH  39  40
ENDBRANCH  31  34
ENDBRANCH  29  30
ENDBRANCH  28  29
ENDBRANCH   1  28
TORSDOF 19
ENDMDL
MODEL 3
REMARK VINA RESULT:      -9.9      3.361      4.675
REMARK SMILES COC[C@H]1CC[N@@H+]([C@H]2CCC[C@]([NH2+]C(C)C)(C(=O)NCCCCNC(=O)c3ccc(-c4c5nc(c(-c6ccc(S(=O)(=O)[O-])cc6)c6ccc([nH]6)c(-c6ccc(S(=O)(=O)[O-])cc6)c6nc(c(-c7ccc(S(=O)(=O)[O-])cc7)c7ccc4[nH]7)C=C6)C=C5)cc3)C2)C1
REMARK SMILES IDX 21 1 20 2 19 3 17 4 18 5 12 7 8 8 9 9 87 10 10 11 11 12 7 13
REMARK SMILES IDX 4 14 5 15 88 16 6 17 3 19 2 20 1 21 13 22 14 25 15 26 16 27
REMARK SMILES IDX 22 28 23 29 24 30 25 31 26 33 27 34 28 35 86 36 29 37 85 38
REMARK SMILES IDX 30 39 31 40 32 41 79 42 33 43 84 44 78 45 80 46 34 47 83 48
REMARK SMILES IDX 77 49 76 50 35 52 65 53 46 54 64 55 47 56 50 57 63 58 81 59
REMARK SMILES IDX 48 60 49 61 62 63 82 64 51 65 36 66 37 67 45 68 38 69 44 70
REMARK SMILES IDX 39 71 40 72 41 73 42 74 43 75 66 76 67 77 75 78 68 79 74 80
REMARK SMILES IDX 69 81 70 82 71 83 72 84 73 85 52 86 53 87 61 88 54 89 60 90
REMARK SMILES IDX 55 91 56 92 57 93 58 94 59 95
REMARK H PARENT 19 6 7 18 13 23 13 24 24 32 80 51 50 62
REMARK Flexibility Score: inf
ROOT
ATOM      1  C   UNL A   1      38.759  24.091  26.869  1.00  0.00     0.023 C 
ENDROOT
BRANCH   1   2
ATOM      2  C   UNL A   1      37.700  23.520  25.922  1.00  0.00     0.116 C 
BRANCH   2   3
ATOM      3  N   UNL A   1      37.493  22.057  25.915  1.00  0.00    -0.351 N 
ATOM      4  C   UNL A   1      36.446  21.293  25.344  1.00  0.00     0.281 C 
ATOM      5  O   UNL A   1      36.580  20.077  25.221  1.00  0.00    -0.268 OA
ATOM      6  H   UNL A   1      38.188  21.534  26.377  1.00  0.00     0.163 HD
BRANCH   4   7
ATOM      7  C   UNL A   1      35.103  22.098  24.949  1.00  0.00     0.181 C 
ATOM      8  C   UNL A   1      34.258  24.436  23.749  1.00  0.00     0.190 C 
ATOM      9  C   UNL A   1      34.431  25.120  25.108  1.00  0.00     0.065 C 
ATOM     10  C   UNL A   1      35.154  23.100  23.731  1.00  0.00     0.144 C 
ATOM     11  C   UNL A   1      34.077  24.198  26.245  1.00  0.00     0.013 C 
ATOM     12  C   UNL A   1      34.974  22.979  26.245  1.00  0.00     0.079 C 
BRANCH   8  13
ATOM     13  N   UNL A   1      32.898  24.597  23.149  1.00  0.00    -0.332 N 
ATOM     14  C   UNL A   1      31.478  26.487  22.457  1.00  0.00     0.076 C 
ATOM     15  C   UNL A   1      32.376  26.045  21.308  1.00  0.00     0.073 C 
ATOM     16  C   UNL A   1      31.877  25.536  23.590  1.00  0.00     0.268 C 
ATOM     17  C   UNL A   1      32.831  24.634  21.682  1.00  0.00     0.263 C 
ATOM     18  H   UNL A   1      32.645  23.721  23.608  1.00  0.00     0.348 HD
BRANCH  14  19
ATOM     19  C   UNL A   1      31.608  28.000  22.745  1.00  0.00     0.169 C 
BRANCH  19  20
ATOM     20  O   UNL A   1      30.576  28.584  23.527  1.00  0.00    -0.384 OA
ATOM     21  C   UNL A   1      29.248  28.405  23.064  1.00  0.00     0.194 C 
ENDBRANCH  19  20
ENDBRANCH  14  19
ENDBRANCH   8  13
BRANCH   7  22
ATOM     22  N   UNL A   1      34.354  20.923  24.485  1.00  0.00    -0.331 N 
ATOM     23  H   UNL A   1      35.008  20.145  24.574  1.00  0.00     0.347 HD
ATOM     24  H   UNL A   1      34.020  21.287  23.593  1.00  0.00     0.347 HD
BRANCH  22  25
ATOM     25  C   UNL A   1      33.129  20.428  24.998  1.00  0.00     0.176 C 
ATOM     26  C   UNL A   1      31.988  21.433  24.830  1.00  0.00     0.075 C 
ATOM     27  C   UNL A   1      32.776  19.162  24.248  1.00  0.00     0.075 C 
ENDBRANCH  22  25
ENDBRANCH   7  22
ENDBRANCH   4   7
ENDBRANCH   2   3
ENDBRANCH   1   2
BRANCH   1  28
ATOM     28  C   UNL A   1      40.191  23.653  26.650  1.00  0.00     0.023 C 
BRANCH  28  29
ATOM     29  C   UNL A   1      41.039  24.604  25.825  1.00  0.00     0.116 C 
BRANCH  29  30
ATOM     30  N   UNL A   1      42.479  24.426  25.979  1.00  0.00    -0.352 N 
ATOM     31  C   UNL A   1      43.329  25.109  26.822  1.00  0.00     0.251 C 
ATOM     32  H   UNL A   1      42.893  23.735  25.413  1.00  0.00     0.163 HD
ATOM     33  O   UNL A   1      44.538  24.894  26.799  1.00  0.00    -0.269 OA
BRANCH  31  34
ATOM     34  C   UNL A   1      42.767  26.145  27.716  1.00  0.00     0.039 A 
ATOM     35  C   UNL A   1      41.845  25.768  28.693  1.00  0.00     0.014 A 
ATOM     36  C   UNL A   1      43.235  27.461  27.654  1.00  0.00     0.014 A 
ATOM     37  C   UNL A   1      41.463  26.691  29.668  1.00  0.00     0.010 A 
ATOM     38  C   UNL A   1      42.930  28.347  28.680  1.00  0.00     0.010 A 
ATOM     39  C   UNL A   1      42.043  27.971  29.701  1.00  0.00    -0.014 A 
BRANCH  39  40
ATOM     40  C   UNL A   1      41.751  28.923  30.803  1.00  0.00     0.031 A 
ATOM     41  C   UNL A   1      42.598  28.921  32.046  1.00  0.00     0.074 A 
ATOM     42  C   UNL A   1      40.683  29.740  30.714  1.00  0.00     0.049 A 
ATOM     43  N   UNL A   1      42.478  29.652  33.125  1.00  0.00    -0.248 NA
ATOM     44  C   UNL A   1      43.709  27.956  32.097  1.00  0.00     0.031 C 
ATOM     45  C   UNL A   1      39.746  29.795  29.588  1.00  0.00     0.029 A 
ATOM     46  N   UNL A   1      40.200  30.682  31.588  1.00  0.00    -0.354 N 
ATOM     47  C   UNL A   1      43.483  29.225  33.984  1.00  0.00     0.074 A 
ATOM     48  C   UNL A   1      44.168  28.134  33.326  1.00  0.00     0.031 C 
ATOM     49  C   UNL A   1      38.827  30.746  29.824  1.00  0.00     0.029 A 
ATOM     50  C   UNL A   1      39.083  31.341  31.131  1.00  0.00     0.049 A 
ATOM     51  H   UNL A   1      40.615  30.868  32.462  1.00  0.00     0.167 HD
ATOM     52  C   UNL A   1      43.824  29.713  35.201  1.00  0.00     0.031 A 
ATOM     53  C   UNL A   1      38.347  32.318  31.698  1.00  0.00     0.031 A 
ATOM     54  C   UNL A   1      43.150  30.806  35.849  1.00  0.00     0.049 A 
ATOM     55  C   UNL A   1      38.747  32.845  33.049  1.00  0.00     0.074 A 
ATOM     56  C   UNL A   1      43.458  31.413  37.052  1.00  0.00     0.029 A 
ATOM     57  N   UNL A   1      42.031  31.454  35.346  1.00  0.00    -0.354 N 
ATOM     58  N   UNL A   1      39.750  32.479  33.811  1.00  0.00    -0.248 NA
ATOM     59  C   UNL A   1      37.923  33.925  33.608  1.00  0.00     0.031 C 
ATOM     60  C   UNL A   1      42.495  32.397  37.303  1.00  0.00     0.029 A 
ATOM     61  C   UNL A   1      41.622  32.440  36.228  1.00  0.00     0.049 A 
ATOM     62  H   UNL A   1      41.594  31.245  34.490  1.00  0.00     0.167 HD
ATOM     63  C   UNL A   1      39.691  33.301  34.931  1.00  0.00     0.074 A 
ATOM     64  C   UNL A   1      38.566  34.193  34.737  1.00  0.00     0.031 C 
ATOM     65  C   UNL A   1      40.495  33.315  36.023  1.00  0.00     0.031 A 
BRANCH  52  66
ATOM     66  C   UNL A   1      44.984  29.062  35.908  1.00  0.00    -0.014 A 
ATOM     67  C   UNL A   1      46.295  29.548  35.749  1.00  0.00     0.010 A 
ATOM     68  C   UNL A   1      44.759  27.972  36.767  1.00  0.00     0.010 A 
ATOM     69  C   UNL A   1      47.364  28.929  36.401  1.00  0.00     0.020 A 
ATOM     70  C   UNL A   1      45.823  27.368  37.446  1.00  0.00     0.020 A 
ATOM     71  C   UNL A   1      47.121  27.839  37.243  1.00  0.00     0.054 A 
BRANCH  71  72
ATOM     72  S   UNL A   1      48.526  27.069  38.093  1.00  0.00     0.124 S 
ATOM     73  O   UNL A   1      49.101  26.243  37.034  1.00  0.00    -0.237 OA
ATOM     74  O   UNL A   1      49.328  28.221  38.496  1.00  0.00    -0.237 OA
ATOM     75  O   UNL A   1      47.905  26.332  39.190  1.00  0.00    -0.744 OA
ENDBRANCH  71  72
ENDBRANCH  52  66
BRANCH  53  76
ATOM     76  C   UNL A   1      37.170  32.877  30.977  1.00  0.00    -0.014 A 
ATOM     77  C   UNL A   1      37.349  33.787  29.921  1.00  0.00     0.010 A 
ATOM     78  C   UNL A   1      35.865  32.492  31.334  1.00  0.00     0.010 A 
ATOM     79  C   UNL A   1      36.245  34.317  29.247  1.00  0.00     0.020 A 
ATOM     80  C   UNL A   1      34.760  32.998  30.644  1.00  0.00     0.020 A 
ATOM     81  C   UNL A   1      34.956  33.916  29.611  1.00  0.00     0.054 A 
BRANCH  81  82
ATOM     82  S   UNL A   1      33.540  34.574  28.686  1.00  0.00     0.124 S 
ATOM     83  O   UNL A   1      33.195  33.450  27.820  1.00  0.00    -0.237 OA
ATOM     84  O   UNL A   1      32.582  34.873  29.746  1.00  0.00    -0.237 OA
ATOM     85  O   UNL A   1      34.091  35.744  28.006  1.00  0.00    -0.744 OA
ENDBRANCH  81  82
ENDBRANCH  53  76
BRANCH  65  86
ATOM     86  C   UNL A   1      40.204  34.345  37.081  1.00  0.00    -0.014 A 
ATOM     87  C   UNL A   1      40.707  35.654  36.980  1.00  0.00     0.010 A 
ATOM     88  C   UNL A   1      39.378  34.008  38.170  1.00  0.00     0.010 A 
ATOM     89  C   UNL A   1      40.419  36.599  37.968  1.00  0.00     0.020 A 
ATOM     90  C   UNL A   1      39.064  34.958  39.145  1.00  0.00     0.020 A 
ATOM     91  C   UNL A   1      39.601  36.244  39.046  1.00  0.00     0.054 A 
BRANCH  91  92
ATOM     92  S   UNL A   1      39.213  37.497  40.298  1.00  0.00     0.124 S 
ATOM     93  O   UNL A   1      38.497  36.712  41.300  1.00  0.00    -0.237 OA
ATOM     94  O   UNL A   1      40.535  37.972  40.699  1.00  0.00    -0.237 OA
ATOM     95  O   UNL A   1      38.401  38.472  39.574  1.00  0.00    -0.744 OA
ENDBRANCH  91  92
ENDBRANCH  65  86
ENDBRANCH  39  40
ENDBRANCH  31  34
ENDBRANCH  29  30
ENDBRANCH  28  29
ENDBRANCH   1  28
TORSDOF 19
ENDMDL
