MODEL 1
REMARK VINA RESULT:     -11.0      0.000      0.000
REMARK SMILES O=C(NCCCCNC(=O)[C@]1(CCCCO)CCc2ccccc2C1)c1ccc(-c2c3nc(c(-c4ccc(S(=O)(=O)[O-])cc4)c4ccc([nH]4)c(-c4ccc(S(=O)(=O)[O-])cc4)c4nc(c(-c5ccc(S(=O)(=O)[O-])cc5)c5ccc2[nH]5)C=C4)C=C3)cc1
REMARK SMILES IDX 6 1 5 2 4 3 3 4 1 5 2 6 26 8 27 9 85 10 28 11 84 12 29 13
REMARK SMILES IDX 30 14 31 15 78 16 32 17 83 18 77 19 79 20 33 21 82 22 76 23
REMARK SMILES IDX 75 24 34 26 64 27 45 28 63 29 46 30 49 31 62 32 80 33 47 34
REMARK SMILES IDX 48 35 61 37 81 38 50 39 35 40 36 41 44 42 37 43 43 44 38 45
REMARK SMILES IDX 39 46 40 47 41 48 42 49 65 50 66 51 74 52 67 53 73 54 68 55
REMARK SMILES IDX 69 56 70 57 71 58 72 59 51 60 52 61 60 62 53 63 59 64 54 65
REMARK SMILES IDX 55 66 56 67 57 68 58 69 7 70 8 71 9 72 10 74 11 75 17 76
REMARK SMILES IDX 25 77 18 78 24 79 19 80 23 81 20 82 22 83 21 84 12 85 13 86
REMARK SMILES IDX 14 87 15 88 16 89
REMARK H PARENT 3 7 79 25 49 36 8 73 16 90
REMARK Flexibility Score: inf
ROOT
ATOM      1  C   UNL A   1      38.578  23.504  26.281  1.00  0.00     0.023 C 
ENDROOT
BRANCH   1   2
ATOM      2  C   UNL A   1      39.702  22.591  26.819  1.00  0.00     0.023 C 
BRANCH   2   3
ATOM      3  C   UNL A   1      41.083  23.204  27.045  1.00  0.00     0.116 C 
BRANCH   3   4
ATOM      4  N   UNL A   1      41.532  23.990  25.918  1.00  0.00    -0.352 N 
ATOM      5  O   UNL A   1      42.055  25.868  24.800  1.00  0.00    -0.269 OA
ATOM      6  C   UNL A   1      41.806  25.340  25.870  1.00  0.00     0.251 C 
ATOM      7  H   UNL A   1      41.658  23.497  25.076  1.00  0.00     0.163 HD
BRANCH   6   8
ATOM      8  C   UNL A   1      41.763  26.151  27.111  1.00  0.00     0.039 A 
ATOM      9  C   UNL A   1      42.799  27.026  27.451  1.00  0.00     0.014 A 
ATOM     10  C   UNL A   1      40.614  26.084  27.906  1.00  0.00     0.014 A 
ATOM     11  C   UNL A   1      42.705  27.800  28.610  1.00  0.00     0.010 A 
ATOM     12  C   UNL A   1      40.503  26.892  29.042  1.00  0.00     0.010 A 
ATOM     13  C   UNL A   1      41.546  27.761  29.401  1.00  0.00    -0.014 A 
BRANCH  13  14
ATOM     14  C   UNL A   1      41.360  28.713  30.528  1.00  0.00     0.031 A 
ATOM     15  C   UNL A   1      42.172  28.598  31.786  1.00  0.00     0.074 A 
ATOM     16  C   UNL A   1      40.384  29.638  30.435  1.00  0.00     0.049 A 
ATOM     17  N   UNL A   1      42.065  29.274  32.901  1.00  0.00    -0.248 NA
ATOM     18  C   UNL A   1      43.235  27.582  31.798  1.00  0.00     0.031 C 
ATOM     19  C   UNL A   1      39.514  29.828  29.272  1.00  0.00     0.029 A 
ATOM     20  N   UNL A   1      39.942  30.575  31.335  1.00  0.00    -0.354 N 
ATOM     21  C   UNL A   1      43.028  28.753  33.758  1.00  0.00     0.074 A 
ATOM     22  C   UNL A   1      43.696  27.689  33.038  1.00  0.00     0.031 C 
ATOM     23  C   UNL A   1      38.645  30.815  29.528  1.00  0.00     0.029 A 
ATOM     24  C   UNL A   1      38.855  31.289  30.891  1.00  0.00     0.049 A 
ATOM     25  H   UNL A   1      40.363  30.721  32.214  1.00  0.00     0.167 HD
ATOM     26  C   UNL A   1      43.320  29.124  35.030  1.00  0.00     0.031 A 
ATOM     27  C   UNL A   1      38.080  32.196  31.517  1.00  0.00     0.031 A 
ATOM     28  C   UNL A   1      42.630  30.171  35.742  1.00  0.00     0.049 A 
ATOM     29  C   UNL A   1      38.402  32.574  32.933  1.00  0.00     0.074 A 
ATOM     30  C   UNL A   1      42.877  30.656  37.014  1.00  0.00     0.029 A 
ATOM     31  N   UNL A   1      41.543  30.882  35.250  1.00  0.00    -0.354 N 
ATOM     32  N   UNL A   1      39.353  32.111  33.709  1.00  0.00    -0.248 NA
ATOM     33  C   UNL A   1      37.554  33.596  33.559  1.00  0.00     0.031 C 
ATOM     34  C   UNL A   1      41.902  31.614  37.314  1.00  0.00     0.029 A 
ATOM     35  C   UNL A   1      41.088  31.777  36.204  1.00  0.00     0.049 A 
ATOM     36  H   UNL A   1      41.152  30.767  34.353  1.00  0.00     0.167 HD
ATOM     37  C   UNL A   1      39.232  32.800  34.909  1.00  0.00     0.074 A 
ATOM     38  C   UNL A   1      38.122  33.719  34.751  1.00  0.00     0.031 C 
ATOM     39  C   UNL A   1      39.977  32.681  36.036  1.00  0.00     0.031 A 
BRANCH  26  40
ATOM     40  C   UNL A   1      44.406  28.360  35.748  1.00  0.00    -0.014 A 
ATOM     41  C   UNL A   1      45.742  28.801  35.742  1.00  0.00     0.010 A 
ATOM     42  C   UNL A   1      44.080  27.188  36.457  1.00  0.00     0.010 A 
ATOM     43  C   UNL A   1      46.739  28.051  36.375  1.00  0.00     0.020 A 
ATOM     44  C   UNL A   1      45.068  26.451  37.117  1.00  0.00     0.020 A 
ATOM     45  C   UNL A   1      46.396  26.874  37.049  1.00  0.00     0.054 A 
BRANCH  45  46
ATOM     46  S   UNL A   1      47.713  25.907  37.839  1.00  0.00     0.124 S 
ATOM     47  O   UNL A   1      48.908  26.441  37.189  1.00  0.00    -0.237 OA
ATOM     48  O   UNL A   1      47.561  26.251  39.251  1.00  0.00    -0.237 OA
ATOM     49  O   UNL A   1      47.384  24.525  37.499  1.00  0.00    -0.744 OA
ENDBRANCH  45  46
ENDBRANCH  26  40
BRANCH  27  50
ATOM     50  C   UNL A   1      36.915  32.776  30.795  1.00  0.00    -0.014 A 
ATOM     51  C   UNL A   1      35.612  32.317  31.049  1.00  0.00     0.010 A 
ATOM     52  C   UNL A   1      37.101  33.854  29.909  1.00  0.00     0.010 A 
ATOM     53  C   UNL A   1      34.516  32.929  30.433  1.00  0.00     0.020 A 
ATOM     54  C   UNL A   1      36.007  34.486  29.314  1.00  0.00     0.020 A 
ATOM     55  C   UNL A   1      34.719  34.016  29.578  1.00  0.00     0.054 A 
BRANCH  55  56
ATOM     56  S   UNL A   1      33.274  34.853  28.866  1.00  0.00     0.124 S 
ATOM     57  O   UNL A   1      32.460  35.112  30.049  1.00  0.00    -0.237 OA
ATOM     58  O   UNL A   1      33.870  36.029  28.237  1.00  0.00    -0.237 OA
ATOM     59  O   UNL A   1      32.731  33.866  27.935  1.00  0.00    -0.744 OA
ENDBRANCH  55  56
ENDBRANCH  27  50
BRANCH  39  60
ATOM     60  C   UNL A   1      39.637  33.589  37.188  1.00  0.00    -0.014 A 
ATOM     61  C   UNL A   1      38.879  33.133  38.281  1.00  0.00     0.010 A 
ATOM     62  C   UNL A   1      40.150  34.900  37.208  1.00  0.00     0.010 A 
ATOM     63  C   UNL A   1      38.628  33.976  39.366  1.00  0.00     0.020 A 
ATOM     64  C   UNL A   1      39.924  35.736  38.304  1.00  0.00     0.020 A 
ATOM     65  C   UNL A   1      39.157  35.271  39.373  1.00  0.00     0.054 A 
BRANCH  65  66
ATOM     66  S   UNL A   1      38.877  36.321  40.826  1.00  0.00     0.124 S 
ATOM     67  O   UNL A   1      40.181  36.286  41.482  1.00  0.00    -0.237 OA
ATOM     68  O   UNL A   1      38.508  37.602  40.228  1.00  0.00    -0.237 OA
ATOM     69  O   UNL A   1      37.801  35.641  41.543  1.00  0.00    -0.744 OA
ENDBRANCH  65  66
ENDBRANCH  39  60
ENDBRANCH  13  14
ENDBRANCH   6   8
ENDBRANCH   3   4
ENDBRANCH   2   3
ENDBRANCH   1   2
BRANCH   1  70
ATOM     70  C   UNL A   1      37.168  23.032  25.775  1.00  0.00     0.116 C 
BRANCH  70  71
ATOM     71  N   UNL A   1      35.983  22.867  26.653  1.00  0.00    -0.356 N 
ATOM     72  C   UNL A   1      34.701  22.350  26.656  1.00  0.00     0.226 C 
ATOM     73  H   UNL A   1      36.175  23.263  27.533  1.00  0.00     0.163 HD
ATOM     74  O   UNL A   1      34.101  22.301  27.734  1.00  0.00    -0.274 OA
BRANCH  72  75
ATOM     75  C   UNL A   1      34.026  21.790  25.408  1.00  0.00     0.054 C 
ATOM     76  C   UNL A   1      32.512  21.419  25.473  1.00  0.00     0.022 C 
ATOM     77  C   UNL A   1      34.776  20.431  25.259  1.00  0.00     0.052 C 
ATOM     78  C   UNL A   1      32.044  20.690  24.180  1.00  0.00     0.037 C 
ATOM     79  C   UNL A   1      34.121  19.313  24.482  1.00  0.00    -0.044 A 
ATOM     80  C   UNL A   1      32.874  19.473  23.876  1.00  0.00    -0.045 A 
ATOM     81  C   UNL A   1      34.744  18.054  24.436  1.00  0.00     0.004 A 
ATOM     82  C   UNL A   1      32.391  18.464  23.026  1.00  0.00     0.004 A 
ATOM     83  C   UNL A   1      34.211  17.020  23.669  1.00  0.00     0.000 A 
ATOM     84  C   UNL A   1      33.065  17.245  22.914  1.00  0.00     0.000 A 
BRANCH  75  85
ATOM     85  C   UNL A   1      34.134  22.926  24.391  1.00  0.00     0.017 C 
BRANCH  85  86
ATOM     86  C   UNL A   1      33.417  24.284  24.786  1.00  0.00     0.003 C 
BRANCH  86  87
ATOM     87  C   UNL A   1      34.043  25.649  25.258  1.00  0.00     0.028 C 
BRANCH  87  88
ATOM     88  C   UNL A   1      33.509  27.062  25.678  1.00  0.00     0.156 C 
BRANCH  88  89
ATOM     89  O   UNL A   1      34.113  27.892  26.641  1.00  0.00    -0.396 OA
ATOM     90  H   UNL A   1      34.743  27.373  27.165  1.00  0.00     0.210 HD
ENDBRANCH  88  89
ENDBRANCH  87  88
ENDBRANCH  86  87
ENDBRANCH  85  86
ENDBRANCH  75  85
ENDBRANCH  72  75
ENDBRANCH  70  71
ENDBRANCH   1  70
TORSDOF 19
ENDMDL
MODEL 2
REMARK VINA RESULT:     -10.6      3.953      7.394
REMARK SMILES O=C(NCCCCNC(=O)[C@]1(CCCCO)CCc2ccccc2C1)c1ccc(-c2c3nc(c(-c4ccc(S(=O)(=O)[O-])cc4)c4ccc([nH]4)c(-c4ccc(S(=O)(=O)[O-])cc4)c4nc(c(-c5ccc(S(=O)(=O)[O-])cc5)c5ccc2[nH]5)C=C4)C=C3)cc1
REMARK SMILES IDX 6 1 5 2 4 3 3 4 1 5 2 6 26 8 27 9 85 10 28 11 84 12 29 13
REMARK SMILES IDX 30 14 31 15 78 16 32 17 83 18 77 19 79 20 33 21 82 22 76 23
REMARK SMILES IDX 75 24 34 26 64 27 45 28 63 29 46 30 49 31 62 32 80 33 47 34
REMARK SMILES IDX 48 35 61 37 81 38 50 39 35 40 36 41 44 42 37 43 43 44 38 45
REMARK SMILES IDX 39 46 40 47 41 48 42 49 65 50 66 51 74 52 67 53 73 54 68 55
REMARK SMILES IDX 69 56 70 57 71 58 72 59 51 60 52 61 60 62 53 63 59 64 54 65
REMARK SMILES IDX 55 66 56 67 57 68 58 69 7 70 8 71 9 72 10 74 11 75 17 76
REMARK SMILES IDX 25 77 18 78 24 79 19 80 23 81 20 82 22 83 21 84 12 85 13 86
REMARK SMILES IDX 14 87 15 88 16 89
REMARK H PARENT 3 7 79 25 49 36 8 73 16 90
REMARK Flexibility Score: inf
ROOT
ATOM      1  C   UNL A   1      42.150  22.681  27.997  1.00  0.00     0.023 C 
ENDROOT
BRANCH   1   2
ATOM      2  C   UNL A   1      40.880  21.946  27.513  1.00  0.00     0.023 C 
BRANCH   2   3
ATOM      3  C   UNL A   1      40.572  21.949  26.016  1.00  0.00     0.116 C 
BRANCH   3   4
ATOM      4  N   UNL A   1      39.190  22.266  25.734  1.00  0.00    -0.352 N 
ATOM      5  O   UNL A   1      37.269  23.418  25.910  1.00  0.00    -0.269 OA
ATOM      6  C   UNL A   1      38.466  23.370  26.131  1.00  0.00     0.251 C 
ATOM      7  H   UNL A   1      38.703  21.608  25.188  1.00  0.00     0.163 HD
BRANCH   6   8
ATOM      8  C   UNL A   1      39.137  24.476  26.856  1.00  0.00     0.039 A 
ATOM      9  C   UNL A   1      39.932  25.413  26.188  1.00  0.00     0.014 A 
ATOM     10  C   UNL A   1      38.893  24.616  28.226  1.00  0.00     0.014 A 
ATOM     11  C   UNL A   1      40.518  26.463  26.900  1.00  0.00     0.010 A 
ATOM     12  C   UNL A   1      39.444  25.691  28.928  1.00  0.00     0.010 A 
ATOM     13  C   UNL A   1      40.257  26.627  28.270  1.00  0.00    -0.014 A 
BRANCH  13  14
ATOM     14  C   UNL A   1      40.724  27.840  28.994  1.00  0.00     0.031 A 
ATOM     15  C   UNL A   1      42.042  27.859  29.713  1.00  0.00     0.074 A 
ATOM     16  C   UNL A   1      39.900  28.904  29.063  1.00  0.00     0.049 A 
ATOM     17  N   UNL A   1      42.550  28.790  30.479  1.00  0.00    -0.248 NA
ATOM     18  C   UNL A   1      42.894  26.670  29.565  1.00  0.00     0.031 C 
ATOM     19  C   UNL A   1      38.584  28.992  28.425  1.00  0.00     0.029 A 
ATOM     20  N   UNL A   1      40.030  30.104  29.718  1.00  0.00    -0.354 N 
ATOM     21  C   UNL A   1      43.770  28.295  30.925  1.00  0.00     0.074 A 
ATOM     22  C   UNL A   1      43.915  26.970  30.358  1.00  0.00     0.031 C 
ATOM     23  C   UNL A   1      38.030  30.177  28.718  1.00  0.00     0.029 A 
ATOM     24  C   UNL A   1      38.921  30.908  29.611  1.00  0.00     0.049 A 
ATOM     25  H   UNL A   1      40.841  30.363  30.215  1.00  0.00     0.167 HD
ATOM     26  C   UNL A   1      44.680  28.889  31.737  1.00  0.00     0.031 A 
ATOM     27  C   UNL A   1      38.626  32.085  30.196  1.00  0.00     0.031 A 
ATOM     28  C   UNL A   1      44.510  30.201  32.311  1.00  0.00     0.049 A 
ATOM     29  C   UNL A   1      39.633  32.714  31.114  1.00  0.00     0.074 A 
ATOM     30  C   UNL A   1      45.389  30.913  33.109  1.00  0.00     0.029 A 
ATOM     31  N   UNL A   1      43.377  30.991  32.166  1.00  0.00    -0.354 N 
ATOM     32  N   UNL A   1      40.807  32.257  31.478  1.00  0.00    -0.248 NA
ATOM     33  C   UNL A   1      39.283  34.016  31.695  1.00  0.00     0.031 C 
ATOM     34  C   UNL A   1      44.763  32.103  33.496  1.00  0.00     0.029 A 
ATOM     35  C   UNL A   1      43.521  32.166  32.885  1.00  0.00     0.049 A 
ATOM     36  H   UNL A   1      42.586  30.750  31.630  1.00  0.00     0.167 HD
ATOM     37  C   UNL A   1      41.346  33.224  32.317  1.00  0.00     0.074 A 
ATOM     38  C   UNL A   1      40.374  34.297  32.395  1.00  0.00     0.031 C 
ATOM     39  C   UNL A   1      42.540  33.222  32.960  1.00  0.00     0.031 A 
BRANCH  26  40
ATOM     40  C   UNL A   1      45.920  28.104  32.088  1.00  0.00    -0.014 A 
ATOM     41  C   UNL A   1      45.975  27.290  33.233  1.00  0.00     0.010 A 
ATOM     42  C   UNL A   1      47.046  28.168  31.245  1.00  0.00     0.010 A 
ATOM     43  C   UNL A   1      47.151  26.608  33.564  1.00  0.00     0.020 A 
ATOM     44  C   UNL A   1      48.214  27.465  31.555  1.00  0.00     0.020 A 
ATOM     45  C   UNL A   1      48.267  26.710  32.728  1.00  0.00     0.054 A 
BRANCH  45  46
ATOM     46  S   UNL A   1      49.788  25.836  33.193  1.00  0.00     0.124 S 
ATOM     47  O   UNL A   1      49.979  26.281  34.572  1.00  0.00    -0.237 OA
ATOM     48  O   UNL A   1      49.415  24.433  33.033  1.00  0.00    -0.237 OA
ATOM     49  O   UNL A   1      50.779  26.327  32.238  1.00  0.00    -0.744 OA
ENDBRANCH  45  46
ENDBRANCH  26  40
BRANCH  27  50
ATOM     50  C   UNL A   1      37.301  32.712  29.936  1.00  0.00    -0.014 A 
ATOM     51  C   UNL A   1      36.231  32.525  30.826  1.00  0.00     0.010 A 
ATOM     52  C   UNL A   1      37.134  33.572  28.833  1.00  0.00     0.010 A 
ATOM     53  C   UNL A   1      35.018  33.191  30.620  1.00  0.00     0.020 A 
ATOM     54  C   UNL A   1      35.934  34.261  28.641  1.00  0.00     0.020 A 
ATOM     55  C   UNL A   1      34.881  34.063  29.536  1.00  0.00     0.054 A 
BRANCH  55  56
ATOM     56  S   UNL A   1      33.331  34.987  29.346  1.00  0.00     0.124 S 
ATOM     57  O   UNL A   1      32.601  34.164  28.387  1.00  0.00    -0.237 OA
ATOM     58  O   UNL A   1      32.800  34.995  30.706  1.00  0.00    -0.237 OA
ATOM     59  O   UNL A   1      33.767  36.290  28.849  1.00  0.00    -0.744 OA
ENDBRANCH  55  56
ENDBRANCH  27  50
BRANCH  39  60
ATOM     60  C   UNL A   1      42.882  34.433  33.787  1.00  0.00    -0.014 A 
ATOM     61  C   UNL A   1      42.762  34.419  35.188  1.00  0.00     0.010 A 
ATOM     62  C   UNL A   1      43.404  35.576  33.154  1.00  0.00     0.010 A 
ATOM     63  C   UNL A   1      43.142  35.535  35.939  1.00  0.00     0.020 A 
ATOM     64  C   UNL A   1      43.812  36.682  33.904  1.00  0.00     0.020 A 
ATOM     65  C   UNL A   1      43.670  36.657  35.293  1.00  0.00     0.054 A 
BRANCH  65  66
ATOM     66  S   UNL A   1      44.224  38.063  36.296  1.00  0.00     0.124 S 
ATOM     67  O   UNL A   1      45.612  37.708  36.577  1.00  0.00    -0.237 OA
ATOM     68  O   UNL A   1      44.034  39.195  35.393  1.00  0.00    -0.237 OA
ATOM     69  O   UNL A   1      43.330  38.038  37.451  1.00  0.00    -0.744 OA
ENDBRANCH  65  66
ENDBRANCH  39  60
ENDBRANCH  13  14
ENDBRANCH   6   8
ENDBRANCH   3   4
ENDBRANCH   2   3
ENDBRANCH   1   2
BRANCH   1  70
ATOM     70  C   UNL A   1      42.959  23.757  27.187  1.00  0.00     0.116 C 
BRANCH  70  71
ATOM     71  N   UNL A   1      44.068  23.435  26.255  1.00  0.00    -0.356 N 
ATOM     72  C   UNL A   1      45.257  23.945  25.770  1.00  0.00     0.226 C 
ATOM     73  H   UNL A   1      43.898  22.559  25.841  1.00  0.00     0.163 HD
ATOM     74  O   UNL A   1      45.965  23.204  25.082  1.00  0.00    -0.274 OA
BRANCH  72  75
ATOM     75  C   UNL A   1      45.752  25.352  26.092  1.00  0.00     0.054 C 
ATOM     76  C   UNL A   1      46.095  25.709  27.572  1.00  0.00     0.022 C 
ATOM     77  C   UNL A   1      44.481  26.189  25.751  1.00  0.00     0.052 C 
ATOM     78  C   UNL A   1      46.395  27.227  27.740  1.00  0.00     0.037 C 
ATOM     79  C   UNL A   1      44.313  27.554  26.377  1.00  0.00    -0.044 A 
ATOM     80  C   UNL A   1      45.274  28.093  27.233  1.00  0.00    -0.045 A 
ATOM     81  C   UNL A   1      43.121  28.266  26.157  1.00  0.00     0.004 A 
ATOM     82  C   UNL A   1      45.150  29.429  27.649  1.00  0.00     0.004 A 
ATOM     83  C   UNL A   1      42.957  29.558  26.654  1.00  0.00     0.000 A 
ATOM     84  C   UNL A   1      43.999  30.163  27.349  1.00  0.00     0.000 A 
BRANCH  75  85
ATOM     85  C   UNL A   1      47.066  25.465  25.320  1.00  0.00     0.017 C 
BRANCH  85  86
ATOM     86  C   UNL A   1      47.254  26.780  24.455  1.00  0.00     0.003 C 
BRANCH  86  87
ATOM     87  C   UNL A   1      48.436  27.192  23.500  1.00  0.00     0.028 C 
BRANCH  87  88
ATOM     88  C   UNL A   1      49.038  26.679  22.146  1.00  0.00     0.156 C 
BRANCH  88  89
ATOM     89  O   UNL A   1      48.405  26.797  20.894  1.00  0.00    -0.396 OA
ATOM     90  H   UNL A   1      47.757  27.519  20.927  1.00  0.00     0.210 HD
ENDBRANCH  88  89
ENDBRANCH  87  88
ENDBRANCH  86  87
ENDBRANCH  85  86
ENDBRANCH  75  85
ENDBRANCH  72  75
ENDBRANCH  70  71
ENDBRANCH   1  70
TORSDOF 19
ENDMDL
MODEL 3
REMARK VINA RESULT:     -10.6      2.628      8.802
REMARK SMILES O=C(NCCCCNC(=O)[C@]1(CCCCO)CCc2ccccc2C1)c1ccc(-c2c3nc(c(-c4ccc(S(=O)(=O)[O-])cc4)c4ccc([nH]4)c(-c4ccc(S(=O)(=O)[O-])cc4)c4nc(c(-c5ccc(S(=O)(=O)[O-])cc5)c5ccc2[nH]5)C=C4)C=C3)cc1
REMARK SMILES IDX 6 1 5 2 4 3 3 4 1 5 2 6 26 8 27 9 85 10 28 11 84 12 29 13
REMARK SMILES IDX 30 14 31 15 78 16 32 17 83 18 77 19 79 20 33 21 82 22 76 23
REMARK SMILES IDX 75 24 34 26 64 27 45 28 63 29 46 30 49 31 62 32 80 33 47 34
REMARK SMILES IDX 48 35 61 37 81 38 50 39 35 40 36 41 44 42 37 43 43 44 38 45
REMARK SMILES IDX 39 46 40 47 41 48 42 49 65 50 66 51 74 52 67 53 73 54 68 55
REMARK SMILES IDX 69 56 70 57 71 58 72 59 51 60 52 61 60 62 53 63 59 64 54 65
REMARK SMILES IDX 55 66 56 67 57 68 58 69 7 70 8 71 9 72 10 74 11 75 17 76
REMARK SMILES IDX 25 77 18 78 24 79 19 80 23 81 20 82 22 83 21 84 12 85 13 86
REMARK SMILES IDX 14 87 15 88 16 89
REMARK H PARENT 3 7 79 25 49 36 8 73 16 90
REMARK Flexibility Score: inf
ROOT
ATOM      1  C   UNL A   1      34.559  30.689  27.693  1.00  0.00     0.023 C 
ENDROOT
BRANCH   1   2
ATOM      2  C   UNL A   1      33.558  31.818  28.029  1.00  0.00     0.023 C 
BRANCH   2   3
ATOM      3  C   UNL A   1      33.694  33.146  27.285  1.00  0.00     0.116 C 
BRANCH   3   4
ATOM      4  N   UNL A   1      32.990  34.225  27.941  1.00  0.00    -0.352 N 
ATOM      5  O   UNL A   1      32.458  35.600  29.636  1.00  0.00    -0.269 OA
ATOM      6  C   UNL A   1      33.232  34.776  29.181  1.00  0.00     0.251 C 
ATOM      7  H   UNL A   1      32.241  34.616  27.437  1.00  0.00     0.163 HD
BRANCH   6   8
ATOM      8  C   UNL A   1      34.410  34.341  29.970  1.00  0.00     0.039 A 
ATOM      9  C   UNL A   1      34.268  33.655  31.179  1.00  0.00     0.014 A 
ATOM     10  C   UNL A   1      35.684  34.561  29.434  1.00  0.00     0.014 A 
ATOM     11  C   UNL A   1      35.402  33.229  31.876  1.00  0.00     0.010 A 
ATOM     12  C   UNL A   1      36.814  34.095  30.111  1.00  0.00     0.010 A 
ATOM     13  C   UNL A   1      36.684  33.421  31.335  1.00  0.00    -0.014 A 
BRANCH  13  14
ATOM     14  C   UNL A   1      37.880  32.810  31.974  1.00  0.00     0.031 A 
ATOM     15  C   UNL A   1      38.580  31.636  31.353  1.00  0.00     0.074 A 
ATOM     16  C   UNL A   1      38.279  33.280  33.172  1.00  0.00     0.049 A 
ATOM     17  N   UNL A   1      39.567  30.918  31.828  1.00  0.00    -0.248 NA
ATOM     18  C   UNL A   1      38.102  31.201  30.033  1.00  0.00     0.031 C 
ATOM     19  C   UNL A   1      37.660  34.401  33.885  1.00  0.00     0.029 A 
ATOM     20  N   UNL A   1      39.280  32.865  34.015  1.00  0.00    -0.354 N 
ATOM     21  C   UNL A   1      39.813  29.932  30.880  1.00  0.00     0.074 A 
ATOM     22  C   UNL A   1      38.859  30.134  29.810  1.00  0.00     0.031 C 
ATOM     23  C   UNL A   1      38.292  34.584  35.052  1.00  0.00     0.029 A 
ATOM     24  C   UNL A   1      39.320  33.560  35.201  1.00  0.00     0.049 A 
ATOM     25  H   UNL A   1      39.909  32.141  33.792  1.00  0.00     0.167 HD
ATOM     26  C   UNL A   1      40.747  28.948  30.905  1.00  0.00     0.031 A 
ATOM     27  C   UNL A   1      40.067  33.375  36.306  1.00  0.00     0.031 A 
ATOM     28  C   UNL A   1      41.676  28.747  31.989  1.00  0.00     0.049 A 
ATOM     29  C   UNL A   1      41.075  32.263  36.326  1.00  0.00     0.074 A 
ATOM     30  C   UNL A   1      42.689  27.810  32.092  1.00  0.00     0.029 A 
ATOM     31  N   UNL A   1      41.694  29.483  33.166  1.00  0.00    -0.354 N 
ATOM     32  N   UNL A   1      41.334  31.376  35.395  1.00  0.00    -0.248 NA
ATOM     33  C   UNL A   1      41.893  32.127  37.537  1.00  0.00     0.031 C 
ATOM     34  C   UNL A   1      43.277  27.939  33.356  1.00  0.00     0.029 A 
ATOM     35  C   UNL A   1      42.677  29.001  34.014  1.00  0.00     0.049 A 
ATOM     36  H   UNL A   1      41.094  30.239  33.369  1.00  0.00     0.167 HD
ATOM     37  C   UNL A   1      42.360  30.588  35.899  1.00  0.00     0.074 A 
ATOM     38  C   UNL A   1      42.681  31.111  37.212  1.00  0.00     0.031 C 
ATOM     39  C   UNL A   1      42.980  29.528  35.323  1.00  0.00     0.031 A 
BRANCH  26  40
ATOM     40  C   UNL A   1      40.776  27.985  29.743  1.00  0.00    -0.014 A 
ATOM     41  C   UNL A   1      39.849  26.932  29.638  1.00  0.00     0.010 A 
ATOM     42  C   UNL A   1      41.738  28.148  28.728  1.00  0.00     0.010 A 
ATOM     43  C   UNL A   1      39.926  26.024  28.576  1.00  0.00     0.020 A 
ATOM     44  C   UNL A   1      41.799  27.261  27.648  1.00  0.00     0.020 A 
ATOM     45  C   UNL A   1      40.908  26.188  27.595  1.00  0.00     0.054 A 
BRANCH  45  46
ATOM     46  S   UNL A   1      41.000  24.981  26.243  1.00  0.00     0.124 S 
ATOM     47  O   UNL A   1      41.375  25.826  25.112  1.00  0.00    -0.237 OA
ATOM     48  O   UNL A   1      42.034  24.058  26.706  1.00  0.00    -0.237 OA
ATOM     49  O   UNL A   1      39.652  24.421  26.182  1.00  0.00    -0.744 OA
ENDBRANCH  45  46
ENDBRANCH  26  40
BRANCH  27  50
ATOM     50  C   UNL A   1      39.853  34.261  37.482  1.00  0.00    -0.014 A 
ATOM     51  C   UNL A   1      39.027  33.859  38.545  1.00  0.00     0.010 A 
ATOM     52  C   UNL A   1      40.547  35.483  37.579  1.00  0.00     0.010 A 
ATOM     53  C   UNL A   1      38.904  34.659  39.685  1.00  0.00     0.020 A 
ATOM     54  C   UNL A   1      40.449  36.271  38.729  1.00  0.00     0.020 A 
ATOM     55  C   UNL A   1      39.623  35.854  39.775  1.00  0.00     0.054 A 
BRANCH  55  56
ATOM     56  S   UNL A   1      39.520  36.826  41.304  1.00  0.00     0.124 S 
ATOM     57  O   UNL A   1      39.008  38.103  40.818  1.00  0.00    -0.237 OA
ATOM     58  O   UNL A   1      38.594  36.039  42.115  1.00  0.00    -0.237 OA
ATOM     59  O   UNL A   1      40.898  36.847  41.790  1.00  0.00    -0.744 OA
ENDBRANCH  55  56
ENDBRANCH  27  50
BRANCH  39  60
ATOM     60  C   UNL A   1      44.095  28.875  36.096  1.00  0.00    -0.014 A 
ATOM     61  C   UNL A   1      43.857  27.767  36.927  1.00  0.00     0.010 A 
ATOM     62  C   UNL A   1      45.414  29.335  35.925  1.00  0.00     0.010 A 
ATOM     63  C   UNL A   1      44.917  27.140  37.587  1.00  0.00     0.020 A 
ATOM     64  C   UNL A   1      46.480  28.693  36.562  1.00  0.00     0.020 A 
ATOM     65  C   UNL A   1      46.223  27.604  37.395  1.00  0.00     0.054 A 
BRANCH  65  66
ATOM     66  S   UNL A   1      47.589  26.728  38.206  1.00  0.00     0.124 S 
ATOM     67  O   UNL A   1      47.469  25.387  37.640  1.00  0.00    -0.237 OA
ATOM     68  O   UNL A   1      48.758  27.490  37.775  1.00  0.00    -0.237 OA
ATOM     69  O   UNL A   1      47.273  26.833  39.629  1.00  0.00    -0.744 OA
ENDBRANCH  65  66
ENDBRANCH  39  60
ENDBRANCH  13  14
ENDBRANCH   6   8
ENDBRANCH   3   4
ENDBRANCH   2   3
ENDBRANCH   1   2
BRANCH   1  70
ATOM     70  C   UNL A   1      34.210  29.324  27.000  1.00  0.00     0.116 C 
BRANCH  70  71
ATOM     71  N   UNL A   1      34.306  29.086  25.538  1.00  0.00    -0.356 N 
ATOM     72  C   UNL A   1      33.847  28.240  24.546  1.00  0.00     0.226 C 
ATOM     73  H   UNL A   1      34.902  29.760  25.139  1.00  0.00     0.163 HD
ATOM     74  O   UNL A   1      34.087  28.542  23.373  1.00  0.00    -0.274 OA
BRANCH  72  75
ATOM     75  C   UNL A   1      33.018  26.992  24.834  1.00  0.00     0.054 C 
ATOM     76  C   UNL A   1      33.513  25.995  25.928  1.00  0.00     0.022 C 
ATOM     77  C   UNL A   1      33.172  26.227  23.483  1.00  0.00     0.052 C 
ATOM     78  C   UNL A   1      32.655  24.697  25.950  1.00  0.00     0.037 C 
ATOM     79  C   UNL A   1      32.956  24.732  23.459  1.00  0.00    -0.044 A 
ATOM     80  C   UNL A   1      32.602  24.022  24.606  1.00  0.00    -0.045 A 
ATOM     81  C   UNL A   1      33.197  24.025  22.268  1.00  0.00     0.004 A 
ATOM     82  C   UNL A   1      32.248  22.667  24.493  1.00  0.00     0.004 A 
ATOM     83  C   UNL A   1      32.938  22.658  22.183  1.00  0.00     0.000 A 
ATOM     84  C   UNL A   1      32.405  21.991  23.280  1.00  0.00     0.000 A 
BRANCH  75  85
ATOM     85  C   UNL A   1      31.688  27.543  25.342  1.00  0.00     0.017 C 
BRANCH  85  86
ATOM     86  C   UNL A   1      30.417  27.231  24.446  1.00  0.00     0.003 C 
BRANCH  86  87
ATOM     87  C   UNL A   1      29.866  27.995  23.185  1.00  0.00     0.028 C 
BRANCH  87  88
ATOM     88  C   UNL A   1      30.358  29.156  22.252  1.00  0.00     0.156 C 
BRANCH  88  89
ATOM     89  O   UNL A   1      31.699  29.564  22.123  1.00  0.00    -0.396 OA
ATOM     90  H   UNL A   1      31.971  29.493  21.195  1.00  0.00     0.210 HD
ENDBRANCH  88  89
ENDBRANCH  87  88
ENDBRANCH  86  87
ENDBRANCH  85  86
ENDBRANCH  75  85
ENDBRANCH  72  75
ENDBRANCH  70  71
ENDBRANCH   1  70
TORSDOF 19
ENDMDL
