MODEL 1
REMARK VINA RESULT:     -11.8      0.000      0.000
REMARK SMILES O=C(NCCCCNC(=O)[C@H]1C=C[C@H](NS(=O)(=O)c2ccc(F)c(F)c2F)C1)c1ccc(-c2c3nc(c(-c4ccc(S(=O)(=O)[O-])cc4)c4ccc([nH]4)c(-c4ccc(S(=O)(=O)[O-])cc4)c4nc(c(-c5ccc(S(=O)(=O)[O-])cc5)c5ccc2[nH]5)C=C4)C=C3)cc1
REMARK SMILES IDX 5 1 4 2 3 3 1 4 2 5 29 7 30 8 88 9 31 10 87 11 32 12 33 13
REMARK SMILES IDX 34 14 81 15 35 16 86 17 80 18 82 19 36 20 85 21 79 22 78 23
REMARK SMILES IDX 37 25 67 26 48 27 66 28 49 29 52 30 65 31 83 32 50 33 51 34
REMARK SMILES IDX 64 36 84 37 53 38 38 39 39 40 47 41 40 42 46 43 41 44 42 45
REMARK SMILES IDX 43 46 44 47 45 48 68 49 69 50 77 51 70 52 76 53 71 54 72 55
REMARK SMILES IDX 73 56 74 57 75 58 54 59 55 60 63 61 56 62 62 63 57 64 58 65
REMARK SMILES IDX 59 66 60 67 61 68 6 69 7 70 8 71 9 72 10 74 11 75 12 76
REMARK SMILES IDX 28 77 13 78 14 79 15 80 16 82 17 83 18 84 19 85 20 86 26 87
REMARK SMILES IDX 21 88 24 89 27 90 22 91 25 92 23 93
REMARK H PARENT 3 6 82 24 52 35 8 73 15 81
REMARK Flexibility Score: inf
ROOT
ATOM      1  C   UNL A   1      40.414  21.965  27.235  1.00  0.00     0.023 C 
ENDROOT
BRANCH   1   2
ATOM      2  C   UNL A   1      40.626  23.452  27.479  1.00  0.00     0.116 C 
BRANCH   2   3
ATOM      3  N   UNL A   1      41.059  24.168  26.290  1.00  0.00    -0.352 N 
ATOM      4  O   UNL A   1      41.414  25.979  24.987  1.00  0.00    -0.269 OA
ATOM      5  C   UNL A   1      41.171  25.526  26.101  1.00  0.00     0.251 C 
ATOM      6  H   UNL A   1      41.305  23.607  25.519  1.00  0.00     0.163 HD
BRANCH   5   7
ATOM      7  C   UNL A   1      40.967  26.435  27.250  1.00  0.00     0.039 A 
ATOM      8  C   UNL A   1      41.786  27.554  27.418  1.00  0.00     0.014 A 
ATOM      9  C   UNL A   1      39.959  26.154  28.177  1.00  0.00     0.014 A 
ATOM     10  C   UNL A   1      41.689  28.310  28.579  1.00  0.00     0.010 A 
ATOM     11  C   UNL A   1      39.807  26.968  29.303  1.00  0.00     0.010 A 
ATOM     12  C   UNL A   1      40.687  28.040  29.525  1.00  0.00    -0.014 A 
BRANCH  12  13
ATOM     13  C   UNL A   1      40.524  28.951  30.686  1.00  0.00     0.031 A 
ATOM     14  C   UNL A   1      39.439  29.991  30.725  1.00  0.00     0.074 A 
ATOM     15  C   UNL A   1      41.367  28.806  31.729  1.00  0.00     0.049 A 
ATOM     16  N   UNL A   1      39.159  30.844  31.678  1.00  0.00    -0.248 NA
ATOM     17  C   UNL A   1      38.559  30.095  29.551  1.00  0.00     0.031 C 
ATOM     18  C   UNL A   1      42.467  27.838  31.795  1.00  0.00     0.029 A 
ATOM     19  N   UNL A   1      41.425  29.453  32.936  1.00  0.00    -0.354 N 
ATOM     20  C   UNL A   1      38.087  31.599  31.214  1.00  0.00     0.074 A 
ATOM     21  C   UNL A   1      37.775  31.114  29.887  1.00  0.00     0.031 C 
ATOM     22  C   UNL A   1      43.060  27.924  32.994  1.00  0.00     0.029 A 
ATOM     23  C   UNL A   1      42.429  28.995  33.755  1.00  0.00     0.049 A 
ATOM     24  H   UNL A   1      40.808  30.177  33.190  1.00  0.00     0.167 HD
ATOM     25  C   UNL A   1      37.429  32.604  31.841  1.00  0.00     0.031 A 
ATOM     26  C   UNL A   1      42.818  29.402  34.977  1.00  0.00     0.031 A 
ATOM     27  C   UNL A   1      37.742  33.074  33.167  1.00  0.00     0.049 A 
ATOM     28  C   UNL A   1      42.081  30.531  35.635  1.00  0.00     0.074 A 
ATOM     29  C   UNL A   1      37.100  34.056  33.903  1.00  0.00     0.029 A 
ATOM     30  N   UNL A   1      38.782  32.604  33.953  1.00  0.00    -0.354 N 
ATOM     31  N   UNL A   1      41.043  31.200  35.195  1.00  0.00    -0.248 NA
ATOM     32  C   UNL A   1      42.568  30.960  36.951  1.00  0.00     0.031 C 
ATOM     33  C   UNL A   1      37.786  34.216  35.112  1.00  0.00     0.029 A 
ATOM     34  C   UNL A   1      38.820  33.295  35.152  1.00  0.00     0.049 A 
ATOM     35  H   UNL A   1      39.403  31.883  33.696  1.00  0.00     0.167 HD
ATOM     36  C   UNL A   1      40.745  32.126  36.188  1.00  0.00     0.074 A 
ATOM     37  C   UNL A   1      41.695  31.910  37.260  1.00  0.00     0.031 C 
ATOM     38  C   UNL A   1      39.776  33.072  36.206  1.00  0.00     0.031 A 
BRANCH  25  39
ATOM     39  C   UNL A   1      36.310  33.291  31.103  1.00  0.00    -0.014 A 
ATOM     40  C   UNL A   1      35.061  33.509  31.712  1.00  0.00     0.010 A 
ATOM     41  C   UNL A   1      36.544  33.814  29.818  1.00  0.00     0.010 A 
ATOM     42  C   UNL A   1      34.064  34.226  31.042  1.00  0.00     0.020 A 
ATOM     43  C   UNL A   1      35.557  34.550  29.154  1.00  0.00     0.020 A 
ATOM     44  C   UNL A   1      34.319  34.743  29.768  1.00  0.00     0.054 A 
BRANCH  44  45
ATOM     45  S   UNL A   1      33.026  35.719  28.948  1.00  0.00     0.124 S 
ATOM     46  O   UNL A   1      33.810  36.750  28.273  1.00  0.00    -0.237 OA
ATOM     47  O   UNL A   1      32.391  34.739  28.072  1.00  0.00    -0.237 OA
ATOM     48  O   UNL A   1      32.195  36.193  30.053  1.00  0.00    -0.744 OA
ENDBRANCH  44  45
ENDBRANCH  25  39
BRANCH  26  49
ATOM     49  C   UNL A   1      43.987  28.760  35.635  1.00  0.00    -0.014 A 
ATOM     50  C   UNL A   1      45.292  29.226  35.399  1.00  0.00     0.010 A 
ATOM     51  C   UNL A   1      43.795  27.674  36.510  1.00  0.00     0.010 A 
ATOM     52  C   UNL A   1      46.385  28.601  36.005  1.00  0.00     0.020 A 
ATOM     53  C   UNL A   1      44.882  27.068  37.142  1.00  0.00     0.020 A 
ATOM     54  C   UNL A   1      46.172  27.523  36.871  1.00  0.00     0.054 A 
BRANCH  54  55
ATOM     55  S   UNL A   1      47.600  26.743  37.672  1.00  0.00     0.124 S 
ATOM     56  O   UNL A   1      48.412  27.901  38.032  1.00  0.00    -0.237 OA
ATOM     57  O   UNL A   1      46.987  26.028  38.790  1.00  0.00    -0.237 OA
ATOM     58  O   UNL A   1      48.153  25.889  36.625  1.00  0.00    -0.744 OA
ENDBRANCH  54  55
ENDBRANCH  26  49
BRANCH  38  59
ATOM     59  C   UNL A   1      39.686  33.932  37.436  1.00  0.00    -0.014 A 
ATOM     60  C   UNL A   1      40.344  35.173  37.504  1.00  0.00     0.010 A 
ATOM     61  C   UNL A   1      38.906  33.506  38.526  1.00  0.00     0.010 A 
ATOM     62  C   UNL A   1      40.253  35.957  38.657  1.00  0.00     0.020 A 
ATOM     63  C   UNL A   1      38.791  34.300  39.670  1.00  0.00     0.020 A 
ATOM     64  C   UNL A   1      39.479  35.514  39.733  1.00  0.00     0.054 A 
BRANCH  64  65
ATOM     65  S   UNL A   1      39.348  36.565  41.205  1.00  0.00     0.124 S 
ATOM     66  O   UNL A   1      40.731  36.608  41.671  1.00  0.00    -0.237 OA
ATOM     67  O   UNL A   1      38.828  37.817  40.663  1.00  0.00    -0.237 OA
ATOM     68  O   UNL A   1      38.422  35.836  42.069  1.00  0.00    -0.744 OA
ENDBRANCH  64  65
ENDBRANCH  38  59
ENDBRANCH  12  13
ENDBRANCH   5   7
ENDBRANCH   2   3
ENDBRANCH   1   2
BRANCH   1  69
ATOM     69  C   UNL A   1      39.483  21.627  26.073  1.00  0.00     0.023 C 
BRANCH  69  70
ATOM     70  C   UNL A   1      38.205  22.457  26.010  1.00  0.00     0.116 C 
BRANCH  70  71
ATOM     71  N   UNL A   1      37.004  21.634  25.982  1.00  0.00    -0.356 N 
ATOM     72  C   UNL A   1      35.753  21.968  25.535  1.00  0.00     0.226 C 
ATOM     73  H   UNL A   1      37.105  20.718  26.327  1.00  0.00     0.163 HD
ATOM     74  O   UNL A   1      34.862  21.119  25.547  1.00  0.00    -0.274 OA
BRANCH  72  75
ATOM     75  C   UNL A   1      35.524  23.403  25.081  1.00  0.00     0.103 C 
ATOM     76  C   UNL A   1      35.131  23.580  23.644  1.00  0.00    -0.016 C 
ATOM     77  C   UNL A   1      34.335  24.022  25.832  1.00  0.00     0.042 C 
ATOM     78  C   UNL A   1      34.159  24.491  23.513  1.00  0.00    -0.011 C 
ATOM     79  C   UNL A   1      33.682  24.978  24.840  1.00  0.00     0.093 C 
BRANCH  79  80
ATOM     80  N   UNL A   1      33.979  26.388  25.052  1.00  0.00    -0.204 NA
ATOM     81  H   UNL A   1      34.945  26.503  24.745  1.00  0.00     0.142 HD
BRANCH  80  82
ATOM     82  S   UNL A   1      33.161  27.694  24.400  1.00  0.00     0.244 S 
ATOM     83  O   UNL A   1      33.959  28.105  23.263  1.00  0.00    -0.207 OA
ATOM     84  O   UNL A   1      31.771  27.351  24.230  1.00  0.00    -0.207 OA
BRANCH  82  85
ATOM     85  C   UNL A   1      33.368  28.942  25.621  1.00  0.00     0.121 A 
ATOM     86  C   UNL A   1      34.478  28.855  26.479  1.00  0.00     0.028 A 
ATOM     87  C   UNL A   1      32.454  29.980  25.755  1.00  0.00     0.181 A 
ATOM     88  C   UNL A   1      34.642  29.794  27.495  1.00  0.00     0.044 A 
ATOM     89  C   UNL A   1      32.619  30.909  26.775  1.00  0.00     0.195 A 
ATOM     90  F   UNL A   1      31.401  30.102  24.938  1.00  0.00    -0.202 F 
ATOM     91  C   UNL A   1      33.703  30.812  27.641  1.00  0.00     0.161 A 
ATOM     92  F   UNL A   1      31.727  31.896  26.933  1.00  0.00    -0.200 F 
ATOM     93  F   UNL A   1      33.856  31.700  28.632  1.00  0.00    -0.204 F 
ENDBRANCH  82  85
ENDBRANCH  80  82
ENDBRANCH  79  80
ENDBRANCH  72  75
ENDBRANCH  70  71
ENDBRANCH  69  70
ENDBRANCH   1  69
TORSDOF 17
ENDMDL
MODEL 2
REMARK VINA RESULT:     -11.7      0.705      8.123
REMARK SMILES O=C(NCCCCNC(=O)[C@H]1C=C[C@H](NS(=O)(=O)c2ccc(F)c(F)c2F)C1)c1ccc(-c2c3nc(c(-c4ccc(S(=O)(=O)[O-])cc4)c4ccc([nH]4)c(-c4ccc(S(=O)(=O)[O-])cc4)c4nc(c(-c5ccc(S(=O)(=O)[O-])cc5)c5ccc2[nH]5)C=C4)C=C3)cc1
REMARK SMILES IDX 5 1 4 2 3 3 1 4 2 5 29 7 30 8 88 9 31 10 87 11 32 12 33 13
REMARK SMILES IDX 34 14 81 15 35 16 86 17 80 18 82 19 36 20 85 21 79 22 78 23
REMARK SMILES IDX 37 25 67 26 48 27 66 28 49 29 52 30 65 31 83 32 50 33 51 34
REMARK SMILES IDX 64 36 84 37 53 38 38 39 39 40 47 41 40 42 46 43 41 44 42 45
REMARK SMILES IDX 43 46 44 47 45 48 68 49 69 50 77 51 70 52 76 53 71 54 72 55
REMARK SMILES IDX 73 56 74 57 75 58 54 59 55 60 63 61 56 62 62 63 57 64 58 65
REMARK SMILES IDX 59 66 60 67 61 68 6 69 7 70 8 71 9 72 10 74 11 75 12 76
REMARK SMILES IDX 28 77 13 78 14 79 15 80 16 82 17 83 18 84 19 85 20 86 26 87
REMARK SMILES IDX 21 88 24 89 27 90 22 91 25 92 23 93
REMARK H PARENT 3 6 82 24 52 35 8 73 15 81
REMARK Flexibility Score: inf
ROOT
ATOM      1  C   UNL A   1      40.074  21.849  26.714  1.00  0.00     0.023 C 
ENDROOT
BRANCH   1   2
ATOM      2  C   UNL A   1      40.327  23.325  26.982  1.00  0.00     0.116 C 
BRANCH   2   3
ATOM      3  N   UNL A   1      41.152  23.956  25.963  1.00  0.00    -0.352 N 
ATOM      4  O   UNL A   1      42.235  25.659  24.949  1.00  0.00    -0.269 OA
ATOM      5  C   UNL A   1      41.678  25.227  25.952  1.00  0.00     0.251 C 
ATOM      6  H   UNL A   1      41.363  23.399  25.179  1.00  0.00     0.163 HD
BRANCH   5   7
ATOM      7  C   UNL A   1      41.537  26.077  27.155  1.00  0.00     0.039 A 
ATOM      8  C   UNL A   1      40.513  25.834  28.074  1.00  0.00     0.014 A 
ATOM      9  C   UNL A   1      42.427  27.136  27.355  1.00  0.00     0.014 A 
ATOM     10  C   UNL A   1      40.294  26.729  29.113  1.00  0.00     0.010 A 
ATOM     11  C   UNL A   1      42.256  27.986  28.451  1.00  0.00     0.010 A 
ATOM     12  C   UNL A   1      41.173  27.803  29.327  1.00  0.00    -0.014 A 
BRANCH  12  13
ATOM     13  C   UNL A   1      40.990  28.659  30.526  1.00  0.00     0.031 A 
ATOM     14  C   UNL A   1      41.877  28.525  31.733  1.00  0.00     0.074 A 
ATOM     15  C   UNL A   1      40.014  29.590  30.498  1.00  0.00     0.049 A 
ATOM     16  N   UNL A   1      41.853  29.215  32.845  1.00  0.00    -0.248 NA
ATOM     17  C   UNL A   1      42.918  27.486  31.695  1.00  0.00     0.031 C 
ATOM     18  C   UNL A   1      39.084  29.802  29.383  1.00  0.00     0.029 A 
ATOM     19  N   UNL A   1      39.650  30.540  31.416  1.00  0.00    -0.354 N 
ATOM     20  C   UNL A   1      42.857  28.684  33.648  1.00  0.00     0.074 A 
ATOM     21  C   UNL A   1      43.463  27.603  32.901  1.00  0.00     0.031 C 
ATOM     22  C   UNL A   1      38.288  30.844  29.665  1.00  0.00     0.029 A 
ATOM     23  C   UNL A   1      38.605  31.330  31.001  1.00  0.00     0.049 A 
ATOM     24  H   UNL A   1      40.093  30.646  32.288  1.00  0.00     0.167 HD
ATOM     25  C   UNL A   1      43.233  29.065  34.892  1.00  0.00     0.031 A 
ATOM     26  C   UNL A   1      37.953  32.325  31.631  1.00  0.00     0.031 A 
ATOM     27  C   UNL A   1      42.628  30.150  35.625  1.00  0.00     0.049 A 
ATOM     28  C   UNL A   1      38.381  32.709  33.017  1.00  0.00     0.074 A 
ATOM     29  C   UNL A   1      42.972  30.640  36.873  1.00  0.00     0.029 A 
ATOM     30  N   UNL A   1      41.555  30.907  35.182  1.00  0.00    -0.354 N 
ATOM     31  N   UNL A   1      39.362  32.222  33.738  1.00  0.00    -0.248 NA
ATOM     32  C   UNL A   1      37.615  33.775  33.674  1.00  0.00     0.031 C 
ATOM     33  C   UNL A   1      42.073  31.658  37.208  1.00  0.00     0.029 A 
ATOM     34  C   UNL A   1      41.204  31.839  36.144  1.00  0.00     0.049 A 
ATOM     35  H   UNL A   1      41.107  30.798  34.311  1.00  0.00     0.167 HD
ATOM     36  C   UNL A   1      39.337  32.931  34.933  1.00  0.00     0.074 A 
ATOM     37  C   UNL A   1      38.263  33.897  34.825  1.00  0.00     0.031 C 
ATOM     38  C   UNL A   1      40.128  32.789  36.023  1.00  0.00     0.031 A 
BRANCH  25  39
ATOM     39  C   UNL A   1      44.341  28.300  35.567  1.00  0.00    -0.014 A 
ATOM     40  C   UNL A   1      44.070  27.159  36.344  1.00  0.00     0.010 A 
ATOM     41  C   UNL A   1      45.679  28.669  35.338  1.00  0.00     0.010 A 
ATOM     42  C   UNL A   1      45.118  26.411  36.890  1.00  0.00     0.020 A 
ATOM     43  C   UNL A   1      46.730  27.912  35.865  1.00  0.00     0.020 A 
ATOM     44  C   UNL A   1      46.442  26.791  36.646  1.00  0.00     0.054 A 
BRANCH  44  45
ATOM     45  S   UNL A   1      47.782  25.768  37.319  1.00  0.00     0.124 S 
ATOM     46  O   UNL A   1      48.700  26.778  37.838  1.00  0.00    -0.237 OA
ATOM     47  O   UNL A   1      47.097  24.965  38.328  1.00  0.00    -0.237 OA
ATOM     48  O   UNL A   1      48.267  25.023  36.159  1.00  0.00    -0.744 OA
ENDBRANCH  44  45
ENDBRANCH  25  39
BRANCH  26  49
ATOM     49  C   UNL A   1      36.803  32.995  30.967  1.00  0.00    -0.014 A 
ATOM     50  C   UNL A   1      37.003  33.843  29.864  1.00  0.00     0.010 A 
ATOM     51  C   UNL A   1      35.494  32.779  31.438  1.00  0.00     0.010 A 
ATOM     52  C   UNL A   1      35.917  34.484  29.261  1.00  0.00     0.020 A 
ATOM     53  C   UNL A   1      34.404  33.393  30.819  1.00  0.00     0.020 A 
ATOM     54  C   UNL A   1      34.625  34.257  29.746  1.00  0.00     0.054 A 
BRANCH  54  55
ATOM     55  S   UNL A   1      33.225  35.074  28.933  1.00  0.00     0.124 S 
ATOM     56  O   UNL A   1      32.332  35.331  30.058  1.00  0.00    -0.237 OA
ATOM     57  O   UNL A   1      33.846  36.254  28.335  1.00  0.00    -0.237 OA
ATOM     58  O   UNL A   1      32.757  34.074  27.976  1.00  0.00    -0.744 OA
ENDBRANCH  54  55
ENDBRANCH  26  49
BRANCH  38  59
ATOM     59  C   UNL A   1      39.871  33.718  37.178  1.00  0.00    -0.014 A 
ATOM     60  C   UNL A   1      40.556  34.942  37.289  1.00  0.00     0.010 A 
ATOM     61  C   UNL A   1      38.911  33.376  38.146  1.00  0.00     0.010 A 
ATOM     62  C   UNL A   1      40.308  35.791  38.370  1.00  0.00     0.020 A 
ATOM     63  C   UNL A   1      38.642  34.235  39.214  1.00  0.00     0.020 A 
ATOM     64  C   UNL A   1      39.355  35.431  39.327  1.00  0.00     0.054 A 
BRANCH  64  65
ATOM     65  S   UNL A   1      39.026  36.566  40.703  1.00  0.00     0.124 S 
ATOM     66  O   UNL A   1      38.544  37.755  40.006  1.00  0.00    -0.237 OA
ATOM     67  O   UNL A   1      38.024  35.845  41.483  1.00  0.00    -0.237 OA
ATOM     68  O   UNL A   1      40.327  36.708  41.352  1.00  0.00    -0.744 OA
ENDBRANCH  64  65
ENDBRANCH  38  59
ENDBRANCH  12  13
ENDBRANCH   5   7
ENDBRANCH   2   3
ENDBRANCH   1   2
BRANCH   1  69
ATOM     69  C   UNL A   1      38.902  21.552  25.783  1.00  0.00     0.023 C 
BRANCH  69  70
ATOM     70  C   UNL A   1      37.813  22.619  25.758  1.00  0.00     0.116 C 
BRANCH  70  71
ATOM     71  N   UNL A   1      36.567  22.160  26.355  1.00  0.00    -0.356 N 
ATOM     72  C   UNL A   1      35.294  22.610  26.121  1.00  0.00     0.226 C 
ATOM     73  H   UNL A   1      36.649  21.430  27.010  1.00  0.00     0.163 HD
ATOM     74  O   UNL A   1      34.349  22.066  26.691  1.00  0.00    -0.274 OA
BRANCH  72  75
ATOM     75  C   UNL A   1      35.125  23.802  25.189  1.00  0.00     0.103 C 
ATOM     76  C   UNL A   1      34.973  23.476  23.732  1.00  0.00    -0.016 C 
ATOM     77  C   UNL A   1      33.822  24.551  25.503  1.00  0.00     0.042 C 
ATOM     78  C   UNL A   1      34.025  24.229  23.161  1.00  0.00    -0.011 C 
ATOM     79  C   UNL A   1      33.330  25.088  24.163  1.00  0.00     0.093 C 
BRANCH  79  80
ATOM     80  N   UNL A   1      33.572  26.507  23.939  1.00  0.00    -0.204 NA
ATOM     81  H   UNL A   1      34.118  26.549  23.079  1.00  0.00     0.142 HD
BRANCH  80  82
ATOM     82  S   UNL A   1      32.416  27.707  23.776  1.00  0.00     0.244 S 
ATOM     83  O   UNL A   1      32.773  28.406  22.558  1.00  0.00    -0.207 OA
ATOM     84  O   UNL A   1      31.104  27.132  23.929  1.00  0.00    -0.207 OA
BRANCH  82  85
ATOM     85  C   UNL A   1      32.794  28.802  25.098  1.00  0.00     0.121 A 
ATOM     86  C   UNL A   1      33.980  28.588  25.821  1.00  0.00     0.028 A 
ATOM     87  C   UNL A   1      31.940  29.844  25.438  1.00  0.00     0.181 A 
ATOM     88  C   UNL A   1      34.282  29.402  26.911  1.00  0.00     0.044 A 
ATOM     89  C   UNL A   1      32.243  30.647  26.531  1.00  0.00     0.195 A 
ATOM     90  F   UNL A   1      30.815  30.087  24.754  1.00  0.00    -0.202 F 
ATOM     91  C   UNL A   1      33.403  30.423  27.264  1.00  0.00     0.161 A 
ATOM     92  F   UNL A   1      31.411  31.635  26.888  1.00  0.00    -0.200 F 
ATOM     93  F   UNL A   1      33.690  31.189  28.325  1.00  0.00    -0.204 F 
ENDBRANCH  82  85
ENDBRANCH  80  82
ENDBRANCH  79  80
ENDBRANCH  72  75
ENDBRANCH  70  71
ENDBRANCH  69  70
ENDBRANCH   1  69
TORSDOF 17
ENDMDL
MODEL 3
REMARK VINA RESULT:     -11.6      4.818     10.408
REMARK SMILES O=C(NCCCCNC(=O)[C@H]1C=C[C@H](NS(=O)(=O)c2ccc(F)c(F)c2F)C1)c1ccc(-c2c3nc(c(-c4ccc(S(=O)(=O)[O-])cc4)c4ccc([nH]4)c(-c4ccc(S(=O)(=O)[O-])cc4)c4nc(c(-c5ccc(S(=O)(=O)[O-])cc5)c5ccc2[nH]5)C=C4)C=C3)cc1
REMARK SMILES IDX 5 1 4 2 3 3 1 4 2 5 29 7 30 8 88 9 31 10 87 11 32 12 33 13
REMARK SMILES IDX 34 14 81 15 35 16 86 17 80 18 82 19 36 20 85 21 79 22 78 23
REMARK SMILES IDX 37 25 67 26 48 27 66 28 49 29 52 30 65 31 83 32 50 33 51 34
REMARK SMILES IDX 64 36 84 37 53 38 38 39 39 40 47 41 40 42 46 43 41 44 42 45
REMARK SMILES IDX 43 46 44 47 45 48 68 49 69 50 77 51 70 52 76 53 71 54 72 55
REMARK SMILES IDX 73 56 74 57 75 58 54 59 55 60 63 61 56 62 62 63 57 64 58 65
REMARK SMILES IDX 59 66 60 67 61 68 6 69 7 70 8 71 9 72 10 74 11 75 12 76
REMARK SMILES IDX 28 77 13 78 14 79 15 80 16 82 17 83 18 84 19 85 20 86 26 87
REMARK SMILES IDX 21 88 24 89 27 90 22 91 25 92 23 93
REMARK H PARENT 3 6 82 24 52 35 8 73 15 81
REMARK Flexibility Score: inf
ROOT
ATOM      1  C   UNL A   1      33.584  27.931  25.510  1.00  0.00     0.023 C 
ENDROOT
BRANCH   1   2
ATOM      2  C   UNL A   1      33.715  28.210  27.000  1.00  0.00     0.116 C 
BRANCH   2   3
ATOM      3  N   UNL A   1      33.459  29.600  27.345  1.00  0.00    -0.352 N 
ATOM      4  O   UNL A   1      33.874  31.591  28.327  1.00  0.00    -0.269 OA
ATOM      5  C   UNL A   1      34.292  30.492  27.979  1.00  0.00     0.251 C 
ATOM      6  H   UNL A   1      32.574  29.947  27.090  1.00  0.00     0.163 HD
BRANCH   5   7
ATOM      7  C   UNL A   1      35.690  30.100  28.262  1.00  0.00     0.039 A 
ATOM      8  C   UNL A   1      36.046  29.622  29.526  1.00  0.00     0.014 A 
ATOM      9  C   UNL A   1      36.656  30.228  27.259  1.00  0.00     0.014 A 
ATOM     10  C   UNL A   1      37.385  29.405  29.828  1.00  0.00     0.010 A 
ATOM     11  C   UNL A   1      37.991  29.927  27.542  1.00  0.00     0.010 A 
ATOM     12  C   UNL A   1      38.370  29.535  28.836  1.00  0.00    -0.014 A 
BRANCH  12  13
ATOM     13  C   UNL A   1      39.771  29.164  29.156  1.00  0.00     0.031 A 
ATOM     14  C   UNL A   1      40.338  27.824  28.776  1.00  0.00     0.074 A 
ATOM     15  C   UNL A   1      40.543  30.077  29.781  1.00  0.00     0.049 A 
ATOM     16  N   UNL A   1      41.548  27.364  28.969  1.00  0.00    -0.248 NA
ATOM     17  C   UNL A   1      39.438  26.876  28.100  1.00  0.00     0.031 C 
ATOM     18  C   UNL A   1      40.095  31.407  30.210  1.00  0.00     0.029 A 
ATOM     19  N   UNL A   1      41.862  30.039  30.151  1.00  0.00    -0.354 N 
ATOM     20  C   UNL A   1      41.553  26.070  28.459  1.00  0.00     0.074 A 
ATOM     21  C   UNL A   1      40.219  25.811  27.961  1.00  0.00     0.031 C 
ATOM     22  C   UNL A   1      41.130  32.071  30.741  1.00  0.00     0.029 A 
ATOM     23  C   UNL A   1      42.296  31.197  30.752  1.00  0.00     0.049 A 
ATOM     24  H   UNL A   1      42.442  29.259  30.000  1.00  0.00     0.167 HD
ATOM     25  C   UNL A   1      42.577  25.184  28.415  1.00  0.00     0.031 A 
ATOM     26  C   UNL A   1      43.492  31.517  31.277  1.00  0.00     0.031 A 
ATOM     27  C   UNL A   1      43.905  25.455  28.907  1.00  0.00     0.049 A 
ATOM     28  C   UNL A   1      44.599  30.506  31.231  1.00  0.00     0.074 A 
ATOM     29  C   UNL A   1      45.020  24.636  28.863  1.00  0.00     0.029 A 
ATOM     30  N   UNL A   1      44.297  26.628  29.534  1.00  0.00    -0.354 N 
ATOM     31  N   UNL A   1      44.592  29.305  30.704  1.00  0.00    -0.248 NA
ATOM     32  C   UNL A   1      45.873  30.891  31.849  1.00  0.00     0.031 C 
ATOM     33  C   UNL A   1      46.072  25.292  29.512  1.00  0.00     0.029 A 
ATOM     34  C   UNL A   1      45.627  26.542  29.909  1.00  0.00     0.049 A 
ATOM     35  H   UNL A   1      43.714  27.407  29.690  1.00  0.00     0.167 HD
ATOM     36  C   UNL A   1      45.867  28.793  30.920  1.00  0.00     0.074 A 
ATOM     37  C   UNL A   1      46.623  29.826  31.598  1.00  0.00     0.031 C 
ATOM     38  C   UNL A   1      46.362  27.577  30.590  1.00  0.00     0.031 A 
BRANCH  25  39
ATOM     39  C   UNL A   1      42.314  23.820  27.834  1.00  0.00    -0.014 A 
ATOM     40  C   UNL A   1      42.333  23.603  26.444  1.00  0.00     0.010 A 
ATOM     41  C   UNL A   1      42.144  22.719  28.695  1.00  0.00     0.010 A 
ATOM     42  C   UNL A   1      42.173  22.314  25.928  1.00  0.00     0.020 A 
ATOM     43  C   UNL A   1      42.005  21.425  28.183  1.00  0.00     0.020 A 
ATOM     44  C   UNL A   1      42.012  21.232  26.800  1.00  0.00     0.054 A 
BRANCH  44  45
ATOM     45  S   UNL A   1      41.865  19.562  26.102  1.00  0.00     0.124 S 
ATOM     46  O   UNL A   1      42.774  19.632  24.962  1.00  0.00    -0.237 OA
ATOM     47  O   UNL A   1      42.306  18.714  27.206  1.00  0.00    -0.237 OA
ATOM     48  O   UNL A   1      40.448  19.451  25.763  1.00  0.00    -0.744 OA
ENDBRANCH  44  45
ENDBRANCH  25  39
BRANCH  26  49
ATOM     49  C   UNL A   1      43.686  32.841  31.926  1.00  0.00    -0.014 A 
ATOM     50  C   UNL A   1      44.120  33.951  31.181  1.00  0.00     0.010 A 
ATOM     51  C   UNL A   1      43.429  32.997  33.301  1.00  0.00     0.010 A 
ATOM     52  C   UNL A   1      44.320  35.186  31.806  1.00  0.00     0.020 A 
ATOM     53  C   UNL A   1      43.597  34.235  33.922  1.00  0.00     0.020 A 
ATOM     54  C   UNL A   1      44.060  35.318  33.174  1.00  0.00     0.054 A 
BRANCH  54  55
ATOM     55  S   UNL A   1      44.296  36.934  33.962  1.00  0.00     0.124 S 
ATOM     56  O   UNL A   1      45.448  37.458  33.235  1.00  0.00    -0.237 OA
ATOM     57  O   UNL A   1      43.024  37.605  33.700  1.00  0.00    -0.237 OA
ATOM     58  O   UNL A   1      44.536  36.598  35.362  1.00  0.00    -0.744 OA
ENDBRANCH  54  55
ENDBRANCH  26  49
BRANCH  38  59
ATOM     59  C   UNL A   1      47.799  27.307  30.944  1.00  0.00    -0.014 A 
ATOM     60  C   UNL A   1      48.841  27.681  30.076  1.00  0.00     0.010 A 
ATOM     61  C   UNL A   1      48.111  26.701  32.173  1.00  0.00     0.010 A 
ATOM     62  C   UNL A   1      50.170  27.419  30.417  1.00  0.00     0.020 A 
ATOM     63  C   UNL A   1      49.441  26.462  32.530  1.00  0.00     0.020 A 
ATOM     64  C   UNL A   1      50.461  26.809  31.641  1.00  0.00     0.054 A 
BRANCH  64  65
ATOM     65  S   UNL A   1      52.196  26.511  32.078  1.00  0.00     0.124 S 
ATOM     66  O   UNL A   1      52.855  27.688  31.519  1.00  0.00    -0.237 OA
ATOM     67  O   UNL A   1      52.155  26.446  33.536  1.00  0.00    -0.237 OA
ATOM     68  O   UNL A   1      52.507  25.248  31.413  1.00  0.00    -0.744 OA
ENDBRANCH  64  65
ENDBRANCH  38  59
ENDBRANCH  12  13
ENDBRANCH   5   7
ENDBRANCH   2   3
ENDBRANCH   1   2
BRANCH   1  69
ATOM     69  C   UNL A   1      33.331  29.161  24.642  1.00  0.00     0.023 C 
BRANCH  69  70
ATOM     70  C   UNL A   1      33.471  28.930  23.141  1.00  0.00     0.116 C 
BRANCH  70  71
ATOM     71  N   UNL A   1      32.193  28.992  22.445  1.00  0.00    -0.356 N 
ATOM     72  C   UNL A   1      31.128  28.135  22.542  1.00  0.00     0.226 C 
ATOM     73  H   UNL A   1      32.079  29.748  21.826  1.00  0.00     0.163 HD
ATOM     74  O   UNL A   1      30.103  28.373  21.905  1.00  0.00    -0.274 OA
BRANCH  72  75
ATOM     75  C   UNL A   1      31.294  26.897  23.413  1.00  0.00     0.103 C 
ATOM     76  C   UNL A   1      30.044  26.386  24.069  1.00  0.00    -0.016 C 
ATOM     77  C   UNL A   1      31.741  25.697  22.565  1.00  0.00     0.042 C 
ATOM     78  C   UNL A   1      29.974  25.051  24.009  1.00  0.00    -0.011 C 
ATOM     79  C   UNL A   1      31.100  24.477  23.217  1.00  0.00     0.093 C 
BRANCH  79  80
ATOM     80  N   UNL A   1      31.996  23.669  24.034  1.00  0.00    -0.204 NA
ATOM     81  H   UNL A   1      31.661  23.788  24.990  1.00  0.00     0.142 HD
BRANCH  80  82
ATOM     82  S   UNL A   1      32.287  22.028  23.878  1.00  0.00     0.244 S 
ATOM     83  O   UNL A   1      31.697  21.431  25.059  1.00  0.00    -0.207 OA
ATOM     84  O   UNL A   1      31.888  21.594  22.564  1.00  0.00    -0.207 OA
BRANCH  82  85
ATOM     85  C   UNL A   1      34.029  21.914  24.090  1.00  0.00     0.121 A 
ATOM     86  C   UNL A   1      34.524  21.020  25.055  1.00  0.00     0.028 A 
ATOM     87  C   UNL A   1      34.899  22.695  23.341  1.00  0.00     0.181 A 
ATOM     88  C   UNL A   1      35.896  20.946  25.289  1.00  0.00     0.044 A 
ATOM     89  C   UNL A   1      36.266  22.622  23.585  1.00  0.00     0.195 A 
ATOM     90  F   UNL A   1      34.459  23.538  22.399  1.00  0.00    -0.202 F 
ATOM     91  C   UNL A   1      36.757  21.756  24.556  1.00  0.00     0.161 A 
ATOM     92  F   UNL A   1      37.112  23.394  22.890  1.00  0.00    -0.200 F 
ATOM     93  F   UNL A   1      38.073  21.694  24.799  1.00  0.00    -0.204 F 
ENDBRANCH  82  85
ENDBRANCH  80  82
ENDBRANCH  79  80
ENDBRANCH  72  75
ENDBRANCH  70  71
ENDBRANCH  69  70
ENDBRANCH   1  69
TORSDOF 17
ENDMDL
