MODEL 1
REMARK VINA RESULT:     -12.5      0.000      0.000
REMARK SMILES Cn1c(=O)[nH]c(=O)c2c1nc(NC1CCCC1)n2CC(=O)NCCCCNC(=O)c1ccc(-c2c3nc(c(-c4ccc(S(=O)(=O)[O-])cc4)c4ccc([nH]4)c(-c4ccc(S(=O)(=O)[O-])cc4)c4nc(c(-c5ccc(S(=O)(=O)[O-])cc5)c5ccc2[nH]5)C=C4)C=C3)cc1
REMARK SMILES IDX 24 1 23 2 22 3 20 4 21 5 19 7 18 8 1 9 2 10 3 11 9 12 4 13
REMARK SMILES IDX 5 14 8 15 10 16 6 17 11 19 7 20 12 21 13 23 14 24 17 25
REMARK SMILES IDX 15 26 16 27 25 28 26 29 27 30 28 31 29 33 30 34 31 35 89 36
REMARK SMILES IDX 32 37 88 38 33 39 34 40 35 41 82 42 36 43 87 44 81 45 83 46
REMARK SMILES IDX 37 47 86 48 80 49 79 50 38 52 68 53 49 54 67 55 50 56 53 57
REMARK SMILES IDX 66 58 84 59 51 60 52 61 65 63 85 64 54 65 39 66 40 67 48 68
REMARK SMILES IDX 41 69 47 70 42 71 43 72 44 73 45 74 46 75 69 76 70 77 78 78
REMARK SMILES IDX 71 79 77 80 72 81 73 82 74 83 75 84 76 85 55 86 56 87 64 88
REMARK SMILES IDX 57 89 63 90 58 91 59 92 60 93 61 94 62 95
REMARK H PARENT 22 6 5 18 12 22 27 32 83 51 53 62
REMARK Flexibility Score: inf
ROOT
ATOM      1  C   UNL A   1      35.327  23.062  25.650  1.00  0.00     0.023 C 
ENDROOT
BRANCH   1   2
ATOM      2  C   UNL A   1      34.772  24.435  25.250  1.00  0.00     0.116 C 
BRANCH   2   3
ATOM      3  N   UNL A   1      33.512  24.725  25.908  1.00  0.00    -0.355 N 
ATOM      4  C   UNL A   1      32.883  25.927  26.073  1.00  0.00     0.240 C 
ATOM      5  O   UNL A   1      31.889  25.980  26.801  1.00  0.00    -0.273 OA
ATOM      6  H   UNL A   1      33.045  23.947  26.291  1.00  0.00     0.163 HD
BRANCH   4   7
ATOM      7  C   UNL A   1      33.394  27.173  25.379  1.00  0.00     0.226 C 
BRANCH   7   8
ATOM      8  N   UNL A   1      32.372  28.191  25.240  1.00  0.00    -0.295 N 
ATOM      9  C   UNL A   1      29.332  31.300  23.759  1.00  0.00     0.157 C 
ATOM     10  N   UNL A   1      29.886  29.975  23.563  1.00  0.00    -0.279 N 
ATOM     11  C   UNL A   1      29.549  29.220  22.445  1.00  0.00     0.329 A 
ATOM     12  C   UNL A   1      30.818  29.473  24.444  1.00  0.00     0.170 A 
ATOM     13  O   UNL A   1      28.759  29.591  21.578  1.00  0.00    -0.248 OA
ATOM     14  N   UNL A   1      30.159  27.985  22.317  1.00  0.00    -0.272 N 
ATOM     15  C   UNL A   1      31.424  28.266  24.250  1.00  0.00     0.154 A 
ATOM     16  N   UNL A   1      31.279  30.099  25.551  1.00  0.00    -0.194 NA
ATOM     17  C   UNL A   1      31.094  27.427  23.154  1.00  0.00     0.279 A 
ATOM     18  H   UNL A   1      29.892  27.446  21.537  1.00  0.00     0.175 HD
ATOM     19  C   UNL A   1      32.225  29.318  26.033  1.00  0.00     0.206 A 
ATOM     20  O   UNL A   1      31.589  26.323  22.930  1.00  0.00    -0.267 OA
BRANCH  19  21
ATOM     21  N   UNL A   1      33.004  29.546  27.110  1.00  0.00    -0.353 N 
ATOM     22  H   UNL A   1      32.701  29.215  27.987  1.00  0.00     0.163 HD
BRANCH  21  23
ATOM     23  C   UNL A   1      34.269  30.258  27.037  1.00  0.00     0.082 C 
ATOM     24  C   UNL A   1      34.324  31.538  27.863  1.00  0.00     0.025 C 
ATOM     25  C   UNL A   1      35.465  29.434  27.508  1.00  0.00     0.025 C 
ATOM     26  C   UNL A   1      35.814  31.814  28.001  1.00  0.00     0.002 C 
ATOM     27  C   UNL A   1      36.504  30.454  27.967  1.00  0.00     0.002 C 
ENDBRANCH  21  23
ENDBRANCH  19  21
ENDBRANCH   7   8
ENDBRANCH   4   7
ENDBRANCH   2   3
ENDBRANCH   1   2
BRANCH   1  28
ATOM     28  C   UNL A   1      36.249  22.401  24.616  1.00  0.00     0.023 C 
BRANCH  28  29
ATOM     29  C   UNL A   1      37.737  22.625  24.860  1.00  0.00     0.116 C 
BRANCH  29  30
ATOM     30  N   UNL A   1      38.301  21.662  25.799  1.00  0.00    -0.352 N 
ATOM     31  C   UNL A   1      39.390  21.829  26.629  1.00  0.00     0.251 C 
ATOM     32  H   UNL A   1      37.851  20.788  25.847  1.00  0.00     0.163 HD
ATOM     33  O   UNL A   1      40.001  20.855  27.055  1.00  0.00    -0.269 OA
BRANCH  31  34
ATOM     34  C   UNL A   1      39.811  23.193  26.997  1.00  0.00     0.039 A 
ATOM     35  C   UNL A   1      38.898  24.251  26.968  1.00  0.00     0.014 A 
ATOM     36  C   UNL A   1      41.137  23.407  27.376  1.00  0.00     0.014 A 
ATOM     37  C   UNL A   1      39.305  25.508  27.410  1.00  0.00     0.010 A 
ATOM     38  C   UNL A   1      41.514  24.625  27.900  1.00  0.00     0.010 A 
ATOM     39  C   UNL A   1      40.610  25.685  27.899  1.00  0.00    -0.014 A 
BRANCH  39  40
ATOM     40  C   UNL A   1      40.976  26.933  28.571  1.00  0.00     0.031 A 
ATOM     41  C   UNL A   1      42.157  27.623  27.979  1.00  0.00     0.074 A 
ATOM     42  C   UNL A   1      40.191  27.544  29.483  1.00  0.00     0.049 A 
ATOM     43  N   UNL A   1      43.307  27.841  28.527  1.00  0.00    -0.248 NA
ATOM     44  C   UNL A   1      42.099  28.000  26.555  1.00  0.00     0.031 C 
ATOM     45  C   UNL A   1      38.852  27.135  29.924  1.00  0.00     0.029 A 
ATOM     46  N   UNL A   1      40.362  28.740  30.116  1.00  0.00    -0.354 N 
ATOM     47  C   UNL A   1      44.041  28.579  27.600  1.00  0.00     0.074 A 
ATOM     48  C   UNL A   1      43.327  28.479  26.352  1.00  0.00     0.031 C 
ATOM     49  C   UNL A   1      38.244  28.172  30.541  1.00  0.00     0.029 A 
ATOM     50  C   UNL A   1      39.200  29.256  30.684  1.00  0.00     0.049 A 
ATOM     51  H   UNL A   1      41.232  29.198  30.167  1.00  0.00     0.167 HD
ATOM     52  C   UNL A   1      45.037  29.424  27.987  1.00  0.00     0.031 A 
ATOM     53  C   UNL A   1      39.016  30.499  31.200  1.00  0.00     0.031 A 
ATOM     54  C   UNL A   1      45.417  29.199  29.357  1.00  0.00     0.049 A 
ATOM     55  C   UNL A   1      40.359  31.036  31.518  1.00  0.00     0.074 A 
ATOM     56  C   UNL A   1      45.936  28.136  30.068  1.00  0.00     0.029 A 
ATOM     57  N   UNL A   1      44.896  30.070  30.284  1.00  0.00    -0.354 N 
ATOM     58  N   UNL A   1      41.139  30.529  32.433  1.00  0.00    -0.248 NA
ATOM     59  C   UNL A   1      41.020  31.876  30.533  1.00  0.00     0.031 C 
ATOM     60  C   UNL A   1      45.309  28.207  31.345  1.00  0.00     0.029 A 
ATOM     61  C   UNL A   1      44.498  29.344  31.374  1.00  0.00     0.049 A 
ATOM     62  H   UNL A   1      44.822  31.046  30.181  1.00  0.00     0.167 HD
ATOM     63  C   UNL A   1      42.414  30.612  31.894  1.00  0.00     0.074 A 
ATOM     64  C   UNL A   1      42.293  31.556  30.785  1.00  0.00     0.031 C 
ATOM     65  C   UNL A   1      43.375  29.698  32.220  1.00  0.00     0.031 A 
BRANCH  52  66
ATOM     66  C   UNL A   1      45.363  30.724  27.287  1.00  0.00    -0.014 A 
ATOM     67  C   UNL A   1      46.717  31.049  27.056  1.00  0.00     0.010 A 
ATOM     68  C   UNL A   1      44.424  31.761  27.110  1.00  0.00     0.010 A 
ATOM     69  C   UNL A   1      47.114  32.357  26.746  1.00  0.00     0.020 A 
ATOM     70  C   UNL A   1      44.802  33.058  26.756  1.00  0.00     0.020 A 
ATOM     71  C   UNL A   1      46.150  33.357  26.612  1.00  0.00     0.054 A 
BRANCH  71  72
ATOM     72  S   UNL A   1      46.676  35.062  26.311  1.00  0.00     0.124 S 
ATOM     73  O   UNL A   1      47.196  34.980  24.950  1.00  0.00    -0.237 OA
ATOM     74  O   UNL A   1      45.428  35.801  26.472  1.00  0.00    -0.237 OA
ATOM     75  O   UNL A   1      47.674  35.298  27.352  1.00  0.00    -0.744 OA
ENDBRANCH  71  72
ENDBRANCH  52  66
BRANCH  53  76
ATOM     76  C   UNL A   1      37.795  31.346  31.165  1.00  0.00    -0.014 A 
ATOM     77  C   UNL A   1      36.561  30.868  31.650  1.00  0.00     0.010 A 
ATOM     78  C   UNL A   1      37.901  32.730  30.914  1.00  0.00     0.010 A 
ATOM     79  C   UNL A   1      35.501  31.748  31.936  1.00  0.00     0.020 A 
ATOM     80  C   UNL A   1      36.847  33.611  31.187  1.00  0.00     0.020 A 
ATOM     81  C   UNL A   1      35.660  33.119  31.723  1.00  0.00     0.054 A 
BRANCH  81  82
ATOM     82  S   UNL A   1      34.358  34.270  32.264  1.00  0.00     0.124 S 
ATOM     83  O   UNL A   1      33.692  34.599  31.007  1.00  0.00    -0.237 OA
ATOM     84  O   UNL A   1      33.585  33.456  33.197  1.00  0.00    -0.237 OA
ATOM     85  O   UNL A   1      35.103  35.369  32.875  1.00  0.00    -0.744 OA
ENDBRANCH  81  82
ENDBRANCH  53  76
BRANCH  65  86
ATOM     86  C   UNL A   1      43.159  28.819  33.430  1.00  0.00    -0.014 A 
ATOM     87  C   UNL A   1      43.498  29.186  34.747  1.00  0.00     0.010 A 
ATOM     88  C   UNL A   1      42.417  27.640  33.232  1.00  0.00     0.010 A 
ATOM     89  C   UNL A   1      43.110  28.386  35.834  1.00  0.00     0.020 A 
ATOM     90  C   UNL A   1      42.011  26.852  34.310  1.00  0.00     0.020 A 
ATOM     91  C   UNL A   1      42.362  27.226  35.607  1.00  0.00     0.054 A 
BRANCH  91  92
ATOM     92  S   UNL A   1      41.799  26.231  37.017  1.00  0.00     0.124 S 
ATOM     93  O   UNL A   1      42.916  26.342  37.951  1.00  0.00    -0.237 OA
ATOM     94  O   UNL A   1      40.570  26.908  37.421  1.00  0.00    -0.237 OA
ATOM     95  O   UNL A   1      41.602  24.897  36.447  1.00  0.00    -0.744 OA
ENDBRANCH  91  92
ENDBRANCH  65  86
ENDBRANCH  39  40
ENDBRANCH  31  34
ENDBRANCH  29  30
ENDBRANCH  28  29
ENDBRANCH   1  28
TORSDOF 17
ENDMDL
MODEL 2
REMARK VINA RESULT:     -12.3      2.807      9.606
REMARK SMILES Cn1c(=O)[nH]c(=O)c2c1nc(NC1CCCC1)n2CC(=O)NCCCCNC(=O)c1ccc(-c2c3nc(c(-c4ccc(S(=O)(=O)[O-])cc4)c4ccc([nH]4)c(-c4ccc(S(=O)(=O)[O-])cc4)c4nc(c(-c5ccc(S(=O)(=O)[O-])cc5)c5ccc2[nH]5)C=C4)C=C3)cc1
REMARK SMILES IDX 24 1 23 2 22 3 20 4 21 5 19 7 18 8 1 9 2 10 3 11 9 12 4 13
REMARK SMILES IDX 5 14 8 15 10 16 6 17 11 19 7 20 12 21 13 23 14 24 17 25
REMARK SMILES IDX 15 26 16 27 25 28 26 29 27 30 28 31 29 33 30 34 31 35 89 36
REMARK SMILES IDX 32 37 88 38 33 39 34 40 35 41 82 42 36 43 87 44 81 45 83 46
REMARK SMILES IDX 37 47 86 48 80 49 79 50 38 52 68 53 49 54 67 55 50 56 53 57
REMARK SMILES IDX 66 58 84 59 51 60 52 61 65 63 85 64 54 65 39 66 40 67 48 68
REMARK SMILES IDX 41 69 47 70 42 71 43 72 44 73 45 74 46 75 69 76 70 77 78 78
REMARK SMILES IDX 71 79 77 80 72 81 73 82 74 83 75 84 76 85 55 86 56 87 64 88
REMARK SMILES IDX 57 89 63 90 58 91 59 92 60 93 61 94 62 95
REMARK H PARENT 22 6 5 18 12 22 27 32 83 51 53 62
REMARK Flexibility Score: inf
ROOT
ATOM      1  C   UNL A   1      32.204  27.290  26.160  1.00  0.00     0.023 C 
ENDROOT
BRANCH   1   2
ATOM      2  C   UNL A   1      33.629  26.741  26.011  1.00  0.00     0.116 C 
BRANCH   2   3
ATOM      3  N   UNL A   1      33.816  26.052  24.747  1.00  0.00    -0.355 N 
ATOM      4  C   UNL A   1      34.397  24.840  24.505  1.00  0.00     0.240 C 
ATOM      5  O   UNL A   1      34.596  24.500  23.336  1.00  0.00    -0.273 OA
ATOM      6  H   UNL A   1      33.478  26.526  23.952  1.00  0.00     0.163 HD
BRANCH   4   7
ATOM      7  C   UNL A   1      34.793  23.926  25.647  1.00  0.00     0.226 C 
BRANCH   7   8
ATOM      8  N   UNL A   1      34.991  22.555  25.220  1.00  0.00    -0.295 N 
ATOM      9  C   UNL A   1      34.860  18.008  24.588  1.00  0.00     0.157 C 
ATOM     10  N   UNL A   1      34.082  19.218  24.763  1.00  0.00    -0.279 N 
ATOM     11  C   UNL A   1      32.705  19.159  24.941  1.00  0.00     0.329 A 
ATOM     12  C   UNL A   1      34.707  20.443  24.835  1.00  0.00     0.170 A 
ATOM     13  O   UNL A   1      32.054  18.115  24.934  1.00  0.00    -0.248 OA
ATOM     14  N   UNL A   1      32.048  20.360  25.145  1.00  0.00    -0.272 N 
ATOM     15  C   UNL A   1      34.020  21.595  25.082  1.00  0.00     0.154 A 
ATOM     16  N   UNL A   1      36.038  20.660  24.723  1.00  0.00    -0.194 NA
ATOM     17  C   UNL A   1      32.608  21.611  25.229  1.00  0.00     0.279 A 
ATOM     18  H   UNL A   1      31.069  20.311  25.242  1.00  0.00     0.175 HD
ATOM     19  C   UNL A   1      36.208  21.946  24.959  1.00  0.00     0.206 A 
ATOM     20  O   UNL A   1      31.927  22.615  25.436  1.00  0.00    -0.267 OA
BRANCH  19  21
ATOM     21  N   UNL A   1      37.375  22.622  25.000  1.00  0.00    -0.353 N 
ATOM     22  H   UNL A   1      37.705  23.040  24.172  1.00  0.00     0.163 HD
BRANCH  21  23
ATOM     23  C   UNL A   1      38.166  22.764  26.212  1.00  0.00     0.082 C 
ATOM     24  C   UNL A   1      39.451  21.943  26.227  1.00  0.00     0.025 C 
ATOM     25  C   UNL A   1      38.611  24.198  26.490  1.00  0.00     0.025 C 
ATOM     26  C   UNL A   1      40.286  22.603  27.315  1.00  0.00     0.002 C 
ATOM     27  C   UNL A   1      39.876  24.073  27.335  1.00  0.00     0.002 C 
ENDBRANCH  21  23
ENDBRANCH  19  21
ENDBRANCH   7   8
ENDBRANCH   4   7
ENDBRANCH   2   3
ENDBRANCH   1   2
BRANCH   1  28
ATOM     28  C   UNL A   1      32.108  28.730  26.682  1.00  0.00     0.023 C 
BRANCH  28  29
ATOM     29  C   UNL A   1      33.391  29.265  27.308  1.00  0.00     0.116 C 
BRANCH  29  30
ATOM     30  N   UNL A   1      33.607  30.678  27.020  1.00  0.00    -0.352 N 
ATOM     31  C   UNL A   1      34.576  31.508  27.542  1.00  0.00     0.251 C 
ATOM     32  H   UNL A   1      32.988  31.088  26.374  1.00  0.00     0.163 HD
ATOM     33  O   UNL A   1      34.416  32.724  27.546  1.00  0.00    -0.269 OA
BRANCH  31  34
ATOM     34  C   UNL A   1      35.806  30.916  28.099  1.00  0.00     0.039 A 
ATOM     35  C   UNL A   1      36.095  29.562  27.903  1.00  0.00     0.014 A 
ATOM     36  C   UNL A   1      36.677  31.733  28.822  1.00  0.00     0.014 A 
ATOM     37  C   UNL A   1      37.310  29.057  28.362  1.00  0.00     0.010 A 
ATOM     38  C   UNL A   1      37.916  31.256  29.194  1.00  0.00     0.010 A 
ATOM     39  C   UNL A   1      38.229  29.915  28.987  1.00  0.00    -0.014 A 
BRANCH  39  40
ATOM     40  C   UNL A   1      39.588  29.451  29.268  1.00  0.00     0.031 A 
ATOM     41  C   UNL A   1      39.939  29.422  30.716  1.00  0.00     0.074 A 
ATOM     42  C   UNL A   1      40.381  28.868  28.343  1.00  0.00     0.049 A 
ATOM     43  N   UNL A   1      40.833  30.125  31.331  1.00  0.00    -0.248 NA
ATOM     44  C   UNL A   1      39.102  28.610  31.617  1.00  0.00     0.031 C 
ATOM     45  C   UNL A   1      40.040  28.545  26.952  1.00  0.00     0.029 A 
ATOM     46  N   UNL A   1      41.619  28.315  28.483  1.00  0.00    -0.354 N 
ATOM     47  C   UNL A   1      40.826  29.684  32.653  1.00  0.00     0.074 A 
ATOM     48  C   UNL A   1      39.626  28.902  32.808  1.00  0.00     0.031 C 
ATOM     49  C   UNL A   1      40.927  27.649  26.467  1.00  0.00     0.029 A 
ATOM     50  C   UNL A   1      41.984  27.460  27.445  1.00  0.00     0.049 A 
ATOM     51  H   UNL A   1      42.205  28.502  29.252  1.00  0.00     0.167 HD
ATOM     52  C   UNL A   1      41.931  29.780  33.444  1.00  0.00     0.031 A 
ATOM     53  C   UNL A   1      43.053  26.625  27.401  1.00  0.00     0.031 A 
ATOM     54  C   UNL A   1      42.921  30.650  32.864  1.00  0.00     0.049 A 
ATOM     55  C   UNL A   1      44.030  27.125  28.396  1.00  0.00     0.074 A 
ATOM     56  C   UNL A   1      42.965  31.982  32.505  1.00  0.00     0.029 A 
ATOM     57  N   UNL A   1      43.963  30.036  32.211  1.00  0.00    -0.354 N 
ATOM     58  N   UNL A   1      44.641  28.273  28.290  1.00  0.00    -0.248 NA
ATOM     59  C   UNL A   1      44.021  26.546  29.729  1.00  0.00     0.031 C 
ATOM     60  C   UNL A   1      43.750  32.016  31.317  1.00  0.00     0.029 A 
ATOM     61  C   UNL A   1      44.202  30.721  31.051  1.00  0.00     0.049 A 
ATOM     62  H   UNL A   1      44.452  29.241  32.524  1.00  0.00     0.167 HD
ATOM     63  C   UNL A   1      44.695  28.764  29.586  1.00  0.00     0.074 A 
ATOM     64  C   UNL A   1      44.411  27.609  30.437  1.00  0.00     0.031 C 
ATOM     65  C   UNL A   1      44.685  30.107  29.829  1.00  0.00     0.031 A 
BRANCH  52  66
ATOM     66  C   UNL A   1      42.302  28.770  34.507  1.00  0.00    -0.014 A 
ATOM     67  C   UNL A   1      42.650  29.235  35.793  1.00  0.00     0.010 A 
ATOM     68  C   UNL A   1      42.601  27.423  34.218  1.00  0.00     0.010 A 
ATOM     69  C   UNL A   1      43.333  28.420  36.706  1.00  0.00     0.020 A 
ATOM     70  C   UNL A   1      43.240  26.587  35.136  1.00  0.00     0.020 A 
ATOM     71  C   UNL A   1      43.634  27.102  36.363  1.00  0.00     0.054 A 
BRANCH  71  72
ATOM     72  S   UNL A   1      44.603  26.087  37.506  1.00  0.00     0.124 S 
ATOM     73  O   UNL A   1      45.967  26.359  37.065  1.00  0.00    -0.237 OA
ATOM     74  O   UNL A   1      44.231  26.644  38.803  1.00  0.00    -0.237 OA
ATOM     75  O   UNL A   1      44.118  24.732  37.252  1.00  0.00    -0.744 OA
ENDBRANCH  71  72
ENDBRANCH  52  66
BRANCH  53  76
ATOM     76  C   UNL A   1      43.156  25.282  26.773  1.00  0.00    -0.014 A 
ATOM     77  C   UNL A   1      43.130  25.128  25.372  1.00  0.00     0.010 A 
ATOM     78  C   UNL A   1      43.564  24.171  27.540  1.00  0.00     0.010 A 
ATOM     79  C   UNL A   1      43.559  23.934  24.763  1.00  0.00     0.020 A 
ATOM     80  C   UNL A   1      43.984  22.976  26.941  1.00  0.00     0.020 A 
ATOM     81  C   UNL A   1      44.006  22.872  25.554  1.00  0.00     0.054 A 
BRANCH  81  82
ATOM     82  S   UNL A   1      44.729  21.404  24.761  1.00  0.00     0.124 S 
ATOM     83  O   UNL A   1      43.808  20.345  25.164  1.00  0.00    -0.237 OA
ATOM     84  O   UNL A   1      44.703  21.763  23.346  1.00  0.00    -0.237 OA
ATOM     85  O   UNL A   1      46.065  21.318  25.349  1.00  0.00    -0.744 OA
ENDBRANCH  81  82
ENDBRANCH  53  76
BRANCH  65  86
ATOM     86  C   UNL A   1      44.976  31.053  28.687  1.00  0.00    -0.014 A 
ATOM     87  C   UNL A   1      44.013  31.493  27.758  1.00  0.00     0.010 A 
ATOM     88  C   UNL A   1      46.247  31.653  28.670  1.00  0.00     0.010 A 
ATOM     89  C   UNL A   1      44.323  32.502  26.831  1.00  0.00     0.020 A 
ATOM     90  C   UNL A   1      46.555  32.671  27.765  1.00  0.00     0.020 A 
ATOM     91  C   UNL A   1      45.593  33.089  26.847  1.00  0.00     0.054 A 
BRANCH  91  92
ATOM     92  S   UNL A   1      45.969  34.442  25.698  1.00  0.00     0.124 S 
ATOM     93  O   UNL A   1      45.105  34.143  24.559  1.00  0.00    -0.237 OA
ATOM     94  O   UNL A   1      45.608  35.631  26.467  1.00  0.00    -0.237 OA
ATOM     95  O   UNL A   1      47.402  34.294  25.441  1.00  0.00    -0.744 OA
ENDBRANCH  91  92
ENDBRANCH  65  86
ENDBRANCH  39  40
ENDBRANCH  31  34
ENDBRANCH  29  30
ENDBRANCH  28  29
ENDBRANCH   1  28
TORSDOF 17
ENDMDL
MODEL 3
REMARK VINA RESULT:     -12.1      1.364      2.745
REMARK SMILES Cn1c(=O)[nH]c(=O)c2c1nc(NC1CCCC1)n2CC(=O)NCCCCNC(=O)c1ccc(-c2c3nc(c(-c4ccc(S(=O)(=O)[O-])cc4)c4ccc([nH]4)c(-c4ccc(S(=O)(=O)[O-])cc4)c4nc(c(-c5ccc(S(=O)(=O)[O-])cc5)c5ccc2[nH]5)C=C4)C=C3)cc1
REMARK SMILES IDX 24 1 23 2 22 3 20 4 21 5 19 7 18 8 1 9 2 10 3 11 9 12 4 13
REMARK SMILES IDX 5 14 8 15 10 16 6 17 11 19 7 20 12 21 13 23 14 24 17 25
REMARK SMILES IDX 15 26 16 27 25 28 26 29 27 30 28 31 29 33 30 34 31 35 89 36
REMARK SMILES IDX 32 37 88 38 33 39 34 40 35 41 82 42 36 43 87 44 81 45 83 46
REMARK SMILES IDX 37 47 86 48 80 49 79 50 38 52 68 53 49 54 67 55 50 56 53 57
REMARK SMILES IDX 66 58 84 59 51 60 52 61 65 63 85 64 54 65 39 66 40 67 48 68
REMARK SMILES IDX 41 69 47 70 42 71 43 72 44 73 45 74 46 75 69 76 70 77 78 78
REMARK SMILES IDX 71 79 77 80 72 81 73 82 74 83 75 84 76 85 55 86 56 87 64 88
REMARK SMILES IDX 57 89 63 90 58 91 59 92 60 93 61 94 62 95
REMARK H PARENT 22 6 5 18 12 22 27 32 83 51 53 62
REMARK Flexibility Score: inf
ROOT
ATOM      1  C   UNL A   1      34.997  23.488  26.476  1.00  0.00     0.023 C 
ENDROOT
BRANCH   1   2
ATOM      2  C   UNL A   1      33.798  24.342  26.045  1.00  0.00     0.116 C 
BRANCH   2   3
ATOM      3  N   UNL A   1      34.212  25.562  25.376  1.00  0.00    -0.355 N 
ATOM      4  C   UNL A   1      33.501  26.708  25.156  1.00  0.00     0.240 C 
ATOM      5  O   UNL A   1      33.987  27.577  24.429  1.00  0.00    -0.273 OA
ATOM      6  H   UNL A   1      35.134  25.564  25.031  1.00  0.00     0.163 HD
BRANCH   4   7
ATOM      7  C   UNL A   1      32.140  26.911  25.790  1.00  0.00     0.226 C 
BRANCH   7   8
ATOM      8  N   UNL A   1      31.119  27.254  24.819  1.00  0.00    -0.295 N 
ATOM      9  C   UNL A   1      27.669  29.124  22.433  1.00  0.00     0.157 C 
ATOM     10  N   UNL A   1      28.869  29.377  23.206  1.00  0.00    -0.279 N 
ATOM     11  C   UNL A   1      29.226  30.671  23.564  1.00  0.00     0.329 A 
ATOM     12  C   UNL A   1      29.635  28.328  23.665  1.00  0.00     0.170 A 
ATOM     13  O   UNL A   1      28.590  31.674  23.241  1.00  0.00    -0.248 OA
ATOM     14  N   UNL A   1      30.362  30.815  24.340  1.00  0.00    -0.272 N 
ATOM     15  C   UNL A   1      30.724  28.519  24.464  1.00  0.00     0.154 A 
ATOM     16  N   UNL A   1      29.397  27.015  23.437  1.00  0.00    -0.194 NA
ATOM     17  C   UNL A   1      31.168  29.816  24.831  1.00  0.00     0.279 A 
ATOM     18  H   UNL A   1      30.623  31.738  24.565  1.00  0.00     0.175 HD
ATOM     19  C   UNL A   1      30.301  26.364  24.142  1.00  0.00     0.206 A 
ATOM     20  O   UNL A   1      32.148  30.059  25.533  1.00  0.00    -0.267 OA
BRANCH  19  21
ATOM     21  N   UNL A   1      30.436  25.027  24.264  1.00  0.00    -0.353 N 
ATOM     22  H   UNL A   1      30.098  24.594  25.081  1.00  0.00     0.163 HD
BRANCH  21  23
ATOM     23  C   UNL A   1      31.057  24.197  23.244  1.00  0.00     0.082 C 
ATOM     24  C   UNL A   1      32.247  24.841  22.543  1.00  0.00     0.025 C 
ATOM     25  C   UNL A   1      31.585  22.867  23.775  1.00  0.00     0.025 C 
ATOM     26  C   UNL A   1      32.976  23.663  21.914  1.00  0.00     0.002 C 
ATOM     27  C   UNL A   1      32.701  22.462  22.815  1.00  0.00     0.002 C 
ENDBRANCH  21  23
ENDBRANCH  19  21
ENDBRANCH   7   8
ENDBRANCH   4   7
ENDBRANCH   2   3
ENDBRANCH   1   2
BRANCH   1  28
ATOM     28  C   UNL A   1      35.779  22.832  25.330  1.00  0.00     0.023 C 
BRANCH  28  29
ATOM     29  C   UNL A   1      37.272  23.144  25.321  1.00  0.00     0.116 C 
BRANCH  29  30
ATOM     30  N   UNL A   1      38.061  22.119  25.996  1.00  0.00    -0.352 N 
ATOM     31  C   UNL A   1      39.289  22.263  26.605  1.00  0.00     0.251 C 
ATOM     32  H   UNL A   1      37.669  21.216  26.019  1.00  0.00     0.163 HD
ATOM     33  O   UNL A   1      40.018  21.291  26.770  1.00  0.00    -0.269 OA
BRANCH  31  34
ATOM     34  C   UNL A   1      39.716  23.602  27.054  1.00  0.00     0.039 A 
ATOM     35  C   UNL A   1      38.861  24.700  26.927  1.00  0.00     0.014 A 
ATOM     36  C   UNL A   1      40.988  23.749  27.610  1.00  0.00     0.014 A 
ATOM     37  C   UNL A   1      39.260  25.931  27.445  1.00  0.00     0.010 A 
ATOM     38  C   UNL A   1      41.343  24.941  28.205  1.00  0.00     0.010 A 
ATOM     39  C   UNL A   1      40.494  26.041  28.106  1.00  0.00    -0.014 A 
BRANCH  39  40
ATOM     40  C   UNL A   1      40.821  27.260  28.847  1.00  0.00     0.031 A 
ATOM     41  C   UNL A   1      41.939  28.052  28.260  1.00  0.00     0.074 A 
ATOM     42  C   UNL A   1      40.041  27.766  29.827  1.00  0.00     0.049 A 
ATOM     43  N   UNL A   1      43.096  28.297  28.778  1.00  0.00    -0.248 NA
ATOM     44  C   UNL A   1      41.803  28.517  26.867  1.00  0.00     0.031 C 
ATOM     45  C   UNL A   1      38.745  27.256  30.288  1.00  0.00     0.029 A 
ATOM     46  N   UNL A   1      40.175  28.925  30.532  1.00  0.00    -0.354 N 
ATOM     47  C   UNL A   1      43.752  29.133  27.877  1.00  0.00     0.074 A 
ATOM     48  C   UNL A   1      42.995  29.076  26.653  1.00  0.00     0.031 C 
ATOM     49  C   UNL A   1      38.109  28.215  30.995  1.00  0.00     0.029 A 
ATOM     50  C   UNL A   1      39.011  29.338  31.176  1.00  0.00     0.049 A 
ATOM     51  H   UNL A   1      41.021  29.427  30.581  1.00  0.00     0.167 HD
ATOM     52  C   UNL A   1      44.717  30.005  28.284  1.00  0.00     0.031 A 
ATOM     53  C   UNL A   1      38.783  30.532  31.781  1.00  0.00     0.031 A 
ATOM     54  C   UNL A   1      45.164  29.712  29.621  1.00  0.00     0.049 A 
ATOM     55  C   UNL A   1      40.108  31.121  32.085  1.00  0.00     0.074 A 
ATOM     56  C   UNL A   1      45.766  28.636  30.238  1.00  0.00     0.029 A 
ATOM     57  N   UNL A   1      44.635  30.491  30.623  1.00  0.00    -0.354 N 
ATOM     58  N   UNL A   1      40.949  30.599  32.934  1.00  0.00    -0.248 NA
ATOM     59  C   UNL A   1      40.683  32.060  31.135  1.00  0.00     0.031 C 
ATOM     60  C   UNL A   1      45.189  28.588  31.539  1.00  0.00     0.029 A 
ATOM     61  C   UNL A   1      44.321  29.674  31.675  1.00  0.00     0.049 A 
ATOM     62  H   UNL A   1      44.506  31.466  30.589  1.00  0.00     0.167 HD
ATOM     63  C   UNL A   1      42.196  30.788  32.355  1.00  0.00     0.074 A 
ATOM     64  C   UNL A   1      41.980  31.795  31.318  1.00  0.00     0.031 C 
ATOM     65  C   UNL A   1      43.216  29.909  32.584  1.00  0.00     0.031 A 
BRANCH  52  66
ATOM     66  C   UNL A   1      44.946  31.365  27.661  1.00  0.00    -0.014 A 
ATOM     67  C   UNL A   1      46.243  31.696  27.213  1.00  0.00     0.010 A 
ATOM     68  C   UNL A   1      44.021  32.424  27.762  1.00  0.00     0.010 A 
ATOM     69  C   UNL A   1      46.613  33.024  26.960  1.00  0.00     0.020 A 
ATOM     70  C   UNL A   1      44.365  33.745  27.469  1.00  0.00     0.020 A 
ATOM     71  C   UNL A   1      45.670  34.042  27.104  1.00  0.00     0.054 A 
BRANCH  71  72
ATOM     72  S   UNL A   1      46.181  35.763  26.874  1.00  0.00     0.124 S 
ATOM     73  O   UNL A   1      44.896  36.453  26.828  1.00  0.00    -0.237 OA
ATOM     74  O   UNL A   1      46.991  36.005  28.063  1.00  0.00    -0.237 OA
ATOM     75  O   UNL A   1      46.923  35.732  25.615  1.00  0.00    -0.744 OA
ENDBRANCH  71  72
ENDBRANCH  52  66
BRANCH  53  76
ATOM     76  C   UNL A   1      37.518  31.311  31.849  1.00  0.00    -0.014 A 
ATOM     77  C   UNL A   1      36.907  31.604  33.084  1.00  0.00     0.010 A 
ATOM     78  C   UNL A   1      37.057  32.011  30.714  1.00  0.00     0.010 A 
ATOM     79  C   UNL A   1      35.923  32.605  33.190  1.00  0.00     0.020 A 
ATOM     80  C   UNL A   1      36.071  33.002  30.810  1.00  0.00     0.020 A 
ATOM     81  C   UNL A   1      35.528  33.314  32.053  1.00  0.00     0.054 A 
BRANCH  81  82
ATOM     82  S   UNL A   1      34.394  34.726  32.223  1.00  0.00     0.124 S 
ATOM     83  O   UNL A   1      33.267  34.136  32.941  1.00  0.00    -0.237 OA
ATOM     84  O   UNL A   1      35.194  35.685  32.978  1.00  0.00    -0.237 OA
ATOM     85  O   UNL A   1      34.113  35.111  30.840  1.00  0.00    -0.744 OA
ENDBRANCH  81  82
ENDBRANCH  53  76
BRANCH  65  86
ATOM     86  C   UNL A   1      43.095  28.942  33.738  1.00  0.00    -0.014 A 
ATOM     87  C   UNL A   1      43.514  29.223  35.054  1.00  0.00     0.010 A 
ATOM     88  C   UNL A   1      42.363  27.764  33.505  1.00  0.00     0.010 A 
ATOM     89  C   UNL A   1      43.213  28.339  36.103  1.00  0.00     0.020 A 
ATOM     90  C   UNL A   1      42.043  26.892  34.547  1.00  0.00     0.020 A 
ATOM     91  C   UNL A   1      42.472  27.182  35.842  1.00  0.00     0.054 A 
BRANCH  91  92
ATOM     92  S   UNL A   1      42.021  26.077  37.210  1.00  0.00     0.124 S 
ATOM     93  O   UNL A   1      40.640  26.464  37.490  1.00  0.00    -0.237 OA
ATOM     94  O   UNL A   1      42.197  24.750  36.626  1.00  0.00    -0.237 OA
ATOM     95  O   UNL A   1      42.981  26.414  38.262  1.00  0.00    -0.744 OA
ENDBRANCH  91  92
ENDBRANCH  65  86
ENDBRANCH  39  40
ENDBRANCH  31  34
ENDBRANCH  29  30
ENDBRANCH  28  29
ENDBRANCH   1  28
TORSDOF 17
ENDMDL
