MODEL 1
REMARK VINA RESULT:      -8.4      0.000      0.000
REMARK SMILES Cc1occc1C(=O)NN1C(=O)/C(=C\c2ccc(O[C@H](C)C(=O)NCCCCNC(=O)c3ccc(-c4c5nc(c(-c6ccc(S(=O)(=O)[O-])cc6)c6ccc([nH]6)c(-c6ccc(S(=O)(=O)[O-])cc6)c6nc(c(-c7ccc(S(=O)(=O)[O-])cc7)c7ccc4[nH]7)C=C6)C=C5)cc3)cc2)SC1=S
REMARK SMILES IDX 25 1 24 2 22 3 23 4 20 6 21 7 19 8 18 9 15 10 16 11 93 12
REMARK SMILES IDX 17 13 92 14 14 15 10 16 11 17 95 18 12 19 13 20 94 21 96 22
REMARK SMILES IDX 9 23 7 24 8 25 6 27 1 28 2 29 3 30 4 31 5 32 26 33 27 34
REMARK SMILES IDX 28 35 29 36 30 37 31 39 32 40 33 41 91 42 34 43 90 44 35 45
REMARK SMILES IDX 36 46 37 47 84 48 38 49 89 50 83 51 85 52 39 53 88 54 82 55
REMARK SMILES IDX 81 56 40 58 70 59 51 60 69 61 52 62 55 63 68 64 86 65 53 66
REMARK SMILES IDX 54 67 67 69 87 70 56 71 41 72 42 73 50 74 43 75 49 76 44 77
REMARK SMILES IDX 45 78 46 79 47 80 48 81 71 82 72 83 80 84 73 85 79 86 74 87
REMARK SMILES IDX 75 88 76 89 77 90 78 91 57 92 58 93 66 94 59 95 65 96 60 97
REMARK SMILES IDX 61 98 62 99 63 100 64 101
REMARK H PARENT 24 5 9 26 29 38 85 57 55 68
REMARK Flexibility Score: inf
ROOT
ATOM      1  C   UNL A   1      45.395  25.051  27.294  1.00  0.00     0.116 C 
ENDROOT
BRANCH   1   2
ATOM      2  N   UNL A   1      44.563  24.251  28.159  1.00  0.00    -0.353 N 
ATOM      3  C   UNL A   1      43.282  23.817  28.018  1.00  0.00     0.260 C 
ATOM      4  O   UNL A   1      42.887  23.004  28.867  1.00  0.00    -0.271 OA
ATOM      5  H   UNL A   1      44.998  23.969  28.997  1.00  0.00     0.163 HD
BRANCH   3   6
ATOM      6  C   UNL A   1      42.281  24.360  26.958  1.00  0.00     0.258 C 
ATOM      7  C   UNL A   1      41.380  23.224  26.480  1.00  0.00     0.064 C 
BRANCH   6   8
ATOM      8  O   UNL A   1      41.735  25.670  27.045  1.00  0.00    -0.481 OA
BRANCH   8   9
ATOM      9  C   UNL A   1      41.339  26.295  28.182  1.00  0.00     0.120 A 
ATOM     10  C   UNL A   1      40.213  27.607  30.406  1.00  0.00    -0.024 A 
ATOM     11  C   UNL A   1      41.595  27.588  30.209  1.00  0.00     0.012 A 
ATOM     12  C   UNL A   1      39.386  26.953  29.494  1.00  0.00     0.012 A 
ATOM     13  C   UNL A   1      42.153  26.925  29.114  1.00  0.00     0.047 A 
ATOM     14  C   UNL A   1      39.954  26.288  28.399  1.00  0.00     0.047 A 
BRANCH  10  15
ATOM     15  C   UNL A   1      39.729  28.245  31.632  1.00  0.00     0.029 C 
ATOM     16  N   UNL A   1      39.060  31.781  31.129  1.00  0.00    -0.198 N 
ATOM     17  C   UNL A   1      39.505  30.563  30.639  1.00  0.00     0.285 C 
ATOM     18  C   UNL A   1      38.347  31.790  32.308  1.00  0.00     0.168 C 
ATOM     19  O   UNL A   1      39.937  30.388  29.513  1.00  0.00    -0.266 OA
ATOM     20  C   UNL A   1      39.335  29.523  31.695  1.00  0.00     0.082 C 
ATOM     21  S   UNL A   1      38.482  30.192  33.048  1.00  0.00    -0.052 SA
ATOM     22  S   UNL A   1      37.467  33.040  32.970  1.00  0.00    -0.050 S 
BRANCH  16  23
ATOM     23  N   UNL A   1      39.163  32.866  30.269  1.00  0.00    -0.254 N 
ATOM     24  C   UNL A   1      38.142  33.478  29.579  1.00  0.00     0.273 C 
ATOM     25  O   UNL A   1      38.399  34.571  29.068  1.00  0.00    -0.267 OA
ATOM     26  H   UNL A   1      40.065  33.239  30.139  1.00  0.00     0.192 HD
BRANCH  24  27
ATOM     27  C   UNL A   1      36.855  32.840  29.323  1.00  0.00     0.082 A 
ATOM     28  C   UNL A   1      37.139  30.538  28.000  1.00  0.00     0.088 C 
ATOM     29  C   UNL A   1      36.476  31.673  28.671  1.00  0.00     0.113 A 
ATOM     30  O   UNL A   1      35.117  31.527  28.717  1.00  0.00    -0.469 OA
ATOM     31  C   UNL A   1      34.615  32.544  29.448  1.00  0.00     0.196 A 
ATOM     32  C   UNL A   1      35.629  33.362  29.865  1.00  0.00     0.056 A 
ENDBRANCH  24  27
ENDBRANCH  16  23
ENDBRANCH  10  15
ENDBRANCH   8   9
ENDBRANCH   6   8
ENDBRANCH   3   6
ENDBRANCH   1   2
BRANCH   1  33
ATOM     33  C   UNL A   1      46.883  24.927  27.610  1.00  0.00     0.023 C 
BRANCH  33  34
ATOM     34  C   UNL A   1      47.784  24.862  26.374  1.00  0.00     0.023 C 
BRANCH  34  35
ATOM     35  C   UNL A   1      47.091  25.136  25.040  1.00  0.00     0.116 C 
BRANCH  35  36
ATOM     36  N   UNL A   1      47.833  26.023  24.156  1.00  0.00    -0.352 N 
ATOM     37  C   UNL A   1      47.915  27.396  24.208  1.00  0.00     0.251 C 
ATOM     38  H   UNL A   1      48.338  25.587  23.432  1.00  0.00     0.163 HD
ATOM     39  O   UNL A   1      48.515  28.013  23.333  1.00  0.00    -0.269 OA
BRANCH  37  40
ATOM     40  C   UNL A   1      47.229  28.117  25.303  1.00  0.00     0.039 A 
ATOM     41  C   UNL A   1      45.833  28.153  25.319  1.00  0.00     0.014 A 
ATOM     42  C   UNL A   1      47.963  28.695  26.343  1.00  0.00     0.014 A 
ATOM     43  C   UNL A   1      45.172  28.696  26.422  1.00  0.00     0.010 A 
ATOM     44  C   UNL A   1      47.301  29.174  27.471  1.00  0.00     0.010 A 
ATOM     45  C   UNL A   1      45.900  29.169  27.528  1.00  0.00    -0.014 A 
BRANCH  45  46
ATOM     46  C   UNL A   1      45.208  29.618  28.765  1.00  0.00     0.031 A 
ATOM     47  C   UNL A   1      44.620  30.999  28.853  1.00  0.00     0.074 A 
ATOM     48  C   UNL A   1      45.169  28.799  29.835  1.00  0.00     0.049 A 
ATOM     49  N   UNL A   1      43.997  31.565  29.856  1.00  0.00    -0.248 NA
ATOM     50  C   UNL A   1      44.772  31.867  27.675  1.00  0.00     0.031 C 
ATOM     51  C   UNL A   1      45.759  27.459  29.899  1.00  0.00     0.029 A 
ATOM     52  N   UNL A   1      44.611  28.974  31.076  1.00  0.00    -0.354 N 
ATOM     53  C   UNL A   1      43.694  32.854  29.436  1.00  0.00     0.074 A 
ATOM     54  C   UNL A   1      44.245  33.004  28.107  1.00  0.00     0.031 C 
ATOM     55  C   UNL A   1      45.502  26.922  31.104  1.00  0.00     0.029 A 
ATOM     56  C   UNL A   1      44.760  27.888  31.907  1.00  0.00     0.049 A 
ATOM     57  H   UNL A   1      44.147  29.799  31.347  1.00  0.00     0.167 HD
ATOM     58  C   UNL A   1      43.000  33.819  30.087  1.00  0.00     0.031 A 
ATOM     59  C   UNL A   1      44.344  27.687  33.173  1.00  0.00     0.031 A 
ATOM     60  C   UNL A   1      42.443  33.665  31.405  1.00  0.00     0.049 A 
ATOM     61  C   UNL A   1      43.564  28.767  33.869  1.00  0.00     0.074 A 
ATOM     62  C   UNL A   1      41.669  34.561  32.122  1.00  0.00     0.029 A 
ATOM     63  N   UNL A   1      42.601  32.545  32.206  1.00  0.00    -0.354 N 
ATOM     64  N   UNL A   1      43.218  29.951  33.422  1.00  0.00    -0.248 NA
ATOM     65  C   UNL A   1      43.107  28.478  35.236  1.00  0.00     0.031 C 
ATOM     66  C   UNL A   1      41.397  34.000  33.375  1.00  0.00     0.029 A 
ATOM     67  C   UNL A   1      41.959  32.735  33.419  1.00  0.00     0.049 A 
ATOM     68  H   UNL A   1      43.097  31.733  31.951  1.00  0.00     0.167 HD
ATOM     69  C   UNL A   1      42.485  30.540  34.446  1.00  0.00     0.074 A 
ATOM     70  C   UNL A   1      42.422  29.576  35.525  1.00  0.00     0.031 C 
ATOM     71  C   UNL A   1      41.914  31.770  34.488  1.00  0.00     0.031 A 
BRANCH  58  72
ATOM     72  C   UNL A   1      42.806  35.131  29.375  1.00  0.00    -0.014 A 
ATOM     73  C   UNL A   1      41.721  35.325  28.500  1.00  0.00     0.010 A 
ATOM     74  C   UNL A   1      43.697  36.195  29.607  1.00  0.00     0.010 A 
ATOM     75  C   UNL A   1      41.557  36.543  27.834  1.00  0.00     0.020 A 
ATOM     76  C   UNL A   1      43.520  37.424  28.964  1.00  0.00     0.020 A 
ATOM     77  C   UNL A   1      42.462  37.583  28.067  1.00  0.00     0.054 A 
BRANCH  77  78
ATOM     78  S   UNL A   1      42.217  39.157  27.201  1.00  0.00     0.124 S 
ATOM     79  O   UNL A   1      41.177  38.810  26.237  1.00  0.00    -0.237 OA
ATOM     80  O   UNL A   1      41.803  40.056  28.276  1.00  0.00    -0.237 OA
ATOM     81  O   UNL A   1      43.529  39.443  26.625  1.00  0.00    -0.744 OA
ENDBRANCH  77  78
ENDBRANCH  58  72
BRANCH  59  82
ATOM     82  C   UNL A   1      44.632  26.396  33.852  1.00  0.00    -0.014 A 
ATOM     83  C   UNL A   1      43.742  25.314  33.730  1.00  0.00     0.010 A 
ATOM     84  C   UNL A   1      45.808  26.234  34.607  1.00  0.00     0.010 A 
ATOM     85  C   UNL A   1      44.014  24.098  34.364  1.00  0.00     0.020 A 
ATOM     86  C   UNL A   1      46.096  25.011  35.221  1.00  0.00     0.020 A 
ATOM     87  C   UNL A   1      45.191  23.953  35.104  1.00  0.00     0.054 A 
BRANCH  87  88
ATOM     88  S   UNL A   1      45.556  22.347  35.866  1.00  0.00     0.124 S 
ATOM     89  O   UNL A   1      45.297  22.616  37.276  1.00  0.00    -0.237 OA
ATOM     90  O   UNL A   1      44.604  21.458  35.204  1.00  0.00    -0.237 OA
ATOM     91  O   UNL A   1      46.956  22.116  35.517  1.00  0.00    -0.744 OA
ENDBRANCH  87  88
ENDBRANCH  59  82
BRANCH  71  92
ATOM     92  C   UNL A   1      41.156  32.135  35.736  1.00  0.00    -0.014 A 
ATOM     93  C   UNL A   1      41.800  32.759  36.819  1.00  0.00     0.010 A 
ATOM     94  C   UNL A   1      39.774  31.883  35.810  1.00  0.00     0.010 A 
ATOM     95  C   UNL A   1      41.080  33.093  37.969  1.00  0.00     0.020 A 
ATOM     96  C   UNL A   1      39.047  32.239  36.948  1.00  0.00     0.020 A 
ATOM     97  C   UNL A   1      39.709  32.826  38.028  1.00  0.00     0.054 A 
BRANCH  97  98
ATOM     98  S   UNL A   1      38.790  33.295  39.519  1.00  0.00     0.124 S 
ATOM     99  O   UNL A   1      39.209  34.680  39.711  1.00  0.00    -0.237 OA
ATOM    100  O   UNL A   1      37.398  33.110  39.113  1.00  0.00    -0.237 OA
ATOM    101  O   UNL A   1      39.266  32.353  40.530  1.00  0.00    -0.744 OA
ENDBRANCH  97  98
ENDBRANCH  71  92
ENDBRANCH  45  46
ENDBRANCH  37  40
ENDBRANCH  35  36
ENDBRANCH  34  35
ENDBRANCH  33  34
ENDBRANCH   1  33
TORSDOF 19
ENDMDL
MODEL 2
REMARK VINA RESULT:      -8.3      4.633      9.205
REMARK SMILES Cc1occc1C(=O)NN1C(=O)/C(=C\c2ccc(O[C@H](C)C(=O)NCCCCNC(=O)c3ccc(-c4c5nc(c(-c6ccc(S(=O)(=O)[O-])cc6)c6ccc([nH]6)c(-c6ccc(S(=O)(=O)[O-])cc6)c6nc(c(-c7ccc(S(=O)(=O)[O-])cc7)c7ccc4[nH]7)C=C6)C=C5)cc3)cc2)SC1=S
REMARK SMILES IDX 25 1 24 2 22 3 23 4 20 6 21 7 19 8 18 9 15 10 16 11 93 12
REMARK SMILES IDX 17 13 92 14 14 15 10 16 11 17 95 18 12 19 13 20 94 21 96 22
REMARK SMILES IDX 9 23 7 24 8 25 6 27 1 28 2 29 3 30 4 31 5 32 26 33 27 34
REMARK SMILES IDX 28 35 29 36 30 37 31 39 32 40 33 41 91 42 34 43 90 44 35 45
REMARK SMILES IDX 36 46 37 47 84 48 38 49 89 50 83 51 85 52 39 53 88 54 82 55
REMARK SMILES IDX 81 56 40 58 70 59 51 60 69 61 52 62 55 63 68 64 86 65 53 66
REMARK SMILES IDX 54 67 67 69 87 70 56 71 41 72 42 73 50 74 43 75 49 76 44 77
REMARK SMILES IDX 45 78 46 79 47 80 48 81 71 82 72 83 80 84 73 85 79 86 74 87
REMARK SMILES IDX 75 88 76 89 77 90 78 91 57 92 58 93 66 94 59 95 65 96 60 97
REMARK SMILES IDX 61 98 62 99 63 100 64 101
REMARK H PARENT 24 5 9 26 29 38 85 57 55 68
REMARK Flexibility Score: inf
ROOT
ATOM      1  C   UNL A   1      41.955  23.439  28.908  1.00  0.00     0.116 C 
ENDROOT
BRANCH   1   2
ATOM      2  N   UNL A   1      41.744  22.029  28.681  1.00  0.00    -0.353 N 
ATOM      3  C   UNL A   1      41.504  21.333  27.537  1.00  0.00     0.260 C 
ATOM      4  O   UNL A   1      41.523  20.098  27.639  1.00  0.00    -0.271 OA
ATOM      5  H   UNL A   1      41.779  21.476  29.494  1.00  0.00     0.163 HD
BRANCH   3   6
ATOM      6  C   UNL A   1      41.101  21.982  26.182  1.00  0.00     0.258 C 
ATOM      7  C   UNL A   1      42.360  22.335  25.393  1.00  0.00     0.064 C 
BRANCH   6   8
ATOM      8  O   UNL A   1      39.946  21.564  25.466  1.00  0.00    -0.481 OA
BRANCH   8   9
ATOM      9  C   UNL A   1      38.670  21.953  25.714  1.00  0.00     0.120 A 
ATOM     10  C   UNL A   1      35.928  22.529  26.007  1.00  0.00    -0.024 A 
ATOM     11  C   UNL A   1      36.901  23.438  26.428  1.00  0.00     0.012 A 
ATOM     12  C   UNL A   1      36.326  21.316  25.447  1.00  0.00     0.012 A 
ATOM     13  C   UNL A   1      38.259  23.144  26.296  1.00  0.00     0.047 A 
ATOM     14  C   UNL A   1      37.692  21.028  25.320  1.00  0.00     0.047 A 
BRANCH  10  15
ATOM     15  C   UNL A   1      34.532  22.884  26.274  1.00  0.00     0.029 C 
ATOM     16  N   UNL A   1      33.179  25.042  23.682  1.00  0.00    -0.198 N 
ATOM     17  C   UNL A   1      34.243  24.336  24.219  1.00  0.00     0.285 C 
ATOM     18  C   UNL A   1      31.911  24.769  24.150  1.00  0.00     0.168 C 
ATOM     19  O   UNL A   1      35.366  24.312  23.745  1.00  0.00    -0.266 OA
ATOM     20  C   UNL A   1      33.778  23.604  25.433  1.00  0.00     0.082 C 
ATOM     21  S   UNL A   1      32.060  23.765  25.595  1.00  0.00    -0.052 SA
ATOM     22  S   UNL A   1      30.451  25.246  23.506  1.00  0.00    -0.050 S 
BRANCH  16  23
ATOM     23  N   UNL A   1      33.448  25.795  22.547  1.00  0.00    -0.254 N 
ATOM     24  C   UNL A   1      33.585  27.162  22.471  1.00  0.00     0.273 C 
ATOM     25  O   UNL A   1      34.065  27.612  21.427  1.00  0.00    -0.267 OA
ATOM     26  H   UNL A   1      33.552  25.297  21.705  1.00  0.00     0.192 HD
BRANCH  24  27
ATOM     27  C   UNL A   1      33.073  28.075  23.488  1.00  0.00     0.082 A 
ATOM     28  C   UNL A   1      30.659  29.017  22.845  1.00  0.00     0.088 C 
ATOM     29  C   UNL A   1      31.908  28.822  23.607  1.00  0.00     0.113 A 
ATOM     30  O   UNL A   1      31.915  29.523  24.781  1.00  0.00    -0.469 OA
ATOM     31  C   UNL A   1      33.034  29.189  25.457  1.00  0.00     0.196 A 
ATOM     32  C   UNL A   1      33.766  28.292  24.729  1.00  0.00     0.056 A 
ENDBRANCH  24  27
ENDBRANCH  16  23
ENDBRANCH  10  15
ENDBRANCH   8   9
ENDBRANCH   6   8
ENDBRANCH   3   6
ENDBRANCH   1   2
BRANCH   1  33
ATOM     33  C   UNL A   1      43.382  23.887  28.606  1.00  0.00     0.023 C 
BRANCH  33  34
ATOM     34  C   UNL A   1      43.476  25.096  27.671  1.00  0.00     0.023 C 
BRANCH  34  35
ATOM     35  C   UNL A   1      42.143  25.613  27.130  1.00  0.00     0.116 C 
BRANCH  35  36
ATOM     36  N   UNL A   1      42.270  26.486  25.972  1.00  0.00    -0.352 N 
ATOM     37  C   UNL A   1      42.062  27.845  25.909  1.00  0.00     0.251 C 
ATOM     38  H   UNL A   1      42.538  26.051  25.131  1.00  0.00     0.163 HD
ATOM     39  O   UNL A   1      42.125  28.431  24.833  1.00  0.00    -0.269 OA
BRANCH  37  40
ATOM     40  C   UNL A   1      41.713  28.578  27.147  1.00  0.00     0.039 A 
ATOM     41  C   UNL A   1      40.684  28.088  27.955  1.00  0.00     0.014 A 
ATOM     42  C   UNL A   1      42.445  29.702  27.539  1.00  0.00     0.014 A 
ATOM     43  C   UNL A   1      40.446  28.679  29.198  1.00  0.00     0.010 A 
ATOM     44  C   UNL A   1      42.250  30.245  28.806  1.00  0.00     0.010 A 
ATOM     45  C   UNL A   1      41.257  29.732  29.654  1.00  0.00    -0.014 A 
BRANCH  45  46
ATOM     46  C   UNL A   1      41.106  30.275  31.029  1.00  0.00     0.031 A 
ATOM     47  C   UNL A   1      42.125  29.964  32.091  1.00  0.00     0.074 A 
ATOM     48  C   UNL A   1      40.010  30.997  31.338  1.00  0.00     0.049 A 
ATOM     49  N   UNL A   1      42.146  30.338  33.345  1.00  0.00    -0.248 NA
ATOM     50  C   UNL A   1      43.252  29.103  31.702  1.00  0.00     0.031 C 
ATOM     51  C   UNL A   1      38.916  31.314  30.416  1.00  0.00     0.029 A 
ATOM     52  N   UNL A   1      39.633  31.593  32.515  1.00  0.00    -0.354 N 
ATOM     53  C   UNL A   1      43.277  29.750  33.898  1.00  0.00     0.074 A 
ATOM     54  C   UNL A   1      43.888  28.954  32.856  1.00  0.00     0.031 C 
ATOM     55  C   UNL A   1      38.010  32.074  31.053  1.00  0.00     0.029 A 
ATOM     56  C   UNL A   1      38.439  32.271  32.434  1.00  0.00     0.049 A 
ATOM     57  H   UNL A   1      40.167  31.542  33.341  1.00  0.00     0.167 HD
ATOM     58  C   UNL A   1      43.775  29.877  35.151  1.00  0.00     0.031 A 
ATOM     59  C   UNL A   1      37.764  32.976  33.363  1.00  0.00     0.031 A 
ATOM     60  C   UNL A   1      43.171  30.678  36.184  1.00  0.00     0.049 A 
ATOM     61  C   UNL A   1      38.344  33.116  34.743  1.00  0.00     0.074 A 
ATOM     62  C   UNL A   1      43.635  30.922  37.464  1.00  0.00     0.029 A 
ATOM     63  N   UNL A   1      41.972  31.362  36.056  1.00  0.00    -0.354 N 
ATOM     64  N   UNL A   1      39.459  32.616  35.221  1.00  0.00    -0.248 NA
ATOM     65  C   UNL A   1      37.581  33.924  35.703  1.00  0.00     0.031 C 
ATOM     66  C   UNL A   1      42.693  31.718  38.127  1.00  0.00     0.029 A 
ATOM     67  C   UNL A   1      41.669  32.011  37.242  1.00  0.00     0.049 A 
ATOM     68  H   UNL A   1      41.418  31.384  35.243  1.00  0.00     0.167 HD
ATOM     69  C   UNL A   1      39.541  33.068  36.533  1.00  0.00     0.074 A 
ATOM     70  C   UNL A   1      38.374  33.895  36.766  1.00  0.00     0.031 C 
ATOM     71  C   UNL A   1      40.498  32.821  37.462  1.00  0.00     0.031 A 
BRANCH  58  72
ATOM     72  C   UNL A   1      45.042  29.130  35.472  1.00  0.00    -0.014 A 
ATOM     73  C   UNL A   1      46.302  29.723  35.271  1.00  0.00     0.010 A 
ATOM     74  C   UNL A   1      44.974  27.832  36.010  1.00  0.00     0.010 A 
ATOM     75  C   UNL A   1      47.472  29.016  35.561  1.00  0.00     0.020 A 
ATOM     76  C   UNL A   1      46.142  27.131  36.326  1.00  0.00     0.020 A 
ATOM     77  C   UNL A   1      47.384  27.721  36.081  1.00  0.00     0.054 A 
BRANCH  77  78
ATOM     78  S   UNL A   1      48.918  26.831  36.461  1.00  0.00     0.124 S 
ATOM     79  O   UNL A   1      49.242  27.345  37.789  1.00  0.00    -0.237 OA
ATOM     80  O   UNL A   1      48.500  25.433  36.413  1.00  0.00    -0.237 OA
ATOM     81  O   UNL A   1      49.829  27.243  35.395  1.00  0.00    -0.744 OA
ENDBRANCH  77  78
ENDBRANCH  58  72
BRANCH  59  82
ATOM     82  C   UNL A   1      36.478  33.631  33.006  1.00  0.00    -0.014 A 
ATOM     83  C   UNL A   1      35.260  32.951  33.186  1.00  0.00     0.010 A 
ATOM     84  C   UNL A   1      36.461  34.945  32.504  1.00  0.00     0.010 A 
ATOM     85  C   UNL A   1      34.049  33.567  32.855  1.00  0.00     0.020 A 
ATOM     86  C   UNL A   1      35.250  35.573  32.198  1.00  0.00     0.020 A 
ATOM     87  C   UNL A   1      34.052  34.876  32.365  1.00  0.00     0.054 A 
BRANCH  87  88
ATOM     88  S   UNL A   1      32.466  35.680  32.002  1.00  0.00     0.124 S 
ATOM     89  O   UNL A   1      31.531  34.869  32.776  1.00  0.00    -0.237 OA
ATOM     90  O   UNL A   1      32.681  37.040  32.491  1.00  0.00    -0.237 OA
ATOM     91  O   UNL A   1      32.348  35.561  30.551  1.00  0.00    -0.744 OA
ENDBRANCH  87  88
ENDBRANCH  59  82
BRANCH  71  92
ATOM     92  C   UNL A   1      40.330  33.467  38.811  1.00  0.00    -0.014 A 
ATOM     93  C   UNL A   1      39.637  32.816  39.847  1.00  0.00     0.010 A 
ATOM     94  C   UNL A   1      40.909  34.726  39.056  1.00  0.00     0.010 A 
ATOM     95  C   UNL A   1      39.493  33.431  41.093  1.00  0.00     0.020 A 
ATOM     96  C   UNL A   1      40.789  35.331  40.310  1.00  0.00     0.020 A 
ATOM     97  C   UNL A   1      40.066  34.686  41.315  1.00  0.00     0.054 A 
BRANCH  97  98
ATOM     98  S   UNL A   1      39.892  35.451  42.950  1.00  0.00     0.124 S 
ATOM     99  O   UNL A   1      38.470  35.777  42.983  1.00  0.00    -0.237 OA
ATOM    100  O   UNL A   1      40.313  34.381  43.854  1.00  0.00    -0.237 OA
ATOM    101  O   UNL A   1      40.794  36.599  42.893  1.00  0.00    -0.744 OA
ENDBRANCH  97  98
ENDBRANCH  71  92
ENDBRANCH  45  46
ENDBRANCH  37  40
ENDBRANCH  35  36
ENDBRANCH  34  35
ENDBRANCH  33  34
ENDBRANCH   1  33
TORSDOF 19
ENDMDL
MODEL 3
REMARK VINA RESULT:      -8.2      3.384      9.400
REMARK SMILES Cc1occc1C(=O)NN1C(=O)/C(=C\c2ccc(O[C@H](C)C(=O)NCCCCNC(=O)c3ccc(-c4c5nc(c(-c6ccc(S(=O)(=O)[O-])cc6)c6ccc([nH]6)c(-c6ccc(S(=O)(=O)[O-])cc6)c6nc(c(-c7ccc(S(=O)(=O)[O-])cc7)c7ccc4[nH]7)C=C6)C=C5)cc3)cc2)SC1=S
REMARK SMILES IDX 25 1 24 2 22 3 23 4 20 6 21 7 19 8 18 9 15 10 16 11 93 12
REMARK SMILES IDX 17 13 92 14 14 15 10 16 11 17 95 18 12 19 13 20 94 21 96 22
REMARK SMILES IDX 9 23 7 24 8 25 6 27 1 28 2 29 3 30 4 31 5 32 26 33 27 34
REMARK SMILES IDX 28 35 29 36 30 37 31 39 32 40 33 41 91 42 34 43 90 44 35 45
REMARK SMILES IDX 36 46 37 47 84 48 38 49 89 50 83 51 85 52 39 53 88 54 82 55
REMARK SMILES IDX 81 56 40 58 70 59 51 60 69 61 52 62 55 63 68 64 86 65 53 66
REMARK SMILES IDX 54 67 67 69 87 70 56 71 41 72 42 73 50 74 43 75 49 76 44 77
REMARK SMILES IDX 45 78 46 79 47 80 48 81 71 82 72 83 80 84 73 85 79 86 74 87
REMARK SMILES IDX 75 88 76 89 77 90 78 91 57 92 58 93 66 94 59 95 65 96 60 97
REMARK SMILES IDX 61 98 62 99 63 100 64 101
REMARK H PARENT 24 5 9 26 29 38 85 57 55 68
REMARK Flexibility Score: inf
ROOT
ATOM      1  C   UNL A   1      44.307  25.114  25.752  1.00  0.00     0.116 C 
ENDROOT
BRANCH   1   2
ATOM      2  N   UNL A   1      44.893  26.152  24.939  1.00  0.00    -0.353 N 
ATOM      3  C   UNL A   1      45.282  27.418  25.248  1.00  0.00     0.260 C 
ATOM      4  O   UNL A   1      45.904  28.026  24.365  1.00  0.00    -0.271 OA
ATOM      5  H   UNL A   1      45.037  25.900  23.998  1.00  0.00     0.163 HD
BRANCH   3   6
ATOM      6  C   UNL A   1      44.894  28.162  26.558  1.00  0.00     0.258 C 
ATOM      7  C   UNL A   1      45.889  27.804  27.659  1.00  0.00     0.064 C 
BRANCH   6   8
ATOM      8  O   UNL A   1      44.343  29.472  26.540  1.00  0.00    -0.481 OA
BRANCH   8   9
ATOM      9  C   UNL A   1      44.841  30.556  27.188  1.00  0.00     0.120 A 
ATOM     10  C   UNL A   1      46.112  32.812  28.298  1.00  0.00    -0.024 A 
ATOM     11  C   UNL A   1      45.227  32.042  29.055  1.00  0.00     0.012 A 
ATOM     12  C   UNL A   1      46.354  32.461  26.970  1.00  0.00     0.012 A 
ATOM     13  C   UNL A   1      44.587  30.933  28.500  1.00  0.00     0.047 A 
ATOM     14  C   UNL A   1      45.705  31.348  26.419  1.00  0.00     0.047 A 
BRANCH  10  15
ATOM     15  C   UNL A   1      46.660  34.010  28.937  1.00  0.00     0.029 C 
ATOM     16  N   UNL A   1      44.408  36.845  28.631  1.00  0.00    -0.198 N 
ATOM     17  C   UNL A   1      44.713  35.521  28.357  1.00  0.00     0.285 C 
ATOM     18  C   UNL A   1      45.125  37.491  29.615  1.00  0.00     0.168 C 
ATOM     19  O   UNL A   1      44.018  34.776  27.688  1.00  0.00    -0.266 OA
ATOM     20  C   UNL A   1      45.994  35.167  29.035  1.00  0.00     0.082 C 
ATOM     21  S   UNL A   1      46.506  36.478  30.047  1.00  0.00    -0.052 SA
ATOM     22  S   UNL A   1      44.796  38.956  30.335  1.00  0.00    -0.050 S 
BRANCH  16  23
ATOM     23  N   UNL A   1      43.244  37.341  28.059  1.00  0.00    -0.254 N 
ATOM     24  C   UNL A   1      43.147  38.253  27.034  1.00  0.00     0.273 C 
ATOM     25  O   UNL A   1      42.038  38.375  26.507  1.00  0.00    -0.267 OA
ATOM     26  H   UNL A   1      42.396  37.002  28.427  1.00  0.00     0.192 HD
BRANCH  24  27
ATOM     27  C   UNL A   1      44.234  39.149  26.654  1.00  0.00     0.082 A 
ATOM     28  C   UNL A   1      46.491  37.811  26.164  1.00  0.00     0.088 C 
ATOM     29  C   UNL A   1      45.570  38.952  26.330  1.00  0.00     0.113 A 
ATOM     30  O   UNL A   1      46.166  40.148  26.039  1.00  0.00    -0.469 OA
ATOM     31  C   UNL A   1      45.222  41.109  26.103  1.00  0.00     0.196 A 
ATOM     32  C   UNL A   1      44.019  40.556  26.448  1.00  0.00     0.056 A 
ENDBRANCH  24  27
ENDBRANCH  16  23
ENDBRANCH  10  15
ENDBRANCH   8   9
ENDBRANCH   6   8
ENDBRANCH   3   6
ENDBRANCH   1   2
BRANCH   1  33
ATOM     33  C   UNL A   1      43.087  24.464  25.106  1.00  0.00     0.023 C 
BRANCH  33  34
ATOM     34  C   UNL A   1      42.944  22.967  25.396  1.00  0.00     0.023 C 
BRANCH  34  35
ATOM     35  C   UNL A   1      41.954  22.605  26.503  1.00  0.00     0.116 C 
BRANCH  35  36
ATOM     36  N   UNL A   1      40.597  22.366  26.031  1.00  0.00    -0.352 N 
ATOM     37  C   UNL A   1      39.488  23.162  26.204  1.00  0.00     0.251 C 
ATOM     38  H   UNL A   1      40.456  21.533  25.526  1.00  0.00     0.163 HD
ATOM     39  O   UNL A   1      38.387  22.780  25.820  1.00  0.00    -0.269 OA
BRANCH  37  40
ATOM     40  C   UNL A   1      39.634  24.458  26.903  1.00  0.00     0.039 A 
ATOM     41  C   UNL A   1      39.256  24.549  28.245  1.00  0.00     0.014 A 
ATOM     42  C   UNL A   1      40.204  25.556  26.253  1.00  0.00     0.014 A 
ATOM     43  C   UNL A   1      39.528  25.719  28.957  1.00  0.00     0.010 A 
ATOM     44  C   UNL A   1      40.535  26.694  26.984  1.00  0.00     0.010 A 
ATOM     45  C   UNL A   1      40.212  26.784  28.346  1.00  0.00    -0.014 A 
BRANCH  45  46
ATOM     46  C   UNL A   1      40.633  27.974  29.129  1.00  0.00     0.031 A 
ATOM     47  C   UNL A   1      41.974  28.008  29.810  1.00  0.00     0.074 A 
ATOM     48  C   UNL A   1      39.774  29.002  29.282  1.00  0.00     0.049 A 
ATOM     49  N   UNL A   1      42.499  28.955  30.546  1.00  0.00    -0.248 NA
ATOM     50  C   UNL A   1      42.825  26.817  29.666  1.00  0.00     0.031 C 
ATOM     51  C   UNL A   1      38.419  29.065  28.728  1.00  0.00     0.029 A 
ATOM     52  N   UNL A   1      39.912  30.192  29.953  1.00  0.00    -0.354 N 
ATOM     53  C   UNL A   1      43.733  28.471  30.963  1.00  0.00     0.074 A 
ATOM     54  C   UNL A   1      43.857  27.128  30.439  1.00  0.00     0.031 C 
ATOM     55  C   UNL A   1      37.864  30.245  29.052  1.00  0.00     0.029 A 
ATOM     56  C   UNL A   1      38.808  31.008  29.862  1.00  0.00     0.049 A 
ATOM     57  H   UNL A   1      40.724  30.439  30.451  1.00  0.00     0.167 HD
ATOM     58  C   UNL A   1      44.687  29.094  31.696  1.00  0.00     0.031 A 
ATOM     59  C   UNL A   1      38.579  32.234  30.371  1.00  0.00     0.031 A 
ATOM     60  C   UNL A   1      44.567  30.434  32.207  1.00  0.00     0.049 A 
ATOM     61  C   UNL A   1      39.658  32.912  31.169  1.00  0.00     0.074 A 
ATOM     62  C   UNL A   1      45.505  31.175  32.904  1.00  0.00     0.029 A 
ATOM     63  N   UNL A   1      43.441  31.232  32.080  1.00  0.00    -0.354 N 
ATOM     64  N   UNL A   1      40.851  32.466  31.483  1.00  0.00    -0.248 NA
ATOM     65  C   UNL A   1      39.363  34.262  31.668  1.00  0.00     0.031 C 
ATOM     66  C   UNL A   1      44.929  32.407  33.238  1.00  0.00     0.029 A 
ATOM     67  C   UNL A   1      43.651  32.451  32.705  1.00  0.00     0.049 A 
ATOM     68  H   UNL A   1      42.613  30.972  31.614  1.00  0.00     0.167 HD
ATOM     69  C   UNL A   1      41.458  33.491  32.200  1.00  0.00     0.074 A 
ATOM     70  C   UNL A   1      40.508  34.583  32.257  1.00  0.00     0.031 C 
ATOM     71  C   UNL A   1      42.692  33.524  32.762  1.00  0.00     0.031 A 
BRANCH  58  72
ATOM     72  C   UNL A   1      45.949  28.326  31.986  1.00  0.00    -0.014 A 
ATOM     73  C   UNL A   1      46.023  27.445  33.080  1.00  0.00     0.010 A 
ATOM     74  C   UNL A   1      47.063  28.460  31.137  1.00  0.00     0.010 A 
ATOM     75  C   UNL A   1      47.204  26.745  33.347  1.00  0.00     0.020 A 
ATOM     76  C   UNL A   1      48.236  27.741  31.386  1.00  0.00     0.020 A 
ATOM     77  C   UNL A   1      48.305  26.903  32.500  1.00  0.00     0.054 A 
BRANCH  77  78
ATOM     78  S   UNL A   1      49.819  25.973  32.862  1.00  0.00     0.124 S 
ATOM     79  O   UNL A   1      49.697  25.749  34.301  1.00  0.00    -0.237 OA
ATOM     80  O   UNL A   1      49.675  24.783  32.027  1.00  0.00    -0.237 OA
ATOM     81  O   UNL A   1      50.889  26.884  32.463  1.00  0.00    -0.744 OA
ENDBRANCH  77  78
ENDBRANCH  58  72
BRANCH  59  82
ATOM     82  C   UNL A   1      37.281  32.913  30.113  1.00  0.00    -0.014 A 
ATOM     83  C   UNL A   1      36.250  32.864  31.068  1.00  0.00     0.010 A 
ATOM     84  C   UNL A   1      37.075  33.629  28.920  1.00  0.00     0.010 A 
ATOM     85  C   UNL A   1      35.031  33.505  30.828  1.00  0.00     0.020 A 
ATOM     86  C   UNL A   1      35.867  34.293  28.688  1.00  0.00     0.020 A 
ATOM     87  C   UNL A   1      34.848  34.218  29.640  1.00  0.00     0.054 A 
BRANCH  87  88
ATOM     88  S   UNL A   1      33.282  35.096  29.376  1.00  0.00     0.124 S 
ATOM     89  O   UNL A   1      32.642  34.273  28.356  1.00  0.00    -0.237 OA
ATOM     90  O   UNL A   1      32.668  35.056  30.702  1.00  0.00    -0.237 OA
ATOM     91  O   UNL A   1      33.706  36.424  28.937  1.00  0.00    -0.744 OA
ENDBRANCH  87  88
ENDBRANCH  59  82
BRANCH  71  92
ATOM     92  C   UNL A   1      43.092  34.790  33.471  1.00  0.00    -0.014 A 
ATOM     93  C   UNL A   1      42.855  34.957  34.847  1.00  0.00     0.010 A 
ATOM     94  C   UNL A   1      43.747  35.810  32.758  1.00  0.00     0.010 A 
ATOM     95  C   UNL A   1      43.234  36.138  35.489  1.00  0.00     0.020 A 
ATOM     96  C   UNL A   1      44.151  36.982  33.403  1.00  0.00     0.020 A 
ATOM     97  C   UNL A   1      43.876  37.145  34.762  1.00  0.00     0.054 A 
BRANCH  97  98
ATOM     98  S   UNL A   1      44.386  38.657  35.623  1.00  0.00     0.124 S 
ATOM     99  O   UNL A   1      45.836  38.627  35.457  1.00  0.00    -0.237 OA
ATOM    100  O   UNL A   1      43.689  39.705  34.879  1.00  0.00    -0.237 OA
ATOM    101  O   UNL A   1      43.911  38.453  36.991  1.00  0.00    -0.744 OA
ENDBRANCH  97  98
ENDBRANCH  71  92
ENDBRANCH  45  46
ENDBRANCH  37  40
ENDBRANCH  35  36
ENDBRANCH  34  35
ENDBRANCH  33  34
ENDBRANCH   1  33
TORSDOF 19
ENDMDL
