MODEL 1
REMARK VINA RESULT:     -10.8      0.000      0.000
REMARK SMILES CCNC(=O)N1CC[C@H](Cc2cccc(C(=O)NCCCCNC(=O)c3ccc(-c4c5nc(c(-c6ccc(S(=O)(=O)[O-])cc6)c6ccc([nH]6)c(-c6ccc(S(=O)(=O)[O-])cc6)c6nc(c(-c7ccc(S(=O)(=O)[O-])cc7)c7ccc4[nH]7)C=C6)C=C5)cc3)c2)C1
REMARK SMILES IDX 20 1 19 2 18 3 16 4 17 5 15 7 11 8 12 9 86 10 13 11 14 12
REMARK SMILES IDX 10 13 9 14 6 15 7 16 87 17 8 18 4 19 3 20 5 22 2 23 1 24
REMARK SMILES IDX 21 25 22 26 23 27 24 28 25 30 26 31 27 32 85 33 28 34 84 35
REMARK SMILES IDX 29 36 30 37 31 38 78 39 32 40 83 41 77 42 79 43 33 44 82 45
REMARK SMILES IDX 76 46 75 47 34 49 64 50 45 51 63 52 46 53 49 54 62 55 80 56
REMARK SMILES IDX 47 57 48 58 61 60 81 61 50 62 35 63 36 64 44 65 37 66 43 67
REMARK SMILES IDX 38 68 39 69 40 70 41 71 42 72 65 73 66 74 74 75 67 76 73 77
REMARK SMILES IDX 68 78 69 79 70 80 71 81 72 82 51 83 52 84 60 85 53 86 59 87
REMARK SMILES IDX 54 88 55 89 56 90 57 91 58 92
REMARK H PARENT 18 6 3 21 23 29 79 48 49 59
REMARK Flexibility Score: inf
ROOT
ATOM      1  C   UNL A   1      31.348  27.534  26.785  1.00  0.00     0.023 C 
ENDROOT
BRANCH   1   2
ATOM      2  C   UNL A   1      30.637  26.566  25.850  1.00  0.00     0.116 C 
BRANCH   2   3
ATOM      3  N   UNL A   1      30.187  27.141  24.590  1.00  0.00    -0.352 N 
ATOM      4  C   UNL A   1      30.628  26.946  23.295  1.00  0.00     0.251 C 
ATOM      5  O   UNL A   1      30.092  27.568  22.380  1.00  0.00    -0.269 OA
ATOM      6  H   UNL A   1      29.442  27.778  24.676  1.00  0.00     0.163 HD
BRANCH   4   7
ATOM      7  C   UNL A   1      31.773  26.048  22.985  1.00  0.00     0.040 A 
ATOM      8  C   UNL A   1      32.645  23.804  22.632  1.00  0.00    -0.047 A 
ATOM      9  C   UNL A   1      33.945  24.306  22.771  1.00  0.00     0.004 A 
ATOM     10  C   UNL A   1      31.581  24.712  22.640  1.00  0.00     0.017 A 
ATOM     11  C   UNL A   1      34.162  25.676  22.948  1.00  0.00     0.001 A 
ATOM     12  C   UNL A   1      33.075  26.543  23.083  1.00  0.00     0.014 A 
BRANCH   8  13
ATOM     13  C   UNL A   1      32.406  22.309  22.641  1.00  0.00     0.041 C 
BRANCH  13  14
ATOM     14  C   UNL A   1      32.074  21.684  24.004  1.00  0.00     0.015 C 
ATOM     15  N   UNL A   1      33.532  21.427  25.836  1.00  0.00    -0.325 N 
ATOM     16  C   UNL A   1      32.985  20.112  25.566  1.00  0.00     0.121 C 
ATOM     17  C   UNL A   1      32.747  22.435  25.165  1.00  0.00     0.125 C 
ATOM     18  C   UNL A   1      32.591  20.235  24.112  1.00  0.00     0.027 C 
BRANCH  15  19
ATOM     19  C   UNL A   1      34.470  21.756  26.762  1.00  0.00     0.317 C 
ATOM     20  N   UNL A   1      35.761  21.416  26.511  1.00  0.00    -0.338 N 
ATOM     21  H   UNL A   1      36.308  21.139  27.282  1.00  0.00     0.165 HD
ATOM     22  O   UNL A   1      34.211  22.400  27.776  1.00  0.00    -0.249 OA
BRANCH  20  23
ATOM     23  C   UNL A   1      36.410  21.422  25.211  1.00  0.00     0.114 C 
ATOM     24  C   UNL A   1      37.178  20.130  24.986  1.00  0.00     0.027 C 
ENDBRANCH  20  23
ENDBRANCH  15  19
ENDBRANCH  13  14
ENDBRANCH   8  13
ENDBRANCH   4   7
ENDBRANCH   2   3
ENDBRANCH   1   2
BRANCH   1  25
ATOM     25  C   UNL A   1      32.564  28.254  26.220  1.00  0.00     0.023 C 
BRANCH  25  26
ATOM     26  C   UNL A   1      33.672  28.583  27.213  1.00  0.00     0.116 C 
BRANCH  26  27
ATOM     27  N   UNL A   1      33.619  29.941  27.736  1.00  0.00    -0.352 N 
ATOM     28  C   UNL A   1      34.601  30.677  28.366  1.00  0.00     0.251 C 
ATOM     29  H   UNL A   1      32.756  30.401  27.625  1.00  0.00     0.163 HD
ATOM     30  O   UNL A   1      34.347  31.793  28.794  1.00  0.00    -0.269 OA
BRANCH  28  31
ATOM     31  C   UNL A   1      35.948  30.091  28.560  1.00  0.00     0.039 A 
ATOM     32  C   UNL A   1      36.852  30.116  27.495  1.00  0.00     0.014 A 
ATOM     33  C   UNL A   1      36.331  29.559  29.793  1.00  0.00     0.014 A 
ATOM     34  C   UNL A   1      38.169  29.689  27.694  1.00  0.00     0.010 A 
ATOM     35  C   UNL A   1      37.661  29.215  30.012  1.00  0.00     0.010 A 
ATOM     36  C   UNL A   1      38.596  29.279  28.967  1.00  0.00    -0.014 A 
BRANCH  36  37
ATOM     37  C   UNL A   1      40.012  28.912  29.231  1.00  0.00     0.031 A 
ATOM     38  C   UNL A   1      40.951  29.921  29.837  1.00  0.00     0.074 A 
ATOM     39  C   UNL A   1      40.473  27.702  28.857  1.00  0.00     0.049 A 
ATOM     40  N   UNL A   1      42.234  29.819  30.067  1.00  0.00    -0.248 NA
ATOM     41  C   UNL A   1      40.376  31.226  30.204  1.00  0.00     0.031 C 
ATOM     42  C   UNL A   1      39.680  26.650  28.215  1.00  0.00     0.029 A 
ATOM     43  N   UNL A   1      41.728  27.154  28.955  1.00  0.00    -0.354 N 
ATOM     44  C   UNL A   1      42.625  31.051  30.578  1.00  0.00     0.074 A 
ATOM     45  C   UNL A   1      41.454  31.899  30.580  1.00  0.00     0.031 C 
ATOM     46  C   UNL A   1      40.460  25.577  28.003  1.00  0.00     0.029 A 
ATOM     47  C   UNL A   1      41.815  25.874  28.457  1.00  0.00     0.049 A 
ATOM     48  H   UNL A   1      42.496  27.631  29.345  1.00  0.00     0.167 HD
ATOM     49  C   UNL A   1      43.843  31.439  31.028  1.00  0.00     0.031 A 
ATOM     50  C   UNL A   1      42.865  25.034  28.375  1.00  0.00     0.031 A 
ATOM     51  C   UNL A   1      45.002  30.588  31.050  1.00  0.00     0.049 A 
ATOM     52  C   UNL A   1      44.202  25.476  28.902  1.00  0.00     0.074 A 
ATOM     53  C   UNL A   1      46.267  30.868  31.536  1.00  0.00     0.029 A 
ATOM     54  N   UNL A   1      45.036  29.286  30.571  1.00  0.00    -0.354 N 
ATOM     55  N   UNL A   1      44.537  26.627  29.435  1.00  0.00    -0.248 NA
ATOM     56  C   UNL A   1      45.299  24.500  28.833  1.00  0.00     0.031 C 
ATOM     57  C   UNL A   1      47.077  29.748  31.318  1.00  0.00     0.029 A 
ATOM     58  C   UNL A   1      46.302  28.753  30.742  1.00  0.00     0.049 A 
ATOM     59  H   UNL A   1      44.273  28.813  30.169  1.00  0.00     0.167 HD
ATOM     60  C   UNL A   1      45.876  26.502  29.794  1.00  0.00     0.074 A 
ATOM     61  C   UNL A   1      46.284  25.163  29.426  1.00  0.00     0.031 C 
ATOM     62  C   UNL A   1      46.690  27.415  30.378  1.00  0.00     0.031 A 
BRANCH  49  63
ATOM     63  C   UNL A   1      43.976  32.850  31.535  1.00  0.00    -0.014 A 
ATOM     64  C   UNL A   1      44.271  33.911  30.659  1.00  0.00     0.010 A 
ATOM     65  C   UNL A   1      43.782  33.125  32.901  1.00  0.00     0.010 A 
ATOM     66  C   UNL A   1      44.419  35.211  31.146  1.00  0.00     0.020 A 
ATOM     67  C   UNL A   1      43.901  34.430  33.388  1.00  0.00     0.020 A 
ATOM     68  C   UNL A   1      44.240  35.462  32.509  1.00  0.00     0.054 A 
BRANCH  68  69
ATOM     69  S   UNL A   1      44.427  37.161  33.114  1.00  0.00     0.124 S 
ATOM     70  O   UNL A   1      45.464  37.005  34.132  1.00  0.00    -0.237 OA
ATOM     71  O   UNL A   1      44.833  37.888  31.913  1.00  0.00    -0.237 OA
ATOM     72  O   UNL A   1      43.100  37.497  33.622  1.00  0.00    -0.744 OA
ENDBRANCH  68  69
ENDBRANCH  49  63
BRANCH  50  73
ATOM     73  C   UNL A   1      42.686  23.673  27.799  1.00  0.00    -0.014 A 
ATOM     74  C   UNL A   1      42.201  22.621  28.598  1.00  0.00     0.010 A 
ATOM     75  C   UNL A   1      42.990  23.422  26.449  1.00  0.00     0.010 A 
ATOM     76  C   UNL A   1      42.042  21.340  28.063  1.00  0.00     0.020 A 
ATOM     77  C   UNL A   1      42.807  22.148  25.904  1.00  0.00     0.020 A 
ATOM     78  C   UNL A   1      42.346  21.111  26.718  1.00  0.00     0.054 A 
BRANCH  78  79
ATOM     79  S   UNL A   1      42.084  19.453  26.031  1.00  0.00     0.124 S 
ATOM     80  O   UNL A   1      42.921  19.483  24.835  1.00  0.00    -0.237 OA
ATOM     81  O   UNL A   1      42.551  18.585  27.109  1.00  0.00    -0.237 OA
ATOM     82  O   UNL A   1      40.644  19.408  25.787  1.00  0.00    -0.744 OA
ENDBRANCH  78  79
ENDBRANCH  50  73
BRANCH  62  83
ATOM     83  C   UNL A   1      48.094  26.981  30.702  1.00  0.00    -0.014 A 
ATOM     84  C   UNL A   1      49.155  27.210  29.809  1.00  0.00     0.010 A 
ATOM     85  C   UNL A   1      48.360  26.379  31.946  1.00  0.00     0.010 A 
ATOM     86  C   UNL A   1      50.454  26.814  30.140  1.00  0.00     0.020 A 
ATOM     87  C   UNL A   1      49.661  26.005  32.292  1.00  0.00     0.020 A 
ATOM     88  C   UNL A   1      50.697  26.212  31.379  1.00  0.00     0.054 A 
BRANCH  88  89
ATOM     89  S   UNL A   1      52.397  25.743  31.807  1.00  0.00     0.124 S 
ATOM     90  O   UNL A   1      53.100  25.974  30.548  1.00  0.00    -0.237 OA
ATOM     91  O   UNL A   1      52.725  26.667  32.889  1.00  0.00    -0.237 OA
ATOM     92  O   UNL A   1      52.280  24.343  32.206  1.00  0.00    -0.744 OA
ENDBRANCH  88  89
ENDBRANCH  62  83
ENDBRANCH  36  37
ENDBRANCH  28  31
ENDBRANCH  26  27
ENDBRANCH  25  26
ENDBRANCH   1  25
TORSDOF 18
ENDMDL
MODEL 2
REMARK VINA RESULT:     -10.4      4.399     11.705
REMARK SMILES CCNC(=O)N1CC[C@H](Cc2cccc(C(=O)NCCCCNC(=O)c3ccc(-c4c5nc(c(-c6ccc(S(=O)(=O)[O-])cc6)c6ccc([nH]6)c(-c6ccc(S(=O)(=O)[O-])cc6)c6nc(c(-c7ccc(S(=O)(=O)[O-])cc7)c7ccc4[nH]7)C=C6)C=C5)cc3)c2)C1
REMARK SMILES IDX 20 1 19 2 18 3 16 4 17 5 15 7 11 8 12 9 86 10 13 11 14 12
REMARK SMILES IDX 10 13 9 14 6 15 7 16 87 17 8 18 4 19 3 20 5 22 2 23 1 24
REMARK SMILES IDX 21 25 22 26 23 27 24 28 25 30 26 31 27 32 85 33 28 34 84 35
REMARK SMILES IDX 29 36 30 37 31 38 78 39 32 40 83 41 77 42 79 43 33 44 82 45
REMARK SMILES IDX 76 46 75 47 34 49 64 50 45 51 63 52 46 53 49 54 62 55 80 56
REMARK SMILES IDX 47 57 48 58 61 60 81 61 50 62 35 63 36 64 44 65 37 66 43 67
REMARK SMILES IDX 38 68 39 69 40 70 41 71 42 72 65 73 66 74 74 75 67 76 73 77
REMARK SMILES IDX 68 78 69 79 70 80 71 81 72 82 51 83 52 84 60 85 53 86 59 87
REMARK SMILES IDX 54 88 55 89 56 90 57 91 58 92
REMARK H PARENT 18 6 3 21 23 29 79 48 49 59
REMARK Flexibility Score: inf
ROOT
ATOM      1  C   UNL A   1      43.816  22.855  26.526  1.00  0.00     0.023 C 
ENDROOT
BRANCH   1   2
ATOM      2  C   UNL A   1      45.147  22.181  26.224  1.00  0.00     0.116 C 
BRANCH   2   3
ATOM      3  N   UNL A   1      45.869  22.724  25.081  1.00  0.00    -0.352 N 
ATOM      4  C   UNL A   1      46.476  23.950  24.891  1.00  0.00     0.251 C 
ATOM      5  O   UNL A   1      47.020  24.188  23.814  1.00  0.00    -0.269 OA
ATOM      6  H   UNL A   1      45.936  22.112  24.313  1.00  0.00     0.163 HD
BRANCH   4   7
ATOM      7  C   UNL A   1      46.439  25.013  25.931  1.00  0.00     0.040 A 
ATOM      8  C   UNL A   1      45.557  27.134  26.735  1.00  0.00    -0.047 A 
ATOM      9  C   UNL A   1      46.603  27.196  27.664  1.00  0.00     0.004 A 
ATOM     10  C   UNL A   1      45.438  25.983  25.950  1.00  0.00     0.017 A 
ATOM     11  C   UNL A   1      47.518  26.146  27.774  1.00  0.00     0.001 A 
ATOM     12  C   UNL A   1      47.453  25.067  26.889  1.00  0.00     0.014 A 
BRANCH   8  13
ATOM     13  C   UNL A   1      44.693  28.352  26.484  1.00  0.00     0.041 C 
BRANCH  13  14
ATOM     14  C   UNL A   1      45.152  29.657  27.151  1.00  0.00     0.015 C 
ATOM     15  N   UNL A   1      44.938  31.838  26.287  1.00  0.00    -0.325 N 
ATOM     16  C   UNL A   1      46.340  31.667  26.611  1.00  0.00     0.121 C 
ATOM     17  C   UNL A   1      44.155  30.805  26.922  1.00  0.00     0.125 C 
ATOM     18  C   UNL A   1      46.486  30.163  26.565  1.00  0.00     0.027 C 
BRANCH  15  19
ATOM     19  C   UNL A   1      44.353  32.914  25.699  1.00  0.00     0.317 C 
ATOM     20  N   UNL A   1      43.744  33.826  26.501  1.00  0.00    -0.338 N 
ATOM     21  H   UNL A   1      42.923  34.246  26.155  1.00  0.00     0.165 HD
ATOM     22  O   UNL A   1      44.409  33.129  24.491  1.00  0.00    -0.249 OA
BRANCH  20  23
ATOM     23  C   UNL A   1      44.190  34.237  27.821  1.00  0.00     0.114 C 
ATOM     24  C   UNL A   1      43.068  34.930  28.577  1.00  0.00     0.027 C 
ENDBRANCH  20  23
ENDBRANCH  15  19
ENDBRANCH  13  14
ENDBRANCH   8  13
ENDBRANCH   4   7
ENDBRANCH   2   3
ENDBRANCH   1   2
BRANCH   1  25
ATOM     25  C   UNL A   1      42.571  22.175  25.976  1.00  0.00     0.023 C 
BRANCH  25  26
ATOM     26  C   UNL A   1      41.437  21.943  26.968  1.00  0.00     0.116 C 
BRANCH  26  27
ATOM     27  N   UNL A   1      40.116  21.881  26.359  1.00  0.00    -0.352 N 
ATOM     28  C   UNL A   1      39.135  22.848  26.293  1.00  0.00     0.251 C 
ATOM     29  H   UNL A   1      39.890  21.023  25.932  1.00  0.00     0.163 HD
ATOM     30  O   UNL A   1      38.054  22.587  25.786  1.00  0.00    -0.269 OA
BRANCH  28  31
ATOM     31  C   UNL A   1      39.382  24.186  26.878  1.00  0.00     0.039 A 
ATOM     32  C   UNL A   1      38.957  24.439  28.185  1.00  0.00     0.014 A 
ATOM     33  C   UNL A   1      40.063  25.172  26.160  1.00  0.00     0.014 A 
ATOM     34  C   UNL A   1      39.295  25.647  28.803  1.00  0.00     0.010 A 
ATOM     35  C   UNL A   1      40.471  26.337  26.804  1.00  0.00     0.010 A 
ATOM     36  C   UNL A   1      40.094  26.586  28.132  1.00  0.00    -0.014 A 
BRANCH  36  37
ATOM     37  C   UNL A   1      40.549  27.835  28.798  1.00  0.00     0.031 A 
ATOM     38  C   UNL A   1      41.927  27.909  29.399  1.00  0.00     0.074 A 
ATOM     39  C   UNL A   1      39.699  28.873  28.929  1.00  0.00     0.049 A 
ATOM     40  N   UNL A   1      42.475  28.876  30.088  1.00  0.00    -0.248 NA
ATOM     41  C   UNL A   1      42.791  26.729  29.227  1.00  0.00     0.031 C 
ATOM     42  C   UNL A   1      38.320  28.913  28.436  1.00  0.00     0.029 A 
ATOM     43  N   UNL A   1      39.869  30.097  29.529  1.00  0.00    -0.354 N 
ATOM     44  C   UNL A   1      43.733  28.412  30.455  1.00  0.00     0.074 A 
ATOM     45  C   UNL A   1      43.849  27.061  29.953  1.00  0.00     0.031 C 
ATOM     46  C   UNL A   1      37.781  30.108  28.728  1.00  0.00     0.029 A 
ATOM     47  C   UNL A   1      38.758  30.906  29.461  1.00  0.00     0.049 A 
ATOM     48  H   UNL A   1      40.707  30.371  29.966  1.00  0.00     0.167 HD
ATOM     49  C   UNL A   1      44.716  29.057  31.129  1.00  0.00     0.031 A 
ATOM     50  C   UNL A   1      38.549  32.150  29.935  1.00  0.00     0.031 A 
ATOM     51  C   UNL A   1      44.611  30.410  31.606  1.00  0.00     0.049 A 
ATOM     52  C   UNL A   1      39.661  32.857  30.659  1.00  0.00     0.074 A 
ATOM     53  C   UNL A   1      45.569  31.172  32.252  1.00  0.00     0.029 A 
ATOM     54  N   UNL A   1      43.482  31.206  31.483  1.00  0.00    -0.354 N 
ATOM     55  N   UNL A   1      40.865  32.420  30.946  1.00  0.00    -0.248 NA
ATOM     56  C   UNL A   1      39.394  34.230  31.110  1.00  0.00     0.031 C 
ATOM     57  C   UNL A   1      45.007  32.418  32.551  1.00  0.00     0.029 A 
ATOM     58  C   UNL A   1      43.716  32.449  32.048  1.00  0.00     0.049 A 
ATOM     59  H   UNL A   1      42.639  30.929  31.057  1.00  0.00     0.167 HD
ATOM     60  C   UNL A   1      41.509  33.477  31.582  1.00  0.00     0.074 A 
ATOM     61  C   UNL A   1      40.565  34.574  31.629  1.00  0.00     0.031 C 
ATOM     62  C   UNL A   1      42.769  33.533  32.079  1.00  0.00     0.031 A 
BRANCH  49  63
ATOM     63  C   UNL A   1      45.991  28.300  31.386  1.00  0.00    -0.014 A 
ATOM     64  C   UNL A   1      46.036  27.255  32.327  1.00  0.00     0.010 A 
ATOM     65  C   UNL A   1      47.154  28.620  30.663  1.00  0.00     0.010 A 
ATOM     66  C   UNL A   1      47.232  26.578  32.576  1.00  0.00     0.020 A 
ATOM     67  C   UNL A   1      48.347  27.925  30.888  1.00  0.00     0.020 A 
ATOM     68  C   UNL A   1      48.382  26.922  31.860  1.00  0.00     0.054 A 
BRANCH  68  69
ATOM     69  S   UNL A   1      49.919  26.020  32.195  1.00  0.00     0.124 S 
ATOM     70  O   UNL A   1      49.443  24.914  33.023  1.00  0.00    -0.237 OA
ATOM     71  O   UNL A   1      50.376  25.651  30.858  1.00  0.00    -0.237 OA
ATOM     72  O   UNL A   1      50.752  27.001  32.885  1.00  0.00    -0.744 OA
ENDBRANCH  68  69
ENDBRANCH  49  63
BRANCH  50  73
ATOM     73  C   UNL A   1      37.240  32.823  29.709  1.00  0.00    -0.014 A 
ATOM     74  C   UNL A   1      36.275  32.861  30.732  1.00  0.00     0.010 A 
ATOM     75  C   UNL A   1      36.954  33.435  28.476  1.00  0.00     0.010 A 
ATOM     76  C   UNL A   1      35.042  33.483  30.519  1.00  0.00     0.020 A 
ATOM     77  C   UNL A   1      35.731  34.080  28.269  1.00  0.00     0.020 A 
ATOM     78  C   UNL A   1      34.778  34.089  29.288  1.00  0.00     0.054 A 
BRANCH  78  79
ATOM     79  S   UNL A   1      33.190  34.935  29.051  1.00  0.00     0.124 S 
ATOM     80  O   UNL A   1      32.527  34.070  28.079  1.00  0.00    -0.237 OA
ATOM     81  O   UNL A   1      32.622  34.926  30.397  1.00  0.00    -0.237 OA
ATOM     82  O   UNL A   1      33.576  36.254  28.557  1.00  0.00    -0.744 OA
ENDBRANCH  78  79
ENDBRANCH  50  73
BRANCH  62  83
ATOM     83  C   UNL A   1      43.220  34.839  32.674  1.00  0.00    -0.014 A 
ATOM     84  C   UNL A   1      44.001  35.747  31.938  1.00  0.00     0.010 A 
ATOM     85  C   UNL A   1      42.811  35.181  33.976  1.00  0.00     0.010 A 
ATOM     86  C   UNL A   1      44.393  36.962  32.507  1.00  0.00     0.020 A 
ATOM     87  C   UNL A   1      43.179  36.405  34.539  1.00  0.00     0.020 A 
ATOM     88  C   UNL A   1      43.981  37.282  33.805  1.00  0.00     0.054 A 
BRANCH  88  89
ATOM     89  S   UNL A   1      44.467  38.882  34.509  1.00  0.00     0.124 S 
ATOM     90  O   UNL A   1      44.715  38.535  35.906  1.00  0.00    -0.237 OA
ATOM     91  O   UNL A   1      45.651  39.232  33.729  1.00  0.00    -0.237 OA
ATOM     92  O   UNL A   1      43.302  39.732  34.276  1.00  0.00    -0.744 OA
ENDBRANCH  88  89
ENDBRANCH  62  83
ENDBRANCH  36  37
ENDBRANCH  28  31
ENDBRANCH  26  27
ENDBRANCH  25  26
ENDBRANCH   1  25
TORSDOF 18
ENDMDL
MODEL 3
REMARK VINA RESULT:     -10.3      2.725      3.610
REMARK SMILES CCNC(=O)N1CC[C@H](Cc2cccc(C(=O)NCCCCNC(=O)c3ccc(-c4c5nc(c(-c6ccc(S(=O)(=O)[O-])cc6)c6ccc([nH]6)c(-c6ccc(S(=O)(=O)[O-])cc6)c6nc(c(-c7ccc(S(=O)(=O)[O-])cc7)c7ccc4[nH]7)C=C6)C=C5)cc3)c2)C1
REMARK SMILES IDX 20 1 19 2 18 3 16 4 17 5 15 7 11 8 12 9 86 10 13 11 14 12
REMARK SMILES IDX 10 13 9 14 6 15 7 16 87 17 8 18 4 19 3 20 5 22 2 23 1 24
REMARK SMILES IDX 21 25 22 26 23 27 24 28 25 30 26 31 27 32 85 33 28 34 84 35
REMARK SMILES IDX 29 36 30 37 31 38 78 39 32 40 83 41 77 42 79 43 33 44 82 45
REMARK SMILES IDX 76 46 75 47 34 49 64 50 45 51 63 52 46 53 49 54 62 55 80 56
REMARK SMILES IDX 47 57 48 58 61 60 81 61 50 62 35 63 36 64 44 65 37 66 43 67
REMARK SMILES IDX 38 68 39 69 40 70 41 71 42 72 65 73 66 74 74 75 67 76 73 77
REMARK SMILES IDX 68 78 69 79 70 80 71 81 72 82 51 83 52 84 60 85 53 86 59 87
REMARK SMILES IDX 54 88 55 89 56 90 57 91 58 92
REMARK H PARENT 18 6 3 21 23 29 79 48 49 59
REMARK Flexibility Score: inf
ROOT
ATOM      1  C   UNL A   1      34.188  29.061  26.496  1.00  0.00     0.023 C 
ENDROOT
BRANCH   1   2
ATOM      2  C   UNL A   1      32.824  28.412  26.315  1.00  0.00     0.116 C 
BRANCH   2   3
ATOM      3  N   UNL A   1      31.863  29.196  25.550  1.00  0.00    -0.352 N 
ATOM      4  C   UNL A   1      31.065  28.854  24.474  1.00  0.00     0.251 C 
ATOM      5  O   UNL A   1      30.333  29.708  23.978  1.00  0.00    -0.269 OA
ATOM      6  H   UNL A   1      31.766  30.128  25.850  1.00  0.00     0.163 HD
BRANCH   4   7
ATOM      7  C   UNL A   1      31.113  27.499  23.864  1.00  0.00     0.040 A 
ATOM      8  C   UNL A   1      31.150  25.079  24.124  1.00  0.00    -0.047 A 
ATOM      9  C   UNL A   1      31.568  24.960  22.792  1.00  0.00     0.004 A 
ATOM     10  C   UNL A   1      30.831  26.353  24.605  1.00  0.00     0.017 A 
ATOM     11  C   UNL A   1      31.691  26.093  21.983  1.00  0.00     0.001 A 
ATOM     12  C   UNL A   1      31.491  27.364  22.526  1.00  0.00     0.014 A 
BRANCH   8  13
ATOM     13  C   UNL A   1      31.210  23.880  25.046  1.00  0.00     0.041 C 
BRANCH  13  14
ATOM     14  C   UNL A   1      32.337  23.882  26.088  1.00  0.00     0.015 C 
ATOM     15  N   UNL A   1      34.073  22.303  26.298  1.00  0.00    -0.325 N 
ATOM     16  C   UNL A   1      33.435  22.378  27.597  1.00  0.00     0.121 C 
ATOM     17  C   UNL A   1      33.681  23.433  25.490  1.00  0.00     0.125 C 
ATOM     18  C   UNL A   1      32.059  22.889  27.236  1.00  0.00     0.027 C 
BRANCH  15  19
ATOM     19  C   UNL A   1      35.083  21.477  25.922  1.00  0.00     0.317 C 
ATOM     20  N   UNL A   1      34.761  20.225  25.504  1.00  0.00    -0.338 N 
ATOM     21  H   UNL A   1      35.382  19.500  25.746  1.00  0.00     0.165 HD
ATOM     22  O   UNL A   1      36.259  21.833  25.881  1.00  0.00    -0.249 OA
BRANCH  20  23
ATOM     23  C   UNL A   1      33.585  19.856  24.734  1.00  0.00     0.114 C 
ATOM     24  C   UNL A   1      32.814  18.747  25.428  1.00  0.00     0.027 C 
ENDBRANCH  20  23
ENDBRANCH  15  19
ENDBRANCH  13  14
ENDBRANCH   8  13
ENDBRANCH   4   7
ENDBRANCH   2   3
ENDBRANCH   1   2
BRANCH   1  25
ATOM     25  C   UNL A   1      34.245  30.279  27.406  1.00  0.00     0.023 C 
BRANCH  25  26
ATOM     26  C   UNL A   1      35.558  30.508  28.144  1.00  0.00     0.116 C 
BRANCH  26  27
ATOM     27  N   UNL A   1      35.439  30.484  29.595  1.00  0.00    -0.352 N 
ATOM     28  C   UNL A   1      36.414  30.294  30.551  1.00  0.00     0.251 C 
ATOM     29  H   UNL A   1      34.529  30.624  29.944  1.00  0.00     0.163 HD
ATOM     30  O   UNL A   1      36.108  30.247  31.734  1.00  0.00    -0.269 OA
BRANCH  28  31
ATOM     31  C   UNL A   1      37.823  30.104  30.137  1.00  0.00     0.039 A 
ATOM     32  C   UNL A   1      38.787  29.857  31.118  1.00  0.00     0.014 A 
ATOM     33  C   UNL A   1      38.187  30.128  28.788  1.00  0.00     0.014 A 
ATOM     34  C   UNL A   1      40.096  29.544  30.741  1.00  0.00     0.010 A 
ATOM     35  C   UNL A   1      39.468  29.735  28.412  1.00  0.00     0.010 A 
ATOM     36  C   UNL A   1      40.435  29.435  29.383  1.00  0.00    -0.014 A 
BRANCH  36  37
ATOM     37  C   UNL A   1      41.794  29.011  28.953  1.00  0.00     0.031 A 
ATOM     38  C   UNL A   1      42.914  30.015  28.901  1.00  0.00     0.074 A 
ATOM     39  C   UNL A   1      42.002  27.746  28.536  1.00  0.00     0.049 A 
ATOM     40  N   UNL A   1      44.142  29.859  28.479  1.00  0.00    -0.248 NA
ATOM     41  C   UNL A   1      42.605  31.380  29.358  1.00  0.00     0.031 C 
ATOM     42  C   UNL A   1      40.989  26.688  28.488  1.00  0.00     0.029 A 
ATOM     43  N   UNL A   1      43.137  27.137  28.061  1.00  0.00    -0.354 N 
ATOM     44  C   UNL A   1      44.742  31.108  28.592  1.00  0.00     0.074 A 
ATOM     45  C   UNL A   1      43.730  32.021  29.078  1.00  0.00     0.031 C 
ATOM     46  C   UNL A   1      41.555  25.556  28.039  1.00  0.00     0.029 A 
ATOM     47  C   UNL A   1      42.959  25.813  27.730  1.00  0.00     0.049 A 
ATOM     48  H   UNL A   1      44.000  27.602  27.967  1.00  0.00     0.167 HD
ATOM     49  C   UNL A   1      46.024  31.463  28.337  1.00  0.00     0.031 A 
ATOM     50  C   UNL A   1      43.825  24.908  27.234  1.00  0.00     0.031 A 
ATOM     51  C   UNL A   1      47.037  30.551  27.878  1.00  0.00     0.049 A 
ATOM     52  C   UNL A   1      45.250  25.318  26.981  1.00  0.00     0.074 A 
ATOM     53  C   UNL A   1      48.378  30.800  27.642  1.00  0.00     0.029 A 
ATOM     54  N   UNL A   1      46.822  29.211  27.591  1.00  0.00    -0.354 N 
ATOM     55  N   UNL A   1      45.811  26.492  27.149  1.00  0.00    -0.248 NA
ATOM     56  C   UNL A   1      46.162  24.277  26.487  1.00  0.00     0.031 C 
ATOM     57  C   UNL A   1      48.966  29.618  27.179  1.00  0.00     0.029 A 
ATOM     58  C   UNL A   1      48.003  28.622  27.173  1.00  0.00     0.049 A 
ATOM     59  H   UNL A   1      45.957  28.748  27.672  1.00  0.00     0.167 HD
ATOM     60  C   UNL A   1      47.150  26.322  26.812  1.00  0.00     0.074 A 
ATOM     61  C   UNL A   1      47.315  24.932  26.440  1.00  0.00     0.031 C 
ATOM     62  C   UNL A   1      48.152  27.235  26.815  1.00  0.00     0.031 A 
BRANCH  49  63
ATOM     63  C   UNL A   1      46.399  32.905  28.554  1.00  0.00    -0.014 A 
ATOM     64  C   UNL A   1      46.879  33.350  29.800  1.00  0.00     0.010 A 
ATOM     65  C   UNL A   1      46.291  33.824  27.495  1.00  0.00     0.010 A 
ATOM     66  C   UNL A   1      47.196  34.696  29.996  1.00  0.00     0.020 A 
ATOM     67  C   UNL A   1      46.636  35.167  27.679  1.00  0.00     0.020 A 
ATOM     68  C   UNL A   1      47.066  35.597  28.936  1.00  0.00     0.054 A 
BRANCH  68  69
ATOM     69  S   UNL A   1      47.496  37.337  29.215  1.00  0.00     0.124 S 
ATOM     70  O   UNL A   1      46.374  37.796  30.031  1.00  0.00    -0.237 OA
ATOM     71  O   UNL A   1      48.778  37.246  29.909  1.00  0.00    -0.237 OA
ATOM     72  O   UNL A   1      47.558  37.899  27.869  1.00  0.00    -0.744 OA
ENDBRANCH  68  69
ENDBRANCH  49  63
BRANCH  50  73
ATOM     73  C   UNL A   1      43.377  23.513  26.974  1.00  0.00    -0.014 A 
ATOM     74  C   UNL A   1      43.189  23.060  25.656  1.00  0.00     0.010 A 
ATOM     75  C   UNL A   1      43.144  22.626  28.041  1.00  0.00     0.010 A 
ATOM     76  C   UNL A   1      42.759  21.754  25.410  1.00  0.00     0.020 A 
ATOM     77  C   UNL A   1      42.738  21.311  27.797  1.00  0.00     0.020 A 
ATOM     78  C   UNL A   1      42.537  20.887  26.482  1.00  0.00     0.054 A 
BRANCH  78  79
ATOM     79  S   UNL A   1      42.028  19.179  26.138  1.00  0.00     0.124 S 
ATOM     80  O   UNL A   1      40.595  19.332  25.900  1.00  0.00    -0.237 OA
ATOM     81  O   UNL A   1      42.831  18.839  24.967  1.00  0.00    -0.237 OA
ATOM     82  O   UNL A   1      42.388  18.463  27.359  1.00  0.00    -0.744 OA
ENDBRANCH  78  79
ENDBRANCH  50  73
BRANCH  62  83
ATOM     83  C   UNL A   1      49.530  26.751  26.450  1.00  0.00    -0.014 A 
ATOM     84  C   UNL A   1      50.393  26.207  27.415  1.00  0.00     0.010 A 
ATOM     85  C   UNL A   1      49.943  26.800  25.105  1.00  0.00     0.010 A 
ATOM     86  C   UNL A   1      51.662  25.748  27.047  1.00  0.00     0.020 A 
ATOM     87  C   UNL A   1      51.199  26.318  24.730  1.00  0.00     0.020 A 
ATOM     88  C   UNL A   1      52.057  25.809  25.707  1.00  0.00     0.054 A 
BRANCH  88  89
ATOM     89  S   UNL A   1      53.691  25.170  25.245  1.00  0.00     0.124 S 
ATOM     90  O   UNL A   1      53.466  23.727  25.257  1.00  0.00    -0.237 OA
ATOM     91  O   UNL A   1      53.908  25.762  23.928  1.00  0.00    -0.237 OA
ATOM     92  O   UNL A   1      54.569  25.673  26.299  1.00  0.00    -0.744 OA
ENDBRANCH  88  89
ENDBRANCH  62  83
ENDBRANCH  36  37
ENDBRANCH  28  31
ENDBRANCH  26  27
ENDBRANCH  25  26
ENDBRANCH   1  25
TORSDOF 18
ENDMDL
