MODEL 1
REMARK VINA RESULT:      -8.7      0.000      0.000
REMARK SMILES Cc1csc([C@H](C)Nc2cc(C)c(N)c(C(=O)NCCCCNC(=O)c3ccc(-c4c5nc(c(-c6ccc(S(=O)(=O)[O-])cc6)c6ccc([nH]6)c(-c6ccc(S(=O)(=O)[O-])cc6)c6nc(c(-c7ccc(S(=O)(=O)[O-])cc7)c7ccc4[nH]7)C=C6)C=C5)cc3)c2)n1
REMARK SMILES IDX 20 1 19 2 18 3 16 4 17 5 15 7 9 8 10 9 86 10 11 11 12 12
REMARK SMILES IDX 13 13 8 14 6 16 7 17 5 18 1 19 2 20 3 21 87 22 4 23 14 24
REMARK SMILES IDX 21 27 22 28 23 29 24 30 25 32 26 33 27 34 85 35 28 36 84 37
REMARK SMILES IDX 29 38 30 39 31 40 78 41 32 42 83 43 77 44 79 45 33 46 82 47
REMARK SMILES IDX 76 48 75 49 34 51 64 52 45 53 63 54 46 55 49 56 62 57 80 58
REMARK SMILES IDX 47 59 48 60 61 62 81 63 50 64 35 65 36 66 44 67 37 68 43 69
REMARK SMILES IDX 38 70 39 71 40 72 41 73 42 74 65 75 66 76 74 77 67 78 73 79
REMARK SMILES IDX 68 80 69 81 70 82 71 83 72 84 51 85 52 86 60 87 53 88 59 89
REMARK SMILES IDX 54 90 55 91 56 92 57 93 58 94
REMARK H PARENT 18 6 8 15 14 25 14 26 23 31 79 50 49 61
REMARK Flexibility Score: inf
ROOT
ATOM      1  C   UNL A   1      36.839  33.228  30.067  1.00  0.00     0.023 C 
ENDROOT
BRANCH   1   2
ATOM      2  C   UNL A   1      37.139  34.012  31.349  1.00  0.00     0.116 C 
BRANCH   2   3
ATOM      3  N   UNL A   1      36.121  33.763  32.351  1.00  0.00    -0.352 N 
ATOM      4  C   UNL A   1      36.122  33.112  33.563  1.00  0.00     0.253 C 
ATOM      5  O   UNL A   1      35.034  33.074  34.145  1.00  0.00    -0.269 OA
ATOM      6  H   UNL A   1      35.242  34.137  32.113  1.00  0.00     0.163 HD
BRANCH   4   7
ATOM      7  C   UNL A   1      37.332  32.488  34.208  1.00  0.00     0.065 A 
ATOM      8  C   UNL A   1      39.246  30.948  34.135  1.00  0.00     0.036 A 
ATOM      9  C   UNL A   1      39.621  31.363  35.406  1.00  0.00     0.031 A 
ATOM     10  C   UNL A   1      38.100  31.509  33.567  1.00  0.00     0.041 A 
ATOM     11  C   UNL A   1      38.848  32.297  36.121  1.00  0.00    -0.025 A 
ATOM     12  C   UNL A   1      39.291  32.693  37.503  1.00  0.00     0.046 C 
ATOM     13  C   UNL A   1      37.688  32.858  35.533  1.00  0.00     0.047 A 
BRANCH   8  14
ATOM     14  N   UNL A   1      40.043  30.158  33.322  1.00  0.00    -0.376 N 
ATOM     15  H   UNL A   1      40.410  30.553  32.497  1.00  0.00     0.161 HD
BRANCH  14  16
ATOM     16  C   UNL A   1      40.363  28.760  33.634  1.00  0.00     0.135 C 
ATOM     17  C   UNL A   1      39.742  27.937  32.495  1.00  0.00     0.039 C 
BRANCH  16  18
ATOM     18  C   UNL A   1      41.861  28.494  33.795  1.00  0.00     0.115 A 
ATOM     19  C   UNL A   1      44.629  26.199  33.468  1.00  0.00     0.067 C 
ATOM     20  C   UNL A   1      43.803  27.401  33.750  1.00  0.00     0.049 A 
ATOM     21  C   UNL A   1      44.252  28.623  34.207  1.00  0.00     0.090 A 
ATOM     22  N   UNL A   1      42.437  27.331  33.537  1.00  0.00    -0.244 NA
ATOM     23  S   UNL A   1      42.954  29.731  34.296  1.00  0.00    -0.125 S 
ENDBRANCH  16  18
ENDBRANCH  14  16
ENDBRANCH   8  14
BRANCH  13  24
ATOM     24  N   UNL A   1      37.014  33.884  36.206  1.00  0.00    -0.398 N 
ATOM     25  H   UNL A   1      37.423  34.308  36.996  1.00  0.00     0.156 HD
ATOM     26  H   UNL A   1      36.129  34.182  35.891  1.00  0.00     0.156 HD
ENDBRANCH  13  24
ENDBRANCH   4   7
ENDBRANCH   2   3
ENDBRANCH   1   2
BRANCH   1  27
ATOM     27  C   UNL A   1      35.364  33.240  29.651  1.00  0.00     0.023 C 
BRANCH  27  28
ATOM     28  C   UNL A   1      35.113  33.001  28.165  1.00  0.00     0.116 C 
BRANCH  28  29
ATOM     29  N   UNL A   1      34.145  31.947  27.908  1.00  0.00    -0.352 N 
ATOM     30  C   UNL A   1      34.359  30.590  27.844  1.00  0.00     0.251 C 
ATOM     31  H   UNL A   1      33.218  32.242  27.761  1.00  0.00     0.163 HD
ATOM     32  O   UNL A   1      33.453  29.837  27.514  1.00  0.00    -0.269 OA
BRANCH  30  33
ATOM     33  C   UNL A   1      35.709  30.060  28.132  1.00  0.00     0.039 A 
ATOM     34  C   UNL A   1      36.652  30.033  27.101  1.00  0.00     0.014 A 
ATOM     35  C   UNL A   1      36.051  29.628  29.416  1.00  0.00     0.014 A 
ATOM     36  C   UNL A   1      37.960  29.632  27.375  1.00  0.00     0.010 A 
ATOM     37  C   UNL A   1      37.371  29.291  29.701  1.00  0.00     0.010 A 
ATOM     38  C   UNL A   1      38.337  29.291  28.684  1.00  0.00    -0.014 A 
BRANCH  38  39
ATOM     39  C   UNL A   1      39.742  28.940  29.010  1.00  0.00     0.031 A 
ATOM     40  C   UNL A   1      40.651  29.961  29.636  1.00  0.00     0.074 A 
ATOM     41  C   UNL A   1      40.215  27.722  28.679  1.00  0.00     0.049 A 
ATOM     42  N   UNL A   1      41.918  29.857  29.944  1.00  0.00    -0.248 NA
ATOM     43  C   UNL A   1      40.067  31.280  29.929  1.00  0.00     0.031 C 
ATOM     44  C   UNL A   1      39.446  26.662  28.022  1.00  0.00     0.029 A 
ATOM     45  N   UNL A   1      41.462  27.173  28.844  1.00  0.00    -0.354 N 
ATOM     46  C   UNL A   1      42.288  31.098  30.448  1.00  0.00     0.074 A 
ATOM     47  C   UNL A   1      41.123  31.952  30.363  1.00  0.00     0.031 C 
ATOM     48  C   UNL A   1      40.231  25.584  27.862  1.00  0.00     0.029 A 
ATOM     49  C   UNL A   1      41.564  25.886  28.371  1.00  0.00     0.049 A 
ATOM     50  H   UNL A   1      42.212  27.655  29.259  1.00  0.00     0.167 HD
ATOM     51  C   UNL A   1      43.483  31.487  30.953  1.00  0.00     0.031 A 
ATOM     52  C   UNL A   1      42.615  25.042  28.350  1.00  0.00     0.031 A 
ATOM     53  C   UNL A   1      44.634  30.628  31.051  1.00  0.00     0.049 A 
ATOM     54  C   UNL A   1      43.926  25.490  28.932  1.00  0.00     0.074 A 
ATOM     55  C   UNL A   1      45.872  30.910  31.602  1.00  0.00     0.029 A 
ATOM     56  N   UNL A   1      44.688  29.323  30.586  1.00  0.00    -0.354 N 
ATOM     57  N   UNL A   1      44.237  26.647  29.467  1.00  0.00    -0.248 NA
ATOM     58  C   UNL A   1      45.024  24.514  28.921  1.00  0.00     0.031 C 
ATOM     59  C   UNL A   1      46.689  29.786  31.435  1.00  0.00     0.029 A 
ATOM     60  C   UNL A   1      45.944  28.790  30.825  1.00  0.00     0.049 A 
ATOM     61  H   UNL A   1      43.945  28.846  30.153  1.00  0.00     0.167 HD
ATOM     62  C   UNL A   1      45.560  26.528  29.879  1.00  0.00     0.074 A 
ATOM     63  C   UNL A   1      45.984  25.185  29.544  1.00  0.00     0.031 C 
ATOM     64  C   UNL A   1      46.350  27.450  30.483  1.00  0.00     0.031 A 
BRANCH  51  65
ATOM     65  C   UNL A   1      43.602  32.907  31.437  1.00  0.00    -0.014 A 
ATOM     66  C   UNL A   1      44.060  33.928  30.583  1.00  0.00     0.010 A 
ATOM     67  C   UNL A   1      43.223  33.233  32.751  1.00  0.00     0.010 A 
ATOM     68  C   UNL A   1      44.182  35.239  31.049  1.00  0.00     0.020 A 
ATOM     69  C   UNL A   1      43.317  34.550  33.212  1.00  0.00     0.020 A 
ATOM     70  C   UNL A   1      43.814  35.540  32.363  1.00  0.00     0.054 A 
BRANCH  70  71
ATOM     71  S   UNL A   1      43.967  37.254  32.938  1.00  0.00     0.124 S 
ATOM     72  O   UNL A   1      45.314  37.261  33.505  1.00  0.00    -0.237 OA
ATOM     73  O   UNL A   1      43.801  38.022  31.708  1.00  0.00    -0.237 OA
ATOM     74  O   UNL A   1      42.883  37.393  33.907  1.00  0.00    -0.744 OA
ENDBRANCH  70  71
ENDBRANCH  51  65
BRANCH  52  75
ATOM     75  C   UNL A   1      42.458  23.677  27.778  1.00  0.00    -0.014 A 
ATOM     76  C   UNL A   1      42.910  23.396  26.477  1.00  0.00     0.010 A 
ATOM     77  C   UNL A   1      41.876  22.648  28.538  1.00  0.00     0.010 A 
ATOM     78  C   UNL A   1      42.766  22.114  25.939  1.00  0.00     0.020 A 
ATOM     79  C   UNL A   1      41.752  21.358  28.013  1.00  0.00     0.020 A 
ATOM     80  C   UNL A   1      42.189  21.102  26.711  1.00  0.00     0.054 A 
BRANCH  80  81
ATOM     81  S   UNL A   1      42.063  19.432  26.015  1.00  0.00     0.124 S 
ATOM     82  O   UNL A   1      40.637  19.329  25.728  1.00  0.00    -0.237 OA
ATOM     83  O   UNL A   1      42.940  19.507  24.848  1.00  0.00    -0.237 OA
ATOM     84  O   UNL A   1      42.551  18.574  27.094  1.00  0.00    -0.744 OA
ENDBRANCH  80  81
ENDBRANCH  52  75
BRANCH  64  85
ATOM     85  C   UNL A   1      47.747  27.028  30.849  1.00  0.00    -0.014 A 
ATOM     86  C   UNL A   1      48.835  27.297  30.000  1.00  0.00     0.010 A 
ATOM     87  C   UNL A   1      47.979  26.394  32.084  1.00  0.00     0.010 A 
ATOM     88  C   UNL A   1      50.127  26.914  30.367  1.00  0.00     0.020 A 
ATOM     89  C   UNL A   1      49.273  26.033  32.465  1.00  0.00     0.020 A 
ATOM     90  C   UNL A   1      50.338  26.281  31.597  1.00  0.00     0.054 A 
BRANCH  90  91
ATOM     91  S   UNL A   1      52.029  25.829  32.070  1.00  0.00     0.124 S 
ATOM     92  O   UNL A   1      51.861  24.448  32.515  1.00  0.00    -0.237 OA
ATOM     93  O   UNL A   1      52.770  26.004  30.824  1.00  0.00    -0.237 OA
ATOM     94  O   UNL A   1      52.361  26.787  33.123  1.00  0.00    -0.744 OA
ENDBRANCH  90  91
ENDBRANCH  64  85
ENDBRANCH  38  39
ENDBRANCH  30  33
ENDBRANCH  28  29
ENDBRANCH  27  28
ENDBRANCH   1  27
TORSDOF 18
ENDMDL
MODEL 2
REMARK VINA RESULT:      -8.3      4.707     11.064
REMARK SMILES Cc1csc([C@H](C)Nc2cc(C)c(N)c(C(=O)NCCCCNC(=O)c3ccc(-c4c5nc(c(-c6ccc(S(=O)(=O)[O-])cc6)c6ccc([nH]6)c(-c6ccc(S(=O)(=O)[O-])cc6)c6nc(c(-c7ccc(S(=O)(=O)[O-])cc7)c7ccc4[nH]7)C=C6)C=C5)cc3)c2)n1
REMARK SMILES IDX 20 1 19 2 18 3 16 4 17 5 15 7 9 8 10 9 86 10 11 11 12 12
REMARK SMILES IDX 13 13 8 14 6 16 7 17 5 18 1 19 2 20 3 21 87 22 4 23 14 24
REMARK SMILES IDX 21 27 22 28 23 29 24 30 25 32 26 33 27 34 85 35 28 36 84 37
REMARK SMILES IDX 29 38 30 39 31 40 78 41 32 42 83 43 77 44 79 45 33 46 82 47
REMARK SMILES IDX 76 48 75 49 34 51 64 52 45 53 63 54 46 55 49 56 62 57 80 58
REMARK SMILES IDX 47 59 48 60 61 62 81 63 50 64 35 65 36 66 44 67 37 68 43 69
REMARK SMILES IDX 38 70 39 71 40 72 41 73 42 74 65 75 66 76 74 77 67 78 73 79
REMARK SMILES IDX 68 80 69 81 70 82 71 83 72 84 51 85 52 86 60 87 53 88 59 89
REMARK SMILES IDX 54 90 55 91 56 92 57 93 58 94
REMARK H PARENT 18 6 8 15 14 25 14 26 23 31 79 50 49 61
REMARK Flexibility Score: inf
ROOT
ATOM      1  C   UNL A   1      33.748  31.239  27.619  1.00  0.00     0.023 C 
ENDROOT
BRANCH   1   2
ATOM      2  C   UNL A   1      33.007  30.082  26.941  1.00  0.00     0.116 C 
BRANCH   2   3
ATOM      3  N   UNL A   1      33.415  29.956  25.555  1.00  0.00    -0.352 N 
ATOM      4  C   UNL A   1      33.025  29.136  24.523  1.00  0.00     0.253 C 
ATOM      5  O   UNL A   1      33.628  29.300  23.457  1.00  0.00    -0.269 OA
ATOM      6  H   UNL A   1      34.121  30.592  25.298  1.00  0.00     0.163 HD
BRANCH   4   7
ATOM      7  C   UNL A   1      31.929  28.103  24.604  1.00  0.00     0.065 A 
ATOM      8  C   UNL A   1      31.069  25.951  25.419  1.00  0.00     0.036 A 
ATOM      9  C   UNL A   1      29.858  26.203  24.789  1.00  0.00     0.031 A 
ATOM     10  C   UNL A   1      32.087  26.901  25.302  1.00  0.00     0.041 A 
ATOM     11  C   UNL A   1      29.669  27.366  24.021  1.00  0.00    -0.025 A 
ATOM     12  C   UNL A   1      28.342  27.576  23.343  1.00  0.00     0.046 C 
ATOM     13  C   UNL A   1      30.709  28.321  23.910  1.00  0.00     0.047 A 
BRANCH   8  14
ATOM     14  N   UNL A   1      31.265  24.911  26.314  1.00  0.00    -0.376 N 
ATOM     15  H   UNL A   1      30.580  24.747  27.003  1.00  0.00     0.161 HD
BRANCH  14  16
ATOM     16  C   UNL A   1      32.448  24.042  26.281  1.00  0.00     0.135 C 
ATOM     17  C   UNL A   1      32.176  22.947  27.324  1.00  0.00     0.039 C 
BRANCH  16  18
ATOM     18  C   UNL A   1      32.749  23.466  24.896  1.00  0.00     0.115 A 
ATOM     19  C   UNL A   1      31.975  21.033  22.343  1.00  0.00     0.067 C 
ATOM     20  C   UNL A   1      32.592  22.149  23.105  1.00  0.00     0.049 A 
ATOM     21  C   UNL A   1      33.605  22.981  22.675  1.00  0.00     0.090 A 
ATOM     22  N   UNL A   1      32.124  22.421  24.379  1.00  0.00    -0.244 NA
ATOM     23  S   UNL A   1      33.926  24.176  23.853  1.00  0.00    -0.125 S 
ENDBRANCH  16  18
ENDBRANCH  14  16
ENDBRANCH   8  14
BRANCH  13  24
ATOM     24  N   UNL A   1      30.452  29.533  23.256  1.00  0.00    -0.398 N 
ATOM     25  H   UNL A   1      30.065  30.290  23.754  1.00  0.00     0.156 HD
ATOM     26  H   UNL A   1      30.658  29.628  22.297  1.00  0.00     0.156 HD
ENDBRANCH  13  24
ENDBRANCH   4   7
ENDBRANCH   2   3
ENDBRANCH   1   2
BRANCH   1  27
ATOM     27  C   UNL A   1      35.274  31.094  27.627  1.00  0.00     0.023 C 
BRANCH  27  28
ATOM     28  C   UNL A   1      35.972  31.715  28.832  1.00  0.00     0.116 C 
BRANCH  28  29
ATOM     29  N   UNL A   1      35.776  30.961  30.061  1.00  0.00    -0.352 N 
ATOM     30  C   UNL A   1      36.663  30.130  30.703  1.00  0.00     0.251 C 
ATOM     31  H   UNL A   1      34.895  31.059  30.488  1.00  0.00     0.163 HD
ATOM     32  O   UNL A   1      36.309  29.483  31.679  1.00  0.00    -0.269 OA
BRANCH  30  33
ATOM     33  C   UNL A   1      38.035  29.992  30.167  1.00  0.00     0.039 A 
ATOM     34  C   UNL A   1      39.103  29.941  31.068  1.00  0.00     0.014 A 
ATOM     35  C   UNL A   1      38.262  29.880  28.794  1.00  0.00     0.014 A 
ATOM     36  C   UNL A   1      40.395  29.711  30.591  1.00  0.00     0.010 A 
ATOM     37  C   UNL A   1      39.539  29.587  28.327  1.00  0.00     0.010 A 
ATOM     38  C   UNL A   1      40.617  29.498  29.221  1.00  0.00    -0.014 A 
BRANCH  38  39
ATOM     39  C   UNL A   1      41.970  29.172  28.706  1.00  0.00     0.031 A 
ATOM     40  C   UNL A   1      42.284  27.780  28.231  1.00  0.00     0.074 A 
ATOM     41  C   UNL A   1      42.933  30.115  28.730  1.00  0.00     0.049 A 
ATOM     42  N   UNL A   1      43.418  27.294  27.798  1.00  0.00    -0.248 NA
ATOM     43  C   UNL A   1      41.186  26.800  28.275  1.00  0.00     0.031 C 
ATOM     44  C   UNL A   1      42.767  31.488  29.213  1.00  0.00     0.029 A 
ATOM     45  N   UNL A   1      44.249  30.057  28.343  1.00  0.00    -0.354 N 
ATOM     46  C   UNL A   1      43.178  25.950  27.536  1.00  0.00     0.074 A 
ATOM     47  C   UNL A   1      41.803  25.688  27.901  1.00  0.00     0.031 C 
ATOM     48  C   UNL A   1      43.928  32.147  29.073  1.00  0.00     0.029 A 
ATOM     49  C   UNL A   1      44.928  31.239  28.522  1.00  0.00     0.049 A 
ATOM     50  H   UNL A   1      44.667  29.247  27.974  1.00  0.00     0.167 HD
ATOM     51  C   UNL A   1      44.020  25.023  27.020  1.00  0.00     0.031 A 
ATOM     52  C   UNL A   1      46.213  31.556  28.272  1.00  0.00     0.031 A 
ATOM     53  C   UNL A   1      45.382  25.293  26.642  1.00  0.00     0.049 A 
ATOM     54  C   UNL A   1      47.124  30.515  27.684  1.00  0.00     0.074 A 
ATOM     55  C   UNL A   1      46.297  24.437  26.056  1.00  0.00     0.029 A 
ATOM     56  N   UNL A   1      46.024  26.510  26.815  1.00  0.00    -0.354 N 
ATOM     57  N   UNL A   1      46.859  29.267  27.380  1.00  0.00    -0.248 NA
ATOM     58  C   UNL A   1      48.504  30.930  27.393  1.00  0.00     0.031 C 
ATOM     59  C   UNL A   1      47.507  25.125  25.910  1.00  0.00     0.029 A 
ATOM     60  C   UNL A   1      47.329  26.423  26.360  1.00  0.00     0.049 A 
ATOM     61  H   UNL A   1      45.613  27.316  27.202  1.00  0.00     0.167 HD
ATOM     62  C   UNL A   1      48.032  28.754  26.837  1.00  0.00     0.074 A 
ATOM     63  C   UNL A   1      49.002  29.830  26.843  1.00  0.00     0.031 C 
ATOM     64  C   UNL A   1      48.282  27.505  26.374  1.00  0.00     0.031 A 
BRANCH  51  65
ATOM     65  C   UNL A   1      43.486  23.628  26.839  1.00  0.00    -0.014 A 
ATOM     66  C   UNL A   1      43.218  23.116  25.555  1.00  0.00     0.010 A 
ATOM     67  C   UNL A   1      43.277  22.806  27.961  1.00  0.00     0.010 A 
ATOM     68  C   UNL A   1      42.706  21.825  25.401  1.00  0.00     0.020 A 
ATOM     69  C   UNL A   1      42.791  21.504  27.808  1.00  0.00     0.020 A 
ATOM     70  C   UNL A   1      42.491  21.030  26.530  1.00  0.00     0.054 A 
BRANCH  70  71
ATOM     71  S   UNL A   1      41.841  19.351  26.300  1.00  0.00     0.124 S 
ATOM     72  O   UNL A   1      42.201  18.715  27.566  1.00  0.00    -0.237 OA
ATOM     73  O   UNL A   1      40.414  19.583  26.098  1.00  0.00    -0.237 OA
ATOM     74  O   UNL A   1      42.561  18.858  25.128  1.00  0.00    -0.744 OA
ENDBRANCH  70  71
ENDBRANCH  51  65
BRANCH  52  75
ATOM     75  C   UNL A   1      46.706  32.932  28.556  1.00  0.00    -0.014 A 
ATOM     76  C   UNL A   1      47.255  33.246  29.812  1.00  0.00     0.010 A 
ATOM     77  C   UNL A   1      46.648  33.928  27.565  1.00  0.00     0.010 A 
ATOM     78  C   UNL A   1      47.720  34.537  30.078  1.00  0.00     0.020 A 
ATOM     79  C   UNL A   1      47.135  35.214  27.820  1.00  0.00     0.020 A 
ATOM     80  C   UNL A   1      47.659  35.512  29.079  1.00  0.00     0.054 A 
BRANCH  80  81
ATOM     81  S   UNL A   1      48.321  37.165  29.428  1.00  0.00     0.124 S 
ATOM     82  O   UNL A   1      49.508  37.202  28.582  1.00  0.00    -0.237 OA
ATOM     83  O   UNL A   1      47.223  38.039  29.019  1.00  0.00    -0.237 OA
ATOM     84  O   UNL A   1      48.576  37.134  30.867  1.00  0.00    -0.744 OA
ENDBRANCH  80  81
ENDBRANCH  52  75
BRANCH  64  85
ATOM     85  C   UNL A   1      49.649  27.240  25.805  1.00  0.00    -0.014 A 
ATOM     86  C   UNL A   1      50.659  26.647  26.584  1.00  0.00     0.010 A 
ATOM     87  C   UNL A   1      49.910  27.545  24.457  1.00  0.00     0.010 A 
ATOM     88  C   UNL A   1      51.916  26.391  26.031  1.00  0.00     0.020 A 
ATOM     89  C   UNL A   1      51.158  27.268  23.894  1.00  0.00     0.020 A 
ATOM     90  C   UNL A   1      52.159  26.706  24.689  1.00  0.00     0.054 A 
BRANCH  90  91
ATOM     91  S   UNL A   1      53.786  26.328  23.983  1.00  0.00     0.124 S 
ATOM     92  O   UNL A   1      54.187  25.155  24.754  1.00  0.00    -0.237 OA
ATOM     93  O   UNL A   1      53.478  26.082  22.577  1.00  0.00    -0.237 OA
ATOM     94  O   UNL A   1      54.563  27.539  24.239  1.00  0.00    -0.744 OA
ENDBRANCH  90  91
ENDBRANCH  64  85
ENDBRANCH  38  39
ENDBRANCH  30  33
ENDBRANCH  28  29
ENDBRANCH  27  28
ENDBRANCH   1  27
TORSDOF 18
ENDMDL
MODEL 3
REMARK VINA RESULT:      -7.8      5.004     11.780
REMARK SMILES Cc1csc([C@H](C)Nc2cc(C)c(N)c(C(=O)NCCCCNC(=O)c3ccc(-c4c5nc(c(-c6ccc(S(=O)(=O)[O-])cc6)c6ccc([nH]6)c(-c6ccc(S(=O)(=O)[O-])cc6)c6nc(c(-c7ccc(S(=O)(=O)[O-])cc7)c7ccc4[nH]7)C=C6)C=C5)cc3)c2)n1
REMARK SMILES IDX 20 1 19 2 18 3 16 4 17 5 15 7 9 8 10 9 86 10 11 11 12 12
REMARK SMILES IDX 13 13 8 14 6 16 7 17 5 18 1 19 2 20 3 21 87 22 4 23 14 24
REMARK SMILES IDX 21 27 22 28 23 29 24 30 25 32 26 33 27 34 85 35 28 36 84 37
REMARK SMILES IDX 29 38 30 39 31 40 78 41 32 42 83 43 77 44 79 45 33 46 82 47
REMARK SMILES IDX 76 48 75 49 34 51 64 52 45 53 63 54 46 55 49 56 62 57 80 58
REMARK SMILES IDX 47 59 48 60 61 62 81 63 50 64 35 65 36 66 44 67 37 68 43 69
REMARK SMILES IDX 38 70 39 71 40 72 41 73 42 74 65 75 66 76 74 77 67 78 73 79
REMARK SMILES IDX 68 80 69 81 70 82 71 83 72 84 51 85 52 86 60 87 53 88 59 89
REMARK SMILES IDX 54 90 55 91 56 92 57 93 58 94
REMARK H PARENT 18 6 8 15 14 25 14 26 23 31 79 50 49 61
REMARK Flexibility Score: inf
ROOT
ATOM      1  C   UNL A   1      36.035  22.248  24.019  1.00  0.00     0.023 C 
ENDROOT
BRANCH   1   2
ATOM      2  C   UNL A   1      34.949  21.498  24.798  1.00  0.00     0.116 C 
BRANCH   2   3
ATOM      3  N   UNL A   1      33.946  20.968  23.895  1.00  0.00    -0.352 N 
ATOM      4  C   UNL A   1      32.691  21.385  23.521  1.00  0.00     0.253 C 
ATOM      5  O   UNL A   1      32.099  20.645  22.729  1.00  0.00    -0.269 OA
ATOM      6  H   UNL A   1      34.222  20.130  23.458  1.00  0.00     0.163 HD
BRANCH   4   7
ATOM      7  C   UNL A   1      32.028  22.657  23.985  1.00  0.00     0.065 A 
ATOM      8  C   UNL A   1      31.485  25.032  23.662  1.00  0.00     0.036 A 
ATOM      9  C   UNL A   1      30.745  25.016  24.837  1.00  0.00     0.031 A 
ATOM     10  C   UNL A   1      32.124  23.854  23.267  1.00  0.00     0.041 A 
ATOM     11  C   UNL A   1      30.669  23.856  25.630  1.00  0.00    -0.025 A 
ATOM     12  C   UNL A   1      29.870  23.904  26.905  1.00  0.00     0.046 C 
ATOM     13  C   UNL A   1      31.322  22.669  25.218  1.00  0.00     0.047 A 
BRANCH   8  14
ATOM     14  N   UNL A   1      31.468  26.085  22.762  1.00  0.00    -0.376 N 
ATOM     15  H   UNL A   1      31.061  25.941  21.876  1.00  0.00     0.161 HD
BRANCH  14  16
ATOM     16  C   UNL A   1      32.033  27.405  23.068  1.00  0.00     0.135 C 
ATOM     17  C   UNL A   1      33.148  27.620  22.033  1.00  0.00     0.039 C 
BRANCH  16  18
ATOM     18  C   UNL A   1      31.000  28.533  23.054  1.00  0.00     0.115 A 
ATOM     19  C   UNL A   1      28.278  30.189  21.356  1.00  0.00     0.067 C 
ATOM     20  C   UNL A   1      29.326  29.822  22.342  1.00  0.00     0.049 A 
ATOM     21  C   UNL A   1      29.576  30.438  23.550  1.00  0.00     0.090 A 
ATOM     22  N   UNL A   1      30.155  28.749  22.059  1.00  0.00    -0.244 NA
ATOM     23  S   UNL A   1      30.818  29.614  24.387  1.00  0.00    -0.125 S 
ENDBRANCH  16  18
ENDBRANCH  14  16
ENDBRANCH   8  14
BRANCH  13  24
ATOM     24  N   UNL A   1      31.120  21.492  25.951  1.00  0.00    -0.398 N 
ATOM     25  H   UNL A   1      30.209  21.227  26.215  1.00  0.00     0.156 HD
ATOM     26  H   UNL A   1      31.889  20.931  26.202  1.00  0.00     0.156 HD
ENDBRANCH  13  24
ENDBRANCH   4   7
ENDBRANCH   2   3
ENDBRANCH   1   2
BRANCH   1  27
ATOM     27  C   UNL A   1      36.573  23.496  24.727  1.00  0.00     0.023 C 
BRANCH  27  28
ATOM     28  C   UNL A   1      37.179  23.242  26.104  1.00  0.00     0.116 C 
BRANCH  28  29
ATOM     29  N   UNL A   1      38.278  22.290  26.081  1.00  0.00    -0.352 N 
ATOM     30  C   UNL A   1      39.604  22.510  26.375  1.00  0.00     0.251 C 
ATOM     31  H   UNL A   1      38.044  21.370  25.821  1.00  0.00     0.163 HD
ATOM     32  O   UNL A   1      40.429  21.623  26.208  1.00  0.00    -0.269 OA
BRANCH  30  33
ATOM     33  C   UNL A   1      40.022  23.847  26.849  1.00  0.00     0.039 A 
ATOM     34  C   UNL A   1      40.405  23.994  28.185  1.00  0.00     0.014 A 
ATOM     35  C   UNL A   1      40.068  24.936  25.976  1.00  0.00     0.014 A 
ATOM     36  C   UNL A   1      40.899  25.221  28.629  1.00  0.00     0.010 A 
ATOM     37  C   UNL A   1      40.621  26.140  26.403  1.00  0.00     0.010 A 
ATOM     38  C   UNL A   1      41.043  26.293  27.732  1.00  0.00    -0.014 A 
BRANCH  38  39
ATOM     39  C   UNL A   1      41.640  27.580  28.167  1.00  0.00     0.031 A 
ATOM     40  C   UNL A   1      43.130  27.776  28.121  1.00  0.00     0.074 A 
ATOM     41  C   UNL A   1      40.844  28.546  28.666  1.00  0.00     0.049 A 
ATOM     42  N   UNL A   1      43.838  28.807  28.505  1.00  0.00    -0.248 NA
ATOM     43  C   UNL A   1      43.931  26.657  27.599  1.00  0.00     0.031 C 
ATOM     44  C   UNL A   1      39.388  28.457  28.810  1.00  0.00     0.029 A 
ATOM     45  N   UNL A   1      41.149  29.793  29.153  1.00  0.00    -0.354 N 
ATOM     46  C   UNL A   1      45.165  28.455  28.291  1.00  0.00     0.074 A 
ATOM     47  C   UNL A   1      45.167  27.100  27.784  1.00  0.00     0.031 C 
ATOM     48  C   UNL A   1      38.927  29.608  29.326  1.00  0.00     0.029 A 
ATOM     49  C   UNL A   1      40.051  30.501  29.581  1.00  0.00     0.049 A 
ATOM     50  H   UNL A   1      42.067  30.145  29.193  1.00  0.00     0.167 HD
ATOM     51  C   UNL A   1      46.281  29.199  28.481  1.00  0.00     0.031 A 
ATOM     52  C   UNL A   1      39.960  31.733  30.120  1.00  0.00     0.031 A 
ATOM     53  C   UNL A   1      46.274  30.553  28.968  1.00  0.00     0.049 A 
ATOM     54  C   UNL A   1      41.211  32.546  30.305  1.00  0.00     0.074 A 
ATOM     55  C   UNL A   1      47.345  31.411  29.138  1.00  0.00     0.029 A 
ATOM     56  N   UNL A   1      45.139  31.244  29.365  1.00  0.00    -0.354 N 
ATOM     57  N   UNL A   1      42.452  32.221  30.032  1.00  0.00    -0.248 NA
ATOM     58  C   UNL A   1      41.046  33.898  30.857  1.00  0.00     0.031 C 
ATOM     59  C   UNL A   1      46.863  32.610  29.675  1.00  0.00     0.029 A 
ATOM     60  C   UNL A   1      45.486  32.514  29.794  1.00  0.00     0.049 A 
ATOM     61  H   UNL A   1      44.223  30.885  29.344  1.00  0.00     0.167 HD
ATOM     62  C   UNL A   1      43.214  33.338  30.355  1.00  0.00     0.074 A 
ATOM     63  C   UNL A   1      42.293  34.350  30.831  1.00  0.00     0.031 C 
ATOM     64  C   UNL A   1      44.556  33.509  30.264  1.00  0.00     0.031 A 
BRANCH  51  65
ATOM     65  C   UNL A   1      47.604  28.558  28.159  1.00  0.00    -0.014 A 
ATOM     66  C   UNL A   1      48.311  27.826  29.132  1.00  0.00     0.010 A 
ATOM     67  C   UNL A   1      48.136  28.661  26.861  1.00  0.00     0.010 A 
ATOM     68  C   UNL A   1      49.546  27.250  28.826  1.00  0.00     0.020 A 
ATOM     69  C   UNL A   1      49.358  28.062  26.544  1.00  0.00     0.020 A 
ATOM     70  C   UNL A   1      50.064  27.376  27.534  1.00  0.00     0.054 A 
BRANCH  70  71
ATOM     71  S   UNL A   1      51.663  26.605  27.158  1.00  0.00     0.124 S 
ATOM     72  O   UNL A   1      51.950  27.143  25.830  1.00  0.00    -0.237 OA
ATOM     73  O   UNL A   1      52.519  27.098  28.233  1.00  0.00    -0.237 OA
ATOM     74  O   UNL A   1      51.375  25.173  27.202  1.00  0.00    -0.744 OA
ENDBRANCH  70  71
ENDBRANCH  51  65
BRANCH  52  75
ATOM     75  C   UNL A   1      38.629  32.279  30.499  1.00  0.00    -0.014 A 
ATOM     76  C   UNL A   1      38.102  32.041  31.780  1.00  0.00     0.010 A 
ATOM     77  C   UNL A   1      37.892  33.058  29.588  1.00  0.00     0.010 A 
ATOM     78  C   UNL A   1      36.853  32.557  32.138  1.00  0.00     0.020 A 
ATOM     79  C   UNL A   1      36.653  33.595  29.952  1.00  0.00     0.020 A 
ATOM     80  C   UNL A   1      36.137  33.332  31.223  1.00  0.00     0.054 A 
BRANCH  80  81
ATOM     81  S   UNL A   1      34.544  34.038  31.728  1.00  0.00     0.124 S 
ATOM     82  O   UNL A   1      34.954  35.275  32.382  1.00  0.00    -0.237 OA
ATOM     83  O   UNL A   1      33.848  34.196  30.453  1.00  0.00    -0.237 OA
ATOM     84  O   UNL A   1      33.983  33.016  32.610  1.00  0.00    -0.744 OA
ENDBRANCH  80  81
ENDBRANCH  52  75
BRANCH  64  85
ATOM     85  C   UNL A   1      45.108  34.852  30.659  1.00  0.00    -0.014 A 
ATOM     86  C   UNL A   1      45.521  35.111  31.978  1.00  0.00     0.010 A 
ATOM     87  C   UNL A   1      45.261  35.853  29.682  1.00  0.00     0.010 A 
ATOM     88  C   UNL A   1      46.049  36.358  32.320  1.00  0.00     0.020 A 
ATOM     89  C   UNL A   1      45.813  37.092  30.014  1.00  0.00     0.020 A 
ATOM     90  C   UNL A   1      46.190  37.342  31.335  1.00  0.00     0.054 A 
BRANCH  90  91
ATOM     91  S   UNL A   1      46.916  38.940  31.793  1.00  0.00     0.124 S 
ATOM     92  O   UNL A   1      47.647  39.300  30.581  1.00  0.00    -0.237 OA
ATOM     93  O   UNL A   1      45.741  39.757  32.084  1.00  0.00    -0.237 OA
ATOM     94  O   UNL A   1      47.747  38.622  32.952  1.00  0.00    -0.744 OA
ENDBRANCH  90  91
ENDBRANCH  64  85
ENDBRANCH  38  39
ENDBRANCH  30  33
ENDBRANCH  28  29
ENDBRANCH  27  28
ENDBRANCH   1  27
TORSDOF 18
ENDMDL
