MODEL 1
REMARK VINA RESULT:     -11.3      0.000      0.000
REMARK SMILES C[C@@H]1[C@@H](C(=O)NCCCCNC(=O)c2ccc(-c3c4nc(c(-c5ccc(S(=O)(=O)[O-])cc5)c5ccc([nH]5)c(-c5ccc(S(=O)(=O)[O-])cc5)c5nc(c(-c6ccc(S(=O)(=O)[O-])cc6)c6ccc3[nH]6)C=C5)C=C4)cc2)CCN1C(=O)[C@@H]1CCCN(C(N)=O)C1
REMARK SMILES IDX 8 1 7 2 6 3 4 4 5 5 3 7 1 8 2 9 76 10 74 11 75 12 77 13
REMARK SMILES IDX 78 14 79 15 80 16 87 17 81 18 83 19 82 20 84 21 85 22 86 23
REMARK SMILES IDX 9 26 10 27 11 28 12 29 13 31 14 32 15 33 73 34 16 35 72 36
REMARK SMILES IDX 17 37 18 38 19 39 66 40 20 41 71 42 65 43 67 44 21 45 70 46
REMARK SMILES IDX 64 47 63 48 22 50 52 51 33 52 51 53 34 54 37 55 50 56 68 57
REMARK SMILES IDX 35 58 36 59 49 61 69 62 38 63 23 64 24 65 32 66 25 67 31 68
REMARK SMILES IDX 26 69 27 70 28 71 29 72 30 73 53 74 54 75 62 76 55 77 61 78
REMARK SMILES IDX 56 79 57 80 58 81 59 82 60 83 39 84 40 85 48 86 41 87 47 88
REMARK SMILES IDX 42 89 43 90 44 91 45 92 46 93
REMARK H PARENT 6 6 85 24 85 25 11 30 67 49 37 60
REMARK Flexibility Score: inf
ROOT
ATOM      1  C   UNL A   1      34.200  23.072  27.223  1.00  0.00     0.023 C 
ENDROOT
BRANCH   1   2
ATOM      2  C   UNL A   1      32.741  22.697  27.000  1.00  0.00     0.116 C 
BRANCH   2   3
ATOM      3  N   UNL A   1      31.867  23.848  26.860  1.00  0.00    -0.356 N 
ATOM      4  C   UNL A   1      31.158  24.250  25.763  1.00  0.00     0.225 C 
ATOM      5  O   UNL A   1      30.311  25.129  25.904  1.00  0.00    -0.275 OA
ATOM      6  H   UNL A   1      31.773  24.413  27.661  1.00  0.00     0.163 HD
BRANCH   4   7
ATOM      7  C   UNL A   1      31.434  23.563  24.436  1.00  0.00     0.102 C 
ATOM      8  C   UNL A   1      33.222  22.826  22.854  1.00  0.00     0.032 C 
ATOM      9  C   UNL A   1      32.783  23.958  23.797  1.00  0.00     0.094 C 
ATOM     10  N   UNL A   1      32.482  25.184  23.047  1.00  0.00    -0.339 N 
ATOM     11  C   UNL A   1      30.427  24.027  23.382  1.00  0.00     0.037 C 
ATOM     12  C   UNL A   1      31.042  25.317  22.866  1.00  0.00     0.120 C 
BRANCH  10  13
ATOM     13  C   UNL A   1      33.270  26.246  22.672  1.00  0.00     0.227 C 
ATOM     14  O   UNL A   1      33.965  26.136  21.648  1.00  0.00    -0.275 OA
BRANCH  13  15
ATOM     15  C   UNL A   1      33.335  27.597  23.400  1.00  0.00     0.098 C 
ATOM     16  C   UNL A   1      33.155  27.630  24.916  1.00  0.00     0.017 C 
ATOM     17  C   UNL A   1      32.640  28.735  22.661  1.00  0.00     0.134 C 
ATOM     18  C   UNL A   1      31.802  28.127  25.416  1.00  0.00     0.022 C 
ATOM     19  N   UNL A   1      31.295  29.015  23.154  1.00  0.00    -0.324 N 
ATOM     20  C   UNL A   1      31.182  29.243  24.587  1.00  0.00     0.121 C 
BRANCH  19  21
ATOM     21  C   UNL A   1      30.229  29.365  22.353  1.00  0.00     0.314 C 
ATOM     22  N   UNL A   1      30.152  30.660  21.983  1.00  0.00    -0.351 N 
ATOM     23  O   UNL A   1      29.363  28.579  21.981  1.00  0.00    -0.249 OA
ATOM     24  H   UNL A   1      30.842  31.299  22.276  1.00  0.00     0.161 HD
ATOM     25  H   UNL A   1      29.404  30.967  21.419  1.00  0.00     0.161 HD
ENDBRANCH  19  21
ENDBRANCH  13  15
ENDBRANCH  10  13
ENDBRANCH   4   7
ENDBRANCH   2   3
ENDBRANCH   1   2
BRANCH   1  26
ATOM     26  C   UNL A   1      35.177  22.577  26.156  1.00  0.00     0.023 C 
BRANCH  26  27
ATOM     27  C   UNL A   1      36.464  23.382  26.016  1.00  0.00     0.116 C 
BRANCH  27  28
ATOM     28  N   UNL A   1      37.651  22.547  25.911  1.00  0.00    -0.352 N 
ATOM     29  C   UNL A   1      38.953  22.847  26.232  1.00  0.00     0.251 C 
ATOM     30  H   UNL A   1      37.499  21.641  25.560  1.00  0.00     0.163 HD
ATOM     31  O   UNL A   1      39.849  22.050  25.963  1.00  0.00    -0.269 OA
BRANCH  29  32
ATOM     32  C   UNL A   1      39.267  24.142  26.864  1.00  0.00     0.039 A 
ATOM     33  C   UNL A   1      38.877  24.360  28.187  1.00  0.00     0.014 A 
ATOM     34  C   UNL A   1      39.976  25.123  26.165  1.00  0.00     0.014 A 
ATOM     35  C   UNL A   1      39.257  25.537  28.831  1.00  0.00     0.010 A 
ATOM     36  C   UNL A   1      40.424  26.257  26.835  1.00  0.00     0.010 A 
ATOM     37  C   UNL A   1      40.062  26.479  28.172  1.00  0.00    -0.014 A 
BRANCH  37  38
ATOM     38  C   UNL A   1      40.521  27.715  28.855  1.00  0.00     0.031 A 
ATOM     39  C   UNL A   1      41.899  27.771  29.455  1.00  0.00     0.074 A 
ATOM     40  C   UNL A   1      39.680  28.760  28.989  1.00  0.00     0.049 A 
ATOM     41  N   UNL A   1      42.463  28.731  30.141  1.00  0.00    -0.248 NA
ATOM     42  C   UNL A   1      42.746  26.577  29.285  1.00  0.00     0.031 C 
ATOM     43  C   UNL A   1      38.304  28.813  28.487  1.00  0.00     0.029 A 
ATOM     44  N   UNL A   1      39.860  29.980  29.592  1.00  0.00    -0.354 N 
ATOM     45  C   UNL A   1      43.717  28.252  30.501  1.00  0.00     0.074 A 
ATOM     46  C   UNL A   1      43.811  26.896  30.006  1.00  0.00     0.031 C 
ATOM     47  C   UNL A   1      37.778  30.015  28.776  1.00  0.00     0.029 A 
ATOM     48  C   UNL A   1      38.760  30.801  29.516  1.00  0.00     0.049 A 
ATOM     49  H   UNL A   1      40.698  30.242  30.037  1.00  0.00     0.167 HD
ATOM     50  C   UNL A   1      44.712  28.888  31.163  1.00  0.00     0.031 A 
ATOM     51  C   UNL A   1      38.563  32.047  29.988  1.00  0.00     0.031 A 
ATOM     52  C   UNL A   1      44.621  30.242  31.640  1.00  0.00     0.049 A 
ATOM     53  C   UNL A   1      39.683  32.738  30.719  1.00  0.00     0.074 A 
ATOM     54  C   UNL A   1      45.590  30.997  32.278  1.00  0.00     0.029 A 
ATOM     55  N   UNL A   1      43.496  31.045  31.526  1.00  0.00    -0.354 N 
ATOM     56  N   UNL A   1      40.883  32.287  31.001  1.00  0.00    -0.248 NA
ATOM     57  C   UNL A   1      39.428  34.109  31.181  1.00  0.00     0.031 C 
ATOM     58  C   UNL A   1      45.034  32.242  32.591  1.00  0.00     0.029 A 
ATOM     59  C   UNL A   1      43.740  32.283  32.095  1.00  0.00     0.049 A 
ATOM     60  H   UNL A   1      42.649  30.775  31.103  1.00  0.00     0.167 HD
ATOM     61  C   UNL A   1      41.538  33.332  31.644  1.00  0.00     0.074 A 
ATOM     62  C   UNL A   1      40.603  34.438  31.701  1.00  0.00     0.031 C 
ATOM     63  C   UNL A   1      42.800  33.374  32.138  1.00  0.00     0.031 A 
BRANCH  50  64
ATOM     64  C   UNL A   1      45.982  28.117  31.412  1.00  0.00    -0.014 A 
ATOM     65  C   UNL A   1      47.041  28.143  30.485  1.00  0.00     0.010 A 
ATOM     66  C   UNL A   1      46.127  27.368  32.593  1.00  0.00     0.010 A 
ATOM     67  C   UNL A   1      48.199  27.393  30.710  1.00  0.00     0.020 A 
ATOM     68  C   UNL A   1      47.297  26.642  32.837  1.00  0.00     0.020 A 
ATOM     69  C   UNL A   1      48.317  26.642  31.883  1.00  0.00     0.054 A 
BRANCH  69  70
ATOM     70  S   UNL A   1      49.833  25.686  32.154  1.00  0.00     0.124 S 
ATOM     71  O   UNL A   1      50.760  26.717  32.614  1.00  0.00    -0.237 OA
ATOM     72  O   UNL A   1      49.423  24.715  33.166  1.00  0.00    -0.237 OA
ATOM     73  O   UNL A   1      50.128  25.124  30.840  1.00  0.00    -0.744 OA
ENDBRANCH  69  70
ENDBRANCH  50  64
BRANCH  51  74
ATOM     74  C   UNL A   1      37.263  32.734  29.757  1.00  0.00    -0.014 A 
ATOM     75  C   UNL A   1      36.272  32.736  30.754  1.00  0.00     0.010 A 
ATOM     76  C   UNL A   1      37.014  33.406  28.546  1.00  0.00     0.010 A 
ATOM     77  C   UNL A   1      35.051  33.382  30.540  1.00  0.00     0.020 A 
ATOM     78  C   UNL A   1      35.805  34.076  28.338  1.00  0.00     0.020 A 
ATOM     79  C   UNL A   1      34.826  34.051  29.333  1.00  0.00     0.054 A 
BRANCH  79  80
ATOM     80  S   UNL A   1      33.257  34.930  29.100  1.00  0.00     0.124 S 
ATOM     81  O   UNL A   1      32.698  34.916  30.448  1.00  0.00    -0.237 OA
ATOM     82  O   UNL A   1      33.694  36.235  28.610  1.00  0.00    -0.237 OA
ATOM     83  O   UNL A   1      32.547  34.111  28.119  1.00  0.00    -0.744 OA
ENDBRANCH  79  80
ENDBRANCH  51  74
BRANCH  63  84
ATOM     84  C   UNL A   1      43.265  34.672  32.743  1.00  0.00    -0.014 A 
ATOM     85  C   UNL A   1      43.842  35.683  31.955  1.00  0.00     0.010 A 
ATOM     86  C   UNL A   1      43.067  34.900  34.117  1.00  0.00     0.010 A 
ATOM     87  C   UNL A   1      44.245  36.888  32.538  1.00  0.00     0.020 A 
ATOM     88  C   UNL A   1      43.442  36.114  34.698  1.00  0.00     0.020 A 
ATOM     89  C   UNL A   1      44.043  37.095  33.907  1.00  0.00     0.054 A 
BRANCH  89  90
ATOM     90  S   UNL A   1      44.535  38.682  34.633  1.00  0.00     0.124 S 
ATOM     91  O   UNL A   1      45.979  38.678  34.421  1.00  0.00    -0.237 OA
ATOM     92  O   UNL A   1      43.784  39.647  33.833  1.00  0.00    -0.237 OA
ATOM     93  O   UNL A   1      44.109  38.573  36.026  1.00  0.00    -0.744 OA
ENDBRANCH  89  90
ENDBRANCH  63  84
ENDBRANCH  37  38
ENDBRANCH  29  32
ENDBRANCH  27  28
ENDBRANCH  26  27
ENDBRANCH   1  26
TORSDOF 17
ENDMDL
MODEL 2
REMARK VINA RESULT:     -10.9      3.351      4.557
REMARK SMILES C[C@@H]1[C@@H](C(=O)NCCCCNC(=O)c2ccc(-c3c4nc(c(-c5ccc(S(=O)(=O)[O-])cc5)c5ccc([nH]5)c(-c5ccc(S(=O)(=O)[O-])cc5)c5nc(c(-c6ccc(S(=O)(=O)[O-])cc6)c6ccc3[nH]6)C=C5)C=C4)cc2)CCN1C(=O)[C@@H]1CCCN(C(N)=O)C1
REMARK SMILES IDX 8 1 7 2 6 3 4 4 5 5 3 7 1 8 2 9 76 10 74 11 75 12 77 13
REMARK SMILES IDX 78 14 79 15 80 16 87 17 81 18 83 19 82 20 84 21 85 22 86 23
REMARK SMILES IDX 9 26 10 27 11 28 12 29 13 31 14 32 15 33 73 34 16 35 72 36
REMARK SMILES IDX 17 37 18 38 19 39 66 40 20 41 71 42 65 43 67 44 21 45 70 46
REMARK SMILES IDX 64 47 63 48 22 50 52 51 33 52 51 53 34 54 37 55 50 56 68 57
REMARK SMILES IDX 35 58 36 59 49 61 69 62 38 63 23 64 24 65 32 66 25 67 31 68
REMARK SMILES IDX 26 69 27 70 28 71 29 72 30 73 53 74 54 75 62 76 55 77 61 78
REMARK SMILES IDX 56 79 57 80 58 81 59 82 60 83 39 84 40 85 48 86 41 87 47 88
REMARK SMILES IDX 42 89 43 90 44 91 45 92 46 93
REMARK H PARENT 6 6 85 24 85 25 11 30 67 49 37 60
REMARK Flexibility Score: inf
ROOT
ATOM      1  C   UNL A   1      39.237  21.298  26.122  1.00  0.00     0.023 C 
ENDROOT
BRANCH   1   2
ATOM      2  C   UNL A   1      38.026  22.188  25.872  1.00  0.00     0.116 C 
BRANCH   2   3
ATOM      3  N   UNL A   1      37.733  22.377  24.463  1.00  0.00    -0.356 N 
ATOM      4  C   UNL A   1      36.552  22.742  23.880  1.00  0.00     0.225 C 
ATOM      5  O   UNL A   1      36.559  23.056  22.692  1.00  0.00    -0.275 OA
ATOM      6  H   UNL A   1      38.485  22.223  23.846  1.00  0.00     0.163 HD
BRANCH   4   7
ATOM      7  C   UNL A   1      35.302  22.770  24.743  1.00  0.00     0.102 C 
ATOM      8  C   UNL A   1      32.940  21.978  24.939  1.00  0.00     0.032 C 
ATOM      9  C   UNL A   1      33.996  22.517  23.960  1.00  0.00     0.094 C 
ATOM     10  N   UNL A   1      33.618  23.841  23.451  1.00  0.00    -0.339 N 
ATOM     11  C   UNL A   1      35.078  24.176  25.302  1.00  0.00     0.037 C 
ATOM     12  C   UNL A   1      34.341  24.879  24.175  1.00  0.00     0.120 C 
BRANCH  10  13
ATOM     13  C   UNL A   1      32.882  24.225  22.355  1.00  0.00     0.227 C 
ATOM     14  O   UNL A   1      33.244  23.837  21.232  1.00  0.00    -0.275 OA
BRANCH  13  15
ATOM     15  C   UNL A   1      31.602  25.075  22.405  1.00  0.00     0.098 C 
ATOM     16  C   UNL A   1      31.681  26.554  22.037  1.00  0.00     0.017 C 
ATOM     17  C   UNL A   1      30.702  24.772  23.598  1.00  0.00     0.134 C 
ATOM     18  C   UNL A   1      31.636  27.534  23.205  1.00  0.00     0.022 C 
ATOM     19  N   UNL A   1      30.861  25.712  24.701  1.00  0.00    -0.324 N 
ATOM     20  C   UNL A   1      30.731  27.120  24.356  1.00  0.00     0.121 C 
BRANCH  19  21
ATOM     21  C   UNL A   1      30.822  25.363  26.035  1.00  0.00     0.314 C 
ATOM     22  N   UNL A   1      31.836  25.808  26.805  1.00  0.00    -0.351 N 
ATOM     23  O   UNL A   1      29.939  24.674  26.538  1.00  0.00    -0.249 OA
ATOM     24  H   UNL A   1      32.549  26.361  26.411  1.00  0.00     0.161 HD
ATOM     25  H   UNL A   1      31.863  25.579  27.763  1.00  0.00     0.161 HD
ENDBRANCH  19  21
ENDBRANCH  13  15
ENDBRANCH  10  13
ENDBRANCH   4   7
ENDBRANCH   2   3
ENDBRANCH   1   2
BRANCH   1  26
ATOM     26  C   UNL A   1      40.335  21.910  26.991  1.00  0.00     0.023 C 
BRANCH  26  27
ATOM     27  C   UNL A   1      40.250  23.417  27.200  1.00  0.00     0.116 C 
BRANCH  27  28
ATOM     28  N   UNL A   1      40.802  24.179  26.090  1.00  0.00    -0.352 N 
ATOM     29  C   UNL A   1      41.151  25.507  26.038  1.00  0.00     0.251 C 
ATOM     30  H   UNL A   1      40.945  23.672  25.259  1.00  0.00     0.163 HD
ATOM     31  O   UNL A   1      41.494  26.009  24.971  1.00  0.00    -0.269 OA
BRANCH  29  32
ATOM     32  C   UNL A   1      41.074  26.328  27.261  1.00  0.00     0.039 A 
ATOM     33  C   UNL A   1      42.034  27.320  27.470  1.00  0.00     0.014 A 
ATOM     34  C   UNL A   1      40.037  26.143  28.180  1.00  0.00     0.014 A 
ATOM     35  C   UNL A   1      41.916  28.173  28.568  1.00  0.00     0.010 A 
ATOM     36  C   UNL A   1      39.875  27.046  29.226  1.00  0.00     0.010 A 
ATOM     37  C   UNL A   1      40.817  28.064  29.435  1.00  0.00    -0.014 A 
BRANCH  37  38
ATOM     38  C   UNL A   1      40.644  28.994  30.580  1.00  0.00     0.031 A 
ATOM     39  C   UNL A   1      41.514  28.849  31.799  1.00  0.00     0.074 A 
ATOM     40  C   UNL A   1      39.670  29.925  30.548  1.00  0.00     0.049 A 
ATOM     41  N   UNL A   1      41.480  29.519  32.922  1.00  0.00    -0.248 NA
ATOM     42  C   UNL A   1      42.538  27.791  31.763  1.00  0.00     0.031 C 
ATOM     43  C   UNL A   1      38.734  30.139  29.440  1.00  0.00     0.029 A 
ATOM     44  N   UNL A   1      39.302  30.865  31.478  1.00  0.00    -0.354 N 
ATOM     45  C   UNL A   1      42.459  28.953  33.729  1.00  0.00     0.074 A 
ATOM     46  C   UNL A   1      43.032  27.849  32.990  1.00  0.00     0.031 C 
ATOM     47  C   UNL A   1      37.923  31.165  29.743  1.00  0.00     0.029 A 
ATOM     48  C   UNL A   1      38.251  31.656  31.078  1.00  0.00     0.049 A 
ATOM     49  H   UNL A   1      39.749  30.964  32.350  1.00  0.00     0.167 HD
ATOM     50  C   UNL A   1      42.864  29.330  34.965  1.00  0.00     0.031 A 
ATOM     51  C   UNL A   1      37.622  32.664  31.713  1.00  0.00     0.031 A 
ATOM     52  C   UNL A   1      42.303  30.438  35.690  1.00  0.00     0.049 A 
ATOM     53  C   UNL A   1      38.090  33.069  33.085  1.00  0.00     0.074 A 
ATOM     54  C   UNL A   1      42.675  30.934  36.928  1.00  0.00     0.029 A 
ATOM     55  N   UNL A   1      41.253  31.224  35.242  1.00  0.00    -0.354 N 
ATOM     56  N   UNL A   1      39.056  32.556  33.809  1.00  0.00    -0.248 NA
ATOM     57  C   UNL A   1      37.393  34.197  33.717  1.00  0.00     0.031 C 
ATOM     58  C   UNL A   1      41.819  31.994  37.247  1.00  0.00     0.029 A 
ATOM     59  C   UNL A   1      40.953  32.194  36.183  1.00  0.00     0.049 A 
ATOM     60  H   UNL A   1      40.789  31.111  34.380  1.00  0.00     0.167 HD
ATOM     61  C   UNL A   1      39.105  33.321  34.970  1.00  0.00     0.074 A 
ATOM     62  C   UNL A   1      38.077  34.335  34.845  1.00  0.00     0.031 C 
ATOM     63  C   UNL A   1      39.930  33.199  36.039  1.00  0.00     0.031 A 
BRANCH  50  64
ATOM     64  C   UNL A   1      43.966  28.528  35.608  1.00  0.00    -0.014 A 
ATOM     65  C   UNL A   1      43.676  27.481  36.502  1.00  0.00     0.010 A 
ATOM     66  C   UNL A   1      45.309  28.815  35.303  1.00  0.00     0.010 A 
ATOM     67  C   UNL A   1      44.709  26.770  37.120  1.00  0.00     0.020 A 
ATOM     68  C   UNL A   1      46.344  28.085  35.895  1.00  0.00     0.020 A 
ATOM     69  C   UNL A   1      46.038  27.081  36.816  1.00  0.00     0.054 A 
BRANCH  69  70
ATOM     70  S   UNL A   1      47.357  26.138  37.625  1.00  0.00     0.124 S 
ATOM     71  O   UNL A   1      46.813  24.782  37.605  1.00  0.00    -0.237 OA
ATOM     72  O   UNL A   1      48.501  26.367  36.746  1.00  0.00    -0.237 OA
ATOM     73  O   UNL A   1      47.460  26.747  38.948  1.00  0.00    -0.744 OA
ENDBRANCH  69  70
ENDBRANCH  50  64
BRANCH  51  74
ATOM     74  C   UNL A   1      36.502  33.380  31.044  1.00  0.00    -0.014 A 
ATOM     75  C   UNL A   1      35.254  33.501  31.680  1.00  0.00     0.010 A 
ATOM     76  C   UNL A   1      36.681  33.963  29.776  1.00  0.00     0.010 A 
ATOM     77  C   UNL A   1      34.201  34.175  31.055  1.00  0.00     0.020 A 
ATOM     78  C   UNL A   1      35.639  34.661  29.158  1.00  0.00     0.020 A 
ATOM     79  C   UNL A   1      34.401  34.754  29.798  1.00  0.00     0.054 A 
BRANCH  79  80
ATOM     80  S   UNL A   1      33.038  35.674  29.032  1.00  0.00     0.124 S 
ATOM     81  O   UNL A   1      32.401  34.647  28.214  1.00  0.00    -0.237 OA
ATOM     82  O   UNL A   1      32.271  36.127  30.190  1.00  0.00    -0.237 OA
ATOM     83  O   UNL A   1      33.716  36.735  28.290  1.00  0.00    -0.744 OA
ENDBRANCH  79  80
ENDBRANCH  51  74
BRANCH  63  84
ATOM     84  C   UNL A   1      39.789  34.213  37.142  1.00  0.00    -0.014 A 
ATOM     85  C   UNL A   1      40.322  35.509  37.019  1.00  0.00     0.010 A 
ATOM     86  C   UNL A   1      39.063  33.876  38.299  1.00  0.00     0.010 A 
ATOM     87  C   UNL A   1      40.158  36.439  38.050  1.00  0.00     0.020 A 
ATOM     88  C   UNL A   1      38.872  34.813  39.318  1.00  0.00     0.020 A 
ATOM     89  C   UNL A   1      39.435  36.084  39.193  1.00  0.00     0.054 A 
BRANCH  89  90
ATOM     90  S   UNL A   1      39.199  37.321  40.498  1.00  0.00     0.124 S 
ATOM     91  O   UNL A   1      38.566  36.534  41.553  1.00  0.00    -0.237 OA
ATOM     92  O   UNL A   1      40.565  37.760  40.775  1.00  0.00    -0.237 OA
ATOM     93  O   UNL A   1      38.345  38.327  39.872  1.00  0.00    -0.744 OA
ENDBRANCH  89  90
ENDBRANCH  63  84
ENDBRANCH  37  38
ENDBRANCH  29  32
ENDBRANCH  27  28
ENDBRANCH  26  27
ENDBRANCH   1  26
TORSDOF 17
ENDMDL
MODEL 3
REMARK VINA RESULT:     -10.9      4.278     10.174
REMARK SMILES C[C@@H]1[C@@H](C(=O)NCCCCNC(=O)c2ccc(-c3c4nc(c(-c5ccc(S(=O)(=O)[O-])cc5)c5ccc([nH]5)c(-c5ccc(S(=O)(=O)[O-])cc5)c5nc(c(-c6ccc(S(=O)(=O)[O-])cc6)c6ccc3[nH]6)C=C5)C=C4)cc2)CCN1C(=O)[C@@H]1CCCN(C(N)=O)C1
REMARK SMILES IDX 8 1 7 2 6 3 4 4 5 5 3 7 1 8 2 9 76 10 74 11 75 12 77 13
REMARK SMILES IDX 78 14 79 15 80 16 87 17 81 18 83 19 82 20 84 21 85 22 86 23
REMARK SMILES IDX 9 26 10 27 11 28 12 29 13 31 14 32 15 33 73 34 16 35 72 36
REMARK SMILES IDX 17 37 18 38 19 39 66 40 20 41 71 42 65 43 67 44 21 45 70 46
REMARK SMILES IDX 64 47 63 48 22 50 52 51 33 52 51 53 34 54 37 55 50 56 68 57
REMARK SMILES IDX 35 58 36 59 49 61 69 62 38 63 23 64 24 65 32 66 25 67 31 68
REMARK SMILES IDX 26 69 27 70 28 71 29 72 30 73 53 74 54 75 62 76 55 77 61 78
REMARK SMILES IDX 56 79 57 80 58 81 59 82 60 83 39 84 40 85 48 86 41 87 47 88
REMARK SMILES IDX 42 89 43 90 44 91 45 92 46 93
REMARK H PARENT 6 6 85 24 85 25 11 30 67 49 37 60
REMARK Flexibility Score: inf
ROOT
ATOM      1  C   UNL A   1      34.039  31.546  27.743  1.00  0.00     0.023 C 
ENDROOT
BRANCH   1   2
ATOM      2  C   UNL A   1      33.415  30.467  26.867  1.00  0.00     0.116 C 
BRANCH   2   3
ATOM      3  N   UNL A   1      32.481  29.617  27.582  1.00  0.00    -0.356 N 
ATOM      4  C   UNL A   1      31.905  28.449  27.168  1.00  0.00     0.225 C 
ATOM      5  O   UNL A   1      31.307  27.766  27.997  1.00  0.00    -0.275 OA
ATOM      6  H   UNL A   1      32.230  29.921  28.484  1.00  0.00     0.163 HD
BRANCH   4   7
ATOM      7  C   UNL A   1      32.064  28.044  25.712  1.00  0.00     0.102 C 
ATOM      8  C   UNL A   1      30.861  27.242  23.675  1.00  0.00     0.032 C 
ATOM      9  C   UNL A   1      30.957  27.097  25.202  1.00  0.00     0.094 C 
ATOM     10  N   UNL A   1      31.426  25.757  25.578  1.00  0.00    -0.339 N 
ATOM     11  C   UNL A   1      33.325  27.195  25.535  1.00  0.00     0.037 C 
ATOM     12  C   UNL A   1      32.849  25.797  25.894  1.00  0.00     0.120 C 
BRANCH  10  13
ATOM     13  C   UNL A   1      30.750  24.589  25.839  1.00  0.00     0.227 C 
ATOM     14  O   UNL A   1      29.913  24.581  26.757  1.00  0.00    -0.275 OA
BRANCH  13  15
ATOM     15  C   UNL A   1      30.913  23.280  25.051  1.00  0.00     0.098 C 
ATOM     16  C   UNL A   1      31.743  22.151  25.655  1.00  0.00     0.017 C 
ATOM     17  C   UNL A   1      31.119  23.478  23.553  1.00  0.00     0.134 C 
ATOM     18  C   UNL A   1      33.135  21.956  25.062  1.00  0.00     0.022 C 
ATOM     19  N   UNL A   1      32.516  23.402  23.142  1.00  0.00    -0.324 N 
ATOM     20  C   UNL A   1      33.236  22.210  23.565  1.00  0.00     0.121 C 
BRANCH  19  21
ATOM     21  C   UNL A   1      33.087  24.196  22.169  1.00  0.00     0.314 C 
ATOM     22  N   UNL A   1      32.934  23.788  20.892  1.00  0.00    -0.351 N 
ATOM     23  O   UNL A   1      33.721  25.220  22.404  1.00  0.00    -0.249 OA
ATOM     24  H   UNL A   1      32.427  22.967  20.693  1.00  0.00     0.161 HD
ATOM     25  H   UNL A   1      33.330  24.312  20.157  1.00  0.00     0.161 HD
ENDBRANCH  19  21
ENDBRANCH  13  15
ENDBRANCH  10  13
ENDBRANCH   4   7
ENDBRANCH   2   3
ENDBRANCH   1   2
BRANCH   1  26
ATOM     26  C   UNL A   1      35.561  31.661  27.661  1.00  0.00     0.023 C 
BRANCH  26  27
ATOM     27  C   UNL A   1      36.270  31.996  28.968  1.00  0.00     0.116 C 
BRANCH  27  28
ATOM     28  N   UNL A   1      35.936  31.082  30.049  1.00  0.00    -0.352 N 
ATOM     29  C   UNL A   1      36.674  30.045  30.567  1.00  0.00     0.251 C 
ATOM     30  H   UNL A   1      35.058  31.227  30.468  1.00  0.00     0.163 HD
ATOM     31  O   UNL A   1      36.177  29.300  31.408  1.00  0.00    -0.269 OA
BRANCH  29  32
ATOM     32  C   UNL A   1      38.046  29.813  30.079  1.00  0.00     0.039 A 
ATOM     33  C   UNL A   1      39.091  29.761  31.004  1.00  0.00     0.014 A 
ATOM     34  C   UNL A   1      38.295  29.611  28.718  1.00  0.00     0.014 A 
ATOM     35  C   UNL A   1      40.378  29.440  30.570  1.00  0.00     0.010 A 
ATOM     36  C   UNL A   1      39.560  29.211  28.302  1.00  0.00     0.010 A 
ATOM     37  C   UNL A   1      40.616  29.129  29.222  1.00  0.00    -0.014 A 
BRANCH  37  38
ATOM     38  C   UNL A   1      41.967  28.735  28.748  1.00  0.00     0.031 A 
ATOM     39  C   UNL A   1      43.060  29.765  28.662  1.00  0.00     0.074 A 
ATOM     40  C   UNL A   1      42.193  27.470  28.341  1.00  0.00     0.049 A 
ATOM     41  N   UNL A   1      44.284  29.635  28.221  1.00  0.00    -0.248 NA
ATOM     42  C   UNL A   1      42.723  31.129  29.105  1.00  0.00     0.031 C 
ATOM     43  C   UNL A   1      41.204  26.388  28.337  1.00  0.00     0.029 A 
ATOM     44  N   UNL A   1      43.329  26.880  27.847  1.00  0.00    -0.354 N 
ATOM     45  C   UNL A   1      44.854  30.899  28.312  1.00  0.00     0.074 A 
ATOM     46  C   UNL A   1      43.826  31.793  28.798  1.00  0.00     0.031 C 
ATOM     47  C   UNL A   1      41.786  25.263  27.894  1.00  0.00     0.029 A 
ATOM     48  C   UNL A   1      43.175  25.548  27.545  1.00  0.00     0.049 A 
ATOM     49  H   UNL A   1      44.177  27.366  27.720  1.00  0.00     0.167 HD
ATOM     50  C   UNL A   1      46.124  31.280  28.039  1.00  0.00     0.031 A 
ATOM     51  C   UNL A   1      44.050  24.656  27.043  1.00  0.00     0.031 A 
ATOM     52  C   UNL A   1      47.148  30.384  27.571  1.00  0.00     0.049 A 
ATOM     53  C   UNL A   1      45.458  25.099  26.749  1.00  0.00     0.074 A 
ATOM     54  C   UNL A   1      48.480  30.658  27.312  1.00  0.00     0.029 A 
ATOM     55  N   UNL A   1      46.954  29.039  27.295  1.00  0.00    -0.354 N 
ATOM     56  N   UNL A   1      45.994  26.288  26.896  1.00  0.00    -0.248 NA
ATOM     57  C   UNL A   1      46.382  24.078  26.239  1.00  0.00     0.031 C 
ATOM     58  C   UNL A   1      49.080  29.487  26.837  1.00  0.00     0.029 A 
ATOM     59  C   UNL A   1      48.137  28.471  26.855  1.00  0.00     0.049 A 
ATOM     60  H   UNL A   1      46.101  28.558  27.398  1.00  0.00     0.167 HD
ATOM     61  C   UNL A   1      47.328  26.149  26.527  1.00  0.00     0.074 A 
ATOM     62  C   UNL A   1      47.517  24.760  26.159  1.00  0.00     0.031 C 
ATOM     63  C   UNL A   1      48.308  27.085  26.499  1.00  0.00     0.031 A 
BRANCH  50  64
ATOM     64  C   UNL A   1      46.470  32.732  28.238  1.00  0.00    -0.014 A 
ATOM     65  C   UNL A   1      46.897  33.212  29.490  1.00  0.00     0.010 A 
ATOM     66  C   UNL A   1      46.382  33.628  27.157  1.00  0.00     0.010 A 
ATOM     67  C   UNL A   1      47.178  34.570  29.671  1.00  0.00     0.020 A 
ATOM     68  C   UNL A   1      46.693  34.981  27.326  1.00  0.00     0.020 A 
ATOM     69  C   UNL A   1      47.069  35.447  28.588  1.00  0.00     0.054 A 
BRANCH  69  70
ATOM     70  S   UNL A   1      47.448  37.200  28.848  1.00  0.00     0.124 S 
ATOM     71  O   UNL A   1      48.586  37.397  27.952  1.00  0.00    -0.237 OA
ATOM     72  O   UNL A   1      46.209  37.860  28.442  1.00  0.00    -0.237 OA
ATOM     73  O   UNL A   1      47.756  37.282  30.272  1.00  0.00    -0.744 OA
ENDBRANCH  69  70
ENDBRANCH  50  64
BRANCH  51  74
ATOM     74  C   UNL A   1      43.629  23.246  26.817  1.00  0.00    -0.014 A 
ATOM     75  C   UNL A   1      44.006  22.571  25.643  1.00  0.00     0.010 A 
ATOM     76  C   UNL A   1      42.865  22.564  27.782  1.00  0.00     0.010 A 
ATOM     77  C   UNL A   1      43.613  21.246  25.429  1.00  0.00     0.020 A 
ATOM     78  C   UNL A   1      42.493  21.231  27.584  1.00  0.00     0.020 A 
ATOM     79  C   UNL A   1      42.861  20.583  26.403  1.00  0.00     0.054 A 
BRANCH  79  80
ATOM     80  S   UNL A   1      42.412  18.847  26.129  1.00  0.00     0.124 S 
ATOM     81  O   UNL A   1      43.323  18.463  25.056  1.00  0.00    -0.237 OA
ATOM     82  O   UNL A   1      42.679  18.242  27.432  1.00  0.00    -0.237 OA
ATOM     83  O   UNL A   1      41.000  18.913  25.760  1.00  0.00    -0.744 OA
ENDBRANCH  79  80
ENDBRANCH  51  74
BRANCH  63  84
ATOM     84  C   UNL A   1      49.688  26.633  26.102  1.00  0.00    -0.014 A 
ATOM     85  C   UNL A   1      50.194  26.867  24.811  1.00  0.00     0.010 A 
ATOM     86  C   UNL A   1      50.510  26.010  27.060  1.00  0.00     0.010 A 
ATOM     87  C   UNL A   1      51.487  26.457  24.476  1.00  0.00     0.020 A 
ATOM     88  C   UNL A   1      51.813  25.625  26.736  1.00  0.00     0.020 A 
ATOM     89  C   UNL A   1      52.288  25.837  25.441  1.00  0.00     0.054 A 
BRANCH  89  90
ATOM     90  S   UNL A   1      53.977  25.351  24.994  1.00  0.00     0.124 S 
ATOM     91  O   UNL A   1      54.145  25.995  23.695  1.00  0.00    -0.237 OA
ATOM     92  O   UNL A   1      54.771  25.914  26.083  1.00  0.00    -0.237 OA
ATOM     93  O   UNL A   1      53.921  23.891  24.964  1.00  0.00    -0.744 OA
ENDBRANCH  89  90
ENDBRANCH  63  84
ENDBRANCH  37  38
ENDBRANCH  29  32
ENDBRANCH  27  28
ENDBRANCH  26  27
ENDBRANCH   1  26
TORSDOF 17
ENDMDL
