MODEL 1
REMARK VINA RESULT:     -10.0      0.000      0.000
REMARK SMILES C[NH2+]C[C@H](C)C(=O)N[C@H]1C=C[C@@H](C(=O)NCCCCNC(=O)c2ccc(-c3c4nc(c(-c5ccc(S(=O)(=O)[O-])cc5)c5ccc([nH]5)c(-c5ccc(S(=O)(=O)[O-])cc5)c5nc(c(-c6ccc(S(=O)(=O)[O-])cc6)c6ccc3[nH]6)C=C5)C=C4)cc2)C1
REMARK SMILES IDX 17 1 16 2 15 3 13 4 14 5 12 7 9 8 10 9 83 10 11 11 8 12 6 13
REMARK SMILES IDX 7 14 4 16 5 17 3 18 2 19 1 20 18 23 19 24 20 25 21 26 22 28
REMARK SMILES IDX 23 29 24 30 82 31 25 32 81 33 26 34 27 35 28 36 75 37 29 38
REMARK SMILES IDX 80 39 74 40 76 41 30 42 79 43 73 44 72 45 31 47 61 48 42 49
REMARK SMILES IDX 60 50 43 51 46 52 59 53 77 54 44 55 45 56 58 58 78 59 47 60
REMARK SMILES IDX 32 61 33 62 41 63 34 64 40 65 35 66 36 67 37 68 38 69 39 70
REMARK SMILES IDX 62 71 63 72 71 73 64 74 70 75 65 76 66 77 67 78 68 79 69 80
REMARK SMILES IDX 48 81 49 82 57 83 50 84 56 85 51 86 52 87 53 88 54 89 55 90
REMARK H PARENT 15 6 8 15 2 21 2 22 20 27 76 46 46 57
REMARK Flexibility Score: inf
ROOT
ATOM      1  C   UNL A   1      32.578  27.180  25.231  1.00  0.00     0.023 C 
ENDROOT
BRANCH   1   2
ATOM      2  C   UNL A   1      33.883  26.763  24.550  1.00  0.00     0.116 C 
BRANCH   2   3
ATOM      3  N   UNL A   1      33.651  25.700  23.597  1.00  0.00    -0.356 N 
ATOM      4  C   UNL A   1      34.294  24.525  23.391  1.00  0.00     0.227 C 
ATOM      5  O   UNL A   1      33.888  23.828  22.453  1.00  0.00    -0.274 OA
ATOM      6  H   UNL A   1      32.891  25.858  22.991  1.00  0.00     0.163 HD
BRANCH   4   7
ATOM      7  C   UNL A   1      35.399  23.985  24.304  1.00  0.00     0.103 C 
ATOM      8  C   UNL A   1      35.669  21.984  25.758  1.00  0.00     0.106 C 
ATOM      9  C   UNL A   1      36.296  21.824  24.417  1.00  0.00    -0.006 C 
ATOM     10  C   UNL A   1      35.056  23.407  25.684  1.00  0.00     0.047 C 
ATOM     11  C   UNL A   1      36.149  22.889  23.627  1.00  0.00    -0.016 C 
BRANCH   8  12
ATOM     12  N   UNL A   1      34.650  20.976  26.000  1.00  0.00    -0.349 N 
ATOM     13  C   UNL A   1      33.500  20.621  25.379  1.00  0.00     0.228 C 
ATOM     14  O   UNL A   1      32.997  19.553  25.751  1.00  0.00    -0.275 OA
ATOM     15  H   UNL A   1      34.840  20.425  26.795  1.00  0.00     0.164 HD
BRANCH  13  16
ATOM     16  C   UNL A   1      32.775  21.458  24.332  1.00  0.00     0.130 C 
ATOM     17  C   UNL A   1      32.373  20.615  23.118  1.00  0.00     0.024 C 
BRANCH  16  18
ATOM     18  C   UNL A   1      31.632  22.333  24.863  1.00  0.00     0.273 C 
BRANCH  18  19
ATOM     19  N   UNL A   1      31.243  22.084  26.256  1.00  0.00    -0.348 N 
ATOM     20  C   UNL A   1      30.450  23.175  26.811  1.00  0.00     0.330 C 
ATOM     21  H   UNL A   1      30.693  21.227  26.297  1.00  0.00     0.346 HD
ATOM     22  H   UNL A   1      32.096  22.006  26.810  1.00  0.00     0.346 HD
ENDBRANCH  18  19
ENDBRANCH  16  18
ENDBRANCH  13  16
ENDBRANCH   8  12
ENDBRANCH   4   7
ENDBRANCH   2   3
ENDBRANCH   1   2
BRANCH   1  23
ATOM     23  C   UNL A   1      32.777  28.002  26.506  1.00  0.00     0.023 C 
BRANCH  23  24
ATOM     24  C   UNL A   1      34.044  28.843  26.526  1.00  0.00     0.116 C 
BRANCH  24  25
ATOM     25  N   UNL A   1      33.772  30.257  26.713  1.00  0.00    -0.352 N 
ATOM     26  C   UNL A   1      34.420  31.155  27.526  1.00  0.00     0.251 C 
ATOM     27  H   UNL A   1      33.023  30.621  26.187  1.00  0.00     0.163 HD
ATOM     28  O   UNL A   1      33.955  32.275  27.697  1.00  0.00    -0.269 OA
BRANCH  26  29
ATOM     29  C   UNL A   1      35.668  30.750  28.208  1.00  0.00     0.039 A 
ATOM     30  C   UNL A   1      35.617  29.721  29.151  1.00  0.00     0.014 A 
ATOM     31  C   UNL A   1      36.881  31.381  27.919  1.00  0.00     0.014 A 
ATOM     32  C   UNL A   1      36.792  29.308  29.781  1.00  0.00     0.010 A 
ATOM     33  C   UNL A   1      38.061  30.903  28.474  1.00  0.00     0.010 A 
ATOM     34  C   UNL A   1      38.027  29.885  29.436  1.00  0.00    -0.014 A 
BRANCH  34  35
ATOM     35  C   UNL A   1      39.279  29.469  30.117  1.00  0.00     0.031 A 
ATOM     36  C   UNL A   1      39.702  30.149  31.393  1.00  0.00     0.074 A 
ATOM     37  C   UNL A   1      40.048  28.505  29.576  1.00  0.00     0.049 A 
ATOM     38  N   UNL A   1      40.750  29.921  32.142  1.00  0.00    -0.248 NA
ATOM     39  C   UNL A   1      38.851  31.250  31.879  1.00  0.00     0.031 C 
ATOM     40  C   UNL A   1      39.775  27.807  28.317  1.00  0.00     0.029 A 
ATOM     41  N   UNL A   1      41.216  27.939  30.021  1.00  0.00    -0.354 N 
ATOM     42  C   UNL A   1      40.692  30.856  33.169  1.00  0.00     0.074 A 
ATOM     43  C   UNL A   1      39.545  31.697  32.913  1.00  0.00     0.031 C 
ATOM     44  C   UNL A   1      40.724  26.880  28.114  1.00  0.00     0.029 A 
ATOM     45  C   UNL A   1      41.691  26.941  29.205  1.00  0.00     0.049 A 
ATOM     46  H   UNL A   1      41.671  28.221  30.848  1.00  0.00     0.167 HD
ATOM     47  C   UNL A   1      41.502  30.987  34.247  1.00  0.00     0.031 A 
ATOM     48  C   UNL A   1      42.781  26.157  29.325  1.00  0.00     0.031 A 
ATOM     49  C   UNL A   1      42.635  30.140  34.504  1.00  0.00     0.049 A 
ATOM     50  C   UNL A   1      43.661  26.311  30.535  1.00  0.00     0.074 A 
ATOM     51  C   UNL A   1      43.487  30.149  35.593  1.00  0.00     0.029 A 
ATOM     52  N   UNL A   1      43.076  29.131  33.659  1.00  0.00    -0.354 N 
ATOM     53  N   UNL A   1      43.548  27.153  31.536  1.00  0.00    -0.248 NA
ATOM     54  C   UNL A   1      44.801  25.392  30.644  1.00  0.00     0.031 C 
ATOM     55  C   UNL A   1      44.479  29.186  35.379  1.00  0.00     0.029 A 
ATOM     56  C   UNL A   1      44.202  28.527  34.192  1.00  0.00     0.049 A 
ATOM     57  H   UNL A   1      42.651  28.883  32.807  1.00  0.00     0.167 HD
ATOM     58  C   UNL A   1      44.583  26.840  32.411  1.00  0.00     0.074 A 
ATOM     59  C   UNL A   1      45.299  25.724  31.827  1.00  0.00     0.031 C 
ATOM     60  C   UNL A   1      44.908  27.421  33.594  1.00  0.00     0.031 A 
BRANCH  47  61
ATOM     61  C   UNL A   1      41.191  32.098  35.219  1.00  0.00    -0.014 A 
ATOM     62  C   UNL A   1      40.359  31.884  36.334  1.00  0.00     0.010 A 
ATOM     63  C   UNL A   1      41.756  33.372  35.026  1.00  0.00     0.010 A 
ATOM     64  C   UNL A   1      40.053  32.934  37.204  1.00  0.00     0.020 A 
ATOM     65  C   UNL A   1      41.481  34.417  35.914  1.00  0.00     0.020 A 
ATOM     66  C   UNL A   1      40.615  34.195  36.986  1.00  0.00     0.054 A 
BRANCH  66  67
ATOM     67  S   UNL A   1      40.210  35.537  38.138  1.00  0.00     0.124 S 
ATOM     68  O   UNL A   1      39.005  35.025  38.786  1.00  0.00    -0.237 OA
ATOM     69  O   UNL A   1      41.399  35.601  38.984  1.00  0.00    -0.237 OA
ATOM     70  O   UNL A   1      40.005  36.691  37.267  1.00  0.00    -0.744 OA
ENDBRANCH  66  67
ENDBRANCH  47  61
BRANCH  48  71
ATOM     71  C   UNL A   1      43.076  25.133  28.283  1.00  0.00    -0.014 A 
ATOM     72  C   UNL A   1      43.926  25.431  27.204  1.00  0.00     0.010 A 
ATOM     73  C   UNL A   1      42.520  23.843  28.379  1.00  0.00     0.010 A 
ATOM     74  C   UNL A   1      44.203  24.464  26.231  1.00  0.00     0.020 A 
ATOM     75  C   UNL A   1      42.819  22.866  27.425  1.00  0.00     0.020 A 
ATOM     76  C   UNL A   1      43.650  23.186  26.351  1.00  0.00     0.054 A 
BRANCH  76  77
ATOM     77  S   UNL A   1      44.071  21.932  25.110  1.00  0.00     0.124 S 
ATOM     78  O   UNL A   1      45.443  21.591  25.475  1.00  0.00    -0.237 OA
ATOM     79  O   UNL A   1      43.073  20.895  25.361  1.00  0.00    -0.237 OA
ATOM     80  O   UNL A   1      43.917  22.640  23.841  1.00  0.00    -0.744 OA
ENDBRANCH  76  77
ENDBRANCH  48  71
BRANCH  60  81
ATOM     81  C   UNL A   1      46.061  26.826  34.361  1.00  0.00    -0.014 A 
ATOM     82  C   UNL A   1      47.354  27.374  34.294  1.00  0.00     0.010 A 
ATOM     83  C   UNL A   1      45.833  25.710  35.188  1.00  0.00     0.010 A 
ATOM     84  C   UNL A   1      48.409  26.782  34.995  1.00  0.00     0.020 A 
ATOM     85  C   UNL A   1      46.877  25.138  35.918  1.00  0.00     0.020 A 
ATOM     86  C   UNL A   1      48.164  25.664  35.799  1.00  0.00     0.054 A 
BRANCH  86  87
ATOM     87  S   UNL A   1      49.546  24.918  36.704  1.00  0.00     0.124 S 
ATOM     88  O   UNL A   1      50.507  24.664  35.634  1.00  0.00    -0.237 OA
ATOM     89  O   UNL A   1      49.918  25.972  37.646  1.00  0.00    -0.237 OA
ATOM     90  O   UNL A   1      48.961  23.726  37.312  1.00  0.00    -0.744 OA
ENDBRANCH  86  87
ENDBRANCH  60  81
ENDBRANCH  34  35
ENDBRANCH  26  29
ENDBRANCH  24  25
ENDBRANCH  23  24
ENDBRANCH   1  23
TORSDOF 18
ENDMDL
MODEL 2
REMARK VINA RESULT:      -9.8      1.172      2.178
REMARK SMILES C[NH2+]C[C@H](C)C(=O)N[C@H]1C=C[C@@H](C(=O)NCCCCNC(=O)c2ccc(-c3c4nc(c(-c5ccc(S(=O)(=O)[O-])cc5)c5ccc([nH]5)c(-c5ccc(S(=O)(=O)[O-])cc5)c5nc(c(-c6ccc(S(=O)(=O)[O-])cc6)c6ccc3[nH]6)C=C5)C=C4)cc2)C1
REMARK SMILES IDX 17 1 16 2 15 3 13 4 14 5 12 7 9 8 10 9 83 10 11 11 8 12 6 13
REMARK SMILES IDX 7 14 4 16 5 17 3 18 2 19 1 20 18 23 19 24 20 25 21 26 22 28
REMARK SMILES IDX 23 29 24 30 82 31 25 32 81 33 26 34 27 35 28 36 75 37 29 38
REMARK SMILES IDX 80 39 74 40 76 41 30 42 79 43 73 44 72 45 31 47 61 48 42 49
REMARK SMILES IDX 60 50 43 51 46 52 59 53 77 54 44 55 45 56 58 58 78 59 47 60
REMARK SMILES IDX 32 61 33 62 41 63 34 64 40 65 35 66 36 67 37 68 38 69 39 70
REMARK SMILES IDX 62 71 63 72 71 73 64 74 70 75 65 76 66 77 67 78 68 79 69 80
REMARK SMILES IDX 48 81 49 82 57 83 50 84 56 85 51 86 52 87 53 88 54 89 55 90
REMARK H PARENT 15 6 8 15 2 21 2 22 20 27 76 46 46 57
REMARK Flexibility Score: inf
ROOT
ATOM      1  C   UNL A   1      32.500  27.888  26.936  1.00  0.00     0.023 C 
ENDROOT
BRANCH   1   2
ATOM      2  C   UNL A   1      31.125  27.379  26.501  1.00  0.00     0.116 C 
BRANCH   2   3
ATOM      3  N   UNL A   1      30.972  25.975  26.813  1.00  0.00    -0.356 N 
ATOM      4  C   UNL A   1      31.286  24.860  26.107  1.00  0.00     0.227 C 
ATOM      5  O   UNL A   1      30.989  23.776  26.623  1.00  0.00    -0.274 OA
ATOM      6  H   UNL A   1      30.569  25.797  27.694  1.00  0.00     0.163 HD
BRANCH   4   7
ATOM      7  C   UNL A   1      32.064  24.877  24.788  1.00  0.00     0.103 C 
ATOM      8  C   UNL A   1      33.555  23.281  23.596  1.00  0.00     0.106 C 
ATOM      9  C   UNL A   1      32.149  23.249  23.106  1.00  0.00    -0.006 C 
ATOM     10  C   UNL A   1      33.501  24.344  24.725  1.00  0.00     0.047 C 
ATOM     11  C   UNL A   1      31.340  24.096  23.745  1.00  0.00    -0.016 C 
BRANCH   8  12
ATOM     12  N   UNL A   1      33.978  21.985  24.102  1.00  0.00    -0.349 N 
ATOM     13  C   UNL A   1      35.133  21.497  24.614  1.00  0.00     0.228 C 
ATOM     14  O   UNL A   1      35.055  20.386  25.152  1.00  0.00    -0.275 OA
ATOM     15  H   UNL A   1      33.261  21.309  24.066  1.00  0.00     0.164 HD
BRANCH  13  16
ATOM     16  C   UNL A   1      36.492  22.179  24.514  1.00  0.00     0.130 C 
ATOM     17  C   UNL A   1      36.702  22.817  23.137  1.00  0.00     0.024 C 
BRANCH  16  18
ATOM     18  C   UNL A   1      36.845  23.121  25.674  1.00  0.00     0.273 C 
BRANCH  18  19
ATOM     19  N   UNL A   1      38.125  22.850  26.338  1.00  0.00    -0.348 N 
ATOM     20  C   UNL A   1      38.812  24.074  26.734  1.00  0.00     0.330 C 
ATOM     21  H   UNL A   1      37.951  22.289  27.171  1.00  0.00     0.346 HD
ATOM     22  H   UNL A   1      38.723  22.357  25.676  1.00  0.00     0.346 HD
ENDBRANCH  18  19
ENDBRANCH  16  18
ENDBRANCH  13  16
ENDBRANCH   8  12
ENDBRANCH   4   7
ENDBRANCH   2   3
ENDBRANCH   1   2
BRANCH   1  23
ATOM     23  C   UNL A   1      33.478  28.106  25.779  1.00  0.00     0.023 C 
BRANCH  23  24
ATOM     24  C   UNL A   1      34.571  29.126  26.058  1.00  0.00     0.116 C 
BRANCH  24  25
ATOM     25  N   UNL A   1      34.047  30.376  26.579  1.00  0.00    -0.352 N 
ATOM     26  C   UNL A   1      34.477  31.100  27.665  1.00  0.00     0.251 C 
ATOM     27  H   UNL A   1      33.282  30.755  26.090  1.00  0.00     0.163 HD
ATOM     28  O   UNL A   1      33.816  32.047  28.073  1.00  0.00    -0.269 OA
BRANCH  26  29
ATOM     29  C   UNL A   1      35.731  30.713  28.347  1.00  0.00     0.039 A 
ATOM     30  C   UNL A   1      35.704  29.652  29.255  1.00  0.00     0.014 A 
ATOM     31  C   UNL A   1      36.926  31.392  28.092  1.00  0.00     0.014 A 
ATOM     32  C   UNL A   1      36.885  29.257  29.885  1.00  0.00     0.010 A 
ATOM     33  C   UNL A   1      38.116  30.933  28.645  1.00  0.00     0.010 A 
ATOM     34  C   UNL A   1      38.104  29.883  29.573  1.00  0.00    -0.014 A 
BRANCH  34  35
ATOM     35  C   UNL A   1      39.362  29.486  30.253  1.00  0.00     0.031 A 
ATOM     36  C   UNL A   1      39.784  30.184  31.520  1.00  0.00     0.074 A 
ATOM     37  C   UNL A   1      40.137  28.521  29.721  1.00  0.00     0.049 A 
ATOM     38  N   UNL A   1      40.837  29.973  32.267  1.00  0.00    -0.248 NA
ATOM     39  C   UNL A   1      38.927  31.284  31.995  1.00  0.00     0.031 C 
ATOM     40  C   UNL A   1      39.864  27.806  28.471  1.00  0.00     0.029 A 
ATOM     41  N   UNL A   1      41.311  27.969  30.168  1.00  0.00    -0.354 N 
ATOM     42  C   UNL A   1      40.776  30.920  33.284  1.00  0.00     0.074 A 
ATOM     43  C   UNL A   1      39.622  31.748  33.021  1.00  0.00     0.031 C 
ATOM     44  C   UNL A   1      40.820  26.884  28.276  1.00  0.00     0.029 A 
ATOM     45  C   UNL A   1      41.791  26.965  29.362  1.00  0.00     0.049 A 
ATOM     46  H   UNL A   1      41.766  28.265  30.990  1.00  0.00     0.167 HD
ATOM     47  C   UNL A   1      41.589  31.070  34.357  1.00  0.00     0.031 A 
ATOM     48  C   UNL A   1      42.887  26.191  29.487  1.00  0.00     0.031 A 
ATOM     49  C   UNL A   1      42.729  30.235  34.619  1.00  0.00     0.049 A 
ATOM     50  C   UNL A   1      43.770  26.367  30.692  1.00  0.00     0.074 A 
ATOM     51  C   UNL A   1      43.586  30.263  35.705  1.00  0.00     0.029 A 
ATOM     52  N   UNL A   1      43.175  29.219  33.785  1.00  0.00    -0.354 N 
ATOM     53  N   UNL A   1      43.654  27.219  31.683  1.00  0.00    -0.248 NA
ATOM     54  C   UNL A   1      44.917  25.458  30.807  1.00  0.00     0.031 C 
ATOM     55  C   UNL A   1      44.584  29.306  35.499  1.00  0.00     0.029 A 
ATOM     56  C   UNL A   1      44.308  28.630  34.320  1.00  0.00     0.049 A 
ATOM     57  H   UNL A   1      42.749  28.957  32.937  1.00  0.00     0.167 HD
ATOM     58  C   UNL A   1      44.695  26.925  32.558  1.00  0.00     0.074 A 
ATOM     59  C   UNL A   1      45.418  25.808  31.985  1.00  0.00     0.031 C 
ATOM     60  C   UNL A   1      45.020  27.523  33.733  1.00  0.00     0.031 A 
BRANCH  47  61
ATOM     61  C   UNL A   1      41.273  32.190  35.317  1.00  0.00    -0.014 A 
ATOM     62  C   UNL A   1      40.428  31.988  36.425  1.00  0.00     0.010 A 
ATOM     63  C   UNL A   1      41.845  33.460  35.119  1.00  0.00     0.010 A 
ATOM     64  C   UNL A   1      40.118  33.046  37.283  1.00  0.00     0.020 A 
ATOM     65  C   UNL A   1      41.566  34.513  35.996  1.00  0.00     0.020 A 
ATOM     66  C   UNL A   1      40.688  34.304  37.061  1.00  0.00     0.054 A 
BRANCH  66  67
ATOM     67  S   UNL A   1      40.277  35.656  38.198  1.00  0.00     0.124 S 
ATOM     68  O   UNL A   1      40.021  36.759  37.275  1.00  0.00    -0.237 OA
ATOM     69  O   UNL A   1      39.105  35.139  38.899  1.00  0.00    -0.237 OA
ATOM     70  O   UNL A   1      41.478  35.797  39.017  1.00  0.00    -0.744 OA
ENDBRANCH  66  67
ENDBRANCH  47  61
BRANCH  48  71
ATOM     71  C   UNL A   1      43.186  25.158  28.456  1.00  0.00    -0.014 A 
ATOM     72  C   UNL A   1      42.626  23.871  28.545  1.00  0.00     0.010 A 
ATOM     73  C   UNL A   1      44.019  25.466  27.364  1.00  0.00     0.010 A 
ATOM     74  C   UNL A   1      42.907  22.906  27.572  1.00  0.00     0.020 A 
ATOM     75  C   UNL A   1      44.276  24.514  26.374  1.00  0.00     0.020 A 
ATOM     76  C   UNL A   1      43.727  23.236  26.490  1.00  0.00     0.054 A 
BRANCH  76  77
ATOM     77  S   UNL A   1      44.029  21.987  25.209  1.00  0.00     0.124 S 
ATOM     78  O   UNL A   1      45.413  21.606  25.475  1.00  0.00    -0.237 OA
ATOM     79  O   UNL A   1      43.023  20.973  25.516  1.00  0.00    -0.237 OA
ATOM     80  O   UNL A   1      43.807  22.716  23.962  1.00  0.00    -0.744 OA
ENDBRANCH  76  77
ENDBRANCH  48  71
BRANCH  60  81
ATOM     81  C   UNL A   1      46.181  26.946  34.503  1.00  0.00    -0.014 A 
ATOM     82  C   UNL A   1      47.493  27.419  34.325  1.00  0.00     0.010 A 
ATOM     83  C   UNL A   1      45.942  25.927  35.443  1.00  0.00     0.010 A 
ATOM     84  C   UNL A   1      48.552  26.844  35.033  1.00  0.00     0.020 A 
ATOM     85  C   UNL A   1      46.993  25.374  36.179  1.00  0.00     0.020 A 
ATOM     86  C   UNL A   1      48.295  25.822  35.952  1.00  0.00     0.054 A 
BRANCH  86  87
ATOM     87  S   UNL A   1      49.685  25.096  36.864  1.00  0.00     0.124 S 
ATOM     88  O   UNL A   1      50.797  25.311  35.942  1.00  0.00    -0.237 OA
ATOM     89  O   UNL A   1      49.718  25.896  38.087  1.00  0.00    -0.237 OA
ATOM     90  O   UNL A   1      49.289  23.702  37.049  1.00  0.00    -0.744 OA
ENDBRANCH  86  87
ENDBRANCH  60  81
ENDBRANCH  34  35
ENDBRANCH  26  29
ENDBRANCH  24  25
ENDBRANCH  23  24
ENDBRANCH   1  23
TORSDOF 18
ENDMDL
MODEL 3
REMARK VINA RESULT:      -9.7      4.736     10.003
REMARK SMILES C[NH2+]C[C@H](C)C(=O)N[C@H]1C=C[C@@H](C(=O)NCCCCNC(=O)c2ccc(-c3c4nc(c(-c5ccc(S(=O)(=O)[O-])cc5)c5ccc([nH]5)c(-c5ccc(S(=O)(=O)[O-])cc5)c5nc(c(-c6ccc(S(=O)(=O)[O-])cc6)c6ccc3[nH]6)C=C5)C=C4)cc2)C1
REMARK SMILES IDX 17 1 16 2 15 3 13 4 14 5 12 7 9 8 10 9 83 10 11 11 8 12 6 13
REMARK SMILES IDX 7 14 4 16 5 17 3 18 2 19 1 20 18 23 19 24 20 25 21 26 22 28
REMARK SMILES IDX 23 29 24 30 82 31 25 32 81 33 26 34 27 35 28 36 75 37 29 38
REMARK SMILES IDX 80 39 74 40 76 41 30 42 79 43 73 44 72 45 31 47 61 48 42 49
REMARK SMILES IDX 60 50 43 51 46 52 59 53 77 54 44 55 45 56 58 58 78 59 47 60
REMARK SMILES IDX 32 61 33 62 41 63 34 64 40 65 35 66 36 67 37 68 38 69 39 70
REMARK SMILES IDX 62 71 63 72 71 73 64 74 70 75 65 76 66 77 67 78 68 79 69 80
REMARK SMILES IDX 48 81 49 82 57 83 50 84 56 85 51 86 52 87 53 88 54 89 55 90
REMARK H PARENT 15 6 8 15 2 21 2 22 20 27 76 46 46 57
REMARK Flexibility Score: inf
ROOT
ATOM      1  C   UNL A   1      35.383  23.398  23.882  1.00  0.00     0.023 C 
ENDROOT
BRANCH   1   2
ATOM      2  C   UNL A   1      34.477  24.257  24.766  1.00  0.00     0.116 C 
BRANCH   2   3
ATOM      3  N   UNL A   1      33.678  25.158  23.965  1.00  0.00    -0.356 N 
ATOM      4  C   UNL A   1      32.437  25.024  23.435  1.00  0.00     0.227 C 
ATOM      5  O   UNL A   1      32.026  25.964  22.743  1.00  0.00    -0.274 OA
ATOM      6  H   UNL A   1      34.111  26.020  23.772  1.00  0.00     0.163 HD
BRANCH   4   7
ATOM      7  C   UNL A   1      31.505  23.845  23.729  1.00  0.00     0.103 C 
ATOM      8  C   UNL A   1      31.810  21.510  24.533  1.00  0.00     0.106 C 
ATOM      9  C   UNL A   1      31.431  22.459  25.616  1.00  0.00    -0.006 C 
ATOM     10  C   UNL A   1      31.880  22.426  23.283  1.00  0.00     0.047 C 
ATOM     11  C   UNL A   1      31.273  23.716  25.196  1.00  0.00    -0.016 C 
BRANCH   8  12
ATOM     12  N   UNL A   1      33.089  20.872  24.800  1.00  0.00    -0.349 N 
ATOM     13  C   UNL A   1      33.581  19.622  24.622  1.00  0.00     0.228 C 
ATOM     14  O   UNL A   1      34.804  19.502  24.766  1.00  0.00    -0.275 OA
ATOM     15  H   UNL A   1      33.746  21.488  25.199  1.00  0.00     0.164 HD
BRANCH  13  16
ATOM     16  C   UNL A   1      32.743  18.384  24.329  1.00  0.00     0.130 C 
ATOM     17  C   UNL A   1      32.465  18.235  22.830  1.00  0.00     0.024 C 
BRANCH  16  18
ATOM     18  C   UNL A   1      33.234  17.085  24.983  1.00  0.00     0.273 C 
BRANCH  18  19
ATOM     19  N   UNL A   1      34.400  16.461  24.347  1.00  0.00    -0.348 N 
ATOM     20  C   UNL A   1      35.282  15.822  25.316  1.00  0.00     0.330 C 
ATOM     21  H   UNL A   1      34.076  15.756  23.685  1.00  0.00     0.346 HD
ATOM     22  H   UNL A   1      34.930  17.195  23.877  1.00  0.00     0.346 HD
ENDBRANCH  18  19
ENDBRANCH  16  18
ENDBRANCH  13  16
ENDBRANCH   8  12
ENDBRANCH   4   7
ENDBRANCH   2   3
ENDBRANCH   1   2
BRANCH   1  23
ATOM     23  C   UNL A   1      36.860  23.436  24.282  1.00  0.00     0.023 C 
BRANCH  23  24
ATOM     24  C   UNL A   1      37.120  23.205  25.763  1.00  0.00     0.116 C 
BRANCH  24  25
ATOM     25  N   UNL A   1      38.017  22.088  26.003  1.00  0.00    -0.352 N 
ATOM     26  C   UNL A   1      39.333  22.115  26.398  1.00  0.00     0.251 C 
ATOM     27  H   UNL A   1      37.632  21.193  25.864  1.00  0.00     0.163 HD
ATOM     28  O   UNL A   1      39.998  21.086  26.389  1.00  0.00    -0.269 OA
BRANCH  26  29
ATOM     29  C   UNL A   1      39.943  23.397  26.811  1.00  0.00     0.039 A 
ATOM     30  C   UNL A   1      39.880  24.486  25.939  1.00  0.00     0.014 A 
ATOM     31  C   UNL A   1      40.572  23.525  28.053  1.00  0.00     0.014 A 
ATOM     32  C   UNL A   1      40.426  25.710  26.328  1.00  0.00     0.010 A 
ATOM     33  C   UNL A   1      41.026  24.769  28.476  1.00  0.00     0.010 A 
ATOM     34  C   UNL A   1      40.989  25.867  27.606  1.00  0.00    -0.014 A 
BRANCH  34  35
ATOM     35  C   UNL A   1      41.592  27.157  28.021  1.00  0.00     0.031 A 
ATOM     36  C   UNL A   1      43.075  27.377  27.870  1.00  0.00     0.074 A 
ATOM     37  C   UNL A   1      40.816  28.120  28.556  1.00  0.00     0.049 A 
ATOM     38  N   UNL A   1      43.787  28.435  28.161  1.00  0.00    -0.248 NA
ATOM     39  C   UNL A   1      43.869  26.249  27.353  1.00  0.00     0.031 C 
ATOM     40  C   UNL A   1      39.376  28.009  28.803  1.00  0.00     0.029 A 
ATOM     41  N   UNL A   1      41.129  29.385  28.986  1.00  0.00    -0.354 N 
ATOM     42  C   UNL A   1      45.105  28.095  27.878  1.00  0.00     0.074 A 
ATOM     43  C   UNL A   1      45.104  26.712  27.459  1.00  0.00     0.031 C 
ATOM     44  C   UNL A   1      38.925  29.172  29.299  1.00  0.00     0.029 A 
ATOM     45  C   UNL A   1      40.045  30.096  29.441  1.00  0.00     0.049 A 
ATOM     46  H   UNL A   1      42.044  29.749  28.967  1.00  0.00     0.167 HD
ATOM     47  C   UNL A   1      46.215  28.870  27.934  1.00  0.00     0.031 A 
ATOM     48  C   UNL A   1      39.962  31.355  29.914  1.00  0.00     0.031 A 
ATOM     49  C   UNL A   1      46.207  30.248  28.342  1.00  0.00     0.049 A 
ATOM     50  C   UNL A   1      41.204  32.202  29.958  1.00  0.00     0.074 A 
ATOM     51  C   UNL A   1      47.264  31.140  28.380  1.00  0.00     0.029 A 
ATOM     52  N   UNL A   1      45.087  30.937  28.784  1.00  0.00    -0.354 N 
ATOM     53  N   UNL A   1      42.431  31.886  29.616  1.00  0.00    -0.248 NA
ATOM     54  C   UNL A   1      41.044  33.585  30.427  1.00  0.00     0.031 C 
ATOM     55  C   UNL A   1      46.796  32.350  28.902  1.00  0.00     0.029 A 
ATOM     56  C   UNL A   1      45.432  32.235  29.119  1.00  0.00     0.049 A 
ATOM     57  H   UNL A   1      44.181  30.558  28.850  1.00  0.00     0.167 HD
ATOM     58  C   UNL A   1      43.184  33.042  29.796  1.00  0.00     0.074 A 
ATOM     59  C   UNL A   1      42.270  34.065  30.262  1.00  0.00     0.031 C 
ATOM     60  C   UNL A   1      44.510  33.240  29.589  1.00  0.00     0.031 A 
BRANCH  47  61
ATOM     61  C   UNL A   1      47.528  28.231  27.556  1.00  0.00    -0.014 A 
ATOM     62  C   UNL A   1      47.989  28.239  26.226  1.00  0.00     0.010 A 
ATOM     63  C   UNL A   1      48.324  27.630  28.548  1.00  0.00     0.010 A 
ATOM     64  C   UNL A   1      49.191  27.612  25.887  1.00  0.00     0.020 A 
ATOM     65  C   UNL A   1      49.544  27.032  28.220  1.00  0.00     0.020 A 
ATOM     66  C   UNL A   1      49.960  27.009  26.887  1.00  0.00     0.054 A 
BRANCH  66  67
ATOM     67  S   UNL A   1      51.521  26.213  26.421  1.00  0.00     0.124 S 
ATOM     68  O   UNL A   1      51.526  26.384  24.970  1.00  0.00    -0.237 OA
ATOM     69  O   UNL A   1      52.512  27.000  27.150  1.00  0.00    -0.237 OA
ATOM     70  O   UNL A   1      51.359  24.837  26.884  1.00  0.00    -0.744 OA
ENDBRANCH  66  67
ENDBRANCH  47  61
BRANCH  48  71
ATOM     71  C   UNL A   1      38.644  31.897  30.351  1.00  0.00    -0.014 A 
ATOM     72  C   UNL A   1      38.223  31.772  31.687  1.00  0.00     0.010 A 
ATOM     73  C   UNL A   1      37.810  32.561  29.432  1.00  0.00     0.010 A 
ATOM     74  C   UNL A   1      36.987  32.286  32.092  1.00  0.00     0.020 A 
ATOM     75  C   UNL A   1      36.589  33.103  29.841  1.00  0.00     0.020 A 
ATOM     76  C   UNL A   1      36.180  32.953  31.166  1.00  0.00     0.054 A 
BRANCH  76  77
ATOM     77  S   UNL A   1      34.608  33.663  31.728  1.00  0.00     0.124 S 
ATOM     78  O   UNL A   1      35.053  34.840  32.469  1.00  0.00    -0.237 OA
ATOM     79  O   UNL A   1      33.916  33.931  30.470  1.00  0.00    -0.237 OA
ATOM     80  O   UNL A   1      34.020  32.598  32.538  1.00  0.00    -0.744 OA
ENDBRANCH  76  77
ENDBRANCH  48  71
BRANCH  60  81
ATOM     81  C   UNL A   1      45.044  34.631  29.817  1.00  0.00    -0.014 A 
ATOM     82  C   UNL A   1      45.548  35.034  31.067  1.00  0.00     0.010 A 
ATOM     83  C   UNL A   1      45.065  35.544  28.746  1.00  0.00     0.010 A 
ATOM     84  C   UNL A   1      46.009  36.340  31.255  1.00  0.00     0.020 A 
ATOM     85  C   UNL A   1      45.559  36.838  28.920  1.00  0.00     0.020 A 
ATOM     86  C   UNL A   1      46.007  37.235  30.180  1.00  0.00     0.054 A 
BRANCH  86  87
ATOM     87  S   UNL A   1      46.617  38.921  30.447  1.00  0.00     0.124 S 
ATOM     88  O   UNL A   1      47.193  39.245  29.144  1.00  0.00    -0.237 OA
ATOM     89  O   UNL A   1      45.401  39.651  30.796  1.00  0.00    -0.237 OA
ATOM     90  O   UNL A   1      47.582  38.774  31.534  1.00  0.00    -0.744 OA
ENDBRANCH  86  87
ENDBRANCH  60  81
ENDBRANCH  34  35
ENDBRANCH  26  29
ENDBRANCH  24  25
ENDBRANCH  23  24
ENDBRANCH   1  23
TORSDOF 18
ENDMDL
