MODEL 1
REMARK VINA RESULT:      -7.5      0.000      0.000
REMARK SMILES COc1cc([C@H]2CC(c3ccc(S(C)(=O)=O)cc3)=NN2c2ccc(C(=O)NCCCCNC(=O)c3ccc(-c4c5nc(c(-c6ccc(S(=O)(=O)[O-])cc6)c6ccc([nH]6)c(-c6ccc(S(=O)(=O)[O-])cc6)c6nc(c(-c7ccc(S(=O)(=O)[O-])cc7)c7ccc4[nH]7)C=C6)C=C5)cc3)cc2)cc(OC)c1OC
REMARK SMILES IDX 29 1 28 2 27 3 25 4 26 5 24 7 21 8 22 9 96 10 23 11 95 12
REMARK SMILES IDX 20 13 6 14 7 15 8 16 19 17 5 18 3 19 4 20 101 21 98 22 97 23
REMARK SMILES IDX 2 24 1 25 102 26 103 27 99 28 100 29 9 30 10 31 18 32 11 33
REMARK SMILES IDX 17 34 12 35 13 36 14 37 15 38 16 39 30 40 31 41 32 42 33 43
REMARK SMILES IDX 34 45 35 46 36 47 94 48 37 49 93 50 38 51 39 52 40 53 87 54
REMARK SMILES IDX 41 55 92 56 86 57 88 58 42 59 91 60 85 61 84 62 43 64 73 65
REMARK SMILES IDX 54 66 72 67 55 68 58 69 71 70 89 71 56 72 57 73 70 75 90 76
REMARK SMILES IDX 59 77 44 78 45 79 53 80 46 81 52 82 47 83 48 84 49 85 50 86
REMARK SMILES IDX 51 87 74 88 75 89 83 90 76 91 82 92 77 93 78 94 79 95 80 96
REMARK SMILES IDX 81 97 60 98 61 99 69 100 62 101 68 102 63 103 64 104 65 105
REMARK SMILES IDX 66 106 67 107
REMARK H PARENT 27 6 32 44 88 63 58 74
REMARK Flexibility Score: inf
ROOT
ATOM      1  C   UNL A   1      43.469  33.516  29.015  1.00  0.00     0.023 C 
ENDROOT
BRANCH   1   2
ATOM      2  C   UNL A   1      44.833  32.832  28.893  1.00  0.00     0.116 C 
BRANCH   2   3
ATOM      3  N   UNL A   1      45.159  32.614  27.499  1.00  0.00    -0.352 N 
ATOM      4  C   UNL A   1      45.036  31.510  26.695  1.00  0.00     0.251 C 
ATOM      5  O   UNL A   1      45.407  31.608  25.525  1.00  0.00    -0.269 OA
ATOM      6  H   UNL A   1      45.540  33.402  27.047  1.00  0.00     0.163 HD
BRANCH   4   7
ATOM      7  C   UNL A   1      44.409  30.240  27.155  1.00  0.00     0.039 A 
ATOM      8  C   UNL A   1      43.346  27.711  27.800  1.00  0.00     0.060 A 
ATOM      9  C   UNL A   1      44.712  27.867  27.547  1.00  0.00     0.029 A 
ATOM     10  C   UNL A   1      42.536  28.844  27.815  1.00  0.00     0.029 A 
ATOM     11  C   UNL A   1      45.238  29.113  27.208  1.00  0.00     0.016 A 
ATOM     12  C   UNL A   1      43.072  30.102  27.535  1.00  0.00     0.016 A 
BRANCH   8  13
ATOM     13  N   UNL A   1      42.827  26.451  28.014  1.00  0.00    -0.257 N 
ATOM     14  C   UNL A   1      43.500  25.399  28.781  1.00  0.00     0.144 C 
ATOM     15  C   UNL A   1      42.499  24.233  28.652  1.00  0.00     0.091 C 
ATOM     16  C   UNL A   1      41.583  24.794  27.592  1.00  0.00     0.071 C 
ATOM     17  N   UNL A   1      41.791  26.027  27.257  1.00  0.00    -0.176 NA
BRANCH  14  18
ATOM     18  C   UNL A   1      43.796  25.875  30.198  1.00  0.00    -0.015 A 
ATOM     19  C   UNL A   1      43.245  27.284  32.130  1.00  0.00     0.164 A 
ATOM     20  C   UNL A   1      43.114  26.966  30.761  1.00  0.00     0.056 A 
ATOM     21  C   UNL A   1      44.052  26.506  32.982  1.00  0.00     0.203 A 
ATOM     22  C   UNL A   1      44.752  25.421  32.413  1.00  0.00     0.164 A 
ATOM     23  C   UNL A   1      44.626  25.130  31.044  1.00  0.00     0.056 A 
BRANCH  19  24
ATOM     24  O   UNL A   1      42.412  28.264  32.609  1.00  0.00    -0.493 OA
ATOM     25  C   UNL A   1      41.688  28.926  31.572  1.00  0.00     0.278 C 
ENDBRANCH  19  24
BRANCH  21  26
ATOM     26  O   UNL A   1      44.214  26.672  34.329  1.00  0.00    -0.490 OA
ATOM     27  C   UNL A   1      43.334  26.091  35.270  1.00  0.00     0.278 C 
ENDBRANCH  21  26
BRANCH  22  28
ATOM     28  O   UNL A   1      45.597  24.533  33.037  1.00  0.00    -0.493 OA
ATOM     29  C   UNL A   1      45.048  23.343  33.585  1.00  0.00     0.278 C 
ENDBRANCH  22  28
ENDBRANCH  14  18
BRANCH  16  30
ATOM     30  C   UNL A   1      40.517  24.003  26.963  1.00  0.00    -0.002 A 
ATOM     31  C   UNL A   1      39.336  24.655  26.582  1.00  0.00     0.011 A 
ATOM     32  C   UNL A   1      40.637  22.618  26.843  1.00  0.00     0.011 A 
ATOM     33  C   UNL A   1      38.273  23.921  26.055  1.00  0.00     0.021 A 
ATOM     34  C   UNL A   1      39.563  21.877  26.340  1.00  0.00     0.021 A 
ATOM     35  C   UNL A   1      38.388  22.531  25.951  1.00  0.00     0.067 A 
BRANCH  35  36
ATOM     36  S   UNL A   1      37.028  21.594  25.292  1.00  0.00     0.175 S 
ATOM     37  C   UNL A   1      36.534  22.479  23.836  1.00  0.00     0.163 C 
ATOM     38  O   UNL A   1      37.567  20.307  24.883  1.00  0.00    -0.224 OA
ATOM     39  O   UNL A   1      35.937  21.674  26.241  1.00  0.00    -0.224 OA
ENDBRANCH  35  36
ENDBRANCH  16  30
ENDBRANCH   8  13
ENDBRANCH   4   7
ENDBRANCH   2   3
ENDBRANCH   1   2
BRANCH   1  40
ATOM     40  C   UNL A   1      43.006  33.706  30.459  1.00  0.00     0.023 C 
BRANCH  40  41
ATOM     41  C   UNL A   1      43.591  34.930  31.149  1.00  0.00     0.116 C 
BRANCH  41  42
ATOM     42  N   UNL A   1      42.737  35.452  32.209  1.00  0.00    -0.352 N 
ATOM     43  C   UNL A   1      42.502  34.898  33.444  1.00  0.00     0.251 C 
ATOM     44  H   UNL A   1      42.275  36.301  32.017  1.00  0.00     0.163 HD
ATOM     45  O   UNL A   1      41.671  35.383  34.205  1.00  0.00    -0.269 OA
BRANCH  43  46
ATOM     46  C   UNL A   1      43.249  33.681  33.812  1.00  0.00     0.039 A 
ATOM     47  C   UNL A   1      42.581  32.456  33.843  1.00  0.00     0.014 A 
ATOM     48  C   UNL A   1      44.629  33.750  34.014  1.00  0.00     0.014 A 
ATOM     49  C   UNL A   1      43.316  31.280  34.005  1.00  0.00     0.010 A 
ATOM     50  C   UNL A   1      45.364  32.576  34.099  1.00  0.00     0.010 A 
ATOM     51  C   UNL A   1      44.717  31.329  34.093  1.00  0.00    -0.014 A 
BRANCH  51  52
ATOM     52  C   UNL A   1      45.541  30.099  34.179  1.00  0.00     0.031 A 
ATOM     53  C   UNL A   1      45.968  29.588  35.528  1.00  0.00     0.074 A 
ATOM     54  C   UNL A   1      45.985  29.504  33.055  1.00  0.00     0.049 A 
ATOM     55  N   UNL A   1      46.797  28.620  35.819  1.00  0.00    -0.248 NA
ATOM     56  C   UNL A   1      45.410  30.278  36.705  1.00  0.00     0.031 C 
ATOM     57  C   UNL A   1      45.662  29.919  31.687  1.00  0.00     0.029 A 
ATOM     58  N   UNL A   1      46.822  28.428  32.882  1.00  0.00    -0.354 N 
ATOM     59  C   UNL A   1      46.885  28.605  37.206  1.00  0.00     0.074 A 
ATOM     60  C   UNL A   1      46.059  29.687  37.696  1.00  0.00     0.031 C 
ATOM     61  C   UNL A   1      46.276  29.096  30.821  1.00  0.00     0.029 A 
ATOM     62  C   UNL A   1      47.079  28.131  31.565  1.00  0.00     0.049 A 
ATOM     63  H   UNL A   1      47.203  27.917  33.634  1.00  0.00     0.167 HD
ATOM     64  C   UNL A   1      47.581  27.759  38.000  1.00  0.00     0.031 A 
ATOM     65  C   UNL A   1      47.883  27.199  31.016  1.00  0.00     0.031 A 
ATOM     66  C   UNL A   1      48.386  26.675  37.506  1.00  0.00     0.049 A 
ATOM     67  C   UNL A   1      48.665  26.284  31.921  1.00  0.00     0.074 A 
ATOM     68  C   UNL A   1      49.080  25.722  38.230  1.00  0.00     0.029 A 
ATOM     69  N   UNL A   1      48.608  26.400  36.165  1.00  0.00    -0.354 N 
ATOM     70  N   UNL A   1      48.689  26.244  33.232  1.00  0.00    -0.248 NA
ATOM     71  C   UNL A   1      49.527  25.283  31.273  1.00  0.00     0.031 C 
ATOM     72  C   UNL A   1      49.770  24.908  37.328  1.00  0.00     0.029 A 
ATOM     73  C   UNL A   1      49.450  25.310  36.040  1.00  0.00     0.049 A 
ATOM     74  H   UNL A   1      48.222  26.906  35.413  1.00  0.00     0.167 HD
ATOM     75  C   UNL A   1      49.536  25.192  33.565  1.00  0.00     0.074 A 
ATOM     76  C   UNL A   1      50.000  24.619  32.319  1.00  0.00     0.031 C 
ATOM     77  C   UNL A   1      49.891  24.740  34.792  1.00  0.00     0.031 A 
BRANCH  64  78
ATOM     78  C   UNL A   1      47.513  27.979  39.488  1.00  0.00    -0.014 A 
ATOM     79  C   UNL A   1      48.443  28.803  40.147  1.00  0.00     0.010 A 
ATOM     80  C   UNL A   1      46.474  27.389  40.232  1.00  0.00     0.010 A 
ATOM     81  C   UNL A   1      48.361  28.998  41.528  1.00  0.00     0.020 A 
ATOM     82  C   UNL A   1      46.370  27.607  41.608  1.00  0.00     0.020 A 
ATOM     83  C   UNL A   1      47.324  28.397  42.251  1.00  0.00     0.054 A 
BRANCH  83  84
ATOM     84  S   UNL A   1      47.228  28.691  44.037  1.00  0.00     0.124 S 
ATOM     85  O   UNL A   1      47.328  27.335  44.571  1.00  0.00    -0.237 OA
ATOM     86  O   UNL A   1      48.385  29.549  44.283  1.00  0.00    -0.237 OA
ATOM     87  O   UNL A   1      45.929  29.336  44.213  1.00  0.00    -0.744 OA
ENDBRANCH  83  84
ENDBRANCH  64  78
BRANCH  65  88
ATOM     88  C   UNL A   1      47.985  27.074  29.535  1.00  0.00    -0.014 A 
ATOM     89  C   UNL A   1      47.395  25.984  28.870  1.00  0.00     0.010 A 
ATOM     90  C   UNL A   1      48.670  28.045  28.780  1.00  0.00     0.010 A 
ATOM     91  C   UNL A   1      47.506  25.855  27.482  1.00  0.00     0.020 A 
ATOM     92  C   UNL A   1      48.758  27.934  27.389  1.00  0.00     0.020 A 
ATOM     93  C   UNL A   1      48.185  26.832  26.750  1.00  0.00     0.054 A 
BRANCH  93  94
ATOM     94  S   UNL A   1      48.280  26.663  24.946  1.00  0.00     0.124 S 
ATOM     95  O   UNL A   1      49.532  25.934  24.774  1.00  0.00    -0.237 OA
ATOM     96  O   UNL A   1      47.063  25.914  24.637  1.00  0.00    -0.237 OA
ATOM     97  O   UNL A   1      48.288  28.045  24.472  1.00  0.00    -0.744 OA
ENDBRANCH  93  94
ENDBRANCH  65  88
BRANCH  77  98
ATOM     98  C   UNL A   1      50.784  23.530  34.865  1.00  0.00    -0.014 A 
ATOM     99  C   UNL A   1      50.254  22.229  34.922  1.00  0.00     0.010 A 
ATOM    100  C   UNL A   1      52.179  23.700  34.775  1.00  0.00     0.010 A 
ATOM    101  C   UNL A   1      51.105  21.121  34.899  1.00  0.00     0.020 A 
ATOM    102  C   UNL A   1      53.029  22.594  34.722  1.00  0.00     0.020 A 
ATOM    103  C   UNL A   1      52.487  21.310  34.792  1.00  0.00     0.054 A 
BRANCH 103 104
ATOM    104  S   UNL A   1      53.562  19.853  34.681  1.00  0.00     0.124 S 
ATOM    105  O   UNL A   1      54.781  20.324  35.331  1.00  0.00    -0.237 OA
ATOM    106  O   UNL A   1      52.805  18.842  35.416  1.00  0.00    -0.237 OA
ATOM    107  O   UNL A   1      53.675  19.614  33.243  1.00  0.00    -0.744 OA
ENDBRANCH 103 104
ENDBRANCH  77  98
ENDBRANCH  51  52
ENDBRANCH  43  46
ENDBRANCH  41  42
ENDBRANCH  40  41
ENDBRANCH   1  40
TORSDOF 21
ENDMDL
MODEL 2
REMARK VINA RESULT:      -7.4      3.680     10.203
REMARK SMILES COc1cc([C@H]2CC(c3ccc(S(C)(=O)=O)cc3)=NN2c2ccc(C(=O)NCCCCNC(=O)c3ccc(-c4c5nc(c(-c6ccc(S(=O)(=O)[O-])cc6)c6ccc([nH]6)c(-c6ccc(S(=O)(=O)[O-])cc6)c6nc(c(-c7ccc(S(=O)(=O)[O-])cc7)c7ccc4[nH]7)C=C6)C=C5)cc3)cc2)cc(OC)c1OC
REMARK SMILES IDX 29 1 28 2 27 3 25 4 26 5 24 7 21 8 22 9 96 10 23 11 95 12
REMARK SMILES IDX 20 13 6 14 7 15 8 16 19 17 5 18 3 19 4 20 101 21 98 22 97 23
REMARK SMILES IDX 2 24 1 25 102 26 103 27 99 28 100 29 9 30 10 31 18 32 11 33
REMARK SMILES IDX 17 34 12 35 13 36 14 37 15 38 16 39 30 40 31 41 32 42 33 43
REMARK SMILES IDX 34 45 35 46 36 47 94 48 37 49 93 50 38 51 39 52 40 53 87 54
REMARK SMILES IDX 41 55 92 56 86 57 88 58 42 59 91 60 85 61 84 62 43 64 73 65
REMARK SMILES IDX 54 66 72 67 55 68 58 69 71 70 89 71 56 72 57 73 70 75 90 76
REMARK SMILES IDX 59 77 44 78 45 79 53 80 46 81 52 82 47 83 48 84 49 85 50 86
REMARK SMILES IDX 51 87 74 88 75 89 83 90 76 91 82 92 77 93 78 94 79 95 80 96
REMARK SMILES IDX 81 97 60 98 61 99 69 100 62 101 68 102 63 103 64 104 65 105
REMARK SMILES IDX 66 106 67 107
REMARK H PARENT 27 6 32 44 88 63 58 74
REMARK Flexibility Score: inf
ROOT
ATOM      1  C   UNL A   1      50.066  20.421  37.453  1.00  0.00     0.023 C 
ENDROOT
BRANCH   1   2
ATOM      2  C   UNL A   1      51.385  20.991  36.927  1.00  0.00     0.116 C 
BRANCH   2   3
ATOM      3  N   UNL A   1      51.833  20.234  35.777  1.00  0.00    -0.352 N 
ATOM      4  C   UNL A   1      51.816  20.518  34.435  1.00  0.00     0.251 C 
ATOM      5  O   UNL A   1      52.264  19.670  33.663  1.00  0.00    -0.269 OA
ATOM      6  H   UNL A   1      52.217  19.355  35.998  1.00  0.00     0.163 HD
BRANCH   4   7
ATOM      7  C   UNL A   1      51.353  21.825  33.891  1.00  0.00     0.039 A 
ATOM      8  C   UNL A   1      50.253  24.155  32.751  1.00  0.00     0.060 A 
ATOM      9  C   UNL A   1      49.472  23.318  33.553  1.00  0.00     0.029 A 
ATOM     10  C   UNL A   1      51.607  23.864  32.599  1.00  0.00     0.029 A 
ATOM     11  C   UNL A   1      50.008  22.153  34.102  1.00  0.00     0.016 A 
ATOM     12  C   UNL A   1      52.159  22.731  33.198  1.00  0.00     0.016 A 
BRANCH   8  13
ATOM     13  N   UNL A   1      49.673  25.237  32.119  1.00  0.00    -0.257 N 
ATOM     14  C   UNL A   1      48.972  26.320  32.813  1.00  0.00     0.144 C 
ATOM     15  C   UNL A   1      48.512  27.197  31.631  1.00  0.00     0.091 C 
ATOM     16  C   UNL A   1      48.819  26.267  30.483  1.00  0.00     0.071 C 
ATOM     17  N   UNL A   1      49.462  25.186  30.785  1.00  0.00    -0.176 NA
BRANCH  14  18
ATOM     18  C   UNL A   1      49.890  26.990  33.828  1.00  0.00    -0.015 A 
ATOM     19  C   UNL A   1      50.993  27.002  36.019  1.00  0.00     0.164 A 
ATOM     20  C   UNL A   1      50.005  26.508  35.142  1.00  0.00     0.056 A 
ATOM     21  C   UNL A   1      51.909  27.986  35.602  1.00  0.00     0.203 A 
ATOM     22  C   UNL A   1      51.782  28.485  34.288  1.00  0.00     0.164 A 
ATOM     23  C   UNL A   1      50.780  27.996  33.432  1.00  0.00     0.056 A 
BRANCH  19  24
ATOM     24  O   UNL A   1      51.122  26.348  37.219  1.00  0.00    -0.493 OA
ATOM     25  C   UNL A   1      50.133  25.336  37.404  1.00  0.00     0.278 C 
ENDBRANCH  19  24
BRANCH  21  26
ATOM     26  O   UNL A   1      52.943  28.501  36.331  1.00  0.00    -0.490 OA
ATOM     27  C   UNL A   1      52.825  29.709  37.055  1.00  0.00     0.278 C 
ENDBRANCH  21  26
BRANCH  22  28
ATOM     28  O   UNL A   1      52.547  29.443  33.664  1.00  0.00    -0.493 OA
ATOM     29  C   UNL A   1      52.079  30.784  33.650  1.00  0.00     0.278 C 
ENDBRANCH  22  28
ENDBRANCH  14  18
BRANCH  16  30
ATOM     30  C   UNL A   1      48.416  26.553  29.099  1.00  0.00    -0.002 A 
ATOM     31  C   UNL A   1      48.515  27.871  28.632  1.00  0.00     0.011 A 
ATOM     32  C   UNL A   1      47.854  25.555  28.303  1.00  0.00     0.011 A 
ATOM     33  C   UNL A   1      48.067  28.192  27.351  1.00  0.00     0.021 A 
ATOM     34  C   UNL A   1      47.380  25.880  27.028  1.00  0.00     0.021 A 
ATOM     35  C   UNL A   1      47.487  27.195  26.560  1.00  0.00     0.067 A 
BRANCH  35  36
ATOM     36  S   UNL A   1      46.904  27.607  24.931  1.00  0.00     0.175 S 
ATOM     37  C   UNL A   1      48.250  27.191  23.852  1.00  0.00     0.163 C 
ATOM     38  O   UNL A   1      45.796  26.711  24.645  1.00  0.00    -0.224 OA
ATOM     39  O   UNL A   1      46.730  29.043  24.876  1.00  0.00    -0.224 OA
ENDBRANCH  35  36
ENDBRANCH  16  30
ENDBRANCH   8  13
ENDBRANCH   4   7
ENDBRANCH   2   3
ENDBRANCH   1   2
BRANCH   1  40
ATOM     40  C   UNL A   1      49.764  20.809  38.900  1.00  0.00     0.023 C 
BRANCH  40  41
ATOM     41  C   UNL A   1      48.788  21.967  39.048  1.00  0.00     0.116 C 
BRANCH  41  42
ATOM     42  N   UNL A   1      47.559  21.595  39.739  1.00  0.00    -0.352 N 
ATOM     43  C   UNL A   1      46.274  21.955  39.412  1.00  0.00     0.251 C 
ATOM     44  H   UNL A   1      47.662  21.018  40.530  1.00  0.00     0.163 HD
ATOM     45  O   UNL A   1      45.332  21.665  40.142  1.00  0.00    -0.269 OA
BRANCH  43  46
ATOM     46  C   UNL A   1      46.064  22.735  38.178  1.00  0.00     0.039 A 
ATOM     47  C   UNL A   1      45.097  23.741  38.164  1.00  0.00     0.014 A 
ATOM     48  C   UNL A   1      46.905  22.534  37.081  1.00  0.00     0.014 A 
ATOM     49  C   UNL A   1      45.022  24.603  37.069  1.00  0.00     0.010 A 
ATOM     50  C   UNL A   1      46.878  23.439  36.028  1.00  0.00     0.010 A 
ATOM     51  C   UNL A   1      45.939  24.483  36.012  1.00  0.00    -0.014 A 
BRANCH  51  52
ATOM     52  C   UNL A   1      45.950  25.432  34.871  1.00  0.00     0.031 A 
ATOM     53  C   UNL A   1      46.373  26.857  35.098  1.00  0.00     0.074 A 
ATOM     54  C   UNL A   1      45.489  25.043  33.666  1.00  0.00     0.049 A 
ATOM     55  N   UNL A   1      46.323  27.873  34.278  1.00  0.00    -0.248 NA
ATOM     56  C   UNL A   1      46.893  27.189  36.436  1.00  0.00     0.031 C 
ATOM     57  C   UNL A   1      45.027  23.694  33.326  1.00  0.00     0.029 A 
ATOM     58  N   UNL A   1      45.317  25.752  32.502  1.00  0.00    -0.354 N 
ATOM     59  C   UNL A   1      46.774  28.968  35.006  1.00  0.00     0.074 A 
ATOM     60  C   UNL A   1      47.052  28.500  36.347  1.00  0.00     0.031 C 
ATOM     61  C   UNL A   1      44.644  23.672  32.039  1.00  0.00     0.029 A 
ATOM     62  C   UNL A   1      44.780  25.012  31.475  1.00  0.00     0.049 A 
ATOM     63  H   UNL A   1      45.555  26.704  32.413  1.00  0.00     0.167 HD
ATOM     64  C   UNL A   1      46.951  30.244  34.593  1.00  0.00     0.031 A 
ATOM     65  C   UNL A   1      44.422  25.373  30.227  1.00  0.00     0.031 A 
ATOM     66  C   UNL A   1      46.689  30.697  33.254  1.00  0.00     0.049 A 
ATOM     67  C   UNL A   1      44.608  26.805  29.799  1.00  0.00     0.074 A 
ATOM     68  C   UNL A   1      46.896  31.955  32.718  1.00  0.00     0.029 A 
ATOM     69  N   UNL A   1      46.160  29.911  32.241  1.00  0.00    -0.354 N 
ATOM     70  N   UNL A   1      45.093  27.813  30.483  1.00  0.00    -0.248 NA
ATOM     71  C   UNL A   1      44.202  27.147  28.427  1.00  0.00     0.031 C 
ATOM     72  C   UNL A   1      46.436  31.946  31.398  1.00  0.00     0.029 A 
ATOM     73  C   UNL A   1      46.008  30.665  31.091  1.00  0.00     0.049 A 
ATOM     74  H   UNL A   1      45.927  28.958  32.328  1.00  0.00     0.167 HD
ATOM     75  C   UNL A   1      45.087  28.899  29.614  1.00  0.00     0.074 A 
ATOM     76  C   UNL A   1      44.555  28.424  28.354  1.00  0.00     0.031 C 
ATOM     77  C   UNL A   1      45.491  30.173  29.839  1.00  0.00     0.031 A 
BRANCH  64  78
ATOM     78  C   UNL A   1      47.442  31.246  35.605  1.00  0.00    -0.014 A 
ATOM     79  C   UNL A   1      46.552  32.112  36.264  1.00  0.00     0.010 A 
ATOM     80  C   UNL A   1      48.810  31.289  35.933  1.00  0.00     0.010 A 
ATOM     81  C   UNL A   1      47.027  33.033  37.202  1.00  0.00     0.020 A 
ATOM     82  C   UNL A   1      49.283  32.186  36.894  1.00  0.00     0.020 A 
ATOM     83  C   UNL A   1      48.391  33.064  37.511  1.00  0.00     0.054 A 
BRANCH  83  84
ATOM     84  S   UNL A   1      48.972  34.251  38.753  1.00  0.00     0.124 S 
ATOM     85  O   UNL A   1      48.952  33.445  39.971  1.00  0.00    -0.237 OA
ATOM     86  O   UNL A   1      50.300  34.607  38.257  1.00  0.00    -0.237 OA
ATOM     87  O   UNL A   1      47.981  35.323  38.699  1.00  0.00    -0.744 OA
ENDBRANCH  83  84
ENDBRANCH  64  78
BRANCH  65  88
ATOM     88  C   UNL A   1      43.858  24.364  29.288  1.00  0.00    -0.014 A 
ATOM     89  C   UNL A   1      44.696  23.693  28.378  1.00  0.00     0.010 A 
ATOM     90  C   UNL A   1      42.483  24.064  29.297  1.00  0.00     0.010 A 
ATOM     91  C   UNL A   1      44.166  22.760  27.481  1.00  0.00     0.020 A 
ATOM     92  C   UNL A   1      41.955  23.109  28.423  1.00  0.00     0.020 A 
ATOM     93  C   UNL A   1      42.799  22.472  27.510  1.00  0.00     0.054 A 
BRANCH  93  94
ATOM     94  S   UNL A   1      42.144  21.227  26.365  1.00  0.00     0.124 S 
ATOM     95  O   UNL A   1      40.910  21.855  25.908  1.00  0.00    -0.237 OA
ATOM     96  O   UNL A   1      43.210  21.124  25.370  1.00  0.00    -0.237 OA
ATOM     97  O   UNL A   1      41.973  20.045  27.207  1.00  0.00    -0.744 OA
ENDBRANCH  93  94
ENDBRANCH  65  88
BRANCH  77  98
ATOM     98  C   UNL A   1      45.433  31.143  28.689  1.00  0.00    -0.014 A 
ATOM     99  C   UNL A   1      44.243  31.810  28.352  1.00  0.00     0.010 A 
ATOM    100  C   UNL A   1      46.619  31.462  27.999  1.00  0.00     0.010 A 
ATOM    101  C   UNL A   1      44.238  32.772  27.338  1.00  0.00     0.020 A 
ATOM    102  C   UNL A   1      46.622  32.443  27.006  1.00  0.00     0.020 A 
ATOM    103  C   UNL A   1      45.429  33.088  26.676  1.00  0.00     0.054 A 
BRANCH 103 104
ATOM    104  S   UNL A   1      45.411  34.398  25.422  1.00  0.00     0.124 S 
ATOM    105  O   UNL A   1      46.830  34.550  25.119  1.00  0.00    -0.237 OA
ATOM    106  O   UNL A   1      44.599  33.810  24.359  1.00  0.00    -0.237 OA
ATOM    107  O   UNL A   1      44.797  35.531  26.112  1.00  0.00    -0.744 OA
ENDBRANCH 103 104
ENDBRANCH  77  98
ENDBRANCH  51  52
ENDBRANCH  43  46
ENDBRANCH  41  42
ENDBRANCH  40  41
ENDBRANCH   1  40
TORSDOF 21
ENDMDL
MODEL 3
REMARK VINA RESULT:      -7.4      7.260     12.544
REMARK SMILES COc1cc([C@H]2CC(c3ccc(S(C)(=O)=O)cc3)=NN2c2ccc(C(=O)NCCCCNC(=O)c3ccc(-c4c5nc(c(-c6ccc(S(=O)(=O)[O-])cc6)c6ccc([nH]6)c(-c6ccc(S(=O)(=O)[O-])cc6)c6nc(c(-c7ccc(S(=O)(=O)[O-])cc7)c7ccc4[nH]7)C=C6)C=C5)cc3)cc2)cc(OC)c1OC
REMARK SMILES IDX 29 1 28 2 27 3 25 4 26 5 24 7 21 8 22 9 96 10 23 11 95 12
REMARK SMILES IDX 20 13 6 14 7 15 8 16 19 17 5 18 3 19 4 20 101 21 98 22 97 23
REMARK SMILES IDX 2 24 1 25 102 26 103 27 99 28 100 29 9 30 10 31 18 32 11 33
REMARK SMILES IDX 17 34 12 35 13 36 14 37 15 38 16 39 30 40 31 41 32 42 33 43
REMARK SMILES IDX 34 45 35 46 36 47 94 48 37 49 93 50 38 51 39 52 40 53 87 54
REMARK SMILES IDX 41 55 92 56 86 57 88 58 42 59 91 60 85 61 84 62 43 64 73 65
REMARK SMILES IDX 54 66 72 67 55 68 58 69 71 70 89 71 56 72 57 73 70 75 90 76
REMARK SMILES IDX 59 77 44 78 45 79 53 80 46 81 52 82 47 83 48 84 49 85 50 86
REMARK SMILES IDX 51 87 74 88 75 89 83 90 76 91 82 92 77 93 78 94 79 95 80 96
REMARK SMILES IDX 81 97 60 98 61 99 69 100 62 101 68 102 63 103 64 104 65 105
REMARK SMILES IDX 66 106 67 107
REMARK H PARENT 27 6 32 44 88 63 58 74
REMARK Flexibility Score: inf
ROOT
ATOM      1  C   UNL A   1      44.717  43.457  29.291  1.00  0.00     0.023 C 
ENDROOT
BRANCH   1   2
ATOM      2  C   UNL A   1      45.100  43.850  30.720  1.00  0.00     0.116 C 
BRANCH   2   3
ATOM      3  N   UNL A   1      43.929  44.304  31.443  1.00  0.00    -0.352 N 
ATOM      4  C   UNL A   1      43.097  43.663  32.324  1.00  0.00     0.251 C 
ATOM      5  O   UNL A   1      42.154  44.303  32.791  1.00  0.00    -0.269 OA
ATOM      6  H   UNL A   1      43.687  45.242  31.268  1.00  0.00     0.163 HD
BRANCH   4   7
ATOM      7  C   UNL A   1      43.329  42.267  32.788  1.00  0.00     0.039 A 
ATOM      8  C   UNL A   1      43.515  39.561  33.552  1.00  0.00     0.060 A 
ATOM      9  C   UNL A   1      43.212  39.910  32.233  1.00  0.00     0.029 A 
ATOM     10  C   UNL A   1      43.811  40.575  34.460  1.00  0.00     0.029 A 
ATOM     11  C   UNL A   1      43.099  41.248  31.856  1.00  0.00     0.016 A 
ATOM     12  C   UNL A   1      43.758  41.914  34.070  1.00  0.00     0.016 A 
BRANCH   8  13
ATOM     13  N   UNL A   1      43.502  38.234  33.932  1.00  0.00    -0.257 N 
ATOM     14  C   UNL A   1      44.539  37.263  33.573  1.00  0.00     0.144 C 
ATOM     15  C   UNL A   1      43.990  35.974  34.217  1.00  0.00     0.091 C 
ATOM     16  C   UNL A   1      42.600  36.436  34.578  1.00  0.00     0.071 C 
ATOM     17  N   UNL A   1      42.358  37.695  34.407  1.00  0.00    -0.176 NA
BRANCH  14  18
ATOM     18  C   UNL A   1      45.904  37.729  34.063  1.00  0.00    -0.015 A 
ATOM     19  C   UNL A   1      47.942  39.058  33.744  1.00  0.00     0.164 A 
ATOM     20  C   UNL A   1      46.769  38.461  33.234  1.00  0.00     0.056 A 
ATOM     21  C   UNL A   1      48.277  38.952  35.107  1.00  0.00     0.203 A 
ATOM     22  C   UNL A   1      47.419  38.200  35.937  1.00  0.00     0.164 A 
ATOM     23  C   UNL A   1      46.264  37.595  35.409  1.00  0.00     0.056 A 
BRANCH  19  24
ATOM     24  O   UNL A   1      48.625  39.885  32.887  1.00  0.00    -0.493 OA
ATOM     25  C   UNL A   1      49.137  39.195  31.748  1.00  0.00     0.278 C 
ENDBRANCH  19  24
BRANCH  21  26
ATOM     26  O   UNL A   1      49.345  39.530  35.732  1.00  0.00    -0.490 OA
ATOM     27  C   UNL A   1      50.654  39.006  35.624  1.00  0.00     0.278 C 
ENDBRANCH  21  26
BRANCH  22  28
ATOM     28  O   UNL A   1      47.540  37.952  37.284  1.00  0.00    -0.493 OA
ATOM     29  C   UNL A   1      46.369  37.977  38.088  1.00  0.00     0.278 C 
ENDBRANCH  22  28
ENDBRANCH  14  18
BRANCH  16  30
ATOM     30  C   UNL A   1      41.568  35.524  35.091  1.00  0.00    -0.002 A 
ATOM     31  C   UNL A   1      41.841  34.150  35.116  1.00  0.00     0.011 A 
ATOM     32  C   UNL A   1      40.309  36.007  35.448  1.00  0.00     0.011 A 
ATOM     33  C   UNL A   1      40.855  33.250  35.522  1.00  0.00     0.021 A 
ATOM     34  C   UNL A   1      39.310  35.105  35.830  1.00  0.00     0.021 A 
ATOM     35  C   UNL A   1      39.588  33.733  35.863  1.00  0.00     0.067 A 
BRANCH  35  36
ATOM     36  S   UNL A   1      38.327  32.584  36.367  1.00  0.00     0.175 S 
ATOM     37  C   UNL A   1      38.319  32.674  38.139  1.00  0.00     0.163 C 
ATOM     38  O   UNL A   1      37.064  33.111  35.878  1.00  0.00    -0.224 OA
ATOM     39  O   UNL A   1      38.770  31.255  36.001  1.00  0.00    -0.224 OA
ENDBRANCH  35  36
ENDBRANCH  16  30
ENDBRANCH   8  13
ENDBRANCH   4   7
ENDBRANCH   2   3
ENDBRANCH   1   2
BRANCH   1  40
ATOM     40  C   UNL A   1      45.241  42.083  28.872  1.00  0.00     0.023 C 
BRANCH  40  41
ATOM     41  C   UNL A   1      45.782  42.025  27.451  1.00  0.00     0.116 C 
BRANCH  41  42
ATOM     42  N   UNL A   1      44.735  41.896  26.445  1.00  0.00    -0.352 N 
ATOM     43  C   UNL A   1      43.906  40.821  26.234  1.00  0.00     0.251 C 
ATOM     44  H   UNL A   1      44.608  42.669  25.848  1.00  0.00     0.163 HD
ATOM     45  O   UNL A   1      43.138  40.795  25.278  1.00  0.00    -0.269 OA
BRANCH  43  46
ATOM     46  C   UNL A   1      43.995  39.682  27.167  1.00  0.00     0.039 A 
ATOM     47  C   UNL A   1      43.260  39.715  28.353  1.00  0.00     0.014 A 
ATOM     48  C   UNL A   1      44.720  38.545  26.804  1.00  0.00     0.014 A 
ATOM     49  C   UNL A   1      43.193  38.569  29.147  1.00  0.00     0.010 A 
ATOM     50  C   UNL A   1      44.589  37.385  27.556  1.00  0.00     0.010 A 
ATOM     51  C   UNL A   1      43.823  37.384  28.733  1.00  0.00    -0.014 A 
BRANCH  51  52
ATOM     52  C   UNL A   1      43.703  36.121  29.503  1.00  0.00     0.031 A 
ATOM     53  C   UNL A   1      42.378  35.412  29.559  1.00  0.00     0.074 A 
ATOM     54  C   UNL A   1      44.748  35.670  30.226  1.00  0.00     0.049 A 
ATOM     55  N   UNL A   1      42.024  34.381  30.280  1.00  0.00    -0.248 NA
ATOM     56  C   UNL A   1      41.300  35.955  28.714  1.00  0.00     0.031 C 
ATOM     57  C   UNL A   1      46.078  36.283  30.274  1.00  0.00     0.029 A 
ATOM     58  N   UNL A   1      44.850  34.596  31.076  1.00  0.00    -0.354 N 
ATOM     59  C   UNL A   1      40.679  34.171  30.001  1.00  0.00     0.074 A 
ATOM     60  C   UNL A   1      40.270  35.206  29.078  1.00  0.00     0.031 C 
ATOM     61  C   UNL A   1      46.864  35.565  31.092  1.00  0.00     0.029 A 
ATOM     62  C   UNL A   1      46.085  34.474  31.669  1.00  0.00     0.049 A 
ATOM     63  H   UNL A   1      44.107  33.972  31.245  1.00  0.00     0.167 HD
ATOM     64  C   UNL A   1      39.862  33.195  30.462  1.00  0.00     0.031 A 
ATOM     65  C   UNL A   1      46.534  33.595  32.587  1.00  0.00     0.031 A 
ATOM     66  C   UNL A   1      40.282  32.159  31.366  1.00  0.00     0.049 A 
ATOM     67  C   UNL A   1      45.598  32.533  33.101  1.00  0.00     0.074 A 
ATOM     68  C   UNL A   1      39.547  31.088  31.843  1.00  0.00     0.029 A 
ATOM     69  N   UNL A   1      41.544  32.064  31.932  1.00  0.00    -0.354 N 
ATOM     70  N   UNL A   1      44.346  32.312  32.780  1.00  0.00    -0.248 NA
ATOM     71  C   UNL A   1      46.138  31.598  34.101  1.00  0.00     0.031 C 
ATOM     72  C   UNL A   1      40.347  30.380  32.744  1.00  0.00     0.029 A 
ATOM     73  C   UNL A   1      41.601  30.969  32.774  1.00  0.00     0.049 A 
ATOM     74  H   UNL A   1      42.289  32.684  31.758  1.00  0.00     0.167 HD
ATOM     75  C   UNL A   1      43.960  31.191  33.507  1.00  0.00     0.074 A 
ATOM     76  C   UNL A   1      45.111  30.777  34.281  1.00  0.00     0.031 C 
ATOM     77  C   UNL A   1      42.761  30.559  33.526  1.00  0.00     0.031 A 
BRANCH  64  78
ATOM     78  C   UNL A   1      38.427  33.211  30.006  1.00  0.00    -0.014 A 
ATOM     79  C   UNL A   1      37.445  33.927  30.712  1.00  0.00     0.010 A 
ATOM     80  C   UNL A   1      38.065  32.533  28.827  1.00  0.00     0.010 A 
ATOM     81  C   UNL A   1      36.119  33.932  30.271  1.00  0.00     0.020 A 
ATOM     82  C   UNL A   1      36.747  32.562  28.365  1.00  0.00     0.020 A 
ATOM     83  C   UNL A   1      35.778  33.247  29.100  1.00  0.00     0.054 A 
BRANCH  83  84
ATOM     84  S   UNL A   1      34.055  33.295  28.538  1.00  0.00     0.124 S 
ATOM     85  O   UNL A   1      33.385  33.921  29.675  1.00  0.00    -0.237 OA
ATOM     86  O   UNL A   1      34.135  34.111  27.328  1.00  0.00    -0.237 OA
ATOM     87  O   UNL A   1      33.723  31.889  28.317  1.00  0.00    -0.744 OA
ENDBRANCH  83  84
ENDBRANCH  64  78
BRANCH  65  88
ATOM     88  C   UNL A   1      47.939  33.673  33.074  1.00  0.00    -0.014 A 
ATOM     89  C   UNL A   1      48.274  34.514  34.150  1.00  0.00     0.010 A 
ATOM     90  C   UNL A   1      48.951  32.905  32.468  1.00  0.00     0.010 A 
ATOM     91  C   UNL A   1      49.596  34.604  34.596  1.00  0.00     0.020 A 
ATOM     92  C   UNL A   1      50.269  32.969  32.931  1.00  0.00     0.020 A 
ATOM     93  C   UNL A   1      50.586  33.829  33.985  1.00  0.00     0.054 A 
BRANCH  93  94
ATOM     94  S   UNL A   1      52.286  33.933  34.610  1.00  0.00     0.124 S 
ATOM     95  O   UNL A   1      53.016  34.386  33.431  1.00  0.00    -0.237 OA
ATOM     96  O   UNL A   1      52.163  34.906  35.694  1.00  0.00    -0.237 OA
ATOM     97  O   UNL A   1      52.575  32.567  35.041  1.00  0.00    -0.744 OA
ENDBRANCH  93  94
ENDBRANCH  65  88
BRANCH  77  98
ATOM     98  C   UNL A   1      42.634  29.316  34.366  1.00  0.00    -0.014 A 
ATOM     99  C   UNL A   1      42.064  29.353  35.650  1.00  0.00     0.010 A 
ATOM    100  C   UNL A   1      43.005  28.074  33.815  1.00  0.00     0.010 A 
ATOM    101  C   UNL A   1      41.876  28.171  36.372  1.00  0.00     0.020 A 
ATOM    102  C   UNL A   1      42.792  26.890  34.521  1.00  0.00     0.020 A 
ATOM    103  C   UNL A   1      42.235  26.946  35.800  1.00  0.00     0.054 A 
BRANCH 103 104
ATOM    104  S   UNL A   1      41.905  25.420  36.725  1.00  0.00     0.124 S 
ATOM    105  O   UNL A   1      41.377  24.542  35.686  1.00  0.00    -0.237 OA
ATOM    106  O   UNL A   1      43.227  25.067  37.238  1.00  0.00    -0.237 OA
ATOM    107  O   UNL A   1      40.939  25.833  37.741  1.00  0.00    -0.744 OA
ENDBRANCH 103 104
ENDBRANCH  77  98
ENDBRANCH  51  52
ENDBRANCH  43  46
ENDBRANCH  41  42
ENDBRANCH  40  41
ENDBRANCH   1  40
TORSDOF 21
ENDMDL
