MODEL 1
REMARK VINA RESULT:     -11.0      0.000      0.000
REMARK SMILES CC(C)[C@@H](NC(N)=O)C(=O)Nc1cccc(F)c1C(=O)NCCCCNC(=O)c1ccc(-c2c3nc(c(-c4ccc(S(=O)(=O)[O-])cc4)c4ccc([nH]4)c(-c4ccc(S(=O)(=O)[O-])cc4)c4nc(c(-c5ccc(S(=O)(=O)[O-])cc5)c5ccc2[nH]5)C=C4)C=C3)cc1
REMARK SMILES IDX 23 1 22 2 21 3 19 4 20 5 18 7 12 8 13 9 14 10 16 11 15 12
REMARK SMILES IDX 17 13 11 14 9 15 10 16 4 18 2 19 1 20 3 21 5 22 6 23 7 25
REMARK SMILES IDX 8 26 24 29 25 30 26 31 27 32 28 34 29 35 30 36 88 37 31 38
REMARK SMILES IDX 87 39 32 40 33 41 34 42 81 43 35 44 86 45 80 46 82 47 36 48
REMARK SMILES IDX 85 49 79 50 78 51 37 53 67 54 48 55 66 56 49 57 52 58 65 59
REMARK SMILES IDX 83 60 50 61 51 62 64 64 84 65 53 66 38 67 39 68 47 69 40 70
REMARK SMILES IDX 46 71 41 72 42 73 43 74 44 75 45 76 68 77 69 78 77 79 70 80
REMARK SMILES IDX 76 81 71 82 72 83 73 84 74 85 75 86 54 87 55 88 63 89 56 90
REMARK SMILES IDX 62 91 57 92 58 93 59 94 60 95 61 96
REMARK H PARENT 21 6 11 17 5 24 7 27 7 28 26 33 82 52 52 63
REMARK Flexibility Score: inf
ROOT
ATOM      1  C   UNL A   1      32.115  27.248  26.755  1.00  0.00     0.023 C 
ENDROOT
BRANCH   1   2
ATOM      2  C   UNL A   1      30.700  26.747  26.501  1.00  0.00     0.116 C 
BRANCH   2   3
ATOM      3  N   UNL A   1      30.578  25.300  26.542  1.00  0.00    -0.352 N 
ATOM      4  C   UNL A   1      31.027  24.328  25.680  1.00  0.00     0.256 C 
ATOM      5  O   UNL A   1      30.645  23.176  25.884  1.00  0.00    -0.269 OA
ATOM      6  H   UNL A   1      30.087  24.957  27.323  1.00  0.00     0.163 HD
BRANCH   4   7
ATOM      7  C   UNL A   1      31.820  24.642  24.463  1.00  0.00     0.099 A 
ATOM      8  C   UNL A   1      33.191  24.356  24.419  1.00  0.00     0.057 A 
ATOM      9  C   UNL A   1      33.842  24.279  23.182  1.00  0.00     0.027 A 
ATOM     10  C   UNL A   1      33.214  24.713  22.020  1.00  0.00     0.005 A 
ATOM     11  C   UNL A   1      31.273  25.252  23.334  1.00  0.00     0.138 A 
ATOM     12  C   UNL A   1      31.949  25.274  22.114  1.00  0.00     0.040 A 
ATOM     13  F   UNL A   1      30.088  25.878  23.388  1.00  0.00    -0.206 F 
BRANCH   8  14
ATOM     14  N   UNL A   1      33.953  24.193  25.588  1.00  0.00    -0.323 N 
ATOM     15  C   UNL A   1      34.476  23.007  26.067  1.00  0.00     0.247 C 
ATOM     16  O   UNL A   1      34.841  22.960  27.248  1.00  0.00    -0.272 OA
ATOM     17  H   UNL A   1      34.132  25.003  26.118  1.00  0.00     0.170 HD
BRANCH  15  18
ATOM     18  C   UNL A   1      34.538  21.706  25.182  1.00  0.00     0.176 C 
BRANCH  18  19
ATOM     19  C   UNL A   1      35.892  21.506  24.450  1.00  0.00     0.015 C 
ATOM     20  C   UNL A   1      36.793  22.746  24.511  1.00  0.00     0.010 C 
ATOM     21  C   UNL A   1      36.674  20.293  24.958  1.00  0.00     0.010 C 
ENDBRANCH  18  19
BRANCH  18  22
ATOM     22  N   UNL A   1      34.174  20.501  25.943  1.00  0.00    -0.326 N 
ATOM     23  C   UNL A   1      32.985  19.866  25.733  1.00  0.00     0.312 C 
ATOM     24  H   UNL A   1      34.800  20.145  26.616  1.00  0.00     0.166 HD
ATOM     25  N   UNL A   1      32.832  18.763  26.502  1.00  0.00    -0.352 N 
ATOM     26  O   UNL A   1      32.113  20.244  24.974  1.00  0.00    -0.249 OA
ATOM     27  H   UNL A   1      33.554  18.479  27.107  1.00  0.00     0.161 HD
ATOM     28  H   UNL A   1      31.996  18.242  26.457  1.00  0.00     0.161 HD
ENDBRANCH  18  22
ENDBRANCH  15  18
ENDBRANCH   8  14
ENDBRANCH   4   7
ENDBRANCH   2   3
ENDBRANCH   1   2
BRANCH   1  29
ATOM     29  C   UNL A   1      32.696  28.160  25.686  1.00  0.00     0.023 C 
BRANCH  29  30
ATOM     30  C   UNL A   1      34.000  28.857  26.054  1.00  0.00     0.116 C 
BRANCH  30  31
ATOM     31  N   UNL A   1      33.812  30.066  26.844  1.00  0.00    -0.352 N 
ATOM     32  C   UNL A   1      34.630  30.620  27.800  1.00  0.00     0.251 C 
ATOM     33  H   UNL A   1      32.977  30.559  26.667  1.00  0.00     0.163 HD
ATOM     34  O   UNL A   1      34.252  31.594  28.444  1.00  0.00    -0.269 OA
BRANCH  32  35
ATOM     35  C   UNL A   1      35.948  30.009  28.071  1.00  0.00     0.039 A 
ATOM     36  C   UNL A   1      36.951  30.106  27.106  1.00  0.00     0.014 A 
ATOM     37  C   UNL A   1      36.206  29.391  29.298  1.00  0.00     0.014 A 
ATOM     38  C   UNL A   1      38.239  29.661  27.406  1.00  0.00     0.010 A 
ATOM     39  C   UNL A   1      37.510  29.036  29.628  1.00  0.00     0.010 A 
ATOM     40  C   UNL A   1      38.541  29.168  28.687  1.00  0.00    -0.014 A 
BRANCH  40  41
ATOM     41  C   UNL A   1      39.932  28.802  29.063  1.00  0.00     0.031 A 
ATOM     42  C   UNL A   1      40.817  29.798  29.762  1.00  0.00     0.074 A 
ATOM     43  C   UNL A   1      40.417  27.590  28.721  1.00  0.00     0.049 A 
ATOM     44  N   UNL A   1      42.062  29.669  30.144  1.00  0.00    -0.248 NA
ATOM     45  C   UNL A   1      40.238  31.121  30.050  1.00  0.00     0.031 C 
ATOM     46  C   UNL A   1      39.676  26.554  27.996  1.00  0.00     0.029 A 
ATOM     47  N   UNL A   1      41.648  27.023  28.938  1.00  0.00    -0.354 N 
ATOM     48  C   UNL A   1      42.417  30.891  30.701  1.00  0.00     0.074 A 
ATOM     49  C   UNL A   1      41.276  31.769  30.555  1.00  0.00     0.031 C 
ATOM     50  C   UNL A   1      40.454  25.467  27.863  1.00  0.00     0.029 A 
ATOM     51  C   UNL A   1      41.761  25.741  28.451  1.00  0.00     0.049 A 
ATOM     52  H   UNL A   1      42.382  27.490  29.400  1.00  0.00     0.167 HD
ATOM     53  C   UNL A   1      43.577  31.247  31.304  1.00  0.00     0.031 A 
ATOM     54  C   UNL A   1      42.799  24.883  28.471  1.00  0.00     0.031 A 
ATOM     55  C   UNL A   1      44.707  30.369  31.450  1.00  0.00     0.049 A 
ATOM     56  C   UNL A   1      44.084  25.306  29.131  1.00  0.00     0.074 A 
ATOM     57  C   UNL A   1      45.908  30.614  32.092  1.00  0.00     0.029 A 
ATOM     58  N   UNL A   1      44.782  29.079  30.942  1.00  0.00    -0.354 N 
ATOM     59  N   UNL A   1      44.372  26.442  29.723  1.00  0.00    -0.248 NA
ATOM     60  C   UNL A   1      45.179  24.327  29.138  1.00  0.00     0.031 C 
ATOM     61  C   UNL A   1      46.732  29.497  31.919  1.00  0.00     0.029 A 
ATOM     62  C   UNL A   1      46.019  28.528  31.231  1.00  0.00     0.049 A 
ATOM     63  H   UNL A   1      44.062  28.624  30.450  1.00  0.00     0.167 HD
ATOM     64  C   UNL A   1      45.673  26.302  30.195  1.00  0.00     0.074 A 
ATOM     65  C   UNL A   1      46.105  24.966  29.839  1.00  0.00     0.031 C 
ATOM     66  C   UNL A   1      46.439  27.198  30.864  1.00  0.00     0.031 A 
BRANCH  53  67
ATOM     67  C   UNL A   1      43.680  32.649  31.845  1.00  0.00    -0.014 A 
ATOM     68  C   UNL A   1      43.367  32.937  33.187  1.00  0.00     0.010 A 
ATOM     69  C   UNL A   1      44.135  33.689  31.014  1.00  0.00     0.010 A 
ATOM     70  C   UNL A   1      43.465  34.243  33.674  1.00  0.00     0.020 A 
ATOM     71  C   UNL A   1      44.266  34.991  31.505  1.00  0.00     0.020 A 
ATOM     72  C   UNL A   1      43.915  35.262  32.829  1.00  0.00     0.054 A 
BRANCH  72  73
ATOM     73  S   UNL A   1      44.057  36.942  33.499  1.00  0.00     0.124 S 
ATOM     74  O   UNL A   1      42.685  37.216  33.917  1.00  0.00    -0.237 OA
ATOM     75  O   UNL A   1      45.021  36.773  34.583  1.00  0.00    -0.237 OA
ATOM     76  O   UNL A   1      44.530  37.730  32.363  1.00  0.00    -0.744 OA
ENDBRANCH  72  73
ENDBRANCH  53  67
BRANCH  54  77
ATOM     77  C   UNL A   1      42.662  23.530  27.859  1.00  0.00    -0.014 A 
ATOM     78  C   UNL A   1      42.036  22.486  28.563  1.00  0.00     0.010 A 
ATOM     79  C   UNL A   1      43.152  23.281  26.564  1.00  0.00     0.010 A 
ATOM     80  C   UNL A   1      41.921  21.215  27.992  1.00  0.00     0.020 A 
ATOM     81  C   UNL A   1      43.010  22.021  25.976  1.00  0.00     0.020 A 
ATOM     82  C   UNL A   1      42.406  20.991  26.701  1.00  0.00     0.054 A 
BRANCH  82  83
ATOM     83  S   UNL A   1      42.200  19.347  25.962  1.00  0.00     0.124 S 
ATOM     84  O   UNL A   1      40.761  19.298  25.726  1.00  0.00    -0.237 OA
ATOM     85  O   UNL A   1      43.036  19.432  24.766  1.00  0.00    -0.237 OA
ATOM     86  O   UNL A   1      42.697  18.442  26.996  1.00  0.00    -0.744 OA
ENDBRANCH  82  83
ENDBRANCH  54  77
BRANCH  66  87
ATOM     87  C   UNL A   1      47.817  26.755  31.285  1.00  0.00    -0.014 A 
ATOM     88  C   UNL A   1      48.963  27.148  30.572  1.00  0.00     0.010 A 
ATOM     89  C   UNL A   1      47.967  25.965  32.440  1.00  0.00     0.010 A 
ATOM     90  C   UNL A   1      50.230  26.726  30.982  1.00  0.00     0.020 A 
ATOM     91  C   UNL A   1      49.234  25.570  32.874  1.00  0.00     0.020 A 
ATOM     92  C   UNL A   1      50.357  25.939  32.131  1.00  0.00     0.054 A 
BRANCH  92  93
ATOM     93  S   UNL A   1      52.015  25.431  32.661  1.00  0.00     0.124 S 
ATOM     94  O   UNL A   1      52.872  26.255  31.813  1.00  0.00    -0.237 OA
ATOM     95  O   UNL A   1      52.017  25.778  34.081  1.00  0.00    -0.237 OA
ATOM     96  O   UNL A   1      52.048  23.998  32.376  1.00  0.00    -0.744 OA
ENDBRANCH  92  93
ENDBRANCH  66  87
ENDBRANCH  40  41
ENDBRANCH  32  35
ENDBRANCH  30  31
ENDBRANCH  29  30
ENDBRANCH   1  29
TORSDOF 18
ENDMDL
MODEL 2
REMARK VINA RESULT:     -10.7      1.366      2.554
REMARK SMILES CC(C)[C@@H](NC(N)=O)C(=O)Nc1cccc(F)c1C(=O)NCCCCNC(=O)c1ccc(-c2c3nc(c(-c4ccc(S(=O)(=O)[O-])cc4)c4ccc([nH]4)c(-c4ccc(S(=O)(=O)[O-])cc4)c4nc(c(-c5ccc(S(=O)(=O)[O-])cc5)c5ccc2[nH]5)C=C4)C=C3)cc1
REMARK SMILES IDX 23 1 22 2 21 3 19 4 20 5 18 7 12 8 13 9 14 10 16 11 15 12
REMARK SMILES IDX 17 13 11 14 9 15 10 16 4 18 2 19 1 20 3 21 5 22 6 23 7 25
REMARK SMILES IDX 8 26 24 29 25 30 26 31 27 32 28 34 29 35 30 36 88 37 31 38
REMARK SMILES IDX 87 39 32 40 33 41 34 42 81 43 35 44 86 45 80 46 82 47 36 48
REMARK SMILES IDX 85 49 79 50 78 51 37 53 67 54 48 55 66 56 49 57 52 58 65 59
REMARK SMILES IDX 83 60 50 61 51 62 64 64 84 65 53 66 38 67 39 68 47 69 40 70
REMARK SMILES IDX 46 71 41 72 42 73 43 74 44 75 45 76 68 77 69 78 77 79 70 80
REMARK SMILES IDX 76 81 71 82 72 83 73 84 74 85 75 86 54 87 55 88 63 89 56 90
REMARK SMILES IDX 62 91 57 92 58 93 59 94 60 95 61 96
REMARK H PARENT 21 6 11 17 5 24 7 27 7 28 26 33 82 52 52 63
REMARK Flexibility Score: inf
ROOT
ATOM      1  C   UNL A   1      32.620  26.430  25.090  1.00  0.00     0.023 C 
ENDROOT
BRANCH   1   2
ATOM      2  C   UNL A   1      32.894  24.949  24.872  1.00  0.00     0.116 C 
BRANCH   2   3
ATOM      3  N   UNL A   1      32.777  24.150  26.078  1.00  0.00    -0.352 N 
ATOM      4  C   UNL A   1      33.579  23.158  26.591  1.00  0.00     0.256 C 
ATOM      5  O   UNL A   1      33.153  22.538  27.566  1.00  0.00    -0.269 OA
ATOM      6  H   UNL A   1      31.984  24.355  26.624  1.00  0.00     0.163 HD
BRANCH   4   7
ATOM      7  C   UNL A   1      34.841  22.731  25.934  1.00  0.00     0.099 A 
ATOM      8  C   UNL A   1      35.024  21.395  25.552  1.00  0.00     0.057 A 
ATOM      9  C   UNL A   1      36.004  21.074  24.606  1.00  0.00     0.027 A 
ATOM     10  C   UNL A   1      36.955  22.013  24.220  1.00  0.00     0.005 A 
ATOM     11  C   UNL A   1      35.905  23.600  25.692  1.00  0.00     0.138 A 
ATOM     12  C   UNL A   1      36.947  23.260  24.828  1.00  0.00     0.040 A 
ATOM     13  F   UNL A   1      35.989  24.786  26.313  1.00  0.00    -0.206 F 
BRANCH   8  14
ATOM     14  N   UNL A   1      34.283  20.351  26.129  1.00  0.00    -0.323 N 
ATOM     15  C   UNL A   1      33.280  19.623  25.519  1.00  0.00     0.247 C 
ATOM     16  O   UNL A   1      32.511  18.967  26.233  1.00  0.00    -0.272 OA
ATOM     17  H   UNL A   1      34.498  20.115  27.060  1.00  0.00     0.170 HD
BRANCH  15  18
ATOM     18  C   UNL A   1      33.041  19.673  23.963  1.00  0.00     0.176 C 
BRANCH  18  19
ATOM     19  C   UNL A   1      32.746  18.290  23.326  1.00  0.00     0.015 C 
ATOM     20  C   UNL A   1      32.303  18.388  21.860  1.00  0.00     0.010 C 
ATOM     21  C   UNL A   1      33.923  17.319  23.429  1.00  0.00     0.010 C 
ENDBRANCH  18  19
BRANCH  18  22
ATOM     22  N   UNL A   1      32.004  20.650  23.593  1.00  0.00    -0.326 N 
ATOM     23  C   UNL A   1      32.328  21.826  22.983  1.00  0.00     0.312 C 
ATOM     24  H   UNL A   1      31.060  20.451  23.789  1.00  0.00     0.166 HD
ATOM     25  N   UNL A   1      31.247  22.587  22.693  1.00  0.00    -0.352 N 
ATOM     26  O   UNL A   1      33.460  22.204  22.744  1.00  0.00    -0.249 OA
ATOM     27  H   UNL A   1      30.343  22.256  22.897  1.00  0.00     0.161 HD
ATOM     28  H   UNL A   1      31.365  23.473  22.279  1.00  0.00     0.161 HD
ENDBRANCH  18  22
ENDBRANCH  15  18
ENDBRANCH   8  14
ENDBRANCH   4   7
ENDBRANCH   2   3
ENDBRANCH   1   2
BRANCH   1  29
ATOM     29  C   UNL A   1      33.846  27.330  25.144  1.00  0.00     0.023 C 
BRANCH  29  30
ATOM     30  C   UNL A   1      34.271  27.780  26.535  1.00  0.00     0.116 C 
BRANCH  30  31
ATOM     31  N   UNL A   1      33.714  29.068  26.927  1.00  0.00    -0.352 N 
ATOM     32  C   UNL A   1      34.286  30.078  27.663  1.00  0.00     0.251 C 
ATOM     33  H   UNL A   1      32.794  29.240  26.619  1.00  0.00     0.163 HD
ATOM     34  O   UNL A   1      33.619  31.056  27.989  1.00  0.00    -0.269 OA
BRANCH  32  35
ATOM     35  C   UNL A   1      35.695  29.957  28.092  1.00  0.00     0.039 A 
ATOM     36  C   UNL A   1      35.972  29.538  29.394  1.00  0.00     0.014 A 
ATOM     37  C   UNL A   1      36.736  30.205  27.194  1.00  0.00     0.014 A 
ATOM     38  C   UNL A   1      37.293  29.283  29.768  1.00  0.00     0.010 A 
ATOM     39  C   UNL A   1      38.039  29.859  27.538  1.00  0.00     0.010 A 
ATOM     40  C   UNL A   1      38.332  29.392  28.827  1.00  0.00    -0.014 A 
BRANCH  40  41
ATOM     41  C   UNL A   1      39.726  29.010  29.173  1.00  0.00     0.031 A 
ATOM     42  C   UNL A   1      40.637  29.996  29.853  1.00  0.00     0.074 A 
ATOM     43  C   UNL A   1      40.189  27.792  28.822  1.00  0.00     0.049 A 
ATOM     44  N   UNL A   1      41.889  29.852  30.207  1.00  0.00    -0.248 NA
ATOM     45  C   UNL A   1      40.080  31.326  30.151  1.00  0.00     0.031 C 
ATOM     46  C   UNL A   1      39.421  26.764  28.114  1.00  0.00     0.029 A 
ATOM     47  N   UNL A   1      41.417  27.211  29.013  1.00  0.00    -0.354 N 
ATOM     48  C   UNL A   1      42.270  31.071  30.756  1.00  0.00     0.074 A 
ATOM     49  C   UNL A   1      41.137  31.962  30.634  1.00  0.00     0.031 C 
ATOM     50  C   UNL A   1      40.183  25.669  27.966  1.00  0.00     0.029 A 
ATOM     51  C   UNL A   1      41.505  25.927  28.525  1.00  0.00     0.049 A 
ATOM     52  H   UNL A   1      42.167  27.669  29.459  1.00  0.00     0.167 HD
ATOM     53  C   UNL A   1      43.447  31.413  31.333  1.00  0.00     0.031 A 
ATOM     54  C   UNL A   1      42.533  25.057  28.523  1.00  0.00     0.031 A 
ATOM     55  C   UNL A   1      44.570  30.522  31.456  1.00  0.00     0.049 A 
ATOM     56  C   UNL A   1      43.837  25.465  29.154  1.00  0.00     0.074 A 
ATOM     57  C   UNL A   1      45.787  30.754  32.072  1.00  0.00     0.029 A 
ATOM     58  N   UNL A   1      44.618  29.231  30.948  1.00  0.00    -0.354 N 
ATOM     59  N   UNL A   1      44.151  26.598  29.740  1.00  0.00    -0.248 NA
ATOM     60  C   UNL A   1      44.920  24.474  29.139  1.00  0.00     0.031 C 
ATOM     61  C   UNL A   1      46.594  29.627  31.882  1.00  0.00     0.029 A 
ATOM     62  C   UNL A   1      45.855  28.665  31.210  1.00  0.00     0.049 A 
ATOM     63  H   UNL A   1      43.882  28.784  30.472  1.00  0.00     0.167 HD
ATOM     64  C   UNL A   1      45.460  26.444  30.184  1.00  0.00     0.074 A 
ATOM     65  C   UNL A   1      45.868  25.102  29.820  1.00  0.00     0.031 C 
ATOM     66  C   UNL A   1      46.251  27.331  30.835  1.00  0.00     0.031 A 
BRANCH  53  67
ATOM     67  C   UNL A   1      43.578  32.814  31.871  1.00  0.00    -0.014 A 
ATOM     68  C   UNL A   1      43.906  33.891  31.027  1.00  0.00     0.010 A 
ATOM     69  C   UNL A   1      43.330  33.067  33.233  1.00  0.00     0.010 A 
ATOM     70  C   UNL A   1      44.026  35.185  31.542  1.00  0.00     0.020 A 
ATOM     71  C   UNL A   1      43.418  34.364  33.746  1.00  0.00     0.020 A 
ATOM     72  C   UNL A   1      43.781  35.413  32.899  1.00  0.00     0.054 A 
BRANCH  72  73
ATOM     73  S   UNL A   1      43.920  37.108  33.531  1.00  0.00     0.124 S 
ATOM     74  O   UNL A   1      44.477  37.813  32.380  1.00  0.00    -0.237 OA
ATOM     75  O   UNL A   1      42.537  37.439  33.862  1.00  0.00    -0.237 OA
ATOM     76  O   UNL A   1      44.818  36.979  34.676  1.00  0.00    -0.744 OA
ENDBRANCH  72  73
ENDBRANCH  53  67
BRANCH  54  77
ATOM     77  C   UNL A   1      42.367  23.706  27.916  1.00  0.00    -0.014 A 
ATOM     78  C   UNL A   1      42.746  23.467  26.583  1.00  0.00     0.010 A 
ATOM     79  C   UNL A   1      41.833  22.646  28.673  1.00  0.00     0.010 A 
ATOM     80  C   UNL A   1      42.577  22.202  26.013  1.00  0.00     0.020 A 
ATOM     81  C   UNL A   1      41.692  21.372  28.117  1.00  0.00     0.020 A 
ATOM     82  C   UNL A   1      42.053  21.161  26.785  1.00  0.00     0.054 A 
BRANCH  82  83
ATOM     83  S   UNL A   1      41.890  19.515  26.038  1.00  0.00     0.124 S 
ATOM     84  O   UNL A   1      42.756  19.624  24.869  1.00  0.00    -0.237 OA
ATOM     85  O   UNL A   1      42.369  18.637  27.103  1.00  0.00    -0.237 OA
ATOM     86  O   UNL A   1      40.461  19.410  25.751  1.00  0.00    -0.744 OA
ENDBRANCH  82  83
ENDBRANCH  54  77
BRANCH  66  87
ATOM     87  C   UNL A   1      47.632  26.872  31.226  1.00  0.00    -0.014 A 
ATOM     88  C   UNL A   1      47.867  26.211  32.445  1.00  0.00     0.010 A 
ATOM     89  C   UNL A   1      48.705  27.068  30.337  1.00  0.00     0.010 A 
ATOM     90  C   UNL A   1      49.156  25.793  32.785  1.00  0.00     0.020 A 
ATOM     91  C   UNL A   1      49.988  26.621  30.657  1.00  0.00     0.020 A 
ATOM     92  C   UNL A   1      50.209  26.001  31.888  1.00  0.00     0.054 A 
BRANCH  92  93
ATOM     93  S   UNL A   1      51.866  25.419  32.338  1.00  0.00     0.124 S 
ATOM     94  O   UNL A   1      52.650  25.795  31.165  1.00  0.00    -0.237 OA
ATOM     95  O   UNL A   1      52.152  26.178  33.554  1.00  0.00    -0.237 OA
ATOM     96  O   UNL A   1      51.689  23.982  32.535  1.00  0.00    -0.744 OA
ENDBRANCH  92  93
ENDBRANCH  66  87
ENDBRANCH  40  41
ENDBRANCH  32  35
ENDBRANCH  30  31
ENDBRANCH  29  30
ENDBRANCH   1  29
TORSDOF 18
ENDMDL
MODEL 3
REMARK VINA RESULT:     -10.7      3.926      6.986
REMARK SMILES CC(C)[C@@H](NC(N)=O)C(=O)Nc1cccc(F)c1C(=O)NCCCCNC(=O)c1ccc(-c2c3nc(c(-c4ccc(S(=O)(=O)[O-])cc4)c4ccc([nH]4)c(-c4ccc(S(=O)(=O)[O-])cc4)c4nc(c(-c5ccc(S(=O)(=O)[O-])cc5)c5ccc2[nH]5)C=C4)C=C3)cc1
REMARK SMILES IDX 23 1 22 2 21 3 19 4 20 5 18 7 12 8 13 9 14 10 16 11 15 12
REMARK SMILES IDX 17 13 11 14 9 15 10 16 4 18 2 19 1 20 3 21 5 22 6 23 7 25
REMARK SMILES IDX 8 26 24 29 25 30 26 31 27 32 28 34 29 35 30 36 88 37 31 38
REMARK SMILES IDX 87 39 32 40 33 41 34 42 81 43 35 44 86 45 80 46 82 47 36 48
REMARK SMILES IDX 85 49 79 50 78 51 37 53 67 54 48 55 66 56 49 57 52 58 65 59
REMARK SMILES IDX 83 60 50 61 51 62 64 64 84 65 53 66 38 67 39 68 47 69 40 70
REMARK SMILES IDX 46 71 41 72 42 73 43 74 44 75 45 76 68 77 69 78 77 79 70 80
REMARK SMILES IDX 76 81 71 82 72 83 73 84 74 85 75 86 54 87 55 88 63 89 56 90
REMARK SMILES IDX 62 91 57 92 58 93 59 94 60 95 61 96
REMARK H PARENT 21 6 11 17 5 24 7 27 7 28 26 33 82 52 52 63
REMARK Flexibility Score: inf
ROOT
ATOM      1  C   UNL A   1      33.030  34.347  28.955  1.00  0.00     0.023 C 
ENDROOT
BRANCH   1   2
ATOM      2  C   UNL A   1      34.163  34.551  29.951  1.00  0.00     0.116 C 
BRANCH   2   3
ATOM      3  N   UNL A   1      34.494  33.358  30.710  1.00  0.00    -0.352 N 
ATOM      4  C   UNL A   1      35.684  32.923  31.243  1.00  0.00     0.256 C 
ATOM      5  O   UNL A   1      35.707  31.786  31.712  1.00  0.00    -0.269 OA
ATOM      6  H   UNL A   1      33.732  32.756  30.871  1.00  0.00     0.163 HD
BRANCH   4   7
ATOM      7  C   UNL A   1      36.941  33.709  31.139  1.00  0.00     0.099 A 
ATOM      8  C   UNL A   1      37.538  34.244  32.289  1.00  0.00     0.057 A 
ATOM      9  C   UNL A   1      38.883  34.628  32.256  1.00  0.00     0.027 A 
ATOM     10  C   UNL A   1      39.568  34.715  31.048  1.00  0.00     0.005 A 
ATOM     11  C   UNL A   1      37.570  33.984  29.925  1.00  0.00     0.138 A 
ATOM     12  C   UNL A   1      38.880  34.464  29.871  1.00  0.00     0.040 A 
ATOM     13  F   UNL A   1      36.925  33.833  28.759  1.00  0.00    -0.206 F 
BRANCH   8  14
ATOM     14  N   UNL A   1      36.810  34.456  33.472  1.00  0.00    -0.323 N 
ATOM     15  C   UNL A   1      36.806  33.642  34.589  1.00  0.00     0.247 C 
ATOM     16  O   UNL A   1      35.892  33.777  35.411  1.00  0.00    -0.272 OA
ATOM     17  H   UNL A   1      36.248  35.263  33.509  1.00  0.00     0.170 HD
BRANCH  15  18
ATOM     18  C   UNL A   1      37.875  32.504  34.795  1.00  0.00     0.176 C 
BRANCH  18  19
ATOM     19  C   UNL A   1      38.475  32.456  36.226  1.00  0.00     0.015 C 
ATOM     20  C   UNL A   1      37.977  31.258  37.043  1.00  0.00     0.010 C 
ATOM     21  C   UNL A   1      40.005  32.467  36.234  1.00  0.00     0.010 C 
ENDBRANCH  18  19
BRANCH  18  22
ATOM     22  N   UNL A   1      37.361  31.183  34.401  1.00  0.00    -0.326 N 
ATOM     23  C   UNL A   1      38.126  30.314  33.682  1.00  0.00     0.312 C 
ATOM     24  H   UNL A   1      36.448  30.921  34.662  1.00  0.00     0.166 HD
ATOM     25  N   UNL A   1      37.501  29.139  33.433  1.00  0.00    -0.352 N 
ATOM     26  O   UNL A   1      39.242  30.549  33.255  1.00  0.00    -0.249 OA
ATOM     27  H   UNL A   1      36.599  28.976  33.790  1.00  0.00     0.161 HD
ATOM     28  H   UNL A   1      37.949  28.447  32.892  1.00  0.00     0.161 HD
ENDBRANCH  18  22
ENDBRANCH  15  18
ENDBRANCH   8  14
ENDBRANCH   4   7
ENDBRANCH   2   3
ENDBRANCH   1   2
BRANCH   1  29
ATOM     29  C   UNL A   1      33.371  33.519  27.725  1.00  0.00     0.023 C 
BRANCH  29  30
ATOM     30  C   UNL A   1      34.352  32.376  27.953  1.00  0.00     0.116 C 
BRANCH  30  31
ATOM     31  N   UNL A   1      33.811  31.067  27.609  1.00  0.00    -0.352 N 
ATOM     32  C   UNL A   1      34.441  29.846  27.571  1.00  0.00     0.251 C 
ATOM     33  H   UNL A   1      32.855  31.056  27.371  1.00  0.00     0.163 HD
ATOM     34  O   UNL A   1      33.845  28.859  27.150  1.00  0.00    -0.269 OA
BRANCH  32  35
ATOM     35  C   UNL A   1      35.851  29.741  28.001  1.00  0.00     0.039 A 
ATOM     36  C   UNL A   1      36.131  29.433  29.333  1.00  0.00     0.014 A 
ATOM     37  C   UNL A   1      36.889  29.892  27.078  1.00  0.00     0.014 A 
ATOM     38  C   UNL A   1      37.450  29.190  29.720  1.00  0.00     0.010 A 
ATOM     39  C   UNL A   1      38.189  29.558  27.444  1.00  0.00     0.010 A 
ATOM     40  C   UNL A   1      38.484  29.201  28.768  1.00  0.00    -0.014 A 
BRANCH  40  41
ATOM     41  C   UNL A   1      39.874  28.828  29.138  1.00  0.00     0.031 A 
ATOM     42  C   UNL A   1      40.766  29.819  29.837  1.00  0.00     0.074 A 
ATOM     43  C   UNL A   1      40.354  27.616  28.791  1.00  0.00     0.049 A 
ATOM     44  N   UNL A   1      42.011  29.684  30.214  1.00  0.00    -0.248 NA
ATOM     45  C   UNL A   1      40.192  31.143  30.130  1.00  0.00     0.031 C 
ATOM     46  C   UNL A   1      39.607  26.584  28.065  1.00  0.00     0.029 A 
ATOM     47  N   UNL A   1      41.583  27.043  29.002  1.00  0.00    -0.354 N 
ATOM     48  C   UNL A   1      42.372  30.904  30.774  1.00  0.00     0.074 A 
ATOM     49  C   UNL A   1      41.235  31.786  30.635  1.00  0.00     0.031 C 
ATOM     50  C   UNL A   1      40.381  25.496  27.927  1.00  0.00     0.029 A 
ATOM     51  C   UNL A   1      41.690  25.762  28.511  1.00  0.00     0.049 A 
ATOM     52  H   UNL A   1      42.320  27.506  29.463  1.00  0.00     0.167 HD
ATOM     53  C   UNL A   1      43.536  31.253  31.374  1.00  0.00     0.031 A 
ATOM     54  C   UNL A   1      42.725  24.901  28.525  1.00  0.00     0.031 A 
ATOM     55  C   UNL A   1      44.663  30.370  31.514  1.00  0.00     0.049 A 
ATOM     56  C   UNL A   1      44.014  25.317  29.182  1.00  0.00     0.074 A 
ATOM     57  C   UNL A   1      45.868  30.610  32.153  1.00  0.00     0.029 A 
ATOM     58  N   UNL A   1      44.731  29.082  31.002  1.00  0.00    -0.354 N 
ATOM     59  N   UNL A   1      44.308  26.450  29.776  1.00  0.00    -0.248 NA
ATOM     60  C   UNL A   1      45.105  24.334  29.182  1.00  0.00     0.031 C 
ATOM     61  C   UNL A   1      46.686  29.490  31.974  1.00  0.00     0.029 A 
ATOM     62  C   UNL A   1      45.968  28.525  31.286  1.00  0.00     0.049 A 
ATOM     63  H   UNL A   1      44.008  28.631  30.511  1.00  0.00     0.167 HD
ATOM     64  C   UNL A   1      45.609  26.304  30.244  1.00  0.00     0.074 A 
ATOM     65  C   UNL A   1      46.036  24.967  29.883  1.00  0.00     0.031 C 
ATOM     66  C   UNL A   1      46.382  27.195  30.913  1.00  0.00     0.031 A 
BRANCH  53  67
ATOM     67  C   UNL A   1      43.646  32.653  31.919  1.00  0.00    -0.014 A 
ATOM     68  C   UNL A   1      44.196  33.694  31.149  1.00  0.00     0.010 A 
ATOM     69  C   UNL A   1      43.155  32.943  33.206  1.00  0.00     0.010 A 
ATOM     70  C   UNL A   1      44.294  34.987  31.670  1.00  0.00     0.020 A 
ATOM     71  C   UNL A   1      43.220  34.242  33.719  1.00  0.00     0.020 A 
ATOM     72  C   UNL A   1      43.805  35.253  32.953  1.00  0.00     0.054 A 
BRANCH  72  73
ATOM     73  S   UNL A   1      43.922  36.947  33.590  1.00  0.00     0.124 S 
ATOM     74  O   UNL A   1      44.156  37.713  32.368  1.00  0.00    -0.237 OA
ATOM     75  O   UNL A   1      42.617  37.145  34.214  1.00  0.00    -0.237 OA
ATOM     76  O   UNL A   1      45.051  36.893  34.515  1.00  0.00    -0.744 OA
ENDBRANCH  72  73
ENDBRANCH  53  67
BRANCH  54  77
ATOM     77  C   UNL A   1      42.581  23.550  27.910  1.00  0.00    -0.014 A 
ATOM     78  C   UNL A   1      41.917  22.518  28.596  1.00  0.00     0.010 A 
ATOM     79  C   UNL A   1      43.103  23.292  26.628  1.00  0.00     0.010 A 
ATOM     80  C   UNL A   1      41.795  21.249  28.022  1.00  0.00     0.020 A 
ATOM     81  C   UNL A   1      42.955  22.034  26.038  1.00  0.00     0.020 A 
ATOM     82  C   UNL A   1      42.312  21.016  26.744  1.00  0.00     0.054 A 
BRANCH  82  83
ATOM     83  S   UNL A   1      42.098  19.375  26.000  1.00  0.00     0.124 S 
ATOM     84  O   UNL A   1      42.940  19.467  24.813  1.00  0.00    -0.237 OA
ATOM     85  O   UNL A   1      42.581  18.486  27.054  1.00  0.00    -0.237 OA
ATOM     86  O   UNL A   1      40.661  19.301  25.744  1.00  0.00    -0.744 OA
ENDBRANCH  82  83
ENDBRANCH  54  77
BRANCH  66  87
ATOM     87  C   UNL A   1      47.759  26.746  31.328  1.00  0.00    -0.014 A 
ATOM     88  C   UNL A   1      47.994  26.176  32.591  1.00  0.00     0.010 A 
ATOM     89  C   UNL A   1      48.827  26.858  30.418  1.00  0.00     0.010 A 
ATOM     90  C   UNL A   1      49.280  25.765  32.952  1.00  0.00     0.020 A 
ATOM     91  C   UNL A   1      50.106  26.416  30.762  1.00  0.00     0.020 A 
ATOM     92  C   UNL A   1      50.328  25.888  32.035  1.00  0.00     0.054 A 
BRANCH  92  93
ATOM     93  S   UNL A   1      51.980  25.316  32.516  1.00  0.00     0.124 S 
ATOM     94  O   UNL A   1      52.048  25.724  33.916  1.00  0.00    -0.237 OA
ATOM     95  O   UNL A   1      51.901  23.876  32.284  1.00  0.00    -0.237 OA
ATOM     96  O   UNL A   1      52.875  26.038  31.613  1.00  0.00    -0.744 OA
ENDBRANCH  92  93
ENDBRANCH  66  87
ENDBRANCH  40  41
ENDBRANCH  32  35
ENDBRANCH  30  31
ENDBRANCH  29  30
ENDBRANCH   1  29
TORSDOF 18
ENDMDL
