MODEL 1
REMARK VINA RESULT:     -10.3      0.000      0.000
REMARK SMILES CC(C)[C@H](CO)NS(=O)(=O)c1ccc(C(=O)NCCCCNC(=O)c2ccc(-c3c4nc(c(-c5ccc(S(=O)(=O)[O-])cc5)c5ccc([nH]5)c(-c5ccc(S(=O)(=O)[O-])cc5)c5nc(c(-c6ccc(S(=O)(=O)[O-])cc6)c6ccc3[nH]6)C=C5)C=C4)cc2)cn1
REMARK SMILES IDX 18 1 17 2 15 3 16 4 14 6 11 7 12 8 86 9 13 10 85 11 8 12
REMARK SMILES IDX 9 13 10 14 7 15 4 17 2 18 1 19 3 20 5 21 6 22 19 24 20 25
REMARK SMILES IDX 21 26 22 27 23 28 24 30 25 31 26 32 84 33 27 34 83 35 28 36
REMARK SMILES IDX 29 37 30 38 77 39 31 40 82 41 76 42 78 43 32 44 81 45 75 46
REMARK SMILES IDX 74 47 33 49 63 50 44 51 62 52 45 53 48 54 61 55 79 56 46 57
REMARK SMILES IDX 47 58 60 60 80 61 49 62 34 63 35 64 43 65 36 66 42 67 37 68
REMARK SMILES IDX 38 69 39 70 40 71 41 72 64 73 65 74 73 75 66 76 72 77 67 78
REMARK SMILES IDX 68 79 69 80 70 81 71 82 50 83 51 84 59 85 52 86 58 87 53 88
REMARK SMILES IDX 54 89 55 90 56 91 57 92
REMARK H PARENT 17 5 7 16 6 23 22 29 78 48 48 59
REMARK Flexibility Score: inf
ROOT
ATOM      1  C   UNL A   1      35.706  20.708  24.976  1.00  0.00     0.116 C 
ENDROOT
BRANCH   1   2
ATOM      2  N   UNL A   1      34.839  21.151  26.049  1.00  0.00    -0.352 N 
ATOM      3  C   UNL A   1      34.018  22.242  26.163  1.00  0.00     0.252 C 
ATOM      4  O   UNL A   1      33.352  22.361  27.191  1.00  0.00    -0.269 OA
ATOM      5  H   UNL A   1      34.839  20.562  26.837  1.00  0.00     0.163 HD
BRANCH   3   6
ATOM      6  C   UNL A   1      33.872  23.272  25.106  1.00  0.00     0.058 A 
ATOM      7  C   UNL A   1      33.350  25.030  23.071  1.00  0.00     0.170 A 
ATOM      8  C   UNL A   1      34.306  25.387  24.009  1.00  0.00     0.043 A 
ATOM      9  N   UNL A   1      32.641  23.875  23.094  1.00  0.00    -0.243 NA
ATOM     10  C   UNL A   1      34.545  24.497  25.054  1.00  0.00     0.018 A 
ATOM     11  C   UNL A   1      32.929  23.024  24.109  1.00  0.00     0.126 A 
BRANCH   7  12
ATOM     12  S   UNL A   1      32.870  26.214  21.824  1.00  0.00     0.258 S 
ATOM     13  O   UNL A   1      32.444  25.552  20.610  1.00  0.00    -0.205 OA
ATOM     14  O   UNL A   1      33.881  27.246  21.778  1.00  0.00    -0.205 OA
BRANCH  12  15
ATOM     15  N   UNL A   1      31.502  26.955  22.497  1.00  0.00    -0.204 NA
ATOM     16  H   UNL A   1      30.849  27.107  21.728  1.00  0.00     0.141 HD
BRANCH  15  17
ATOM     17  C   UNL A   1      31.603  28.263  23.235  1.00  0.00     0.098 C 
BRANCH  17  18
ATOM     18  C   UNL A   1      31.808  28.035  24.761  1.00  0.00     0.003 C 
ATOM     19  C   UNL A   1      31.605  29.355  25.528  1.00  0.00     0.009 C 
ATOM     20  C   UNL A   1      30.872  27.001  25.397  1.00  0.00     0.009 C 
ENDBRANCH  17  18
BRANCH  17  21
ATOM     21  C   UNL A   1      30.321  29.041  22.831  1.00  0.00     0.176 C 
BRANCH  21  22
ATOM     22  O   UNL A   1      30.329  29.361  21.438  1.00  0.00    -0.395 OA
ATOM     23  H   UNL A   1      29.719  30.095  21.271  1.00  0.00     0.210 HD
ENDBRANCH  21  22
ENDBRANCH  17  21
ENDBRANCH  15  17
ENDBRANCH  12  15
ENDBRANCH   7  12
ENDBRANCH   3   6
ENDBRANCH   1   2
BRANCH   1  24
ATOM     24  C   UNL A   1      37.113  21.283  25.150  1.00  0.00     0.023 C 
BRANCH  24  25
ATOM     25  C   UNL A   1      38.226  20.232  25.182  1.00  0.00     0.023 C 
BRANCH  25  26
ATOM     26  C   UNL A   1      39.431  20.603  26.040  1.00  0.00     0.116 C 
BRANCH  26  27
ATOM     27  N   UNL A   1      40.449  19.565  26.075  1.00  0.00    -0.352 N 
ATOM     28  C   UNL A   1      41.803  19.702  26.253  1.00  0.00     0.251 C 
ATOM     29  H   UNL A   1      40.125  18.644  25.956  1.00  0.00     0.163 HD
ATOM     30  O   UNL A   1      42.534  18.723  26.142  1.00  0.00    -0.269 OA
BRANCH  28  31
ATOM     31  C   UNL A   1      42.374  21.036  26.531  1.00  0.00     0.039 A 
ATOM     32  C   UNL A   1      42.646  21.884  25.454  1.00  0.00     0.014 A 
ATOM     33  C   UNL A   1      42.630  21.454  27.840  1.00  0.00     0.014 A 
ATOM     34  C   UNL A   1      43.132  23.169  25.696  1.00  0.00     0.010 A 
ATOM     35  C   UNL A   1      43.047  22.759  28.082  1.00  0.00     0.010 A 
ATOM     36  C   UNL A   1      43.314  23.625  27.012  1.00  0.00    -0.014 A 
BRANCH  36  37
ATOM     37  C   UNL A   1      43.807  24.999  27.280  1.00  0.00     0.031 A 
ATOM     38  C   UNL A   1      45.245  25.351  27.013  1.00  0.00     0.074 A 
ATOM     39  C   UNL A   1      42.968  25.916  27.801  1.00  0.00     0.049 A 
ATOM     40  N   UNL A   1      45.859  26.492  27.187  1.00  0.00    -0.248 NA
ATOM     41  C   UNL A   1      46.112  24.273  26.510  1.00  0.00     0.031 C 
ATOM     42  C   UNL A   1      41.566  25.680  28.156  1.00  0.00     0.029 A 
ATOM     43  N   UNL A   1      43.174  27.233  28.123  1.00  0.00    -0.354 N 
ATOM     44  C   UNL A   1      47.184  26.267  26.832  1.00  0.00     0.074 A 
ATOM     45  C   UNL A   1      47.297  24.868  26.484  1.00  0.00     0.031 C 
ATOM     46  C   UNL A   1      41.031  26.822  28.615  1.00  0.00     0.029 A 
ATOM     47  C   UNL A   1      42.055  27.863  28.612  1.00  0.00     0.049 A 
ATOM     48  H   UNL A   1      44.042  27.685  28.014  1.00  0.00     0.167 HD
ATOM     49  C   UNL A   1      48.211  27.149  26.779  1.00  0.00     0.031 A 
ATOM     50  C   UNL A   1      41.870  29.138  29.004  1.00  0.00     0.031 A 
ATOM     51  C   UNL A   1      48.092  28.544  27.108  1.00  0.00     0.049 A 
ATOM     52  C   UNL A   1      43.015  30.107  28.898  1.00  0.00     0.074 A 
ATOM     53  C   UNL A   1      49.058  29.532  27.037  1.00  0.00     0.029 A 
ATOM     54  N   UNL A   1      46.932  29.151  27.565  1.00  0.00    -0.354 N 
ATOM     55  N   UNL A   1      44.246  29.889  28.499  1.00  0.00    -0.248 NA
ATOM     56  C   UNL A   1      42.738  31.501  29.271  1.00  0.00     0.031 C 
ATOM     57  C   UNL A   1      48.491  30.731  27.484  1.00  0.00     0.029 A 
ATOM     58  C   UNL A   1      47.158  30.498  27.786  1.00  0.00     0.049 A 
ATOM     59  H   UNL A   1      46.073  28.691  27.710  1.00  0.00     0.167 HD
ATOM     60  C   UNL A   1      44.880  31.126  28.543  1.00  0.00     0.074 A 
ATOM     61  C   UNL A   1      43.894  32.087  28.993  1.00  0.00     0.031 C 
ATOM     62  C   UNL A   1      46.164  31.439  28.235  1.00  0.00     0.031 A 
BRANCH  49  63
ATOM     63  C   UNL A   1      49.553  26.622  26.343  1.00  0.00    -0.014 A 
ATOM     64  C   UNL A   1      50.334  25.830  27.203  1.00  0.00     0.010 A 
ATOM     65  C   UNL A   1      50.029  26.901  25.050  1.00  0.00     0.010 A 
ATOM     66  C   UNL A   1      51.587  25.364  26.795  1.00  0.00     0.020 A 
ATOM     67  C   UNL A   1      51.269  26.414  24.627  1.00  0.00     0.020 A 
ATOM     68  C   UNL A   1      52.049  25.665  25.511  1.00  0.00     0.054 A 
BRANCH  68  69
ATOM     69  S   UNL A   1      53.672  25.035  25.000  1.00  0.00     0.124 S 
ATOM     70  O   UNL A   1      53.647  25.275  23.559  1.00  0.00    -0.237 OA
ATOM     71  O   UNL A   1      54.596  25.873  25.759  1.00  0.00    -0.237 OA
ATOM     72  O   UNL A   1      53.638  23.630  25.398  1.00  0.00    -0.744 OA
ENDBRANCH  68  69
ENDBRANCH  49  63
BRANCH  50  73
ATOM     73  C   UNL A   1      40.536  29.581  29.492  1.00  0.00    -0.014 A 
ATOM     74  C   UNL A   1      39.541  29.977  28.581  1.00  0.00     0.010 A 
ATOM     75  C   UNL A   1      40.251  29.599  30.868  1.00  0.00     0.010 A 
ATOM     76  C   UNL A   1      38.291  30.405  29.039  1.00  0.00     0.020 A 
ATOM     77  C   UNL A   1      38.995  30.002  31.329  1.00  0.00     0.020 A 
ATOM     78  C   UNL A   1      38.026  30.416  30.411  1.00  0.00     0.054 A 
BRANCH  78  79
ATOM     79  S   UNL A   1      36.383  30.928  30.983  1.00  0.00     0.124 S 
ATOM     80  O   UNL A   1      36.108  29.952  32.030  1.00  0.00    -0.237 OA
ATOM     81  O   UNL A   1      36.618  32.297  31.437  1.00  0.00    -0.237 OA
ATOM     82  O   UNL A   1      35.555  30.814  29.784  1.00  0.00    -0.744 OA
ENDBRANCH  78  79
ENDBRANCH  50  73
BRANCH  62  83
ATOM     83  C   UNL A   1      46.558  32.888  28.333  1.00  0.00    -0.014 A 
ATOM     84  C   UNL A   1      46.378  33.770  27.252  1.00  0.00     0.010 A 
ATOM     85  C   UNL A   1      47.100  33.376  29.535  1.00  0.00     0.010 A 
ATOM     86  C   UNL A   1      46.781  35.104  27.357  1.00  0.00     0.020 A 
ATOM     87  C   UNL A   1      47.480  34.716  29.652  1.00  0.00     0.020 A 
ATOM     88  C   UNL A   1      47.337  35.565  28.554  1.00  0.00     0.054 A 
BRANCH  88  89
ATOM     89  S   UNL A   1      47.846  37.302  28.673  1.00  0.00     0.124 S 
ATOM     90  O   UNL A   1      49.267  37.180  28.990  1.00  0.00    -0.237 OA
ATOM     91  O   UNL A   1      47.542  37.820  27.340  1.00  0.00    -0.237 OA
ATOM     92  O   UNL A   1      47.010  37.835  29.746  1.00  0.00    -0.744 OA
ENDBRANCH  88  89
ENDBRANCH  62  83
ENDBRANCH  36  37
ENDBRANCH  28  31
ENDBRANCH  26  27
ENDBRANCH  25  26
ENDBRANCH  24  25
ENDBRANCH   1  24
TORSDOF 20
ENDMDL
MODEL 2
REMARK VINA RESULT:      -9.8      2.299      9.104
REMARK SMILES CC(C)[C@H](CO)NS(=O)(=O)c1ccc(C(=O)NCCCCNC(=O)c2ccc(-c3c4nc(c(-c5ccc(S(=O)(=O)[O-])cc5)c5ccc([nH]5)c(-c5ccc(S(=O)(=O)[O-])cc5)c5nc(c(-c6ccc(S(=O)(=O)[O-])cc6)c6ccc3[nH]6)C=C5)C=C4)cc2)cn1
REMARK SMILES IDX 18 1 17 2 15 3 16 4 14 6 11 7 12 8 86 9 13 10 85 11 8 12
REMARK SMILES IDX 9 13 10 14 7 15 4 17 2 18 1 19 3 20 5 21 6 22 19 24 20 25
REMARK SMILES IDX 21 26 22 27 23 28 24 30 25 31 26 32 84 33 27 34 83 35 28 36
REMARK SMILES IDX 29 37 30 38 77 39 31 40 82 41 76 42 78 43 32 44 81 45 75 46
REMARK SMILES IDX 74 47 33 49 63 50 44 51 62 52 45 53 48 54 61 55 79 56 46 57
REMARK SMILES IDX 47 58 60 60 80 61 49 62 34 63 35 64 43 65 36 66 42 67 37 68
REMARK SMILES IDX 38 69 39 70 40 71 41 72 64 73 65 74 73 75 66 76 72 77 67 78
REMARK SMILES IDX 68 79 69 80 70 81 71 82 50 83 51 84 59 85 52 86 58 87 53 88
REMARK SMILES IDX 54 89 55 90 56 91 57 92
REMARK H PARENT 17 5 7 16 6 23 22 29 78 48 48 59
REMARK Flexibility Score: inf
ROOT
ATOM      1  C   UNL A   1      34.749  31.461  28.008  1.00  0.00     0.116 C 
ENDROOT
BRANCH   1   2
ATOM      2  N   UNL A   1      33.490  32.035  27.578  1.00  0.00    -0.352 N 
ATOM      3  C   UNL A   1      32.388  31.474  26.989  1.00  0.00     0.252 C 
ATOM      4  O   UNL A   1      31.422  32.200  26.757  1.00  0.00    -0.269 OA
ATOM      5  H   UNL A   1      33.412  33.003  27.740  1.00  0.00     0.163 HD
BRANCH   3   6
ATOM      6  C   UNL A   1      32.289  30.036  26.639  1.00  0.00     0.058 A 
ATOM      7  C   UNL A   1      32.295  27.440  25.765  1.00  0.00     0.170 A 
ATOM      8  C   UNL A   1      31.766  27.702  27.019  1.00  0.00     0.043 A 
ATOM      9  N   UNL A   1      32.825  28.376  24.941  1.00  0.00    -0.243 NA
ATOM     10  C   UNL A   1      31.791  29.022  27.464  1.00  0.00     0.018 A 
ATOM     11  C   UNL A   1      32.799  29.652  25.399  1.00  0.00     0.126 A 
BRANCH   7  12
ATOM     12  S   UNL A   1      32.462  25.746  25.227  1.00  0.00     0.258 S 
ATOM     13  O   UNL A   1      31.383  24.927  25.735  1.00  0.00    -0.205 OA
ATOM     14  O   UNL A   1      33.837  25.349  25.427  1.00  0.00    -0.205 OA
BRANCH  12  15
ATOM     15  N   UNL A   1      32.264  25.849  23.547  1.00  0.00    -0.204 NA
ATOM     16  H   UNL A   1      31.362  26.297  23.390  1.00  0.00     0.141 HD
BRANCH  15  17
ATOM     17  C   UNL A   1      32.287  24.620  22.678  1.00  0.00     0.098 C 
BRANCH  17  18
ATOM     18  C   UNL A   1      32.995  23.434  23.397  1.00  0.00     0.003 C 
ATOM     19  C   UNL A   1      32.101  22.181  23.361  1.00  0.00     0.009 C 
ATOM     20  C   UNL A   1      34.352  23.032  22.809  1.00  0.00     0.009 C 
ENDBRANCH  17  18
BRANCH  17  21
ATOM     21  C   UNL A   1      32.935  25.091  21.348  1.00  0.00     0.176 C 
BRANCH  21  22
ATOM     22  O   UNL A   1      33.628  26.330  21.522  1.00  0.00    -0.395 OA
ATOM     23  H   UNL A   1      33.849  26.449  22.458  1.00  0.00     0.210 HD
ENDBRANCH  21  22
ENDBRANCH  17  21
ENDBRANCH  15  17
ENDBRANCH  12  15
ENDBRANCH   7  12
ENDBRANCH   3   6
ENDBRANCH   1   2
BRANCH   1  24
ATOM     24  C   UNL A   1      35.870  32.497  27.919  1.00  0.00     0.023 C 
BRANCH  24  25
ATOM     25  C   UNL A   1      36.005  33.390  29.156  1.00  0.00     0.023 C 
BRANCH  25  26
ATOM     26  C   UNL A   1      36.935  32.850  30.236  1.00  0.00     0.116 C 
BRANCH  26  27
ATOM     27  N   UNL A   1      36.376  31.719  30.960  1.00  0.00    -0.352 N 
ATOM     28  C   UNL A   1      36.892  30.454  31.101  1.00  0.00     0.251 C 
ATOM     29  H   UNL A   1      35.515  31.882  31.408  1.00  0.00     0.163 HD
ATOM     30  O   UNL A   1      36.228  29.584  31.657  1.00  0.00    -0.269 OA
BRANCH  28  31
ATOM     31  C   UNL A   1      38.223  30.140  30.542  1.00  0.00     0.039 A 
ATOM     32  C   UNL A   1      39.278  29.901  31.425  1.00  0.00     0.014 A 
ATOM     33  C   UNL A   1      38.429  30.073  29.162  1.00  0.00     0.014 A 
ATOM     34  C   UNL A   1      40.531  29.548  30.922  1.00  0.00     0.010 A 
ATOM     35  C   UNL A   1      39.659  29.652  28.664  1.00  0.00     0.010 A 
ATOM     36  C   UNL A   1      40.724  29.398  29.539  1.00  0.00    -0.014 A 
BRANCH  36  37
ATOM     37  C   UNL A   1      42.046  28.998  28.995  1.00  0.00     0.031 A 
ATOM     38  C   UNL A   1      43.162  30.003  28.908  1.00  0.00     0.074 A 
ATOM     39  C   UNL A   1      42.226  27.742  28.542  1.00  0.00     0.049 A 
ATOM     40  N   UNL A   1      44.381  29.844  28.460  1.00  0.00    -0.248 NA
ATOM     41  C   UNL A   1      42.863  31.372  29.358  1.00  0.00     0.031 C 
ATOM     42  C   UNL A   1      41.204  26.692  28.521  1.00  0.00     0.029 A 
ATOM     43  N   UNL A   1      43.336  27.134  28.013  1.00  0.00    -0.354 N 
ATOM     44  C   UNL A   1      44.987  31.090  28.559  1.00  0.00     0.074 A 
ATOM     45  C   UNL A   1      43.987  32.008  29.059  1.00  0.00     0.031 C 
ATOM     46  C   UNL A   1      41.744  25.562  28.036  1.00  0.00     0.029 A 
ATOM     47  C   UNL A   1      43.139  25.813  27.689  1.00  0.00     0.049 A 
ATOM     48  H   UNL A   1      44.193  27.600  27.878  1.00  0.00     0.167 HD
ATOM     49  C   UNL A   1      46.266  31.438  28.280  1.00  0.00     0.031 A 
ATOM     50  C   UNL A   1      43.991  24.902  27.178  1.00  0.00     0.031 A 
ATOM     51  C   UNL A   1      47.263  30.519  27.802  1.00  0.00     0.049 A 
ATOM     52  C   UNL A   1      45.416  25.302  26.915  1.00  0.00     0.074 A 
ATOM     53  C   UNL A   1      48.601  30.760  27.539  1.00  0.00     0.029 A 
ATOM     54  N   UNL A   1      47.034  29.182  27.519  1.00  0.00    -0.354 N 
ATOM     55  N   UNL A   1      45.987  26.473  27.075  1.00  0.00    -0.248 NA
ATOM     56  C   UNL A   1      46.318  24.250  26.426  1.00  0.00     0.031 C 
ATOM     57  C   UNL A   1      49.172  29.573  27.064  1.00  0.00     0.029 A 
ATOM     58  C   UNL A   1      48.202  28.584  27.079  1.00  0.00     0.049 A 
ATOM     59  H   UNL A   1      46.167  28.724  27.618  1.00  0.00     0.167 HD
ATOM     60  C   UNL A   1      47.323  26.289  26.736  1.00  0.00     0.074 A 
ATOM     61  C   UNL A   1      47.476  24.893  26.378  1.00  0.00     0.031 C 
ATOM     62  C   UNL A   1      48.334  27.193  26.726  1.00  0.00     0.031 A 
BRANCH  49  63
ATOM     63  C   UNL A   1      46.654  32.878  28.494  1.00  0.00    -0.014 A 
ATOM     64  C   UNL A   1      46.586  33.810  27.442  1.00  0.00     0.010 A 
ATOM     65  C   UNL A   1      47.066  33.311  29.766  1.00  0.00     0.010 A 
ATOM     66  C   UNL A   1      46.969  35.138  27.647  1.00  0.00     0.020 A 
ATOM     67  C   UNL A   1      47.422  34.646  29.983  1.00  0.00     0.020 A 
ATOM     68  C   UNL A   1      47.390  35.546  28.915  1.00  0.00     0.054 A 
BRANCH  68  69
ATOM     69  S   UNL A   1      47.866  37.280  29.158  1.00  0.00     0.124 S 
ATOM     70  O   UNL A   1      49.323  37.204  29.083  1.00  0.00    -0.237 OA
ATOM     71  O   UNL A   1      47.215  37.953  28.037  1.00  0.00    -0.237 OA
ATOM     72  O   UNL A   1      47.326  37.605  30.476  1.00  0.00    -0.744 OA
ENDBRANCH  68  69
ENDBRANCH  49  63
BRANCH  50  73
ATOM     73  C   UNL A   1      43.527  23.511  26.924  1.00  0.00    -0.014 A 
ATOM     74  C   UNL A   1      43.569  22.973  25.626  1.00  0.00     0.010 A 
ATOM     75  C   UNL A   1      43.053  22.715  27.981  1.00  0.00     0.010 A 
ATOM     76  C   UNL A   1      43.122  21.671  25.384  1.00  0.00     0.020 A 
ATOM     77  C   UNL A   1      42.629  21.404  27.748  1.00  0.00     0.020 A 
ATOM     78  C   UNL A   1      42.654  20.894  26.447  1.00  0.00     0.054 A 
BRANCH  78  79
ATOM     79  S   UNL A   1      42.124  19.190  26.122  1.00  0.00     0.124 S 
ATOM     80  O   UNL A   1      42.529  18.507  27.345  1.00  0.00    -0.237 OA
ATOM     81  O   UNL A   1      40.683  19.338  25.925  1.00  0.00    -0.237 OA
ATOM     82  O   UNL A   1      42.872  18.825  24.920  1.00  0.00    -0.744 OA
ENDBRANCH  78  79
ENDBRANCH  50  73
BRANCH  62  83
ATOM     83  C   UNL A   1      49.703  26.687  26.358  1.00  0.00    -0.014 A 
ATOM     84  C   UNL A   1      50.167  26.733  25.031  1.00  0.00     0.010 A 
ATOM     85  C   UNL A   1      50.543  26.175  27.363  1.00  0.00     0.010 A 
ATOM     86  C   UNL A   1      51.429  26.229  24.708  1.00  0.00     0.020 A 
ATOM     87  C   UNL A   1      51.817  25.695  27.048  1.00  0.00     0.020 A 
ATOM     88  C   UNL A   1      52.243  25.706  25.719  1.00  0.00     0.054 A 
BRANCH  88  89
ATOM     89  S   UNL A   1      53.882  25.063  25.281  1.00  0.00     0.124 S 
ATOM     90  O   UNL A   1      54.299  25.988  24.231  1.00  0.00    -0.237 OA
ATOM     91  O   UNL A   1      54.617  25.169  26.540  1.00  0.00    -0.237 OA
ATOM     92  O   UNL A   1      53.611  23.698  24.840  1.00  0.00    -0.744 OA
ENDBRANCH  88  89
ENDBRANCH  62  83
ENDBRANCH  36  37
ENDBRANCH  28  31
ENDBRANCH  26  27
ENDBRANCH  25  26
ENDBRANCH  24  25
ENDBRANCH   1  24
TORSDOF 20
ENDMDL
MODEL 3
REMARK VINA RESULT:      -9.7      6.136     11.934
REMARK SMILES CC(C)[C@H](CO)NS(=O)(=O)c1ccc(C(=O)NCCCCNC(=O)c2ccc(-c3c4nc(c(-c5ccc(S(=O)(=O)[O-])cc5)c5ccc([nH]5)c(-c5ccc(S(=O)(=O)[O-])cc5)c5nc(c(-c6ccc(S(=O)(=O)[O-])cc6)c6ccc3[nH]6)C=C5)C=C4)cc2)cn1
REMARK SMILES IDX 18 1 17 2 15 3 16 4 14 6 11 7 12 8 86 9 13 10 85 11 8 12
REMARK SMILES IDX 9 13 10 14 7 15 4 17 2 18 1 19 3 20 5 21 6 22 19 24 20 25
REMARK SMILES IDX 21 26 22 27 23 28 24 30 25 31 26 32 84 33 27 34 83 35 28 36
REMARK SMILES IDX 29 37 30 38 77 39 31 40 82 41 76 42 78 43 32 44 81 45 75 46
REMARK SMILES IDX 74 47 33 49 63 50 44 51 62 52 45 53 48 54 61 55 79 56 46 57
REMARK SMILES IDX 47 58 60 60 80 61 49 62 34 63 35 64 43 65 36 66 42 67 37 68
REMARK SMILES IDX 38 69 39 70 40 71 41 72 64 73 65 74 73 75 66 76 72 77 67 78
REMARK SMILES IDX 68 79 69 80 70 81 71 82 50 83 51 84 59 85 52 86 58 87 53 88
REMARK SMILES IDX 54 89 55 90 56 91 57 92
REMARK H PARENT 17 5 7 16 6 23 22 29 78 48 48 59
REMARK Flexibility Score: inf
ROOT
ATOM      1  C   UNL A   1      32.474  29.721  25.806  1.00  0.00     0.116 C 
ENDROOT
BRANCH   1   2
ATOM      2  N   UNL A   1      31.585  29.726  24.662  1.00  0.00    -0.352 N 
ATOM      3  C   UNL A   1      31.339  28.784  23.697  1.00  0.00     0.252 C 
ATOM      4  O   UNL A   1      30.492  29.039  22.842  1.00  0.00    -0.269 OA
ATOM      5  H   UNL A   1      31.065  30.555  24.559  1.00  0.00     0.163 HD
BRANCH   3   6
ATOM      6  C   UNL A   1      32.020  27.467  23.644  1.00  0.00     0.058 A 
ATOM      7  C   UNL A   1      33.053  24.946  23.367  1.00  0.00     0.170 A 
ATOM      8  C   UNL A   1      33.870  25.926  23.907  1.00  0.00     0.043 A 
ATOM      9  N   UNL A   1      31.779  25.147  22.951  1.00  0.00    -0.243 NA
ATOM     10  C   UNL A   1      33.343  27.211  24.019  1.00  0.00     0.018 A 
ATOM     11  C   UNL A   1      31.295  26.403  23.110  1.00  0.00     0.126 A 
BRANCH   7  12
ATOM     12  S   UNL A   1      33.738  23.333  23.024  1.00  0.00     0.258 S 
ATOM     13  O   UNL A   1      35.126  23.428  22.625  1.00  0.00    -0.205 OA
ATOM     14  O   UNL A   1      32.789  22.611  22.207  1.00  0.00    -0.205 OA
BRANCH  12  15
ATOM     15  N   UNL A   1      33.703  22.566  24.536  1.00  0.00    -0.204 NA
ATOM     16  H   UNL A   1      34.342  21.774  24.472  1.00  0.00     0.141 HD
BRANCH  15  17
ATOM     17  C   UNL A   1      32.420  22.033  25.114  1.00  0.00     0.098 C 
BRANCH  17  18
ATOM     18  C   UNL A   1      32.031  22.790  26.418  1.00  0.00     0.003 C 
ATOM     19  C   UNL A   1      33.189  23.699  26.870  1.00  0.00     0.009 C 
ATOM     20  C   UNL A   1      30.785  23.675  26.310  1.00  0.00     0.009 C 
ENDBRANCH  17  18
BRANCH  17  21
ATOM     21  C   UNL A   1      32.661  20.506  25.262  1.00  0.00     0.176 C 
BRANCH  21  22
ATOM     22  O   UNL A   1      33.956  20.239  25.806  1.00  0.00    -0.395 OA
ATOM     23  H   UNL A   1      33.863  19.886  26.704  1.00  0.00     0.210 HD
ENDBRANCH  21  22
ENDBRANCH  17  21
ENDBRANCH  15  17
ENDBRANCH  12  15
ENDBRANCH   7  12
ENDBRANCH   3   6
ENDBRANCH   1   2
BRANCH   1  24
ATOM     24  C   UNL A   1      32.089  30.827  26.790  1.00  0.00     0.023 C 
BRANCH  24  25
ATOM     25  C   UNL A   1      33.257  31.372  27.617  1.00  0.00     0.023 C 
BRANCH  25  26
ATOM     26  C   UNL A   1      33.740  32.758  27.206  1.00  0.00     0.116 C 
BRANCH  26  27
ATOM     27  N   UNL A   1      33.088  33.832  27.938  1.00  0.00    -0.352 N 
ATOM     28  C   UNL A   1      33.397  34.332  29.179  1.00  0.00     0.251 C 
ATOM     29  H   UNL A   1      32.324  34.257  27.485  1.00  0.00     0.163 HD
ATOM     30  O   UNL A   1      32.666  35.170  29.698  1.00  0.00    -0.269 OA
BRANCH  28  31
ATOM     31  C   UNL A   1      34.582  33.821  29.899  1.00  0.00     0.039 A 
ATOM     32  C   UNL A   1      34.396  32.860  30.895  1.00  0.00     0.014 A 
ATOM     33  C   UNL A   1      35.866  34.279  29.590  1.00  0.00     0.014 A 
ATOM     34  C   UNL A   1      35.505  32.323  31.549  1.00  0.00     0.010 A 
ATOM     35  C   UNL A   1      36.974  33.691  30.193  1.00  0.00     0.010 A 
ATOM     36  C   UNL A   1      36.804  32.717  31.187  1.00  0.00    -0.014 A 
BRANCH  36  37
ATOM     37  C   UNL A   1      37.991  32.132  31.859  1.00  0.00     0.031 A 
ATOM     38  C   UNL A   1      38.420  32.639  33.209  1.00  0.00     0.074 A 
ATOM     39  C   UNL A   1      38.705  31.176  31.234  1.00  0.00     0.049 A 
ATOM     40  N   UNL A   1      39.429  32.259  33.949  1.00  0.00    -0.248 NA
ATOM     41  C   UNL A   1      37.628  33.735  33.792  1.00  0.00     0.031 C 
ATOM     42  C   UNL A   1      38.423  30.641  29.900  1.00  0.00     0.029 A 
ATOM     43  N   UNL A   1      39.815  30.481  31.642  1.00  0.00    -0.354 N 
ATOM     44  C   UNL A   1      39.403  33.075  35.073  1.00  0.00     0.074 A 
ATOM     45  C   UNL A   1      38.312  34.007  34.894  1.00  0.00     0.031 C 
ATOM     46  C   UNL A   1      39.316  29.680  29.613  1.00  0.00     0.029 A 
ATOM     47  C   UNL A   1      40.248  29.549  30.729  1.00  0.00     0.049 A 
ATOM     48  H   UNL A   1      40.261  30.636  32.505  1.00  0.00     0.167 HD
ATOM     49  C   UNL A   1      40.201  33.040  36.167  1.00  0.00     0.031 A 
ATOM     50  C   UNL A   1      41.274  28.678  30.788  1.00  0.00     0.031 A 
ATOM     51  C   UNL A   1      41.273  32.099  36.352  1.00  0.00     0.049 A 
ATOM     52  C   UNL A   1      42.120  28.631  32.030  1.00  0.00     0.074 A 
ATOM     53  C   UNL A   1      42.107  31.946  37.446  1.00  0.00     0.029 A 
ATOM     54  N   UNL A   1      41.657  31.147  35.419  1.00  0.00    -0.354 N 
ATOM     55  N   UNL A   1      42.040  29.371  33.112  1.00  0.00    -0.248 NA
ATOM     56  C   UNL A   1      43.180  27.614  32.070  1.00  0.00     0.031 C 
ATOM     57  C   UNL A   1      43.018  30.922  37.161  1.00  0.00     0.029 A 
ATOM     58  C   UNL A   1      42.719  30.407  35.909  1.00  0.00     0.049 A 
ATOM     59  H   UNL A   1      41.236  31.017  34.539  1.00  0.00     0.167 HD
ATOM     60  C   UNL A   1      43.019  28.885  33.972  1.00  0.00     0.074 A 
ATOM     61  C   UNL A   1      43.666  27.782  33.291  1.00  0.00     0.031 C 
ATOM     62  C   UNL A   1      43.350  29.312  35.216  1.00  0.00     0.031 A 
BRANCH  49  63
ATOM     63  C   UNL A   1      39.934  34.051  37.251  1.00  0.00    -0.014 A 
ATOM     64  C   UNL A   1      39.186  33.709  38.392  1.00  0.00     0.010 A 
ATOM     65  C   UNL A   1      40.457  35.351  37.141  1.00  0.00     0.010 A 
ATOM     66  C   UNL A   1      38.926  34.662  39.381  1.00  0.00     0.020 A 
ATOM     67  C   UNL A   1      40.224  36.300  38.141  1.00  0.00     0.020 A 
ATOM     68  C   UNL A   1      39.443  35.954  39.246  1.00  0.00     0.054 A 
BRANCH  68  69
ATOM     69  S   UNL A   1      39.105  37.167  40.552  1.00  0.00     0.124 S 
ATOM     70  O   UNL A   1      38.552  36.323  41.609  1.00  0.00    -0.237 OA
ATOM     71  O   UNL A   1      40.427  37.726  40.822  1.00  0.00    -0.237 OA
ATOM     72  O   UNL A   1      38.157  38.088  39.931  1.00  0.00    -0.744 OA
ENDBRANCH  68  69
ENDBRANCH  49  63
BRANCH  50  73
ATOM     73  C   UNL A   1      41.529  27.750  29.654  1.00  0.00    -0.014 A 
ATOM     74  C   UNL A   1      40.650  26.684  29.394  1.00  0.00     0.010 A 
ATOM     75  C   UNL A   1      42.646  27.936  28.820  1.00  0.00     0.010 A 
ATOM     76  C   UNL A   1      40.896  25.804  28.336  1.00  0.00     0.020 A 
ATOM     77  C   UNL A   1      42.881  27.073  27.746  1.00  0.00     0.020 A 
ATOM     78  C   UNL A   1      42.011  26.004  27.518  1.00  0.00     0.054 A 
BRANCH  78  79
ATOM     79  S   UNL A   1      42.287  24.881  26.121  1.00  0.00     0.124 S 
ATOM     80  O   UNL A   1      41.836  25.686  24.991  1.00  0.00    -0.237 OA
ATOM     81  O   UNL A   1      43.725  24.635  26.191  1.00  0.00    -0.237 OA
ATOM     82  O   UNL A   1      41.451  23.726  26.443  1.00  0.00    -0.744 OA
ENDBRANCH  78  79
ENDBRANCH  50  73
BRANCH  62  83
ATOM     83  C   UNL A   1      44.432  28.553  35.937  1.00  0.00    -0.014 A 
ATOM     84  C   UNL A   1      45.783  28.928  35.831  1.00  0.00     0.010 A 
ATOM     85  C   UNL A   1      44.083  27.458  36.747  1.00  0.00     0.010 A 
ATOM     86  C   UNL A   1      46.772  28.189  36.484  1.00  0.00     0.020 A 
ATOM     87  C   UNL A   1      45.068  26.733  37.423  1.00  0.00     0.020 A 
ATOM     88  C   UNL A   1      46.408  27.090  37.270  1.00  0.00     0.054 A 
BRANCH  88  89
ATOM     89  S   UNL A   1      47.706  26.148  38.117  1.00  0.00     0.124 S 
ATOM     90  O   UNL A   1      48.790  27.125  38.191  1.00  0.00    -0.237 OA
ATOM     91  O   UNL A   1      47.078  25.808  39.392  1.00  0.00    -0.237 OA
ATOM     92  O   UNL A   1      47.946  25.015  37.227  1.00  0.00    -0.744 OA
ENDBRANCH  88  89
ENDBRANCH  62  83
ENDBRANCH  36  37
ENDBRANCH  28  31
ENDBRANCH  26  27
ENDBRANCH  25  26
ENDBRANCH  24  25
ENDBRANCH   1  24
TORSDOF 20
ENDMDL
