MODEL 1
REMARK VINA RESULT:     -11.5      0.000      0.000
REMARK SMILES C[C@@H]1CCC[C@H](C)[N@H+]1Cc1cc2c(cc1Cl)C=C(C(=O)NCCCCNC(=O)c1ccc(-c3c4nc(c(-c5ccc(S(=O)(=O)[O-])cc5)c5ccc([nH]5)c(-c5ccc(S(=O)(=O)[O-])cc5)c5nc(c(-c6ccc(S(=O)(=O)[O-])cc6)c6ccc3[nH]6)C=C5)C=C4)cc1)[C@@H](C(F)(F)F)O2
REMARK SMILES IDX 24 1 23 2 22 3 21 4 19 5 20 6 18 8 10 9 11 10 15 11 12 12
REMARK SMILES IDX 14 13 16 14 13 15 94 16 17 17 89 18 9 19 8 20 7 21 6 22 5 23
REMARK SMILES IDX 4 24 2 25 3 27 1 28 90 29 91 30 92 31 93 32 25 33 26 34
REMARK SMILES IDX 27 35 28 37 29 38 30 39 88 40 31 41 87 42 32 43 33 44 34 45
REMARK SMILES IDX 81 46 35 47 86 48 80 49 82 50 36 51 85 52 79 53 78 54 37 56
REMARK SMILES IDX 67 57 48 58 66 59 49 60 52 61 65 62 83 63 50 64 51 65 64 67
REMARK SMILES IDX 84 68 53 69 38 70 39 71 47 72 40 73 46 74 41 75 42 76 43 77
REMARK SMILES IDX 44 78 45 79 68 80 69 81 77 82 70 83 76 84 71 85 72 86 73 87
REMARK SMILES IDX 74 88 75 89 54 90 55 91 63 92 56 93 62 94 57 95 58 96 59 97
REMARK SMILES IDX 60 98 61 99
REMARK H PARENT 21 7 8 26 26 36 82 55 52 66
REMARK Flexibility Score: inf
ROOT
ATOM      1  C   UNL A   1      38.145  22.045  24.966  1.00  0.00     0.023 C 
ENDROOT
BRANCH   1   2
ATOM      2  C   UNL A   1      36.742  22.594  25.221  1.00  0.00     0.023 C 
BRANCH   2   3
ATOM      3  C   UNL A   1      35.936  21.801  26.246  1.00  0.00     0.116 C 
BRANCH   3   4
ATOM      4  N   UNL A   1      35.322  20.623  25.662  1.00  0.00    -0.352 N 
ATOM      5  C   UNL A   1      34.291  20.367  24.823  1.00  0.00     0.251 C 
ATOM      6  O   UNL A   1      34.145  19.182  24.506  1.00  0.00    -0.270 OA
ATOM      7  H   UNL A   1      35.772  19.796  25.951  1.00  0.00     0.163 HD
BRANCH   5   8
ATOM      8  C   UNL A   1      33.334  21.386  24.305  1.00  0.00     0.067 C 
ATOM      9  C   UNL A   1      30.749  25.697  24.123  1.00  0.00     0.029 A 
ATOM     10  C   UNL A   1      31.508  24.966  23.195  1.00  0.00     0.058 A 
ATOM     11  C   UNL A   1      30.350  25.048  25.304  1.00  0.00     0.050 A 
ATOM     12  C   UNL A   1      32.036  23.727  23.538  1.00  0.00     0.128 A 
ATOM     13  C   UNL A   1      30.902  23.810  25.655  1.00  0.00     0.033 A 
ATOM     14  Cl  UNL A   1      29.211  25.740  26.405  1.00  0.00    -0.084 Cl
ATOM     15  C   UNL A   1      31.804  23.181  24.798  1.00  0.00     0.019 A 
ATOM     16  O   UNL A   1      32.877  23.151  22.627  1.00  0.00    -0.475 OA
ATOM     17  C   UNL A   1      32.619  22.052  25.232  1.00  0.00     0.025 C 
ATOM     18  C   UNL A   1      33.164  21.744  22.857  1.00  0.00     0.314 C 
BRANCH   9  19
ATOM     19  C   UNL A   1      30.527  27.173  23.857  1.00  0.00     0.301 C 
BRANCH  19  20
ATOM     20  N   UNL A   1      31.603  28.089  24.310  1.00  0.00    -0.327 N 
ATOM     21  C   UNL A   1      33.818  28.862  23.498  1.00  0.00     0.075 C 
ATOM     22  C   UNL A   1      32.978  27.669  23.982  1.00  0.00     0.181 C 
ATOM     23  C   UNL A   1      33.716  26.933  25.116  1.00  0.00     0.065 C 
ATOM     24  C   UNL A   1      33.587  27.622  26.466  1.00  0.00     0.012 C 
ATOM     25  C   UNL A   1      31.398  28.659  25.651  1.00  0.00     0.181 C 
ATOM     26  H   UNL A   1      31.497  28.903  23.704  1.00  0.00     0.348 HD
ATOM     27  C   UNL A   1      32.129  27.918  26.783  1.00  0.00     0.065 C 
ATOM     28  C   UNL A   1      31.743  30.155  25.670  1.00  0.00     0.075 C 
ENDBRANCH  19  20
ENDBRANCH   9  19
BRANCH  18  29
ATOM     29  C   UNL A   1      32.091  20.868  22.178  1.00  0.00     0.429 C 
ATOM     30  F   UNL A   1      32.220  19.574  22.563  1.00  0.00    -0.167 F 
ATOM     31  F   UNL A   1      30.833  21.247  22.508  1.00  0.00    -0.167 F 
ATOM     32  F   UNL A   1      32.165  20.897  20.828  1.00  0.00    -0.167 F 
ENDBRANCH  18  29
ENDBRANCH   5   8
ENDBRANCH   3   4
ENDBRANCH   2   3
ENDBRANCH   1   2
BRANCH   1  33
ATOM     33  C   UNL A   1      38.891  21.560  26.206  1.00  0.00     0.116 C 
BRANCH  33  34
ATOM     34  N   UNL A   1      39.486  20.235  26.073  1.00  0.00    -0.352 N 
ATOM     35  C   UNL A   1      40.824  19.908  26.154  1.00  0.00     0.251 C 
ATOM     36  H   UNL A   1      38.864  19.491  25.908  1.00  0.00     0.163 HD
ATOM     37  O   UNL A   1      41.206  18.759  25.959  1.00  0.00    -0.269 OA
BRANCH  35  38
ATOM     38  C   UNL A   1      41.788  20.995  26.417  1.00  0.00     0.039 A 
ATOM     39  C   UNL A   1      42.180  21.264  27.729  1.00  0.00     0.014 A 
ATOM     40  C   UNL A   1      42.168  21.836  25.370  1.00  0.00     0.014 A 
ATOM     41  C   UNL A   1      42.783  22.481  28.018  1.00  0.00     0.010 A 
ATOM     42  C   UNL A   1      42.855  23.018  25.656  1.00  0.00     0.010 A 
ATOM     43  C   UNL A   1      43.106  23.382  26.988  1.00  0.00    -0.014 A 
BRANCH  43  44
ATOM     44  C   UNL A   1      43.666  24.713  27.342  1.00  0.00     0.031 A 
ATOM     45  C   UNL A   1      45.087  25.072  26.990  1.00  0.00     0.074 A 
ATOM     46  C   UNL A   1      42.858  25.633  27.902  1.00  0.00     0.049 A 
ATOM     47  N   UNL A   1      45.714  26.207  27.168  1.00  0.00    -0.248 NA
ATOM     48  C   UNL A   1      45.915  24.030  26.357  1.00  0.00     0.031 C 
ATOM     49  C   UNL A   1      41.456  25.409  28.262  1.00  0.00     0.029 A 
ATOM     50  N   UNL A   1      43.079  26.948  28.224  1.00  0.00    -0.354 N 
ATOM     51  C   UNL A   1      47.006  26.013  26.691  1.00  0.00     0.074 A 
ATOM     52  C   UNL A   1      47.086  24.643  26.238  1.00  0.00     0.031 C 
ATOM     53  C   UNL A   1      40.921  26.565  28.683  1.00  0.00     0.029 A 
ATOM     54  C   UNL A   1      41.957  27.594  28.690  1.00  0.00     0.049 A 
ATOM     55  H   UNL A   1      43.955  27.388  28.132  1.00  0.00     0.167 HD
ATOM     56  C   UNL A   1      48.027  26.900  26.626  1.00  0.00     0.031 A 
ATOM     57  C   UNL A   1      41.773  28.870  29.080  1.00  0.00     0.031 A 
ATOM     58  C   UNL A   1      47.935  28.270  27.060  1.00  0.00     0.049 A 
ATOM     59  C   UNL A   1      42.926  29.829  29.020  1.00  0.00     0.074 A 
ATOM     60  C   UNL A   1      48.918  29.244  27.033  1.00  0.00     0.029 A 
ATOM     61  N   UNL A   1      46.798  28.865  27.586  1.00  0.00    -0.354 N 
ATOM     62  N   UNL A   1      44.144  29.616  28.585  1.00  0.00    -0.248 NA
ATOM     63  C   UNL A   1      42.684  31.195  29.502  1.00  0.00     0.031 C 
ATOM     64  C   UNL A   1      48.392  30.413  27.587  1.00  0.00     0.029 A 
ATOM     65  C   UNL A   1      47.061  30.188  27.900  1.00  0.00     0.049 A 
ATOM     66  H   UNL A   1      45.932  28.414  27.715  1.00  0.00     0.167 HD
ATOM     67  C   UNL A   1      44.814  30.825  28.733  1.00  0.00     0.074 A 
ATOM     68  C   UNL A   1      43.860  31.769  29.279  1.00  0.00     0.031 C 
ATOM     69  C   UNL A   1      46.106  31.118  28.448  1.00  0.00     0.031 A 
BRANCH  56  70
ATOM     70  C   UNL A   1      49.347  26.433  26.069  1.00  0.00    -0.014 A 
ATOM     71  C   UNL A   1      50.229  25.702  26.887  1.00  0.00     0.010 A 
ATOM     72  C   UNL A   1      49.766  26.814  24.782  1.00  0.00     0.010 A 
ATOM     73  C   UNL A   1      51.514  25.382  26.440  1.00  0.00     0.020 A 
ATOM     74  C   UNL A   1      51.042  26.474  24.321  1.00  0.00     0.020 A 
ATOM     75  C   UNL A   1      51.916  25.779  25.163  1.00  0.00     0.054 A 
BRANCH  75  76
ATOM     76  S   UNL A   1      53.592  25.370  24.602  1.00  0.00     0.124 S 
ATOM     77  O   UNL A   1      54.421  26.181  25.487  1.00  0.00    -0.237 OA
ATOM     78  O   UNL A   1      53.660  23.926  24.821  1.00  0.00    -0.237 OA
ATOM     79  O   UNL A   1      53.589  25.776  23.198  1.00  0.00    -0.744 OA
ENDBRANCH  75  76
ENDBRANCH  56  70
BRANCH  57  80
ATOM     80  C   UNL A   1      40.421  29.294  29.535  1.00  0.00    -0.014 A 
ATOM     81  C   UNL A   1      39.501  29.831  28.615  1.00  0.00     0.010 A 
ATOM     82  C   UNL A   1      40.088  29.266  30.900  1.00  0.00     0.010 A 
ATOM     83  C   UNL A   1      38.301  30.392  29.058  1.00  0.00     0.020 A 
ATOM     84  C   UNL A   1      38.874  29.799  31.344  1.00  0.00     0.020 A 
ATOM     85  C   UNL A   1      38.004  30.388  30.422  1.00  0.00     0.054 A 
BRANCH  85  86
ATOM     86  S   UNL A   1      36.472  31.180  30.984  1.00  0.00     0.124 S 
ATOM     87  O   UNL A   1      35.633  31.084  29.792  1.00  0.00    -0.237 OA
ATOM     88  O   UNL A   1      36.068  30.339  32.108  1.00  0.00    -0.237 OA
ATOM     89  O   UNL A   1      36.898  32.530  31.343  1.00  0.00    -0.744 OA
ENDBRANCH  85  86
ENDBRANCH  57  80
BRANCH  69  90
ATOM     90  C   UNL A   1      46.587  32.520  28.711  1.00  0.00    -0.014 A 
ATOM     91  C   UNL A   1      47.115  32.849  29.972  1.00  0.00     0.010 A 
ATOM     92  C   UNL A   1      46.406  33.535  27.755  1.00  0.00     0.010 A 
ATOM     93  C   UNL A   1      47.427  34.174  30.286  1.00  0.00     0.020 A 
ATOM     94  C   UNL A   1      46.741  34.858  28.056  1.00  0.00     0.020 A 
ATOM     95  C   UNL A   1      47.227  35.173  29.328  1.00  0.00     0.054 A 
BRANCH  95  96
ATOM     96  S   UNL A   1      47.616  36.891  29.758  1.00  0.00     0.124 S 
ATOM     97  O   UNL A   1      46.743  37.126  30.904  1.00  0.00    -0.237 OA
ATOM     98  O   UNL A   1      49.045  36.835  30.056  1.00  0.00    -0.237 OA
ATOM     99  O   UNL A   1      47.271  37.631  28.546  1.00  0.00    -0.744 OA
ENDBRANCH  95  96
ENDBRANCH  69  90
ENDBRANCH  43  44
ENDBRANCH  35  38
ENDBRANCH  33  34
ENDBRANCH   1  33
TORSDOF 17
ENDMDL
MODEL 2
REMARK VINA RESULT:     -11.2      5.995     11.508
REMARK SMILES C[C@@H]1CCC[C@H](C)[N@H+]1Cc1cc2c(cc1Cl)C=C(C(=O)NCCCCNC(=O)c1ccc(-c3c4nc(c(-c5ccc(S(=O)(=O)[O-])cc5)c5ccc([nH]5)c(-c5ccc(S(=O)(=O)[O-])cc5)c5nc(c(-c6ccc(S(=O)(=O)[O-])cc6)c6ccc3[nH]6)C=C5)C=C4)cc1)[C@@H](C(F)(F)F)O2
REMARK SMILES IDX 24 1 23 2 22 3 21 4 19 5 20 6 18 8 10 9 11 10 15 11 12 12
REMARK SMILES IDX 14 13 16 14 13 15 94 16 17 17 89 18 9 19 8 20 7 21 6 22 5 23
REMARK SMILES IDX 4 24 2 25 3 27 1 28 90 29 91 30 92 31 93 32 25 33 26 34
REMARK SMILES IDX 27 35 28 37 29 38 30 39 88 40 31 41 87 42 32 43 33 44 34 45
REMARK SMILES IDX 81 46 35 47 86 48 80 49 82 50 36 51 85 52 79 53 78 54 37 56
REMARK SMILES IDX 67 57 48 58 66 59 49 60 52 61 65 62 83 63 50 64 51 65 64 67
REMARK SMILES IDX 84 68 53 69 38 70 39 71 47 72 40 73 46 74 41 75 42 76 43 77
REMARK SMILES IDX 44 78 45 79 68 80 69 81 77 82 70 83 76 84 71 85 72 86 73 87
REMARK SMILES IDX 74 88 75 89 54 90 55 91 63 92 56 93 62 94 57 95 58 96 59 97
REMARK SMILES IDX 60 98 61 99
REMARK H PARENT 21 7 8 26 26 36 82 55 52 66
REMARK Flexibility Score: inf
ROOT
ATOM      1  C   UNL A   1      37.367  34.209  34.113  1.00  0.00     0.023 C 
ENDROOT
BRANCH   1   2
ATOM      2  C   UNL A   1      38.129  34.191  32.788  1.00  0.00     0.023 C 
BRANCH   2   3
ATOM      3  C   UNL A   1      38.227  32.812  32.141  1.00  0.00     0.116 C 
BRANCH   3   4
ATOM      4  N   UNL A   1      37.772  32.825  30.763  1.00  0.00    -0.352 N 
ATOM      5  C   UNL A   1      37.800  31.972  29.712  1.00  0.00     0.251 C 
ATOM      6  O   UNL A   1      37.209  32.358  28.698  1.00  0.00    -0.270 OA
ATOM      7  H   UNL A   1      37.329  33.674  30.533  1.00  0.00     0.163 HD
BRANCH   5   8
ATOM      8  C   UNL A   1      38.504  30.659  29.693  1.00  0.00     0.067 C 
ATOM      9  C   UNL A   1      41.851  27.176  28.290  1.00  0.00     0.029 A 
ATOM     10  C   UNL A   1      41.412  27.675  29.527  1.00  0.00     0.058 A 
ATOM     11  C   UNL A   1      41.073  27.455  27.154  1.00  0.00     0.050 A 
ATOM     12  C   UNL A   1      40.376  28.600  29.585  1.00  0.00     0.128 A 
ATOM     13  C   UNL A   1      40.045  28.403  27.213  1.00  0.00     0.033 A 
ATOM     14  Cl  UNL A   1      41.357  26.697  25.626  1.00  0.00    -0.084 Cl
ATOM     15  C   UNL A   1      39.743  29.030  28.421  1.00  0.00     0.019 A 
ATOM     16  O   UNL A   1      40.108  29.138  30.812  1.00  0.00    -0.475 OA
ATOM     17  C   UNL A   1      38.895  30.215  28.482  1.00  0.00     0.025 C 
ATOM     18  C   UNL A   1      38.844  29.849  30.910  1.00  0.00     0.314 C 
BRANCH   9  19
ATOM     19  C   UNL A   1      43.202  26.490  28.239  1.00  0.00     0.301 C 
BRANCH  19  20
ATOM     20  N   UNL A   1      43.200  25.021  28.458  1.00  0.00    -0.327 N 
ATOM     21  C   UNL A   1      44.120  23.411  30.109  1.00  0.00     0.075 C 
ATOM     22  C   UNL A   1      44.438  24.461  29.032  1.00  0.00     0.181 C 
ATOM     23  C   UNL A   1      45.420  23.874  28.000  1.00  0.00     0.065 C 
ATOM     24  C   UNL A   1      44.749  22.970  26.976  1.00  0.00     0.012 C 
ATOM     25  C   UNL A   1      42.570  24.242  27.381  1.00  0.00     0.181 C 
ATOM     26  H   UNL A   1      42.550  24.895  29.234  1.00  0.00     0.348 HD
ATOM     27  C   UNL A   1      43.551  23.664  26.347  1.00  0.00     0.065 C 
ATOM     28  C   UNL A   1      41.673  23.137  27.956  1.00  0.00     0.075 C 
ENDBRANCH  19  20
ENDBRANCH   9  19
BRANCH  18  29
ATOM     29  C   UNL A   1      37.711  28.867  31.274  1.00  0.00     0.429 C 
ATOM     30  F   UNL A   1      38.196  27.608  31.404  1.00  0.00    -0.167 F 
ATOM     31  F   UNL A   1      37.119  29.178  32.453  1.00  0.00    -0.167 F 
ATOM     32  F   UNL A   1      36.730  28.828  30.344  1.00  0.00    -0.167 F 
ENDBRANCH  18  29
ENDBRANCH   5   8
ENDBRANCH   3   4
ENDBRANCH   2   3
ENDBRANCH   1   2
BRANCH   1  33
ATOM     33  C   UNL A   1      38.235  34.304  35.364  1.00  0.00     0.116 C 
BRANCH  33  34
ATOM     34  N   UNL A   1      37.664  33.670  36.546  1.00  0.00    -0.352 N 
ATOM     35  C   UNL A   1      37.956  32.419  37.047  1.00  0.00     0.251 C 
ATOM     36  H   UNL A   1      36.993  34.194  37.043  1.00  0.00     0.163 HD
ATOM     37  O   UNL A   1      37.355  31.971  38.018  1.00  0.00    -0.269 OA
BRANCH  35  38
ATOM     38  C   UNL A   1      38.968  31.609  36.340  1.00  0.00     0.039 A 
ATOM     39  C   UNL A   1      40.321  31.799  36.621  1.00  0.00     0.014 A 
ATOM     40  C   UNL A   1      38.564  30.780  35.292  1.00  0.00     0.014 A 
ATOM     41  C   UNL A   1      41.270  31.321  35.728  1.00  0.00     0.010 A 
ATOM     42  C   UNL A   1      39.529  30.225  34.447  1.00  0.00     0.010 A 
ATOM     43  C   UNL A   1      40.884  30.549  34.618  1.00  0.00    -0.014 A 
BRANCH  43  44
ATOM     44  C   UNL A   1      41.918  30.130  33.634  1.00  0.00     0.031 A 
ATOM     45  C   UNL A   1      42.408  31.085  32.576  1.00  0.00     0.074 A 
ATOM     46  C   UNL A   1      42.481  28.913  33.757  1.00  0.00     0.049 A 
ATOM     47  N   UNL A   1      43.346  30.904  31.681  1.00  0.00    -0.248 NA
ATOM     48  C   UNL A   1      41.770  32.410  32.507  1.00  0.00     0.031 C 
ATOM     49  C   UNL A   1      42.108  27.914  34.762  1.00  0.00     0.029 A 
ATOM     50  N   UNL A   1      43.512  28.325  33.069  1.00  0.00    -0.354 N 
ATOM     51  C   UNL A   1      43.398  32.077  30.936  1.00  0.00     0.074 A 
ATOM     52  C   UNL A   1      42.379  32.957  31.463  1.00  0.00     0.031 C 
ATOM     53  C   UNL A   1      42.946  26.871  34.675  1.00  0.00     0.029 A 
ATOM     54  C   UNL A   1      43.870  27.094  33.567  1.00  0.00     0.049 A 
ATOM     55  H   UNL A   1      43.952  28.743  32.295  1.00  0.00     0.167 HD
ATOM     56  C   UNL A   1      44.228  32.395  29.913  1.00  0.00     0.031 A 
ATOM     57  C   UNL A   1      44.832  26.233  33.181  1.00  0.00     0.031 A 
ATOM     58  C   UNL A   1      45.254  31.522  29.406  1.00  0.00     0.049 A 
ATOM     59  C   UNL A   1      45.724  26.598  32.032  1.00  0.00     0.074 A 
ATOM     60  C   UNL A   1      46.144  31.758  28.372  1.00  0.00     0.029 A 
ATOM     61  N   UNL A   1      45.540  30.257  29.897  1.00  0.00    -0.354 N 
ATOM     62  N   UNL A   1      45.740  27.704  31.328  1.00  0.00    -0.248 NA
ATOM     63  C   UNL A   1      46.725  25.604  31.621  1.00  0.00     0.031 C 
ATOM     64  C   UNL A   1      46.934  30.619  28.205  1.00  0.00     0.029 A 
ATOM     65  C   UNL A   1      46.581  29.696  29.177  1.00  0.00     0.049 A 
ATOM     66  H   UNL A   1      45.072  29.823  30.647  1.00  0.00     0.167 HD
ATOM     67  C   UNL A   1      46.757  27.543  30.395  1.00  0.00     0.074 A 
ATOM     68  C   UNL A   1      47.347  26.243  30.637  1.00  0.00     0.031 C 
ATOM     69  C   UNL A   1      47.158  28.398  29.422  1.00  0.00     0.031 A 
BRANCH  56  70
ATOM     70  C   UNL A   1      44.071  33.742  29.257  1.00  0.00    -0.014 A 
ATOM     71  C   UNL A   1      44.730  34.862  29.798  1.00  0.00     0.010 A 
ATOM     72  C   UNL A   1      43.184  33.925  28.182  1.00  0.00     0.010 A 
ATOM     73  C   UNL A   1      44.487  36.143  29.294  1.00  0.00     0.020 A 
ATOM     74  C   UNL A   1      42.957  35.203  27.658  1.00  0.00     0.020 A 
ATOM     75  C   UNL A   1      43.594  36.306  28.233  1.00  0.00     0.054 A 
BRANCH  75  76
ATOM     76  S   UNL A   1      43.277  37.976  27.599  1.00  0.00     0.124 S 
ATOM     77  O   UNL A   1      44.520  38.282  26.899  1.00  0.00    -0.237 OA
ATOM     78  O   UNL A   1      42.105  37.780  26.748  1.00  0.00    -0.237 OA
ATOM     79  O   UNL A   1      43.030  38.757  28.809  1.00  0.00    -0.744 OA
ENDBRANCH  75  76
ENDBRANCH  56  70
BRANCH  57  80
ATOM     80  C   UNL A   1      44.995  24.956  33.928  1.00  0.00    -0.014 A 
ATOM     81  C   UNL A   1      46.002  24.830  34.904  1.00  0.00     0.010 A 
ATOM     82  C   UNL A   1      44.222  23.832  33.592  1.00  0.00     0.010 A 
ATOM     83  C   UNL A   1      46.276  23.589  35.483  1.00  0.00     0.020 A 
ATOM     84  C   UNL A   1      44.474  22.594  34.192  1.00  0.00     0.020 A 
ATOM     85  C   UNL A   1      45.522  22.475  35.109  1.00  0.00     0.054 A 
BRANCH  85  86
ATOM     86  S   UNL A   1      45.938  20.861  35.824  1.00  0.00     0.124 S 
ATOM     87  O   UNL A   1      47.367  20.769  35.540  1.00  0.00    -0.237 OA
ATOM     88  O   UNL A   1      45.585  21.030  37.231  1.00  0.00    -0.237 OA
ATOM     89  O   UNL A   1      45.091  19.932  35.080  1.00  0.00    -0.744 OA
ENDBRANCH  85  86
ENDBRANCH  57  80
BRANCH  69  90
ATOM     90  C   UNL A   1      48.295  27.973  28.532  1.00  0.00    -0.014 A 
ATOM     91  C   UNL A   1      48.027  27.229  27.370  1.00  0.00     0.010 A 
ATOM     92  C   UNL A   1      49.629  28.205  28.908  1.00  0.00     0.010 A 
ATOM     93  C   UNL A   1      49.074  26.697  26.612  1.00  0.00     0.020 A 
ATOM     94  C   UNL A   1      50.679  27.696  28.139  1.00  0.00     0.020 A 
ATOM     95  C   UNL A   1      50.394  26.925  27.008  1.00  0.00     0.054 A 
BRANCH  95  96
ATOM     96  S   UNL A   1      51.741  26.211  26.026  1.00  0.00     0.124 S 
ATOM     97  O   UNL A   1      51.781  24.836  26.516  1.00  0.00    -0.237 OA
ATOM     98  O   UNL A   1      51.266  26.378  24.655  1.00  0.00    -0.237 OA
ATOM     99  O   UNL A   1      52.895  27.035  26.381  1.00  0.00    -0.744 OA
ENDBRANCH  95  96
ENDBRANCH  69  90
ENDBRANCH  43  44
ENDBRANCH  35  38
ENDBRANCH  33  34
ENDBRANCH   1  33
TORSDOF 17
ENDMDL
MODEL 3
REMARK VINA RESULT:     -11.0      0.643      7.842
REMARK SMILES C[C@@H]1CCC[C@H](C)[N@H+]1Cc1cc2c(cc1Cl)C=C(C(=O)NCCCCNC(=O)c1ccc(-c3c4nc(c(-c5ccc(S(=O)(=O)[O-])cc5)c5ccc([nH]5)c(-c5ccc(S(=O)(=O)[O-])cc5)c5nc(c(-c6ccc(S(=O)(=O)[O-])cc6)c6ccc3[nH]6)C=C5)C=C4)cc1)[C@@H](C(F)(F)F)O2
REMARK SMILES IDX 24 1 23 2 22 3 21 4 19 5 20 6 18 8 10 9 11 10 15 11 12 12
REMARK SMILES IDX 14 13 16 14 13 15 94 16 17 17 89 18 9 19 8 20 7 21 6 22 5 23
REMARK SMILES IDX 4 24 2 25 3 27 1 28 90 29 91 30 92 31 93 32 25 33 26 34
REMARK SMILES IDX 27 35 28 37 29 38 30 39 88 40 31 41 87 42 32 43 33 44 34 45
REMARK SMILES IDX 81 46 35 47 86 48 80 49 82 50 36 51 85 52 79 53 78 54 37 56
REMARK SMILES IDX 67 57 48 58 66 59 49 60 52 61 65 62 83 63 50 64 51 65 64 67
REMARK SMILES IDX 84 68 53 69 38 70 39 71 47 72 40 73 46 74 41 75 42 76 43 77
REMARK SMILES IDX 44 78 45 79 68 80 69 81 77 82 70 83 76 84 71 85 72 86 73 87
REMARK SMILES IDX 74 88 75 89 54 90 55 91 63 92 56 93 62 94 57 95 58 96 59 97
REMARK SMILES IDX 60 98 61 99
REMARK H PARENT 21 7 8 26 26 36 82 55 52 66
REMARK Flexibility Score: inf
ROOT
ATOM      1  C   UNL A   1      38.814  22.524  25.393  1.00  0.00     0.023 C 
ENDROOT
BRANCH   1   2
ATOM      2  C   UNL A   1      37.453  22.133  24.818  1.00  0.00     0.023 C 
BRANCH   2   3
ATOM      3  C   UNL A   1      36.410  21.771  25.872  1.00  0.00     0.116 C 
BRANCH   3   4
ATOM      4  N   UNL A   1      35.742  20.519  25.567  1.00  0.00    -0.352 N 
ATOM      5  C   UNL A   1      34.603  20.141  24.940  1.00  0.00     0.251 C 
ATOM      6  O   UNL A   1      34.437  18.922  24.828  1.00  0.00    -0.270 OA
ATOM      7  H   UNL A   1      36.247  19.744  25.905  1.00  0.00     0.163 HD
BRANCH   5   8
ATOM      8  C   UNL A   1      33.558  21.071  24.426  1.00  0.00     0.067 C 
ATOM      9  C   UNL A   1      30.794  25.260  24.089  1.00  0.00     0.029 A 
ATOM     10  C   UNL A   1      31.484  24.461  23.163  1.00  0.00     0.058 A 
ATOM     11  C   UNL A   1      30.544  24.725  25.364  1.00  0.00     0.050 A 
ATOM     12  C   UNL A   1      32.094  23.281  23.570  1.00  0.00     0.128 A 
ATOM     13  C   UNL A   1      31.179  23.547  25.776  1.00  0.00     0.033 A 
ATOM     14  Cl  UNL A   1      29.495  25.492  26.503  1.00  0.00    -0.084 Cl
ATOM     15  C   UNL A   1      32.014  22.861  24.896  1.00  0.00     0.019 A 
ATOM     16  O   UNL A   1      32.862  22.639  22.639  1.00  0.00    -0.475 OA
ATOM     17  C   UNL A   1      32.914  21.808  25.353  1.00  0.00     0.025 C 
ATOM     18  C   UNL A   1      33.227  21.273  22.976  1.00  0.00     0.314 C 
BRANCH   9  19
ATOM     19  C   UNL A   1      30.487  26.693  23.702  1.00  0.00     0.301 C 
BRANCH  19  20
ATOM     20  N   UNL A   1      31.520  27.702  24.048  1.00  0.00    -0.327 N 
ATOM     21  C   UNL A   1      33.646  28.553  23.090  1.00  0.00     0.075 C 
ATOM     22  C   UNL A   1      32.904  27.346  23.686  1.00  0.00     0.181 C 
ATOM     23  C   UNL A   1      33.733  26.732  24.829  1.00  0.00     0.065 C 
ATOM     24  C   UNL A   1      33.615  27.499  26.138  1.00  0.00     0.012 C 
ATOM     25  C   UNL A   1      31.333  28.344  25.358  1.00  0.00     0.181 C 
ATOM     26  H   UNL A   1      31.337  28.466  23.397  1.00  0.00     0.348 HD
ATOM     27  C   UNL A   1      32.156  27.725  26.500  1.00  0.00     0.065 C 
ATOM     28  C   UNL A   1      31.583  29.856  25.267  1.00  0.00     0.075 C 
ENDBRANCH  19  20
ENDBRANCH   9  19
BRANCH  18  29
ATOM     29  C   UNL A   1      32.128  20.299  22.504  1.00  0.00     0.429 C 
ATOM     30  F   UNL A   1      31.469  19.773  23.566  1.00  0.00    -0.167 F 
ATOM     31  F   UNL A   1      31.195  20.911  21.735  1.00  0.00    -0.167 F 
ATOM     32  F   UNL A   1      32.615  19.267  21.779  1.00  0.00    -0.167 F 
ENDBRANCH  18  29
ENDBRANCH   5   8
ENDBRANCH   3   4
ENDBRANCH   2   3
ENDBRANCH   1   2
BRANCH   1  33
ATOM     33  C   UNL A   1      39.270  21.712  26.601  1.00  0.00     0.116 C 
BRANCH  33  34
ATOM     34  N   UNL A   1      39.927  20.452  26.269  1.00  0.00    -0.352 N 
ATOM     35  C   UNL A   1      41.280  20.227  26.130  1.00  0.00     0.251 C 
ATOM     36  H   UNL A   1      39.338  19.676  26.128  1.00  0.00     0.163 HD
ATOM     37  O   UNL A   1      41.705  19.130  25.782  1.00  0.00    -0.269 OA
BRANCH  35  38
ATOM     38  C   UNL A   1      42.198  21.363  26.349  1.00  0.00     0.039 A 
ATOM     39  C   UNL A   1      42.571  21.706  27.649  1.00  0.00     0.014 A 
ATOM     40  C   UNL A   1      42.550  22.171  25.267  1.00  0.00     0.014 A 
ATOM     41  C   UNL A   1      43.121  22.957  27.886  1.00  0.00     0.010 A 
ATOM     42  C   UNL A   1      43.187  23.392  25.503  1.00  0.00     0.010 A 
ATOM     43  C   UNL A   1      43.414  23.824  26.819  1.00  0.00    -0.014 A 
BRANCH  43  44
ATOM     44  C   UNL A   1      43.918  25.192  27.116  1.00  0.00     0.031 A 
ATOM     45  C   UNL A   1      43.026  26.220  27.764  1.00  0.00     0.074 A 
ATOM     46  C   UNL A   1      45.214  25.475  26.882  1.00  0.00     0.049 A 
ATOM     47  N   UNL A   1      43.323  27.435  28.148  1.00  0.00    -0.248 NA
ATOM     48  C   UNL A   1      41.625  25.843  28.016  1.00  0.00     0.031 C 
ATOM     49  C   UNL A   1      46.179  24.549  26.285  1.00  0.00     0.029 A 
ATOM     50  N   UNL A   1      45.954  26.596  27.158  1.00  0.00    -0.354 N 
ATOM     51  C   UNL A   1      42.149  27.972  28.666  1.00  0.00     0.074 A 
ATOM     52  C   UNL A   1      41.126  26.962  28.525  1.00  0.00     0.031 C 
ATOM     53  C   UNL A   1      47.397  25.110  26.309  1.00  0.00     0.029 A 
ATOM     54  C   UNL A   1      47.289  26.459  26.857  1.00  0.00     0.049 A 
ATOM     55  H   UNL A   1      45.568  27.420  27.534  1.00  0.00     0.167 HD
ATOM     56  C   UNL A   1      41.948  29.192  29.219  1.00  0.00     0.031 A 
ATOM     57  C   UNL A   1      48.318  27.316  27.003  1.00  0.00     0.031 A 
ATOM     58  C   UNL A   1      42.976  30.188  29.375  1.00  0.00     0.049 A 
ATOM     59  C   UNL A   1      48.066  28.670  27.598  1.00  0.00     0.074 A 
ATOM     60  C   UNL A   1      42.866  31.453  29.925  1.00  0.00     0.029 A 
ATOM     61  N   UNL A   1      44.301  30.031  28.998  1.00  0.00    -0.354 N 
ATOM     62  N   UNL A   1      46.942  29.163  28.061  1.00  0.00    -0.248 NA
ATOM     63  C   UNL A   1      49.212  29.583  27.690  1.00  0.00     0.031 C 
ATOM     64  C   UNL A   1      44.111  32.080  29.835  1.00  0.00     0.029 A 
ATOM     65  C   UNL A   1      45.014  31.182  29.289  1.00  0.00     0.049 A 
ATOM     66  H   UNL A   1      44.680  29.220  28.585  1.00  0.00     0.167 HD
ATOM     67  C   UNL A   1      47.248  30.443  28.507  1.00  0.00     0.074 A 
ATOM     68  C   UNL A   1      48.665  30.640  28.278  1.00  0.00     0.031 C 
ATOM     69  C   UNL A   1      46.423  31.370  29.052  1.00  0.00     0.031 A 
BRANCH  56  70
ATOM     70  C   UNL A   1      40.563  29.540  29.701  1.00  0.00    -0.014 A 
ATOM     71  C   UNL A   1      39.627  30.081  28.800  1.00  0.00     0.010 A 
ATOM     72  C   UNL A   1      40.224  29.443  31.062  1.00  0.00     0.010 A 
ATOM     73  C   UNL A   1      38.388  30.543  29.253  1.00  0.00     0.020 A 
ATOM     74  C   UNL A   1      38.975  29.880  31.516  1.00  0.00     0.020 A 
ATOM     75  C   UNL A   1      38.074  30.448  30.610  1.00  0.00     0.054 A 
BRANCH  75  76
ATOM     76  S   UNL A   1      36.467  31.065  31.186  1.00  0.00     0.124 S 
ATOM     77  O   UNL A   1      35.661  31.010  29.971  1.00  0.00    -0.237 OA
ATOM     78  O   UNL A   1      36.109  30.103  32.226  1.00  0.00    -0.237 OA
ATOM     79  O   UNL A   1      36.774  32.408  31.674  1.00  0.00    -0.744 OA
ENDBRANCH  75  76
ENDBRANCH  56  70
BRANCH  57  80
ATOM     80  C   UNL A   1      49.680  26.880  26.591  1.00  0.00    -0.014 A 
ATOM     81  C   UNL A   1      50.192  27.247  25.333  1.00  0.00     0.010 A 
ATOM     82  C   UNL A   1      50.424  26.009  27.405  1.00  0.00     0.010 A 
ATOM     83  C   UNL A   1      51.390  26.701  24.867  1.00  0.00     0.020 A 
ATOM     84  C   UNL A   1      51.639  25.483  26.955  1.00  0.00     0.020 A 
ATOM     85  C   UNL A   1      52.097  25.808  25.674  1.00  0.00     0.054 A 
BRANCH  85  86
ATOM     86  S   UNL A   1      53.615  25.060  25.025  1.00  0.00     0.124 S 
ATOM     87  O   UNL A   1      54.639  25.715  25.834  1.00  0.00    -0.237 OA
ATOM     88  O   UNL A   1      53.415  23.638  25.294  1.00  0.00    -0.237 OA
ATOM     89  O   UNL A   1      53.600  25.430  23.613  1.00  0.00    -0.744 OA
ENDBRANCH  85  86
ENDBRANCH  57  80
BRANCH  69  90
ATOM     90  C   UNL A   1      47.014  32.696  29.450  1.00  0.00    -0.014 A 
ATOM     91  C   UNL A   1      47.453  32.895  30.771  1.00  0.00     0.010 A 
ATOM     92  C   UNL A   1      47.024  33.778  28.552  1.00  0.00     0.010 A 
ATOM     93  C   UNL A   1      47.864  34.160  31.198  1.00  0.00     0.020 A 
ATOM     94  C   UNL A   1      47.459  35.039  28.969  1.00  0.00     0.020 A 
ATOM     95  C   UNL A   1      47.854  35.227  30.296  1.00  0.00     0.054 A 
BRANCH  95  96
ATOM     96  S   UNL A   1      48.370  36.868  30.872  1.00  0.00     0.124 S 
ATOM     97  O   UNL A   1      47.167  37.663  30.651  1.00  0.00    -0.237 OA
ATOM     98  O   UNL A   1      48.717  36.625  32.271  1.00  0.00    -0.237 OA
ATOM     99  O   UNL A   1      49.503  37.191  30.007  1.00  0.00    -0.744 OA
ENDBRANCH  95  96
ENDBRANCH  69  90
ENDBRANCH  43  44
ENDBRANCH  35  38
ENDBRANCH  33  34
ENDBRANCH   1  33
TORSDOF 17
ENDMDL
