MODEL 1
REMARK VINA RESULT:     -12.6      0.000      0.000
REMARK SMILES Cc1ccc(S(=O)(=O)n2cc(C(=O)C(=O)N[C@@H](Cc3cnc[nH]3)C(=O)NCCCCNC(=O)c3ccc(-c4c5nc(c(-c6ccc(S(=O)(=O)[O-])cc6)c6ccc([nH]6)c(-c6ccc(S(=O)(=O)[O-])cc6)c6nc(c(-c7ccc(S(=O)(=O)[O-])cc7)c7ccc4[nH]7)C=C6)C=C5)cc3)c3ccccc32)cc1
REMARK SMILES IDX 27 1 26 2 24 3 25 4 17 6 16 7 14 8 15 9 12 11 13 12 11 13
REMARK SMILES IDX 9 14 10 15 99 16 94 17 98 18 95 19 97 20 96 21 6 22 7 23
REMARK SMILES IDX 8 24 5 25 1 26 2 27 3 28 101 29 4 30 100 31 18 32 19 33
REMARK SMILES IDX 20 34 23 35 21 36 22 37 28 39 29 40 30 41 31 42 32 43 33 45
REMARK SMILES IDX 34 46 35 47 93 48 36 49 92 50 37 51 38 52 39 53 86 54 40 55
REMARK SMILES IDX 91 56 85 57 87 58 41 59 90 60 84 61 83 62 42 64 72 65 53 66
REMARK SMILES IDX 71 67 54 68 57 69 70 70 88 71 55 72 56 73 69 75 89 76 58 77
REMARK SMILES IDX 43 78 44 79 52 80 45 81 51 82 46 83 47 84 48 85 49 86 50 87
REMARK SMILES IDX 73 88 74 89 82 90 75 91 81 92 76 93 77 94 78 95 79 96 80 97
REMARK SMILES IDX 59 98 60 99 68 100 61 101 67 102 62 103 63 104 64 105 65 106
REMARK SMILES IDX 66 107
REMARK H PARENT 26 5 16 10 23 38 31 44 87 63 57 74
REMARK Flexibility Score: inf
ROOT
ATOM      1  C   UNL A   1      37.087  23.508  25.968  1.00  0.00     0.116 C 
ENDROOT
BRANCH   1   2
ATOM      2  N   UNL A   1      36.817  23.272  24.559  1.00  0.00    -0.354 N 
ATOM      3  C   UNL A   1      35.717  22.744  23.946  1.00  0.00     0.242 C 
ATOM      4  O   UNL A   1      35.526  23.077  22.769  1.00  0.00    -0.273 OA
ATOM      5  H   UNL A   1      37.544  23.536  23.948  1.00  0.00     0.163 HD
BRANCH   3   6
ATOM      6  C   UNL A   1      34.678  21.844  24.661  1.00  0.00     0.177 C 
BRANCH   6   7
ATOM      7  N   UNL A   1      33.317  22.010  24.131  1.00  0.00    -0.337 N 
ATOM      8  C   UNL A   1      32.349  22.954  24.384  1.00  0.00     0.293 C 
ATOM      9  O   UNL A   1      31.379  23.002  23.634  1.00  0.00    -0.265 OA
ATOM     10  H   UNL A   1      33.051  21.324  23.477  1.00  0.00     0.164 HD
BRANCH   8  11
ATOM     11  C   UNL A   1      32.438  23.905  25.603  1.00  0.00     0.252 C 
ATOM     12  O   UNL A   1      32.451  23.421  26.730  1.00  0.00    -0.283 OA
BRANCH  11  13
ATOM     13  C   UNL A   1      32.442  25.372  25.448  1.00  0.00     0.054 A 
ATOM     14  N   UNL A   1      32.322  27.567  25.843  1.00  0.00    -0.240 N 
ATOM     15  C   UNL A   1      32.064  26.329  26.372  1.00  0.00     0.117 A 
ATOM     16  C   UNL A   1      32.834  27.468  24.567  1.00  0.00     0.065 A 
ATOM     17  C   UNL A   1      32.878  26.097  24.279  1.00  0.00     0.012 A 
ATOM     18  C   UNL A   1      33.246  28.436  23.631  1.00  0.00     0.028 A 
ATOM     19  C   UNL A   1      33.326  25.695  23.001  1.00  0.00     0.011 A 
ATOM     20  C   UNL A   1      33.675  28.003  22.375  1.00  0.00     0.002 A 
ATOM     21  C   UNL A   1      33.710  26.651  22.058  1.00  0.00     0.001 A 
BRANCH  14  22
ATOM     22  S   UNL A   1      32.006  29.028  26.655  1.00  0.00     0.268 S 
ATOM     23  O   UNL A   1      31.316  28.653  27.868  1.00  0.00    -0.201 OA
ATOM     24  O   UNL A   1      31.406  29.917  25.670  1.00  0.00    -0.201 OA
BRANCH  22  25
ATOM     25  C   UNL A   1      33.559  29.748  27.122  1.00  0.00     0.088 A 
ATOM     26  C   UNL A   1      37.122  31.659  28.585  1.00  0.00     0.044 C 
ATOM     27  C   UNL A   1      35.888  30.992  28.052  1.00  0.00    -0.051 A 
ATOM     28  C   UNL A   1      34.705  31.727  27.911  1.00  0.00     0.005 A 
ATOM     29  C   UNL A   1      35.902  29.640  27.687  1.00  0.00     0.005 A 
ATOM     30  C   UNL A   1      33.542  31.107  27.453  1.00  0.00     0.022 A 
ATOM     31  C   UNL A   1      34.744  29.018  27.210  1.00  0.00     0.022 A 
ENDBRANCH  22  25
ENDBRANCH  14  22
ENDBRANCH  11  13
ENDBRANCH   8  11
ENDBRANCH   6   7
BRANCH   6  32
ATOM     32  C   UNL A   1      35.117  20.374  24.829  1.00  0.00     0.090 C 
BRANCH  32  33
ATOM     33  C   UNL A   1      33.999  19.398  24.914  1.00  0.00     0.037 A 
ATOM     34  C   UNL A   1      33.503  18.493  23.998  1.00  0.00     0.134 A 
ATOM     35  N   UNL A   1      33.241  19.201  26.045  1.00  0.00    -0.348 N 
ATOM     36  N   UNL A   1      32.588  17.670  24.585  1.00  0.00    -0.245 NA
ATOM     37  C   UNL A   1      32.497  18.077  25.829  1.00  0.00     0.196 A 
ATOM     38  H   UNL A   1      33.237  19.762  26.853  1.00  0.00     0.167 HD
ENDBRANCH  32  33
ENDBRANCH   6  32
ENDBRANCH   3   6
ENDBRANCH   1   2
BRANCH   1  39
ATOM     39  C   UNL A   1      38.533  23.859  26.308  1.00  0.00     0.023 C 
BRANCH  39  40
ATOM     40  C   UNL A   1      39.334  22.769  27.011  1.00  0.00     0.023 C 
BRANCH  40  41
ATOM     41  C   UNL A   1      40.179  21.893  26.099  1.00  0.00     0.116 C 
BRANCH  41  42
ATOM     42  N   UNL A   1      41.566  21.681  26.477  1.00  0.00    -0.352 N 
ATOM     43  C   UNL A   1      42.544  22.654  26.265  1.00  0.00     0.251 C 
ATOM     44  H   UNL A   1      41.824  20.826  26.892  1.00  0.00     0.163 HD
ATOM     45  O   UNL A   1      43.610  22.441  25.703  1.00  0.00    -0.269 OA
BRANCH  43  46
ATOM     46  C   UNL A   1      42.253  23.987  26.847  1.00  0.00     0.039 A 
ATOM     47  C   UNL A   1      42.162  25.110  26.015  1.00  0.00     0.014 A 
ATOM     48  C   UNL A   1      42.281  24.134  28.231  1.00  0.00     0.014 A 
ATOM     49  C   UNL A   1      42.284  26.382  26.573  1.00  0.00     0.010 A 
ATOM     50  C   UNL A   1      42.547  25.366  28.763  1.00  0.00     0.010 A 
ATOM     51  C   UNL A   1      42.568  26.485  27.932  1.00  0.00    -0.014 A 
BRANCH  51  52
ATOM     52  C   UNL A   1      42.880  27.711  28.637  1.00  0.00     0.031 A 
ATOM     53  C   UNL A   1      41.772  28.623  28.977  1.00  0.00     0.074 A 
ATOM     54  C   UNL A   1      44.122  27.861  29.146  1.00  0.00     0.049 A 
ATOM     55  N   UNL A   1      41.918  29.882  29.192  1.00  0.00    -0.248 NA
ATOM     56  C   UNL A   1      40.379  28.180  29.068  1.00  0.00     0.031 C 
ATOM     57  C   UNL A   1      44.560  28.801  30.172  1.00  0.00     0.029 A 
ATOM     58  N   UNL A   1      45.311  27.289  28.682  1.00  0.00    -0.354 N 
ATOM     59  C   UNL A   1      40.739  30.331  29.747  1.00  0.00     0.074 A 
ATOM     60  C   UNL A   1      39.781  29.272  29.551  1.00  0.00     0.031 C 
ATOM     61  C   UNL A   1      45.891  28.966  30.058  1.00  0.00     0.029 A 
ATOM     62  C   UNL A   1      46.308  28.262  28.851  1.00  0.00     0.049 A 
ATOM     63  H   UNL A   1      45.425  26.385  28.311  1.00  0.00     0.167 HD
ATOM     64  C   UNL A   1      40.741  31.475  30.484  1.00  0.00     0.031 A 
ATOM     65  C   UNL A   1      46.988  28.828  27.808  1.00  0.00     0.031 A 
ATOM     66  C   UNL A   1      42.079  32.049  30.546  1.00  0.00     0.049 A 
ATOM     67  C   UNL A   1      46.767  30.323  27.745  1.00  0.00     0.074 A 
ATOM     68  C   UNL A   1      43.078  31.952  31.501  1.00  0.00     0.029 A 
ATOM     69  N   UNL A   1      42.675  32.527  29.389  1.00  0.00    -0.354 N 
ATOM     70  N   UNL A   1      45.738  30.926  28.273  1.00  0.00    -0.248 NA
ATOM     71  C   UNL A   1      47.672  31.248  27.070  1.00  0.00     0.031 C 
ATOM     72  C   UNL A   1      44.301  32.314  30.886  1.00  0.00     0.029 A 
ATOM     73  C   UNL A   1      44.038  32.654  29.570  1.00  0.00     0.049 A 
ATOM     74  H   UNL A   1      42.194  32.745  28.557  1.00  0.00     0.167 HD
ATOM     75  C   UNL A   1      45.827  32.273  28.040  1.00  0.00     0.074 A 
ATOM     76  C   UNL A   1      47.053  32.424  27.278  1.00  0.00     0.031 C 
ATOM     77  C   UNL A   1      44.884  33.150  28.496  1.00  0.00     0.031 A 
BRANCH  64  78
ATOM     78  C   UNL A   1      39.620  31.876  31.409  1.00  0.00    -0.014 A 
ATOM     79  C   UNL A   1      38.947  33.092  31.170  1.00  0.00     0.010 A 
ATOM     80  C   UNL A   1      39.194  31.128  32.522  1.00  0.00     0.010 A 
ATOM     81  C   UNL A   1      37.951  33.574  32.025  1.00  0.00     0.020 A 
ATOM     82  C   UNL A   1      38.211  31.612  33.406  1.00  0.00     0.020 A 
ATOM     83  C   UNL A   1      37.597  32.835  33.149  1.00  0.00     0.054 A 
BRANCH  83  84
ATOM     84  S   UNL A   1      36.315  33.497  34.244  1.00  0.00     0.124 S 
ATOM     85  O   UNL A   1      36.418  34.937  34.017  1.00  0.00    -0.237 OA
ATOM     86  O   UNL A   1      35.106  32.863  33.728  1.00  0.00    -0.237 OA
ATOM     87  O   UNL A   1      36.731  33.052  35.573  1.00  0.00    -0.744 OA
ENDBRANCH  83  84
ENDBRANCH  64  78
BRANCH  65  88
ATOM     88  C   UNL A   1      47.117  27.954  26.602  1.00  0.00    -0.014 A 
ATOM     89  C   UNL A   1      46.211  28.152  25.539  1.00  0.00     0.010 A 
ATOM     90  C   UNL A   1      48.343  27.317  26.333  1.00  0.00     0.010 A 
ATOM     91  C   UNL A   1      46.606  27.922  24.215  1.00  0.00     0.020 A 
ATOM     92  C   UNL A   1      48.737  27.083  25.007  1.00  0.00     0.020 A 
ATOM     93  C   UNL A   1      47.900  27.473  23.957  1.00  0.00     0.054 A 
BRANCH  93  94
ATOM     94  S   UNL A   1      48.545  27.607  22.259  1.00  0.00     0.124 S 
ATOM     95  O   UNL A   1      49.830  28.267  22.455  1.00  0.00    -0.237 OA
ATOM     96  O   UNL A   1      48.601  26.204  21.837  1.00  0.00    -0.237 OA
ATOM     97  O   UNL A   1      47.528  28.408  21.582  1.00  0.00    -0.744 OA
ENDBRANCH  93  94
ENDBRANCH  65  88
BRANCH  77  98
ATOM     98  C   UNL A   1      44.714  34.586  28.064  1.00  0.00    -0.014 A 
ATOM     99  C   UNL A   1      43.631  35.059  27.309  1.00  0.00     0.010 A 
ATOM    100  C   UNL A   1      45.626  35.559  28.549  1.00  0.00     0.010 A 
ATOM    101  C   UNL A   1      43.505  36.418  26.992  1.00  0.00     0.020 A 
ATOM    102  C   UNL A   1      45.478  36.922  28.289  1.00  0.00     0.020 A 
ATOM    103  C   UNL A   1      44.431  37.340  27.480  1.00  0.00     0.054 A 
BRANCH 103 104
ATOM    104  S   UNL A   1      44.232  39.093  27.087  1.00  0.00     0.124 S 
ATOM    105  O   UNL A   1      44.391  39.712  28.400  1.00  0.00    -0.237 OA
ATOM    106  O   UNL A   1      45.321  39.338  26.144  1.00  0.00    -0.237 OA
ATOM    107  O   UNL A   1      42.892  39.169  26.514  1.00  0.00    -0.744 OA
ENDBRANCH 103 104
ENDBRANCH  77  98
ENDBRANCH  51  52
ENDBRANCH  43  46
ENDBRANCH  41  42
ENDBRANCH  40  41
ENDBRANCH  39  40
ENDBRANCH   1  39
TORSDOF 21
ENDMDL
MODEL 2
REMARK VINA RESULT:     -12.2      3.503      4.877
REMARK SMILES Cc1ccc(S(=O)(=O)n2cc(C(=O)C(=O)N[C@@H](Cc3cnc[nH]3)C(=O)NCCCCNC(=O)c3ccc(-c4c5nc(c(-c6ccc(S(=O)(=O)[O-])cc6)c6ccc([nH]6)c(-c6ccc(S(=O)(=O)[O-])cc6)c6nc(c(-c7ccc(S(=O)(=O)[O-])cc7)c7ccc4[nH]7)C=C6)C=C5)cc3)c3ccccc32)cc1
REMARK SMILES IDX 27 1 26 2 24 3 25 4 17 6 16 7 14 8 15 9 12 11 13 12 11 13
REMARK SMILES IDX 9 14 10 15 99 16 94 17 98 18 95 19 97 20 96 21 6 22 7 23
REMARK SMILES IDX 8 24 5 25 1 26 2 27 3 28 101 29 4 30 100 31 18 32 19 33
REMARK SMILES IDX 20 34 23 35 21 36 22 37 28 39 29 40 30 41 31 42 32 43 33 45
REMARK SMILES IDX 34 46 35 47 93 48 36 49 92 50 37 51 38 52 39 53 86 54 40 55
REMARK SMILES IDX 91 56 85 57 87 58 41 59 90 60 84 61 83 62 42 64 72 65 53 66
REMARK SMILES IDX 71 67 54 68 57 69 70 70 88 71 55 72 56 73 69 75 89 76 58 77
REMARK SMILES IDX 43 78 44 79 52 80 45 81 51 82 46 83 47 84 48 85 49 86 50 87
REMARK SMILES IDX 73 88 74 89 82 90 75 91 81 92 76 93 77 94 78 95 79 96 80 97
REMARK SMILES IDX 59 98 60 99 68 100 61 101 67 102 62 103 63 104 64 105 65 106
REMARK SMILES IDX 66 107
REMARK H PARENT 26 5 16 10 23 38 31 44 87 63 57 74
REMARK Flexibility Score: inf
ROOT
ATOM      1  C   UNL A   1      38.342  20.835  25.649  1.00  0.00     0.116 C 
ENDROOT
BRANCH   1   2
ATOM      2  N   UNL A   1      37.456  21.643  24.827  1.00  0.00    -0.354 N 
ATOM      3  C   UNL A   1      36.105  21.829  24.902  1.00  0.00     0.242 C 
ATOM      4  O   UNL A   1      35.666  22.886  24.430  1.00  0.00    -0.273 OA
ATOM      5  H   UNL A   1      37.901  22.135  24.099  1.00  0.00     0.163 HD
BRANCH   3   6
ATOM      6  C   UNL A   1      35.136  20.849  25.610  1.00  0.00     0.177 C 
BRANCH   6   7
ATOM      7  N   UNL A   1      34.571  21.400  26.850  1.00  0.00    -0.337 N 
ATOM      8  C   UNL A   1      33.327  21.910  27.137  1.00  0.00     0.293 C 
ATOM      9  O   UNL A   1      33.033  22.090  28.315  1.00  0.00    -0.265 OA
ATOM     10  H   UNL A   1      35.194  21.401  27.613  1.00  0.00     0.164 HD
BRANCH   8  11
ATOM     11  C   UNL A   1      32.330  22.301  26.018  1.00  0.00     0.252 C 
ATOM     12  O   UNL A   1      31.530  21.461  25.620  1.00  0.00    -0.283 OA
BRANCH  11  13
ATOM     13  C   UNL A   1      32.359  23.629  25.377  1.00  0.00     0.054 A 
ATOM     14  N   UNL A   1      32.406  25.834  25.022  1.00  0.00    -0.240 N 
ATOM     15  C   UNL A   1      32.212  24.869  25.975  1.00  0.00     0.117 A 
ATOM     16  C   UNL A   1      32.648  25.274  23.785  1.00  0.00     0.065 A 
ATOM     17  C   UNL A   1      32.580  23.887  23.975  1.00  0.00     0.012 A 
ATOM     18  C   UNL A   1      32.901  25.838  22.520  1.00  0.00     0.028 A 
ATOM     19  C   UNL A   1      32.746  23.048  22.850  1.00  0.00     0.011 A 
ATOM     20  C   UNL A   1      33.052  24.980  21.430  1.00  0.00     0.002 A 
ATOM     21  C   UNL A   1      32.969  23.602  21.588  1.00  0.00     0.001 A 
BRANCH  14  22
ATOM     22  S   UNL A   1      32.317  27.504  25.334  1.00  0.00     0.268 S 
ATOM     23  O   UNL A   1      33.504  28.071  24.736  1.00  0.00    -0.201 OA
ATOM     24  O   UNL A   1      32.030  27.635  26.755  1.00  0.00    -0.201 OA
BRANCH  22  25
ATOM     25  C   UNL A   1      30.915  28.155  24.462  1.00  0.00     0.088 A 
ATOM     26  C   UNL A   1      27.790  29.968  22.133  1.00  0.00     0.044 C 
ATOM     27  C   UNL A   1      28.864  29.331  22.963  1.00  0.00    -0.051 A 
ATOM     28  C   UNL A   1      29.827  30.131  23.589  1.00  0.00     0.005 A 
ATOM     29  C   UNL A   1      28.916  27.941  23.128  1.00  0.00     0.005 A 
ATOM     30  C   UNL A   1      30.853  29.547  24.332  1.00  0.00     0.022 A 
ATOM     31  C   UNL A   1      29.932  27.350  23.887  1.00  0.00     0.022 A 
ENDBRANCH  22  25
ENDBRANCH  14  22
ENDBRANCH  11  13
ENDBRANCH   8  11
ENDBRANCH   6   7
BRANCH   6  32
ATOM     32  C   UNL A   1      34.096  20.195  24.675  1.00  0.00     0.090 C 
BRANCH  32  33
ATOM     33  C   UNL A   1      33.918  18.733  24.871  1.00  0.00     0.037 A 
ATOM     34  C   UNL A   1      32.800  17.978  25.157  1.00  0.00     0.134 A 
ATOM     35  N   UNL A   1      34.935  17.816  24.740  1.00  0.00    -0.348 N 
ATOM     36  N   UNL A   1      33.080  16.647  25.055  1.00  0.00    -0.245 NA
ATOM     37  C   UNL A   1      34.354  16.581  24.742  1.00  0.00     0.196 A 
ATOM     38  H   UNL A   1      35.896  18.012  24.662  1.00  0.00     0.167 HD
ENDBRANCH  32  33
ENDBRANCH   6  32
ENDBRANCH   3   6
ENDBRANCH   1   2
BRANCH   1  39
ATOM     39  C   UNL A   1      39.732  21.420  25.884  1.00  0.00     0.023 C 
BRANCH  39  40
ATOM     40  C   UNL A   1      39.909  22.220  27.169  1.00  0.00     0.023 C 
BRANCH  40  41
ATOM     41  C   UNL A   1      39.888  23.732  27.003  1.00  0.00     0.116 C 
BRANCH  41  42
ATOM     42  N   UNL A   1      41.116  24.371  26.563  1.00  0.00    -0.352 N 
ATOM     43  C   UNL A   1      41.127  25.668  26.044  1.00  0.00     0.251 C 
ATOM     44  H   UNL A   1      41.964  23.877  26.631  1.00  0.00     0.163 HD
ATOM     45  O   UNL A   1      41.655  25.975  24.984  1.00  0.00    -0.269 OA
BRANCH  43  46
ATOM     46  C   UNL A   1      40.516  26.706  26.910  1.00  0.00     0.039 A 
ATOM     47  C   UNL A   1      40.622  28.058  26.564  1.00  0.00     0.014 A 
ATOM     48  C   UNL A   1      40.029  26.332  28.160  1.00  0.00     0.014 A 
ATOM     49  C   UNL A   1      40.409  29.030  27.541  1.00  0.00     0.010 A 
ATOM     50  C   UNL A   1      39.963  27.269  29.154  1.00  0.00     0.010 A 
ATOM     51  C   UNL A   1      40.173  28.614  28.848  1.00  0.00    -0.014 A 
BRANCH  51  52
ATOM     52  C   UNL A   1      40.087  29.480  30.007  1.00  0.00     0.031 A 
ATOM     53  C   UNL A   1      39.252  30.692  29.913  1.00  0.00     0.074 A 
ATOM     54  C   UNL A   1      40.586  29.034  31.180  1.00  0.00     0.049 A 
ATOM     55  N   UNL A   1      39.413  31.734  30.649  1.00  0.00    -0.248 NA
ATOM     56  C   UNL A   1      38.171  30.837  28.936  1.00  0.00     0.031 C 
ATOM     57  C   UNL A   1      40.306  29.539  32.519  1.00  0.00     0.029 A 
ATOM     58  N   UNL A   1      41.622  28.116  31.375  1.00  0.00    -0.354 N 
ATOM     59  C   UNL A   1      38.296  32.522  30.473  1.00  0.00     0.074 A 
ATOM     60  C   UNL A   1      37.609  31.984  29.326  1.00  0.00     0.031 C 
ATOM     61  C   UNL A   1      41.314  29.173  33.332  1.00  0.00     0.029 A 
ATOM     62  C   UNL A   1      42.341  28.566  32.493  1.00  0.00     0.049 A 
ATOM     63  H   UNL A   1      41.810  27.315  30.835  1.00  0.00     0.167 HD
ATOM     64  C   UNL A   1      37.965  33.433  31.427  1.00  0.00     0.031 A 
ATOM     65  C   UNL A   1      43.646  28.971  32.432  1.00  0.00     0.031 A 
ATOM     66  C   UNL A   1      38.921  33.403  32.527  1.00  0.00     0.049 A 
ATOM     67  C   UNL A   1      43.799  30.418  32.847  1.00  0.00     0.074 A 
ATOM     68  C   UNL A   1      38.893  32.760  33.753  1.00  0.00     0.029 A 
ATOM     69  N   UNL A   1      40.236  33.782  32.302  1.00  0.00    -0.354 N 
ATOM     70  N   UNL A   1      42.829  31.289  32.807  1.00  0.00    -0.248 NA
ATOM     71  C   UNL A   1      45.053  30.997  33.319  1.00  0.00     0.031 C 
ATOM     72  C   UNL A   1      40.222  32.695  34.238  1.00  0.00     0.029 A 
ATOM     73  C   UNL A   1      41.048  33.319  33.319  1.00  0.00     0.049 A 
ATOM     74  H   UNL A   1      40.547  34.306  31.528  1.00  0.00     0.167 HD
ATOM     75  C   UNL A   1      43.288  32.505  33.239  1.00  0.00     0.074 A 
ATOM     76  C   UNL A   1      44.688  32.273  33.544  1.00  0.00     0.031 C 
ATOM     77  C   UNL A   1      42.474  33.600  33.313  1.00  0.00     0.031 A 
BRANCH  64  78
ATOM     78  C   UNL A   1      36.613  34.095  31.519  1.00  0.00    -0.014 A 
ATOM     79  C   UNL A   1      36.368  34.990  32.581  1.00  0.00     0.010 A 
ATOM     80  C   UNL A   1      35.551  33.876  30.622  1.00  0.00     0.010 A 
ATOM     81  C   UNL A   1      35.118  35.585  32.782  1.00  0.00     0.020 A 
ATOM     82  C   UNL A   1      34.281  34.446  30.827  1.00  0.00     0.020 A 
ATOM     83  C   UNL A   1      34.075  35.298  31.909  1.00  0.00     0.054 A 
BRANCH  83  84
ATOM     84  S   UNL A   1      32.465  36.072  32.210  1.00  0.00     0.124 S 
ATOM     85  O   UNL A   1      31.629  34.930  32.574  1.00  0.00    -0.237 OA
ATOM     86  O   UNL A   1      32.764  37.004  33.293  1.00  0.00    -0.237 OA
ATOM     87  O   UNL A   1      32.135  36.694  30.928  1.00  0.00    -0.744 OA
ENDBRANCH  83  84
ENDBRANCH  64  78
BRANCH  65  88
ATOM     88  C   UNL A   1      44.448  28.326  31.349  1.00  0.00    -0.014 A 
ATOM     89  C   UNL A   1      45.052  27.081  31.622  1.00  0.00     0.010 A 
ATOM     90  C   UNL A   1      44.219  28.685  30.007  1.00  0.00     0.010 A 
ATOM     91  C   UNL A   1      45.219  26.133  30.604  1.00  0.00     0.020 A 
ATOM     92  C   UNL A   1      44.390  27.736  28.987  1.00  0.00     0.020 A 
ATOM     93  C   UNL A   1      44.803  26.440  29.310  1.00  0.00     0.054 A 
BRANCH  93  94
ATOM     94  S   UNL A   1      44.605  25.080  28.115  1.00  0.00     0.124 S 
ATOM     95  O   UNL A   1      45.794  24.269  28.353  1.00  0.00    -0.237 OA
ATOM     96  O   UNL A   1      43.330  24.486  28.529  1.00  0.00    -0.237 OA
ATOM     97  O   UNL A   1      44.568  25.772  26.830  1.00  0.00    -0.744 OA
ENDBRANCH  93  94
ENDBRANCH  65  88
BRANCH  77  98
ATOM     98  C   UNL A   1      42.916  35.034  33.486  1.00  0.00    -0.014 A 
ATOM     99  C   UNL A   1      43.852  35.675  32.662  1.00  0.00     0.010 A 
ATOM    100  C   UNL A   1      42.263  35.838  34.455  1.00  0.00     0.010 A 
ATOM    101  C   UNL A   1      44.173  37.027  32.842  1.00  0.00     0.020 A 
ATOM    102  C   UNL A   1      42.532  37.200  34.604  1.00  0.00     0.020 A 
ATOM    103  C   UNL A   1      43.514  37.779  33.815  1.00  0.00     0.054 A 
BRANCH 103 104
ATOM    104  S   UNL A   1      43.920  39.530  34.011  1.00  0.00     0.124 S 
ATOM    105  O   UNL A   1      42.625  40.163  33.779  1.00  0.00    -0.237 OA
ATOM    106  O   UNL A   1      44.412  39.597  35.385  1.00  0.00    -0.237 OA
ATOM    107  O   UNL A   1      44.929  39.768  32.983  1.00  0.00    -0.744 OA
ENDBRANCH 103 104
ENDBRANCH  77  98
ENDBRANCH  51  52
ENDBRANCH  43  46
ENDBRANCH  41  42
ENDBRANCH  40  41
ENDBRANCH  39  40
ENDBRANCH   1  39
TORSDOF 21
ENDMDL
MODEL 3
REMARK VINA RESULT:     -11.9      1.977      2.752
REMARK SMILES Cc1ccc(S(=O)(=O)n2cc(C(=O)C(=O)N[C@@H](Cc3cnc[nH]3)C(=O)NCCCCNC(=O)c3ccc(-c4c5nc(c(-c6ccc(S(=O)(=O)[O-])cc6)c6ccc([nH]6)c(-c6ccc(S(=O)(=O)[O-])cc6)c6nc(c(-c7ccc(S(=O)(=O)[O-])cc7)c7ccc4[nH]7)C=C6)C=C5)cc3)c3ccccc32)cc1
REMARK SMILES IDX 27 1 26 2 24 3 25 4 17 6 16 7 14 8 15 9 12 11 13 12 11 13
REMARK SMILES IDX 9 14 10 15 99 16 94 17 98 18 95 19 97 20 96 21 6 22 7 23
REMARK SMILES IDX 8 24 5 25 1 26 2 27 3 28 101 29 4 30 100 31 18 32 19 33
REMARK SMILES IDX 20 34 23 35 21 36 22 37 28 39 29 40 30 41 31 42 32 43 33 45
REMARK SMILES IDX 34 46 35 47 93 48 36 49 92 50 37 51 38 52 39 53 86 54 40 55
REMARK SMILES IDX 91 56 85 57 87 58 41 59 90 60 84 61 83 62 42 64 72 65 53 66
REMARK SMILES IDX 71 67 54 68 57 69 70 70 88 71 55 72 56 73 69 75 89 76 58 77
REMARK SMILES IDX 43 78 44 79 52 80 45 81 51 82 46 83 47 84 48 85 49 86 50 87
REMARK SMILES IDX 73 88 74 89 82 90 75 91 81 92 76 93 77 94 78 95 79 96 80 97
REMARK SMILES IDX 59 98 60 99 68 100 61 101 67 102 62 103 63 104 64 105 65 106
REMARK SMILES IDX 66 107
REMARK H PARENT 26 5 16 10 23 38 31 44 87 63 57 74
REMARK Flexibility Score: inf
ROOT
ATOM      1  C   UNL A   1      34.805  22.940  26.769  1.00  0.00     0.116 C 
ENDROOT
BRANCH   1   2
ATOM      2  N   UNL A   1      33.371  23.169  26.698  1.00  0.00    -0.354 N 
ATOM      3  C   UNL A   1      32.379  22.400  26.161  1.00  0.00     0.242 C 
ATOM      4  O   UNL A   1      31.243  22.559  26.628  1.00  0.00    -0.273 OA
ATOM      5  H   UNL A   1      33.067  24.015  27.101  1.00  0.00     0.163 HD
BRANCH   3   6
ATOM      6  C   UNL A   1      32.617  21.307  25.089  1.00  0.00     0.177 C 
BRANCH   6   7
ATOM      7  N   UNL A   1      33.287  21.822  23.886  1.00  0.00    -0.337 N 
ATOM      8  C   UNL A   1      33.020  22.909  23.089  1.00  0.00     0.293 C 
ATOM      9  O   UNL A   1      33.874  23.253  22.277  1.00  0.00    -0.265 OA
ATOM     10  H   UNL A   1      34.069  21.293  23.602  1.00  0.00     0.164 HD
BRANCH   8  11
ATOM     11  C   UNL A   1      31.667  23.660  23.162  1.00  0.00     0.252 C 
ATOM     12  O   UNL A   1      30.628  23.014  23.081  1.00  0.00    -0.283 OA
BRANCH  11  13
ATOM     13  C   UNL A   1      31.598  25.130  23.259  1.00  0.00     0.054 A 
ATOM     14  N   UNL A   1      32.105  27.305  23.215  1.00  0.00    -0.240 N 
ATOM     15  C   UNL A   1      32.634  26.042  23.164  1.00  0.00     0.117 A 
ATOM     16  C   UNL A   1      30.736  27.267  23.377  1.00  0.00     0.065 A 
ATOM     17  C   UNL A   1      30.399  25.909  23.452  1.00  0.00     0.012 A 
ATOM     18  C   UNL A   1      29.764  28.280  23.483  1.00  0.00     0.028 A 
ATOM     19  C   UNL A   1      29.045  25.566  23.666  1.00  0.00     0.011 A 
ATOM     20  C   UNL A   1      28.437  27.905  23.702  1.00  0.00     0.002 A 
ATOM     21  C   UNL A   1      28.079  26.566  23.800  1.00  0.00     0.001 A 
BRANCH  14  22
ATOM     22  S   UNL A   1      33.036  28.726  23.128  1.00  0.00     0.268 S 
ATOM     23  O   UNL A   1      32.209  29.687  22.435  1.00  0.00    -0.201 OA
ATOM     24  O   UNL A   1      34.341  28.324  22.623  1.00  0.00    -0.201 OA
BRANCH  22  25
ATOM     25  C   UNL A   1      33.285  29.326  24.780  1.00  0.00     0.088 A 
ATOM     26  C   UNL A   1      34.276  30.881  28.663  1.00  0.00     0.044 C 
ATOM     27  C   UNL A   1      33.913  30.324  27.318  1.00  0.00    -0.051 A 
ATOM     28  C   UNL A   1      34.762  29.403  26.693  1.00  0.00     0.005 A 
ATOM     29  C   UNL A   1      32.729  30.709  26.677  1.00  0.00     0.005 A 
ATOM     30  C   UNL A   1      34.453  28.909  25.426  1.00  0.00     0.022 A 
ATOM     31  C   UNL A   1      32.405  30.203  25.414  1.00  0.00     0.022 A 
ENDBRANCH  22  25
ENDBRANCH  14  22
ENDBRANCH  11  13
ENDBRANCH   8  11
ENDBRANCH   6   7
BRANCH   6  32
ATOM     32  C   UNL A   1      33.219  19.996  25.638  1.00  0.00     0.090 C 
BRANCH  32  33
ATOM     33  C   UNL A   1      33.447  18.942  24.617  1.00  0.00     0.037 A 
ATOM     34  C   UNL A   1      34.504  18.079  24.412  1.00  0.00     0.134 A 
ATOM     35  N   UNL A   1      32.529  18.605  23.649  1.00  0.00    -0.348 N 
ATOM     36  N   UNL A   1      34.189  17.151  23.464  1.00  0.00    -0.245 NA
ATOM     37  C   UNL A   1      32.974  17.453  23.068  1.00  0.00     0.196 A 
ATOM     38  H   UNL A   1      31.711  19.100  23.419  1.00  0.00     0.167 HD
ENDBRANCH  32  33
ENDBRANCH   6  32
ENDBRANCH   3   6
ENDBRANCH   1   2
BRANCH   1  39
ATOM     39  C   UNL A   1      35.638  23.671  25.720  1.00  0.00     0.023 C 
BRANCH  39  40
ATOM     40  C   UNL A   1      37.134  23.760  26.002  1.00  0.00     0.023 C 
BRANCH  40  41
ATOM     41  C   UNL A   1      37.953  22.561  25.552  1.00  0.00     0.116 C 
BRANCH  41  42
ATOM     42  N   UNL A   1      39.030  22.124  26.424  1.00  0.00    -0.352 N 
ATOM     43  C   UNL A   1      40.222  22.841  26.540  1.00  0.00     0.251 C 
ATOM     44  H   UNL A   1      38.917  21.298  26.949  1.00  0.00     0.163 HD
ATOM     45  O   UNL A   1      41.333  22.343  26.421  1.00  0.00    -0.269 OA
BRANCH  43  46
ATOM     46  C   UNL A   1      40.072  24.271  26.905  1.00  0.00     0.039 A 
ATOM     47  C   UNL A   1      40.706  25.259  26.143  1.00  0.00     0.014 A 
ATOM     48  C   UNL A   1      39.475  24.592  28.121  1.00  0.00     0.014 A 
ATOM     49  C   UNL A   1      40.895  26.527  26.692  1.00  0.00     0.010 A 
ATOM     50  C   UNL A   1      39.785  25.782  28.720  1.00  0.00     0.010 A 
ATOM     51  C   UNL A   1      40.512  26.740  28.013  1.00  0.00    -0.014 A 
BRANCH  51  52
ATOM     52  C   UNL A   1      40.775  27.937  28.785  1.00  0.00     0.031 A 
ATOM     53  C   UNL A   1      39.726  28.970  28.854  1.00  0.00     0.074 A 
ATOM     54  C   UNL A   1      41.865  27.959  29.583  1.00  0.00     0.049 A 
ATOM     55  N   UNL A   1      39.953  30.210  29.110  1.00  0.00    -0.248 NA
ATOM     56  C   UNL A   1      38.312  28.683  28.598  1.00  0.00     0.031 C 
ATOM     57  C   UNL A   1      42.141  28.864  30.693  1.00  0.00     0.029 A 
ATOM     58  N   UNL A   1      43.060  27.253  29.417  1.00  0.00    -0.354 N 
ATOM     59  C   UNL A   1      38.730  30.794  29.365  1.00  0.00     0.074 A 
ATOM     60  C   UNL A   1      37.739  29.843  28.931  1.00  0.00     0.031 C 
ATOM     61  C   UNL A   1      43.469  28.881  30.909  1.00  0.00     0.029 A 
ATOM     62  C   UNL A   1      44.087  28.114  29.833  1.00  0.00     0.049 A 
ATOM     63  H   UNL A   1      43.161  26.335  29.077  1.00  0.00     0.167 HD
ATOM     64  C   UNL A   1      38.679  31.944  30.091  1.00  0.00     0.031 A 
ATOM     65  C   UNL A   1      45.059  28.584  28.992  1.00  0.00     0.031 A 
ATOM     66  C   UNL A   1      40.016  32.369  30.483  1.00  0.00     0.049 A 
ATOM     67  C   UNL A   1      45.026  30.093  28.892  1.00  0.00     0.074 A 
ATOM     68  C   UNL A   1      40.736  32.181  31.651  1.00  0.00     0.029 A 
ATOM     69  N   UNL A   1      40.925  32.759  29.510  1.00  0.00    -0.354 N 
ATOM     70  N   UNL A   1      43.972  30.814  29.159  1.00  0.00    -0.248 NA
ATOM     71  C   UNL A   1      46.164  30.902  28.467  1.00  0.00     0.031 C 
ATOM     72  C   UNL A   1      42.104  32.397  31.356  1.00  0.00     0.029 A 
ATOM     73  C   UNL A   1      42.208  32.739  30.019  1.00  0.00     0.049 A 
ATOM     74  H   UNL A   1      40.688  33.014  28.588  1.00  0.00     0.167 HD
ATOM     75  C   UNL A   1      44.263  32.139  28.967  1.00  0.00     0.074 A 
ATOM     76  C   UNL A   1      45.647  32.142  28.529  1.00  0.00     0.031 C 
ATOM     77  C   UNL A   1      43.340  33.121  29.189  1.00  0.00     0.031 A 
BRANCH  64  78
ATOM     78  C   UNL A   1      37.418  32.481  30.719  1.00  0.00    -0.014 A 
ATOM     79  C   UNL A   1      36.671  33.449  30.016  1.00  0.00     0.010 A 
ATOM     80  C   UNL A   1      36.925  32.098  31.980  1.00  0.00     0.010 A 
ATOM     81  C   UNL A   1      35.534  34.054  30.562  1.00  0.00     0.020 A 
ATOM     82  C   UNL A   1      35.799  32.717  32.552  1.00  0.00     0.020 A 
ATOM     83  C   UNL A   1      35.111  33.694  31.837  1.00  0.00     0.054 A 
BRANCH  83  84
ATOM     84  S   UNL A   1      33.645  34.510  32.519  1.00  0.00     0.124 S 
ATOM     85  O   UNL A   1      32.981  33.420  33.232  1.00  0.00    -0.237 OA
ATOM     86  O   UNL A   1      34.231  35.548  33.362  1.00  0.00    -0.237 OA
ATOM     87  O   UNL A   1      32.936  34.995  31.336  1.00  0.00    -0.744 OA
ENDBRANCH  83  84
ENDBRANCH  64  78
BRANCH  65  88
ATOM     88  C   UNL A   1      45.380  27.680  27.846  1.00  0.00    -0.014 A 
ATOM     89  C   UNL A   1      44.813  27.976  26.589  1.00  0.00     0.010 A 
ATOM     90  C   UNL A   1      46.540  26.885  27.892  1.00  0.00     0.010 A 
ATOM     91  C   UNL A   1      45.504  27.674  25.408  1.00  0.00     0.020 A 
ATOM     92  C   UNL A   1      47.230  26.579  26.709  1.00  0.00     0.020 A 
ATOM     93  C   UNL A   1      46.750  27.056  25.485  1.00  0.00     0.054 A 
BRANCH  93  94
ATOM     94  S   UNL A   1      47.824  27.076  24.014  1.00  0.00     0.124 S 
ATOM     95  O   UNL A   1      49.004  27.789  24.488  1.00  0.00    -0.237 OA
ATOM     96  O   UNL A   1      48.003  25.647  23.742  1.00  0.00    -0.237 OA
ATOM     97  O   UNL A   1      47.017  27.789  23.027  1.00  0.00    -0.744 OA
ENDBRANCH  93  94
ENDBRANCH  65  88
BRANCH  77  98
ATOM     98  C   UNL A   1      43.438  34.560  28.742  1.00  0.00    -0.014 A 
ATOM     99  C   UNL A   1      43.837  34.962  27.459  1.00  0.00     0.010 A 
ATOM    100  C   UNL A   1      42.982  35.580  29.616  1.00  0.00     0.010 A 
ATOM    101  C   UNL A   1      43.850  36.314  27.092  1.00  0.00     0.020 A 
ATOM    102  C   UNL A   1      42.935  36.924  29.241  1.00  0.00     0.020 A 
ATOM    103  C   UNL A   1      43.403  37.286  27.987  1.00  0.00     0.054 A 
BRANCH 103 104
ATOM    104  S   UNL A   1      43.397  39.022  27.483  1.00  0.00     0.124 S 
ATOM    105  O   UNL A   1      44.514  39.063  26.545  1.00  0.00    -0.237 OA
ATOM    106  O   UNL A   1      42.072  39.181  26.888  1.00  0.00    -0.237 OA
ATOM    107  O   UNL A   1      43.600  39.746  28.735  1.00  0.00    -0.744 OA
ENDBRANCH 103 104
ENDBRANCH  77  98
ENDBRANCH  51  52
ENDBRANCH  43  46
ENDBRANCH  41  42
ENDBRANCH  40  41
ENDBRANCH  39  40
ENDBRANCH   1  39
TORSDOF 21
ENDMDL
