MODEL 1
REMARK VINA RESULT:     -11.4      0.000      0.000
REMARK SMILES Cc1cc2c(c(C)c1Cl)C=C(C(=O)NCCCCNC(=O)c1ccc(-c3c4nc(c(-c5ccc(S(=O)(=O)[O-])cc5)c5ccc([nH]5)c(-c5ccc(S(=O)(=O)[O-])cc5)c5nc(c(-c6ccc(S(=O)(=O)[O-])cc6)c6ccc3[nH]6)C=C5)C=C4)cc1)[C@@H](C(F)(F)F)O2
REMARK SMILES IDX 17 1 16 2 15 3 14 4 12 5 13 6 11 8 1 9 2 10 3 11 8 12 4 13
REMARK SMILES IDX 6 14 9 15 5 16 87 17 7 18 10 19 82 20 83 21 84 22 85 23
REMARK SMILES IDX 86 24 18 25 19 26 20 27 21 29 22 30 23 31 81 32 24 33 80 34
REMARK SMILES IDX 25 35 26 36 27 37 74 38 28 39 79 40 73 41 75 42 29 43 78 44
REMARK SMILES IDX 72 45 71 46 30 48 60 49 41 50 59 51 42 52 45 53 58 54 76 55
REMARK SMILES IDX 43 56 44 57 57 59 77 60 46 61 31 62 32 63 40 64 33 65 39 66
REMARK SMILES IDX 34 67 35 68 36 69 37 70 38 71 61 72 62 73 70 74 63 75 69 76
REMARK SMILES IDX 64 77 65 78 66 79 67 80 68 81 47 82 48 83 56 84 49 85 55 86
REMARK SMILES IDX 50 87 51 88 52 89 53 90 54 91
REMARK H PARENT 14 7 19 28 75 47 45 58
REMARK Flexibility Score: inf
ROOT
ATOM      1  C   UNL A   1      34.059  28.109  24.557  1.00  0.00     0.023 C 
ENDROOT
BRANCH   1   2
ATOM      2  C   UNL A   1      33.638  26.731  24.039  1.00  0.00     0.023 C 
BRANCH   2   3
ATOM      3  C   UNL A   1      32.128  26.541  23.932  1.00  0.00     0.116 C 
BRANCH   3   4
ATOM      4  N   UNL A   1      31.558  26.034  25.167  1.00  0.00    -0.352 N 
ATOM      5  C   UNL A   1      31.653  24.908  25.912  1.00  0.00     0.251 C 
ATOM      6  O   UNL A   1      30.956  24.892  26.932  1.00  0.00    -0.270 OA
ATOM      7  H   UNL A   1      30.936  26.681  25.570  1.00  0.00     0.163 HD
BRANCH   5   8
ATOM      8  C   UNL A   1      32.516  23.731  25.594  1.00  0.00     0.067 C 
ATOM      9  C   UNL A   1      37.241  19.318  24.816  1.00  0.00     0.046 C 
ATOM     10  C   UNL A   1      36.426  20.554  25.085  1.00  0.00    -0.028 A 
ATOM     11  C   UNL A   1      35.036  20.454  24.960  1.00  0.00     0.052 A 
ATOM     12  C   UNL A   1      36.982  21.775  25.520  1.00  0.00     0.047 A 
ATOM     13  C   UNL A   1      34.220  21.549  25.222  1.00  0.00     0.128 A 
ATOM     14  C   UNL A   1      36.161  22.902  25.780  1.00  0.00    -0.021 A 
ATOM     15  Cl  UNL A   1      38.701  21.867  25.759  1.00  0.00    -0.084 Cl
ATOM     16  C   UNL A   1      34.758  22.771  25.632  1.00  0.00     0.022 A 
ATOM     17  O   UNL A   1      32.880  21.323  25.096  1.00  0.00    -0.475 OA
ATOM     18  C   UNL A   1      36.740  24.226  26.222  1.00  0.00     0.047 C 
ATOM     19  C   UNL A   1      33.814  23.852  25.938  1.00  0.00     0.026 C 
ATOM     20  C   UNL A   1      32.040  22.490  24.902  1.00  0.00     0.314 C 
BRANCH  20  21
ATOM     21  C   UNL A   1      31.802  22.699  23.395  1.00  0.00     0.429 C 
ATOM     22  F   UNL A   1      32.803  23.441  22.858  1.00  0.00    -0.167 F 
ATOM     23  F   UNL A   1      31.775  21.535  22.705  1.00  0.00    -0.167 F 
ATOM     24  F   UNL A   1      30.640  23.339  23.136  1.00  0.00    -0.167 F 
ENDBRANCH  20  21
ENDBRANCH   5   8
ENDBRANCH   3   4
ENDBRANCH   2   3
ENDBRANCH   1   2
BRANCH   1  25
ATOM     25  C   UNL A   1      34.255  28.208  26.070  1.00  0.00     0.116 C 
BRANCH  25  26
ATOM     26  N   UNL A   1      33.701  29.424  26.649  1.00  0.00    -0.352 N 
ATOM     27  C   UNL A   1      34.276  30.267  27.568  1.00  0.00     0.251 C 
ATOM     28  H   UNL A   1      32.800  29.673  26.343  1.00  0.00     0.163 HD
ATOM     29  O   UNL A   1      33.637  31.206  28.033  1.00  0.00    -0.269 OA
BRANCH  27  30
ATOM     30  C   UNL A   1      35.657  30.003  28.013  1.00  0.00     0.039 A 
ATOM     31  C   UNL A   1      35.872  29.574  29.324  1.00  0.00     0.014 A 
ATOM     32  C   UNL A   1      36.724  30.139  27.121  1.00  0.00     0.014 A 
ATOM     33  C   UNL A   1      37.160  29.219  29.726  1.00  0.00     0.010 A 
ATOM     34  C   UNL A   1      37.996  29.731  27.506  1.00  0.00     0.010 A 
ATOM     35  C   UNL A   1      38.224  29.269  28.811  1.00  0.00    -0.014 A 
BRANCH  35  36
ATOM     36  C   UNL A   1      39.596  28.870  29.206  1.00  0.00     0.031 A 
ATOM     37  C   UNL A   1      40.462  29.841  29.957  1.00  0.00     0.074 A 
ATOM     38  C   UNL A   1      40.074  27.664  28.847  1.00  0.00     0.049 A 
ATOM     39  N   UNL A   1      41.713  29.721  30.318  1.00  0.00    -0.248 NA
ATOM     40  C   UNL A   1      39.848  31.126  30.328  1.00  0.00     0.031 C 
ATOM     41  C   UNL A   1      39.333  26.643  28.102  1.00  0.00     0.029 A 
ATOM     42  N   UNL A   1      41.302  27.092  29.061  1.00  0.00    -0.354 N 
ATOM     43  C   UNL A   1      42.038  30.914  30.949  1.00  0.00     0.074 A 
ATOM     44  C   UNL A   1      40.870  31.765  30.878  1.00  0.00     0.031 C 
ATOM     45  C   UNL A   1      40.112  25.559  27.948  1.00  0.00     0.029 A 
ATOM     46  C   UNL A   1      41.417  25.823  28.548  1.00  0.00     0.049 A 
ATOM     47  H   UNL A   1      42.032  27.549  29.538  1.00  0.00     0.167 HD
ATOM     48  C   UNL A   1      43.199  31.265  31.551  1.00  0.00     0.031 A 
ATOM     49  C   UNL A   1      42.458  24.968  28.558  1.00  0.00     0.031 A 
ATOM     50  C   UNL A   1      44.353  30.413  31.632  1.00  0.00     0.049 A 
ATOM     51  C   UNL A   1      43.744  25.389  29.214  1.00  0.00     0.074 A 
ATOM     52  C   UNL A   1      45.569  30.664  32.246  1.00  0.00     0.029 A 
ATOM     53  N   UNL A   1      44.434  29.141  31.088  1.00  0.00    -0.354 N 
ATOM     54  N   UNL A   1      44.028  26.517  29.819  1.00  0.00    -0.248 NA
ATOM     55  C   UNL A   1      44.847  24.419  29.190  1.00  0.00     0.031 C 
ATOM     56  C   UNL A   1      46.397  29.555  32.042  1.00  0.00     0.029 A 
ATOM     57  C   UNL A   1      45.683  28.597  31.339  1.00  0.00     0.049 A 
ATOM     58  H   UNL A   1      43.711  28.691  30.595  1.00  0.00     0.167 HD
ATOM     59  C   UNL A   1      45.340  26.389  30.260  1.00  0.00     0.074 A 
ATOM     60  C   UNL A   1      45.785  25.067  29.869  1.00  0.00     0.031 C 
ATOM     61  C   UNL A   1      46.109  27.285  30.927  1.00  0.00     0.031 A 
BRANCH  48  62
ATOM     62  C   UNL A   1      43.263  32.633  32.174  1.00  0.00    -0.014 A 
ATOM     63  C   UNL A   1      43.020  32.810  33.549  1.00  0.00     0.010 A 
ATOM     64  C   UNL A   1      43.585  33.751  31.384  1.00  0.00     0.010 A 
ATOM     65  C   UNL A   1      43.058  34.086  34.114  1.00  0.00     0.020 A 
ATOM     66  C   UNL A   1      43.649  35.026  31.952  1.00  0.00     0.020 A 
ATOM     67  C   UNL A   1      43.367  35.187  33.311  1.00  0.00     0.054 A 
BRANCH  67  68
ATOM     68  S   UNL A   1      43.423  36.831  34.076  1.00  0.00     0.124 S 
ATOM     69  O   UNL A   1      43.661  37.692  32.920  1.00  0.00    -0.237 OA
ATOM     70  O   UNL A   1      42.100  36.947  34.683  1.00  0.00    -0.237 OA
ATOM     71  O   UNL A   1      44.533  36.737  35.021  1.00  0.00    -0.744 OA
ENDBRANCH  67  68
ENDBRANCH  48  62
BRANCH  49  72
ATOM     72  C   UNL A   1      42.319  23.621  27.945  1.00  0.00    -0.014 A 
ATOM     73  C   UNL A   1      42.668  23.420  26.597  1.00  0.00     0.010 A 
ATOM     74  C   UNL A   1      41.859  22.531  28.704  1.00  0.00     0.010 A 
ATOM     75  C   UNL A   1      42.554  22.153  26.019  1.00  0.00     0.020 A 
ATOM     76  C   UNL A   1      41.763  21.258  28.133  1.00  0.00     0.020 A 
ATOM     77  C   UNL A   1      42.105  21.078  26.791  1.00  0.00     0.054 A 
BRANCH  77  78
ATOM     78  S   UNL A   1      42.026  19.431  26.035  1.00  0.00     0.124 S 
ATOM     79  O   UNL A   1      42.584  18.587  27.086  1.00  0.00    -0.237 OA
ATOM     80  O   UNL A   1      40.597  19.268  25.781  1.00  0.00    -0.237 OA
ATOM     81  O   UNL A   1      42.851  19.567  24.836  1.00  0.00    -0.744 OA
ENDBRANCH  77  78
ENDBRANCH  49  72
BRANCH  61  82
ATOM     82  C   UNL A   1      47.508  26.860  31.279  1.00  0.00    -0.014 A 
ATOM     83  C   UNL A   1      47.791  26.270  32.522  1.00  0.00     0.010 A 
ATOM     84  C   UNL A   1      48.541  27.012  30.336  1.00  0.00     0.010 A 
ATOM     85  C   UNL A   1      49.091  25.865  32.830  1.00  0.00     0.020 A 
ATOM     86  C   UNL A   1      49.838  26.587  30.632  1.00  0.00     0.020 A 
ATOM     87  C   UNL A   1      50.108  26.030  31.884  1.00  0.00     0.054 A 
BRANCH  87  88
ATOM     88  S   UNL A   1      51.782  25.463  32.294  1.00  0.00     0.124 S 
ATOM     89  O   UNL A   1      51.902  25.864  33.693  1.00  0.00    -0.237 OA
ATOM     90  O   UNL A   1      51.702  24.024  32.057  1.00  0.00    -0.237 OA
ATOM     91  O   UNL A   1      52.634  26.197  31.360  1.00  0.00    -0.744 OA
ENDBRANCH  87  88
ENDBRANCH  61  82
ENDBRANCH  35  36
ENDBRANCH  27  30
ENDBRANCH  25  26
ENDBRANCH   1  25
TORSDOF 15
ENDMDL
MODEL 2
REMARK VINA RESULT:     -11.1      2.967      9.344
REMARK SMILES Cc1cc2c(c(C)c1Cl)C=C(C(=O)NCCCCNC(=O)c1ccc(-c3c4nc(c(-c5ccc(S(=O)(=O)[O-])cc5)c5ccc([nH]5)c(-c5ccc(S(=O)(=O)[O-])cc5)c5nc(c(-c6ccc(S(=O)(=O)[O-])cc6)c6ccc3[nH]6)C=C5)C=C4)cc1)[C@@H](C(F)(F)F)O2
REMARK SMILES IDX 17 1 16 2 15 3 14 4 12 5 13 6 11 8 1 9 2 10 3 11 8 12 4 13
REMARK SMILES IDX 6 14 9 15 5 16 87 17 7 18 10 19 82 20 83 21 84 22 85 23
REMARK SMILES IDX 86 24 18 25 19 26 20 27 21 29 22 30 23 31 81 32 24 33 80 34
REMARK SMILES IDX 25 35 26 36 27 37 74 38 28 39 79 40 73 41 75 42 29 43 78 44
REMARK SMILES IDX 72 45 71 46 30 48 60 49 41 50 59 51 42 52 45 53 58 54 76 55
REMARK SMILES IDX 43 56 44 57 57 59 77 60 46 61 31 62 32 63 40 64 33 65 39 66
REMARK SMILES IDX 34 67 35 68 36 69 37 70 38 71 61 72 62 73 70 74 63 75 69 76
REMARK SMILES IDX 64 77 65 78 66 79 67 80 68 81 47 82 48 83 56 84 49 85 55 86
REMARK SMILES IDX 50 87 51 88 52 89 53 90 54 91
REMARK H PARENT 14 7 19 28 75 47 45 58
REMARK Flexibility Score: inf
ROOT
ATOM      1  C   UNL A   1      35.605  23.270  24.715  1.00  0.00     0.023 C 
ENDROOT
BRANCH   1   2
ATOM      2  C   UNL A   1      34.251  22.840  25.287  1.00  0.00     0.023 C 
BRANCH   2   3
ATOM      3  C   UNL A   1      33.054  23.505  24.616  1.00  0.00     0.116 C 
BRANCH   3   4
ATOM      4  N   UNL A   1      33.401  24.068  23.324  1.00  0.00    -0.352 N 
ATOM      5  C   UNL A   1      33.262  25.256  22.692  1.00  0.00     0.251 C 
ATOM      6  O   UNL A   1      33.717  25.298  21.544  1.00  0.00    -0.270 OA
ATOM      7  H   UNL A   1      33.861  23.409  22.755  1.00  0.00     0.163 HD
BRANCH   5   8
ATOM      8  C   UNL A   1      32.621  26.474  23.273  1.00  0.00     0.067 C 
ATOM      9  C   UNL A   1      31.015  31.945  26.417  1.00  0.00     0.046 C 
ATOM     10  C   UNL A   1      31.670  30.687  25.915  1.00  0.00    -0.028 A 
ATOM     11  C   UNL A   1      31.061  30.022  24.846  1.00  0.00     0.052 A 
ATOM     12  C   UNL A   1      32.889  30.189  26.419  1.00  0.00     0.047 A 
ATOM     13  C   UNL A   1      31.628  28.869  24.314  1.00  0.00     0.128 A 
ATOM     14  C   UNL A   1      33.472  29.009  25.891  1.00  0.00    -0.021 A 
ATOM     15  Cl  UNL A   1      33.686  31.071  27.688  1.00  0.00    -0.084 Cl
ATOM     16  C   UNL A   1      32.825  28.352  24.816  1.00  0.00     0.022 A 
ATOM     17  O   UNL A   1      30.961  28.325  23.254  1.00  0.00    -0.475 OA
ATOM     18  C   UNL A   1      34.766  28.446  26.434  1.00  0.00     0.047 C 
ATOM     19  C   UNL A   1      33.374  27.163  24.153  1.00  0.00     0.026 C 
ATOM     20  C   UNL A   1      31.225  26.927  22.969  1.00  0.00     0.314 C 
BRANCH  20  21
ATOM     21  C   UNL A   1      30.153  26.059  23.653  1.00  0.00     0.429 C 
ATOM     22  F   UNL A   1      30.424  25.929  24.976  1.00  0.00    -0.167 F 
ATOM     23  F   UNL A   1      28.914  26.597  23.568  1.00  0.00    -0.167 F 
ATOM     24  F   UNL A   1      30.080  24.814  23.132  1.00  0.00    -0.167 F 
ENDBRANCH  20  21
ENDBRANCH   5   8
ENDBRANCH   3   4
ENDBRANCH   2   3
ENDBRANCH   1   2
BRANCH   1  25
ATOM     25  C   UNL A   1      36.649  23.689  25.749  1.00  0.00     0.116 C 
BRANCH  25  26
ATOM     26  N   UNL A   1      37.715  22.713  25.927  1.00  0.00    -0.352 N 
ATOM     27  C   UNL A   1      38.970  22.909  26.447  1.00  0.00     0.251 C 
ATOM     28  H   UNL A   1      37.509  21.795  25.637  1.00  0.00     0.163 HD
ATOM     29  O   UNL A   1      39.794  21.998  26.442  1.00  0.00    -0.269 OA
BRANCH  27  30
ATOM     30  C   UNL A   1      39.324  24.238  26.978  1.00  0.00     0.039 A 
ATOM     31  C   UNL A   1      39.010  24.542  28.304  1.00  0.00     0.014 A 
ATOM     32  C   UNL A   1      40.004  25.160  26.175  1.00  0.00     0.014 A 
ATOM     33  C   UNL A   1      39.434  25.754  28.848  1.00  0.00     0.010 A 
ATOM     34  C   UNL A   1      40.475  26.341  26.736  1.00  0.00     0.010 A 
ATOM     35  C   UNL A   1      40.192  26.648  28.076  1.00  0.00    -0.014 A 
BRANCH  35  36
ATOM     36  C   UNL A   1      40.679  27.929  28.641  1.00  0.00     0.031 A 
ATOM     37  C   UNL A   1      42.116  28.055  29.060  1.00  0.00     0.074 A 
ATOM     38  C   UNL A   1      39.822  28.953  28.819  1.00  0.00     0.049 A 
ATOM     39  N   UNL A   1      42.717  29.055  29.651  1.00  0.00    -0.248 NA
ATOM     40  C   UNL A   1      42.985  26.895  28.804  1.00  0.00     0.031 C 
ATOM     41  C   UNL A   1      38.400  28.944  28.467  1.00  0.00     0.029 A 
ATOM     42  N   UNL A   1      40.025  30.203  29.346  1.00  0.00    -0.354 N 
ATOM     43  C   UNL A   1      44.029  28.642  29.846  1.00  0.00     0.074 A 
ATOM     44  C   UNL A   1      44.124  27.284  29.356  1.00  0.00     0.031 C 
ATOM     45  C   UNL A   1      37.867  30.141  28.760  1.00  0.00     0.029 A 
ATOM     46  C   UNL A   1      38.897  30.987  29.355  1.00  0.00     0.049 A 
ATOM     47  H   UNL A   1      40.897  30.508  29.687  1.00  0.00     0.167 HD
ATOM     48  C   UNL A   1      45.067  29.337  30.367  1.00  0.00     0.031 A 
ATOM     49  C   UNL A   1      38.713  32.247  29.796  1.00  0.00     0.031 A 
ATOM     50  C   UNL A   1      44.973  30.690  30.841  1.00  0.00     0.049 A 
ATOM     51  C   UNL A   1      39.877  32.991  30.391  1.00  0.00     0.074 A 
ATOM     52  C   UNL A   1      45.973  31.493  31.362  1.00  0.00     0.029 A 
ATOM     53  N   UNL A   1      43.810  31.445  30.846  1.00  0.00    -0.354 N 
ATOM     54  N   UNL A   1      41.115  32.589  30.554  1.00  0.00    -0.248 NA
ATOM     55  C   UNL A   1      39.617  34.359  30.860  1.00  0.00     0.031 C 
ATOM     56  C   UNL A   1      45.406  32.723  31.713  1.00  0.00     0.029 A 
ATOM     57  C   UNL A   1      44.063  32.701  31.371  1.00  0.00     0.049 A 
ATOM     58  H   UNL A   1      42.933  31.134  30.523  1.00  0.00     0.167 HD
ATOM     59  C   UNL A   1      41.787  33.659  31.133  1.00  0.00     0.074 A 
ATOM     60  C   UNL A   1      40.822  34.731  31.274  1.00  0.00     0.031 C 
ATOM     61  C   UNL A   1      43.084  33.748  31.516  1.00  0.00     0.031 A 
BRANCH  48  62
ATOM     62  C   UNL A   1      46.395  28.634  30.442  1.00  0.00    -0.014 A 
ATOM     63  C   UNL A   1      46.749  27.884  31.579  1.00  0.00     0.010 A 
ATOM     64  C   UNL A   1      47.292  28.710  29.362  1.00  0.00     0.010 A 
ATOM     65  C   UNL A   1      47.994  27.255  31.650  1.00  0.00     0.020 A 
ATOM     66  C   UNL A   1      48.529  28.061  29.420  1.00  0.00     0.020 A 
ATOM     67  C   UNL A   1      48.878  27.351  30.572  1.00  0.00     0.054 A 
BRANCH  67  68
ATOM     68  S   UNL A   1      50.482  26.513  30.687  1.00  0.00     0.124 S 
ATOM     69  O   UNL A   1      51.094  26.856  29.406  1.00  0.00    -0.237 OA
ATOM     70  O   UNL A   1      51.088  27.140  31.859  1.00  0.00    -0.237 OA
ATOM     71  O   UNL A   1      50.127  25.105  30.851  1.00  0.00    -0.744 OA
ENDBRANCH  67  68
ENDBRANCH  48  62
BRANCH  49  72
ATOM     72  C   UNL A   1      37.380  32.891  29.670  1.00  0.00    -0.014 A 
ATOM     73  C   UNL A   1      36.562  33.047  30.802  1.00  0.00     0.010 A 
ATOM     74  C   UNL A   1      36.929  33.369  28.427  1.00  0.00     0.010 A 
ATOM     75  C   UNL A   1      35.313  33.665  30.693  1.00  0.00     0.020 A 
ATOM     76  C   UNL A   1      35.688  34.006  28.318  1.00  0.00     0.020 A 
ATOM     77  C   UNL A   1      34.884  34.143  29.452  1.00  0.00     0.054 A 
BRANCH  77  78
ATOM     78  S   UNL A   1      33.287  34.999  29.348  1.00  0.00     0.124 S 
ATOM     79  O   UNL A   1      32.746  34.794  30.688  1.00  0.00    -0.237 OA
ATOM     80  O   UNL A   1      33.683  36.368  29.026  1.00  0.00    -0.237 OA
ATOM     81  O   UNL A   1      32.592  34.292  28.275  1.00  0.00    -0.744 OA
ENDBRANCH  77  78
ENDBRANCH  49  72
BRANCH  61  82
ATOM     82  C   UNL A   1      43.534  35.049  32.118  1.00  0.00    -0.014 A 
ATOM     83  C   UNL A   1      44.118  36.049  31.321  1.00  0.00     0.010 A 
ATOM     84  C   UNL A   1      43.329  35.292  33.489  1.00  0.00     0.010 A 
ATOM     85  C   UNL A   1      44.517  37.260  31.890  1.00  0.00     0.020 A 
ATOM     86  C   UNL A   1      43.705  36.511  34.056  1.00  0.00     0.020 A 
ATOM     87  C   UNL A   1      44.312  37.482  33.255  1.00  0.00     0.054 A 
BRANCH  87  88
ATOM     88  S   UNL A   1      44.805  39.077  33.964  1.00  0.00     0.124 S 
ATOM     89  O   UNL A   1      45.603  38.664  35.115  1.00  0.00    -0.237 OA
ATOM     90  O   UNL A   1      45.552  39.698  32.872  1.00  0.00    -0.237 OA
ATOM     91  O   UNL A   1      43.533  39.721  34.286  1.00  0.00    -0.744 OA
ENDBRANCH  87  88
ENDBRANCH  61  82
ENDBRANCH  35  36
ENDBRANCH  27  30
ENDBRANCH  25  26
ENDBRANCH   1  25
TORSDOF 15
ENDMDL
MODEL 3
REMARK VINA RESULT:     -11.1      1.464      2.190
REMARK SMILES Cc1cc2c(c(C)c1Cl)C=C(C(=O)NCCCCNC(=O)c1ccc(-c3c4nc(c(-c5ccc(S(=O)(=O)[O-])cc5)c5ccc([nH]5)c(-c5ccc(S(=O)(=O)[O-])cc5)c5nc(c(-c6ccc(S(=O)(=O)[O-])cc6)c6ccc3[nH]6)C=C5)C=C4)cc1)[C@@H](C(F)(F)F)O2
REMARK SMILES IDX 17 1 16 2 15 3 14 4 12 5 13 6 11 8 1 9 2 10 3 11 8 12 4 13
REMARK SMILES IDX 6 14 9 15 5 16 87 17 7 18 10 19 82 20 83 21 84 22 85 23
REMARK SMILES IDX 86 24 18 25 19 26 20 27 21 29 22 30 23 31 81 32 24 33 80 34
REMARK SMILES IDX 25 35 26 36 27 37 74 38 28 39 79 40 73 41 75 42 29 43 78 44
REMARK SMILES IDX 72 45 71 46 30 48 60 49 41 50 59 51 42 52 45 53 58 54 76 55
REMARK SMILES IDX 43 56 44 57 57 59 77 60 46 61 31 62 32 63 40 64 33 65 39 66
REMARK SMILES IDX 34 67 35 68 36 69 37 70 38 71 61 72 62 73 70 74 63 75 69 76
REMARK SMILES IDX 64 77 65 78 66 79 67 80 68 81 47 82 48 83 56 84 49 85 55 86
REMARK SMILES IDX 50 87 51 88 52 89 53 90 54 91
REMARK H PARENT 14 7 19 28 75 47 45 58
REMARK Flexibility Score: inf
ROOT
ATOM      1  C   UNL A   1      34.033  28.533  25.532  1.00  0.00     0.023 C 
ENDROOT
BRANCH   1   2
ATOM      2  C   UNL A   1      33.173  29.370  24.580  1.00  0.00     0.023 C 
BRANCH   2   3
ATOM      3  C   UNL A   1      33.526  29.194  23.106  1.00  0.00     0.116 C 
BRANCH   3   4
ATOM      4  N   UNL A   1      32.500  28.461  22.388  1.00  0.00    -0.352 N 
ATOM      5  C   UNL A   1      31.843  27.285  22.525  1.00  0.00     0.251 C 
ATOM      6  O   UNL A   1      31.016  27.038  21.642  1.00  0.00    -0.270 OA
ATOM      7  H   UNL A   1      32.201  28.949  21.587  1.00  0.00     0.163 HD
BRANCH   5   8
ATOM      8  C   UNL A   1      32.045  26.307  23.636  1.00  0.00     0.067 C 
ATOM      9  C   UNL A   1      33.899  21.558  27.687  1.00  0.00     0.046 C 
ATOM     10  C   UNL A   1      33.675  22.474  26.514  1.00  0.00    -0.028 A 
ATOM     11  C   UNL A   1      32.885  23.609  26.720  1.00  0.00     0.052 A 
ATOM     12  C   UNL A   1      34.274  22.283  25.252  1.00  0.00     0.047 A 
ATOM     13  C   UNL A   1      32.660  24.512  25.687  1.00  0.00     0.128 A 
ATOM     14  C   UNL A   1      34.045  23.192  24.188  1.00  0.00    -0.021 A 
ATOM     15  Cl  UNL A   1      35.327  20.918  25.029  1.00  0.00    -0.084 Cl
ATOM     16  C   UNL A   1      33.229  24.326  24.425  1.00  0.00     0.022 A 
ATOM     17  O   UNL A   1      31.899  25.597  26.014  1.00  0.00    -0.475 OA
ATOM     18  C   UNL A   1      34.657  22.991  22.821  1.00  0.00     0.047 C 
ATOM     19  C   UNL A   1      32.981  25.362  23.416  1.00  0.00     0.026 C 
ATOM     20  C   UNL A   1      31.264  26.301  24.915  1.00  0.00     0.314 C 
BRANCH  20  21
ATOM     21  C   UNL A   1      29.829  25.771  24.736  1.00  0.00     0.429 C 
ATOM     22  F   UNL A   1      29.016  26.756  24.277  1.00  0.00    -0.167 F 
ATOM     23  F   UNL A   1      29.753  24.763  23.838  1.00  0.00    -0.167 F 
ATOM     24  F   UNL A   1      29.296  25.314  25.891  1.00  0.00    -0.167 F 
ENDBRANCH  20  21
ENDBRANCH   5   8
ENDBRANCH   3   4
ENDBRANCH   2   3
ENDBRANCH   1   2
BRANCH   1  25
ATOM     25  C   UNL A   1      33.620  28.584  27.002  1.00  0.00     0.116 C 
BRANCH  25  26
ATOM     26  N   UNL A   1      33.416  29.936  27.502  1.00  0.00    -0.352 N 
ATOM     27  C   UNL A   1      34.301  30.735  28.183  1.00  0.00     0.251 C 
ATOM     28  H   UNL A   1      32.530  30.328  27.329  1.00  0.00     0.163 HD
ATOM     29  O   UNL A   1      33.944  31.823  28.624  1.00  0.00    -0.269 OA
BRANCH  27  30
ATOM     30  C   UNL A   1      35.675  30.248  28.409  1.00  0.00     0.039 A 
ATOM     31  C   UNL A   1      36.619  30.394  27.391  1.00  0.00     0.014 A 
ATOM     32  C   UNL A   1      36.033  29.690  29.640  1.00  0.00     0.014 A 
ATOM     33  C   UNL A   1      37.945  30.037  27.629  1.00  0.00     0.010 A 
ATOM     34  C   UNL A   1      37.365  29.388  29.895  1.00  0.00     0.010 A 
ATOM     35  C   UNL A   1      38.332  29.557  28.891  1.00  0.00    -0.014 A 
BRANCH  35  36
ATOM     36  C   UNL A   1      39.741  29.197  29.178  1.00  0.00     0.031 A 
ATOM     37  C   UNL A   1      40.649  30.210  29.813  1.00  0.00     0.074 A 
ATOM     38  C   UNL A   1      40.209  27.985  28.825  1.00  0.00     0.049 A 
ATOM     39  N   UNL A   1      41.929  30.125  30.068  1.00  0.00    -0.248 NA
ATOM     40  C   UNL A   1      40.044  31.499  30.189  1.00  0.00     0.031 C 
ATOM     41  C   UNL A   1      39.427  26.923  28.186  1.00  0.00     0.029 A 
ATOM     42  N   UNL A   1      41.463  27.442  28.952  1.00  0.00    -0.354 N 
ATOM     43  C   UNL A   1      42.284  31.347  30.622  1.00  0.00     0.074 A 
ATOM     44  C   UNL A   1      41.097  32.176  30.622  1.00  0.00     0.031 C 
ATOM     45  C   UNL A   1      40.211  25.847  28.005  1.00  0.00     0.029 A 
ATOM     46  C   UNL A   1      41.557  26.156  28.478  1.00  0.00     0.049 A 
ATOM     47  H   UNL A   1      42.223  27.930  29.345  1.00  0.00     0.167 HD
ATOM     48  C   UNL A   1      43.485  31.741  31.107  1.00  0.00     0.031 A 
ATOM     49  C   UNL A   1      42.612  25.320  28.429  1.00  0.00     0.031 A 
ATOM     50  C   UNL A   1      44.659  30.912  31.118  1.00  0.00     0.049 A 
ATOM     51  C   UNL A   1      43.942  25.787  28.954  1.00  0.00     0.074 A 
ATOM     52  C   UNL A   1      45.918  31.207  31.613  1.00  0.00     0.029 A 
ATOM     53  N   UNL A   1      44.718  29.621  30.617  1.00  0.00    -0.354 N 
ATOM     54  N   UNL A   1      44.256  26.943  29.489  1.00  0.00    -0.248 NA
ATOM     55  C   UNL A   1      45.058  24.836  28.870  1.00  0.00     0.031 C 
ATOM     56  C   UNL A   1      46.747  30.104  31.379  1.00  0.00     0.029 A 
ATOM     57  C   UNL A   1      45.994  29.108  30.778  1.00  0.00     0.049 A 
ATOM     58  H   UNL A   1      43.963  29.140  30.207  1.00  0.00     0.167 HD
ATOM     59  C   UNL A   1      45.603  26.854  29.817  1.00  0.00     0.074 A 
ATOM     60  C   UNL A   1      46.039  25.525  29.438  1.00  0.00     0.031 C 
ATOM     61  C   UNL A   1      46.409  27.787  30.380  1.00  0.00     0.031 A 
BRANCH  48  62
ATOM     62  C   UNL A   1      43.576  33.133  31.670  1.00  0.00    -0.014 A 
ATOM     63  C   UNL A   1      43.382  33.368  33.044  1.00  0.00     0.010 A 
ATOM     64  C   UNL A   1      43.875  34.215  30.823  1.00  0.00     0.010 A 
ATOM     65  C   UNL A   1      43.444  34.666  33.554  1.00  0.00     0.020 A 
ATOM     66  C   UNL A   1      43.963  35.513  31.335  1.00  0.00     0.020 A 
ATOM     67  C   UNL A   1      43.730  35.732  32.696  1.00  0.00     0.054 A 
BRANCH  67  68
ATOM     68  S   UNL A   1      43.818  37.405  33.389  1.00  0.00     0.124 S 
ATOM     69  O   UNL A   1      42.554  37.498  34.113  1.00  0.00    -0.237 OA
ATOM     70  O   UNL A   1      45.016  37.343  34.223  1.00  0.00    -0.237 OA
ATOM     71  O   UNL A   1      43.927  38.263  32.211  1.00  0.00    -0.744 OA
ENDBRANCH  67  68
ENDBRANCH  48  62
BRANCH  49  72
ATOM     72  C   UNL A   1      42.447  23.948  27.881  1.00  0.00    -0.014 A 
ATOM     73  C   UNL A   1      42.522  23.728  26.495  1.00  0.00     0.010 A 
ATOM     74  C   UNL A   1      42.236  22.854  28.739  1.00  0.00     0.010 A 
ATOM     75  C   UNL A   1      42.383  22.438  25.974  1.00  0.00     0.020 A 
ATOM     76  C   UNL A   1      42.117  21.559  28.223  1.00  0.00     0.020 A 
ATOM     77  C   UNL A   1      42.184  21.361  26.842  1.00  0.00     0.054 A 
BRANCH  77  78
ATOM     78  S   UNL A   1      42.070  19.688  26.147  1.00  0.00     0.124 S 
ATOM     79  O   UNL A   1      42.465  18.860  27.281  1.00  0.00    -0.237 OA
ATOM     80  O   UNL A   1      40.664  19.603  25.758  1.00  0.00    -0.237 OA
ATOM     81  O   UNL A   1      43.015  19.719  25.032  1.00  0.00    -0.744 OA
ENDBRANCH  77  78
ENDBRANCH  49  72
BRANCH  61  82
ATOM     82  C   UNL A   1      47.841  27.400  30.624  1.00  0.00    -0.014 A 
ATOM     83  C   UNL A   1      48.225  26.774  31.821  1.00  0.00     0.010 A 
ATOM     84  C   UNL A   1      48.804  27.625  29.623  1.00  0.00     0.010 A 
ATOM     85  C   UNL A   1      49.556  26.404  32.028  1.00  0.00     0.020 A 
ATOM     86  C   UNL A   1      50.131  27.236  29.818  1.00  0.00     0.020 A 
ATOM     87  C   UNL A   1      50.502  26.642  31.026  1.00  0.00     0.054 A 
BRANCH  87  88
ATOM     88  S   UNL A   1      52.217  26.120  31.304  1.00  0.00     0.124 S 
ATOM     89  O   UNL A   1      52.040  24.772  31.839  1.00  0.00    -0.237 OA
ATOM     90  O   UNL A   1      52.798  26.195  29.966  1.00  0.00    -0.237 OA
ATOM     91  O   UNL A   1      52.728  27.105  32.256  1.00  0.00    -0.744 OA
ENDBRANCH  87  88
ENDBRANCH  61  82
ENDBRANCH  35  36
ENDBRANCH  27  30
ENDBRANCH  25  26
ENDBRANCH   1  25
TORSDOF 15
ENDMDL
