MODEL 1
REMARK VINA RESULT:     -10.4      0.000      0.000
REMARK SMILES CCC(CC)(NC(=O)c1c(C)noc1C)C(=O)NCCCCNC(=O)c1ccc(-c2c3nc(c(-c4ccc(S(=O)(=O)[O-])cc4)c4ccc([nH]4)c(-c4ccc(S(=O)(=O)[O-])cc4)c4nc(c(-c5ccc(S(=O)(=O)[O-])cc5)c5ccc2[nH]5)C=C4)C=C3)cc1
REMARK SMILES IDX 21 1 20 2 19 3 18 4 16 5 17 6 3 8 2 9 1 10 4 11 5 12 6 13
REMARK SMILES IDX 7 14 8 16 9 17 10 18 14 19 11 20 12 21 13 22 15 23 22 24
REMARK SMILES IDX 23 25 24 26 25 28 26 29 27 30 85 31 28 32 84 33 29 34 30 35
REMARK SMILES IDX 31 36 78 37 32 38 83 39 77 40 79 41 33 42 82 43 76 44 75 45
REMARK SMILES IDX 34 47 64 48 45 49 63 50 46 51 49 52 62 53 80 54 47 55 48 56
REMARK SMILES IDX 61 58 81 59 50 60 35 61 36 62 44 63 37 64 43 65 38 66 39 67
REMARK SMILES IDX 40 68 41 69 42 70 65 71 66 72 74 73 67 74 73 75 68 76 69 77
REMARK SMILES IDX 70 78 71 79 72 80 51 81 52 82 60 83 53 84 59 85 54 86 55 87
REMARK SMILES IDX 56 88 57 89 58 90
REMARK H PARENT 18 7 6 15 23 27 79 46 49 57
REMARK Flexibility Score: inf
ROOT
ATOM      1  C   UNL A   1      36.192  23.897  24.700  1.00  0.00     0.023 C 
ENDROOT
BRANCH   1   2
ATOM      2  C   UNL A   1      34.676  23.924  24.542  1.00  0.00     0.023 C 
BRANCH   2   3
ATOM      3  C   UNL A   1      33.956  22.941  23.603  1.00  0.00     0.116 C 
BRANCH   3   4
ATOM      4  N   UNL A   1      32.768  22.195  24.041  1.00  0.00    -0.354 N 
ATOM      5  C   UNL A   1      32.536  21.237  25.017  1.00  0.00     0.245 C 
ATOM      6  O   UNL A   1      31.367  21.021  25.343  1.00  0.00    -0.272 OA
ATOM      7  H   UNL A   1      31.959  22.425  23.529  1.00  0.00     0.163 HD
BRANCH   5   8
ATOM      8  C   UNL A   1      33.701  20.650  25.822  1.00  0.00     0.118 C 
BRANCH   8   9
ATOM      9  C   UNL A   1      34.247  21.409  27.062  1.00  0.00     0.035 C 
ATOM     10  C   UNL A   1      33.295  22.306  27.844  1.00  0.00     0.007 C 
ENDBRANCH   8   9
BRANCH   8  11
ATOM     11  C   UNL A   1      34.821  20.594  24.708  1.00  0.00     0.035 C 
ATOM     12  C   UNL A   1      36.110  19.838  24.965  1.00  0.00     0.007 C 
ENDBRANCH   8  11
BRANCH   8  13
ATOM     13  N   UNL A   1      33.223  19.343  26.301  1.00  0.00    -0.337 N 
ATOM     14  C   UNL A   1      32.836  18.166  25.677  1.00  0.00     0.257 C 
ATOM     15  H   UNL A   1      33.166  19.292  27.282  1.00  0.00     0.164 HD
ATOM     16  O   UNL A   1      32.083  17.520  26.421  1.00  0.00    -0.269 OA
BRANCH  14  17
ATOM     17  C   UNL A   1      33.166  17.599  24.343  1.00  0.00     0.105 A 
ATOM     18  C   UNL A   1      34.220  16.594  24.226  1.00  0.00     0.093 A 
ATOM     19  C   UNL A   1      32.908  17.843  22.984  1.00  0.00     0.146 A 
ATOM     20  C   UNL A   1      35.119  16.029  25.262  1.00  0.00     0.071 C 
ATOM     21  N   UNL A   1      34.410  16.180  22.977  1.00  0.00    -0.084 NA
ATOM     22  O   UNL A   1      33.583  16.936  22.220  1.00  0.00    -0.361 OA
ATOM     23  C   UNL A   1      32.260  18.795  22.054  1.00  0.00     0.092 C 
ENDBRANCH  14  17
ENDBRANCH   8  13
ENDBRANCH   5   8
ENDBRANCH   3   4
ENDBRANCH   2   3
ENDBRANCH   1   2
BRANCH   1  24
ATOM     24  C   UNL A   1      36.716  23.583  26.089  1.00  0.00     0.116 C 
BRANCH  24  25
ATOM     25  N   UNL A   1      37.758  22.573  26.069  1.00  0.00    -0.352 N 
ATOM     26  C   UNL A   1      39.104  22.713  26.303  1.00  0.00     0.251 C 
ATOM     27  H   UNL A   1      37.457  21.660  25.858  1.00  0.00     0.163 HD
ATOM     28  O   UNL A   1      39.854  21.759  26.083  1.00  0.00    -0.269 OA
BRANCH  26  29
ATOM     29  C   UNL A   1      39.663  23.998  26.784  1.00  0.00     0.039 A 
ATOM     30  C   UNL A   1      39.801  24.195  28.161  1.00  0.00     0.014 A 
ATOM     31  C   UNL A   1      40.035  25.013  25.898  1.00  0.00     0.014 A 
ATOM     32  C   UNL A   1      40.353  25.385  28.644  1.00  0.00     0.010 A 
ATOM     33  C   UNL A   1      40.654  26.168  26.377  1.00  0.00     0.010 A 
ATOM     34  C   UNL A   1      40.811  26.373  27.756  1.00  0.00    -0.014 A 
BRANCH  34  35
ATOM     35  C   UNL A   1      41.440  27.624  28.260  1.00  0.00     0.031 A 
ATOM     36  C   UNL A   1      42.938  27.784  28.246  1.00  0.00     0.074 A 
ATOM     37  C   UNL A   1      40.665  28.608  28.764  1.00  0.00     0.049 A 
ATOM     38  N   UNL A   1      43.663  28.797  28.649  1.00  0.00    -0.248 NA
ATOM     39  C   UNL A   1      43.725  26.654  27.729  1.00  0.00     0.031 C 
ATOM     40  C   UNL A   1      39.205  28.566  28.867  1.00  0.00     0.029 A 
ATOM     41  N   UNL A   1      40.998  29.835  29.283  1.00  0.00    -0.354 N 
ATOM     42  C   UNL A   1      44.987  28.421  28.449  1.00  0.00     0.074 A 
ATOM     43  C   UNL A   1      44.967  27.069  27.936  1.00  0.00     0.031 C 
ATOM     44  C   UNL A   1      38.766  29.727  29.380  1.00  0.00     0.029 A 
ATOM     45  C   UNL A   1      39.912  30.579  29.685  1.00  0.00     0.049 A 
ATOM     46  H   UNL A   1      41.926  30.153  29.360  1.00  0.00     0.167 HD
ATOM     47  C   UNL A   1      46.117  29.139  28.656  1.00  0.00     0.031 A 
ATOM     48  C   UNL A   1      39.843  31.806  30.240  1.00  0.00     0.031 A 
ATOM     49  C   UNL A   1      46.135  30.487  29.162  1.00  0.00     0.049 A 
ATOM     50  C   UNL A   1      41.114  32.574  30.482  1.00  0.00     0.074 A 
ATOM     51  C   UNL A   1      47.225  31.319  29.353  1.00  0.00     0.029 A 
ATOM     52  N   UNL A   1      45.015  31.198  29.567  1.00  0.00    -0.354 N 
ATOM     53  N   UNL A   1      42.351  32.229  30.215  1.00  0.00    -0.248 NA
ATOM     54  C   UNL A   1      40.979  33.906  31.089  1.00  0.00     0.031 C 
ATOM     55  C   UNL A   1      46.773  32.508  29.932  1.00  0.00     0.029 A 
ATOM     56  C   UNL A   1      45.392  32.446  30.036  1.00  0.00     0.049 A 
ATOM     57  H   UNL A   1      44.090  30.865  29.527  1.00  0.00     0.167 HD
ATOM     58  C   UNL A   1      43.138  33.312  30.594  1.00  0.00     0.074 A 
ATOM     59  C   UNL A   1      42.235  34.329  31.094  1.00  0.00     0.031 C 
ATOM     60  C   UNL A   1      44.484  33.451  30.532  1.00  0.00     0.031 A 
BRANCH  47  61
ATOM     61  C   UNL A   1      47.436  28.475  28.349  1.00  0.00    -0.014 A 
ATOM     62  C   UNL A   1      48.037  28.596  27.082  1.00  0.00     0.010 A 
ATOM     63  C   UNL A   1      48.108  27.759  29.357  1.00  0.00     0.010 A 
ATOM     64  C   UNL A   1      49.261  27.977  26.817  1.00  0.00     0.020 A 
ATOM     65  C   UNL A   1      49.348  27.165  29.105  1.00  0.00     0.020 A 
ATOM     66  C   UNL A   1      49.909  27.263  27.831  1.00  0.00     0.054 A 
BRANCH  66  67
ATOM     67  S   UNL A   1      51.506  26.487  27.462  1.00  0.00     0.124 S 
ATOM     68  O   UNL A   1      52.283  26.813  28.656  1.00  0.00    -0.237 OA
ATOM     69  O   UNL A   1      51.151  25.078  27.310  1.00  0.00    -0.237 OA
ATOM     70  O   UNL A   1      51.941  27.153  26.236  1.00  0.00    -0.744 OA
ENDBRANCH  66  67
ENDBRANCH  47  61
BRANCH  48  71
ATOM     71  C   UNL A   1      38.519  32.393  30.589  1.00  0.00    -0.014 A 
ATOM     72  C   UNL A   1      38.000  32.268  31.889  1.00  0.00     0.010 A 
ATOM     73  C   UNL A   1      37.769  33.087  29.620  1.00  0.00     0.010 A 
ATOM     74  C   UNL A   1      36.749  32.805  32.210  1.00  0.00     0.020 A 
ATOM     75  C   UNL A   1      36.532  33.652  29.945  1.00  0.00     0.020 A 
ATOM     76  C   UNL A   1      36.024  33.497  31.236  1.00  0.00     0.054 A 
BRANCH  76  77
ATOM     77  S   UNL A   1      34.426  34.224  31.690  1.00  0.00     0.124 S 
ATOM     78  O   UNL A   1      33.770  34.352  30.392  1.00  0.00    -0.237 OA
ATOM     79  O   UNL A   1      33.865  33.218  32.587  1.00  0.00    -0.237 OA
ATOM     80  O   UNL A   1      34.792  35.485  32.332  1.00  0.00    -0.744 OA
ENDBRANCH  76  77
ENDBRANCH  48  71
BRANCH  60  81
ATOM     81  C   UNL A   1      45.071  34.766  30.978  1.00  0.00    -0.014 A 
ATOM     82  C   UNL A   1      45.218  35.845  30.089  1.00  0.00     0.010 A 
ATOM     83  C   UNL A   1      45.429  34.940  32.329  1.00  0.00     0.010 A 
ATOM     84  C   UNL A   1      45.742  37.062  30.534  1.00  0.00     0.020 A 
ATOM     85  C   UNL A   1      45.923  36.165  32.785  1.00  0.00     0.020 A 
ATOM     86  C   UNL A   1      46.090  37.215  31.879  1.00  0.00     0.054 A 
BRANCH  86  87
ATOM     87  S   UNL A   1      46.724  38.819  32.440  1.00  0.00     0.124 S 
ATOM     88  O   UNL A   1      48.015  38.452  33.015  1.00  0.00    -0.237 OA
ATOM     89  O   UNL A   1      46.783  39.591  31.201  1.00  0.00    -0.237 OA
ATOM     90  O   UNL A   1      45.721  39.272  33.403  1.00  0.00    -0.744 OA
ENDBRANCH  86  87
ENDBRANCH  60  81
ENDBRANCH  34  35
ENDBRANCH  26  29
ENDBRANCH  24  25
ENDBRANCH   1  24
TORSDOF 18
ENDMDL
MODEL 2
REMARK VINA RESULT:     -10.3      4.574      9.593
REMARK SMILES CCC(CC)(NC(=O)c1c(C)noc1C)C(=O)NCCCCNC(=O)c1ccc(-c2c3nc(c(-c4ccc(S(=O)(=O)[O-])cc4)c4ccc([nH]4)c(-c4ccc(S(=O)(=O)[O-])cc4)c4nc(c(-c5ccc(S(=O)(=O)[O-])cc5)c5ccc2[nH]5)C=C4)C=C3)cc1
REMARK SMILES IDX 21 1 20 2 19 3 18 4 16 5 17 6 3 8 2 9 1 10 4 11 5 12 6 13
REMARK SMILES IDX 7 14 8 16 9 17 10 18 14 19 11 20 12 21 13 22 15 23 22 24
REMARK SMILES IDX 23 25 24 26 25 28 26 29 27 30 85 31 28 32 84 33 29 34 30 35
REMARK SMILES IDX 31 36 78 37 32 38 83 39 77 40 79 41 33 42 82 43 76 44 75 45
REMARK SMILES IDX 34 47 64 48 45 49 63 50 46 51 49 52 62 53 80 54 47 55 48 56
REMARK SMILES IDX 61 58 81 59 50 60 35 61 36 62 44 63 37 64 43 65 38 66 39 67
REMARK SMILES IDX 40 68 41 69 42 70 65 71 66 72 74 73 67 74 73 75 68 76 69 77
REMARK SMILES IDX 70 78 71 79 72 80 51 81 52 82 60 83 53 84 59 85 54 86 55 87
REMARK SMILES IDX 56 88 57 89 58 90
REMARK H PARENT 18 7 6 15 23 27 79 46 49 57
REMARK Flexibility Score: inf
ROOT
ATOM      1  C   UNL A   1      33.410  27.978  26.830  1.00  0.00     0.023 C 
ENDROOT
BRANCH   1   2
ATOM      2  C   UNL A   1      31.911  28.020  26.556  1.00  0.00     0.023 C 
BRANCH   2   3
ATOM      3  C   UNL A   1      31.081  26.727  26.469  1.00  0.00     0.116 C 
BRANCH   3   4
ATOM      4  N   UNL A   1      30.510  26.269  25.195  1.00  0.00    -0.354 N 
ATOM      5  C   UNL A   1      30.889  25.325  24.252  1.00  0.00     0.245 C 
ATOM      6  O   UNL A   1      30.042  24.958  23.434  1.00  0.00    -0.272 OA
ATOM      7  H   UNL A   1      29.676  26.736  24.958  1.00  0.00     0.163 HD
BRANCH   5   8
ATOM      8  C   UNL A   1      32.232  24.597  24.378  1.00  0.00     0.118 C 
BRANCH   8   9
ATOM      9  C   UNL A   1      33.558  25.371  24.145  1.00  0.00     0.035 C 
ATOM     10  C   UNL A   1      33.535  26.601  23.247  1.00  0.00     0.007 C 
ENDBRANCH   8   9
BRANCH   8  11
ATOM     11  C   UNL A   1      32.067  23.493  23.260  1.00  0.00     0.035 C 
ATOM     12  C   UNL A   1      33.264  23.064  22.433  1.00  0.00     0.007 C 
ENDBRANCH   8  11
BRANCH   8  13
ATOM     13  N   UNL A   1      32.272  24.092  25.760  1.00  0.00    -0.337 N 
ATOM     14  C   UNL A   1      32.642  22.887  26.340  1.00  0.00     0.257 C 
ATOM     15  H   UNL A   1      31.970  24.757  26.420  1.00  0.00     0.164 HD
ATOM     16  O   UNL A   1      32.080  22.755  27.437  1.00  0.00    -0.269 OA
BRANCH  14  17
ATOM     17  C   UNL A   1      33.551  21.805  25.878  1.00  0.00     0.105 A 
ATOM     18  C   UNL A   1      34.993  22.038  25.844  1.00  0.00     0.093 A 
ATOM     19  C   UNL A   1      33.488  20.561  25.229  1.00  0.00     0.146 A 
ATOM     20  C   UNL A   1      35.770  23.260  26.165  1.00  0.00     0.071 C 
ATOM     21  N   UNL A   1      35.680  20.987  25.407  1.00  0.00    -0.084 NA
ATOM     22  O   UNL A   1      34.750  20.072  25.052  1.00  0.00    -0.361 OA
ATOM     23  C   UNL A   1      32.562  19.620  24.559  1.00  0.00     0.092 C 
ENDBRANCH  14  17
ENDBRANCH   8  13
ENDBRANCH   5   8
ENDBRANCH   3   4
ENDBRANCH   2   3
ENDBRANCH   1   2
BRANCH   1  24
ATOM     24  C   UNL A   1      34.239  29.075  26.187  1.00  0.00     0.116 C 
BRANCH  24  25
ATOM     25  N   UNL A   1      33.805  30.400  26.588  1.00  0.00    -0.352 N 
ATOM     26  C   UNL A   1      34.312  31.217  27.569  1.00  0.00     0.251 C 
ATOM     27  H   UNL A   1      33.040  30.764  26.087  1.00  0.00     0.163 HD
ATOM     28  O   UNL A   1      33.703  32.248  27.865  1.00  0.00    -0.269 OA
BRANCH  26  29
ATOM     29  C   UNL A   1      35.557  30.861  28.289  1.00  0.00     0.039 A 
ATOM     30  C   UNL A   1      35.525  29.800  29.199  1.00  0.00     0.014 A 
ATOM     31  C   UNL A   1      36.746  31.568  28.091  1.00  0.00     0.014 A 
ATOM     32  C   UNL A   1      36.690  29.422  29.871  1.00  0.00     0.010 A 
ATOM     33  C   UNL A   1      37.924  31.142  28.705  1.00  0.00     0.010 A 
ATOM     34  C   UNL A   1      37.909  30.071  29.610  1.00  0.00    -0.014 A 
BRANCH  34  35
ATOM     35  C   UNL A   1      39.164  29.646  30.289  1.00  0.00     0.031 A 
ATOM     36  C   UNL A   1      39.616  30.329  31.553  1.00  0.00     0.074 A 
ATOM     37  C   UNL A   1      39.918  28.665  29.750  1.00  0.00     0.049 A 
ATOM     38  N   UNL A   1      40.682  30.101  32.278  1.00  0.00    -0.248 NA
ATOM     39  C   UNL A   1      38.772  31.423  32.060  1.00  0.00     0.031 C 
ATOM     40  C   UNL A   1      39.612  27.945  28.511  1.00  0.00     0.029 A 
ATOM     41  N   UNL A   1      41.097  28.104  30.175  1.00  0.00    -0.354 N 
ATOM     42  C   UNL A   1      40.644  31.029  33.314  1.00  0.00     0.074 A 
ATOM     43  C   UNL A   1      39.478  31.855  33.095  1.00  0.00     0.031 C 
ATOM     44  C   UNL A   1      40.556  27.016  28.298  1.00  0.00     0.029 A 
ATOM     45  C   UNL A   1      41.559  27.100  29.355  1.00  0.00     0.049 A 
ATOM     46  H   UNL A   1      41.568  28.393  30.990  1.00  0.00     0.167 HD
ATOM     47  C   UNL A   1      41.491  31.170  34.361  1.00  0.00     0.031 A 
ATOM     48  C   UNL A   1      42.666  26.335  29.440  1.00  0.00     0.031 A 
ATOM     49  C   UNL A   1      42.649  30.343  34.581  1.00  0.00     0.049 A 
ATOM     50  C   UNL A   1      43.605  26.527  30.601  1.00  0.00     0.074 A 
ATOM     51  C   UNL A   1      43.536  30.371  35.643  1.00  0.00     0.029 A 
ATOM     52  N   UNL A   1      43.087  29.346  33.721  1.00  0.00    -0.354 N 
ATOM     53  N   UNL A   1      43.510  27.361  31.609  1.00  0.00    -0.248 NA
ATOM     54  C   UNL A   1      44.795  25.666  30.642  1.00  0.00     0.031 C 
ATOM     55  C   UNL A   1      44.546  29.436  35.395  1.00  0.00     0.029 A 
ATOM     56  C   UNL A   1      44.248  28.774  34.214  1.00  0.00     0.049 A 
ATOM     57  H   UNL A   1      42.638  29.083  32.886  1.00  0.00     0.167 HD
ATOM     58  C   UNL A   1      44.611  27.103  32.420  1.00  0.00     0.074 A 
ATOM     59  C   UNL A   1      45.348  26.026  31.791  1.00  0.00     0.031 C 
ATOM     60  C   UNL A   1      44.976  27.702  33.579  1.00  0.00     0.031 A 
BRANCH  47  61
ATOM     61  C   UNL A   1      41.207  32.274  35.348  1.00  0.00    -0.014 A 
ATOM     62  C   UNL A   1      41.716  33.573  35.159  1.00  0.00     0.010 A 
ATOM     63  C   UNL A   1      40.377  32.023  36.456  1.00  0.00     0.010 A 
ATOM     64  C   UNL A   1      41.438  34.585  36.081  1.00  0.00     0.020 A 
ATOM     65  C   UNL A   1      40.070  33.041  37.365  1.00  0.00     0.020 A 
ATOM     66  C   UNL A   1      40.618  34.311  37.181  1.00  0.00     0.054 A 
BRANCH  66  67
ATOM     67  S   UNL A   1      40.259  35.651  38.351  1.00  0.00     0.124 S 
ATOM     68  O   UNL A   1      39.076  35.141  39.039  1.00  0.00    -0.237 OA
ATOM     69  O   UNL A   1      41.477  35.707  39.156  1.00  0.00    -0.237 OA
ATOM     70  O   UNL A   1      40.029  36.809  37.492  1.00  0.00    -0.744 OA
ENDBRANCH  66  67
ENDBRANCH  47  61
BRANCH  48  71
ATOM     71  C   UNL A   1      42.940  25.301  28.403  1.00  0.00    -0.014 A 
ATOM     72  C   UNL A   1      42.499  23.978  28.576  1.00  0.00     0.010 A 
ATOM     73  C   UNL A   1      43.643  25.636  27.230  1.00  0.00     0.010 A 
ATOM     74  C   UNL A   1      42.771  23.005  27.610  1.00  0.00     0.020 A 
ATOM     75  C   UNL A   1      43.890  24.673  26.246  1.00  0.00     0.020 A 
ATOM     76  C   UNL A   1      43.463  23.360  26.449  1.00  0.00     0.054 A 
BRANCH  76  77
ATOM     77  S   UNL A   1      43.764  22.090  25.189  1.00  0.00     0.124 S 
ATOM     78  O   UNL A   1      45.145  21.708  25.465  1.00  0.00    -0.237 OA
ATOM     79  O   UNL A   1      42.753  21.084  25.507  1.00  0.00    -0.237 OA
ATOM     80  O   UNL A   1      43.550  22.799  23.929  1.00  0.00    -0.744 OA
ENDBRANCH  76  77
ENDBRANCH  48  71
BRANCH  60  81
ATOM     81  C   UNL A   1      46.210  27.186  34.274  1.00  0.00    -0.014 A 
ATOM     82  C   UNL A   1      47.476  27.748  34.036  1.00  0.00     0.010 A 
ATOM     83  C   UNL A   1      46.088  26.154  35.225  1.00  0.00     0.010 A 
ATOM     84  C   UNL A   1      48.602  27.267  34.712  1.00  0.00     0.020 A 
ATOM     85  C   UNL A   1      47.205  25.693  35.925  1.00  0.00     0.020 A 
ATOM     86  C   UNL A   1      48.458  26.244  35.653  1.00  0.00     0.054 A 
BRANCH  86  87
ATOM     87  S   UNL A   1      49.927  25.670  36.549  1.00  0.00     0.124 S 
ATOM     88  O   UNL A   1      49.489  25.755  37.939  1.00  0.00    -0.237 OA
ATOM     89  O   UNL A   1      50.111  24.317  36.029  1.00  0.00    -0.237 OA
ATOM     90  O   UNL A   1      50.965  26.625  36.164  1.00  0.00    -0.744 OA
ENDBRANCH  86  87
ENDBRANCH  60  81
ENDBRANCH  34  35
ENDBRANCH  26  29
ENDBRANCH  24  25
ENDBRANCH   1  24
TORSDOF 18
ENDMDL
MODEL 3
REMARK VINA RESULT:     -10.3      3.233      9.073
REMARK SMILES CCC(CC)(NC(=O)c1c(C)noc1C)C(=O)NCCCCNC(=O)c1ccc(-c2c3nc(c(-c4ccc(S(=O)(=O)[O-])cc4)c4ccc([nH]4)c(-c4ccc(S(=O)(=O)[O-])cc4)c4nc(c(-c5ccc(S(=O)(=O)[O-])cc5)c5ccc2[nH]5)C=C4)C=C3)cc1
REMARK SMILES IDX 21 1 20 2 19 3 18 4 16 5 17 6 3 8 2 9 1 10 4 11 5 12 6 13
REMARK SMILES IDX 7 14 8 16 9 17 10 18 14 19 11 20 12 21 13 22 15 23 22 24
REMARK SMILES IDX 23 25 24 26 25 28 26 29 27 30 85 31 28 32 84 33 29 34 30 35
REMARK SMILES IDX 31 36 78 37 32 38 83 39 77 40 79 41 33 42 82 43 76 44 75 45
REMARK SMILES IDX 34 47 64 48 45 49 63 50 46 51 49 52 62 53 80 54 47 55 48 56
REMARK SMILES IDX 61 58 81 59 50 60 35 61 36 62 44 63 37 64 43 65 38 66 39 67
REMARK SMILES IDX 40 68 41 69 42 70 65 71 66 72 74 73 67 74 73 75 68 76 69 77
REMARK SMILES IDX 70 78 71 79 72 80 51 81 52 82 60 83 53 84 59 85 54 86 55 87
REMARK SMILES IDX 56 88 57 89 58 90
REMARK H PARENT 18 7 6 15 23 27 79 46 49 57
REMARK Flexibility Score: inf
ROOT
ATOM      1  C   UNL A   1      32.832  28.269  25.600  1.00  0.00     0.023 C 
ENDROOT
BRANCH   1   2
ATOM      2  C   UNL A   1      33.272  27.715  24.250  1.00  0.00     0.023 C 
BRANCH   2   3
ATOM      3  C   UNL A   1      33.797  26.275  24.113  1.00  0.00     0.116 C 
BRANCH   3   4
ATOM      4  N   UNL A   1      34.063  25.442  25.294  1.00  0.00    -0.354 N 
ATOM      5  C   UNL A   1      33.341  24.469  25.970  1.00  0.00     0.245 C 
ATOM      6  O   UNL A   1      33.955  23.737  26.749  1.00  0.00    -0.272 OA
ATOM      7  H   UNL A   1      34.946  25.613  25.694  1.00  0.00     0.163 HD
BRANCH   5   8
ATOM      8  C   UNL A   1      31.890  24.166  25.580  1.00  0.00     0.118 C 
BRANCH   8   9
ATOM      9  C   UNL A   1      30.846  25.314  25.528  1.00  0.00     0.035 C 
ATOM     10  C   UNL A   1      30.109  25.570  24.220  1.00  0.00     0.007 C 
ENDBRANCH   8   9
BRANCH   8  11
ATOM     11  C   UNL A   1      31.493  23.147  26.720  1.00  0.00     0.035 C 
ATOM     12  C   UNL A   1      30.061  22.661  26.839  1.00  0.00     0.007 C 
ENDBRANCH   8  11
BRANCH   8  13
ATOM     13  N   UNL A   1      31.963  23.597  24.223  1.00  0.00    -0.337 N 
ATOM     14  C   UNL A   1      32.921  22.875  23.528  1.00  0.00     0.257 C 
ATOM     15  H   UNL A   1      31.152  23.766  23.693  1.00  0.00     0.164 HD
ATOM     16  O   UNL A   1      32.756  23.019  22.307  1.00  0.00    -0.269 OA
BRANCH  14  17
ATOM     17  C   UNL A   1      34.039  22.012  23.991  1.00  0.00     0.105 A 
ATOM     18  C   UNL A   1      33.745  20.738  24.643  1.00  0.00     0.093 A 
ATOM     19  C   UNL A   1      35.427  22.078  24.198  1.00  0.00     0.146 A 
ATOM     20  C   UNL A   1      32.441  20.124  24.995  1.00  0.00     0.071 C 
ATOM     21  N   UNL A   1      34.839  20.074  25.007  1.00  0.00    -0.084 NA
ATOM     22  O   UNL A   1      35.872  20.894  24.710  1.00  0.00    -0.361 OA
ATOM     23  C   UNL A   1      36.585  23.001  24.174  1.00  0.00     0.092 C 
ENDBRANCH  14  17
ENDBRANCH   8  13
ENDBRANCH   5   8
ENDBRANCH   3   4
ENDBRANCH   2   3
ENDBRANCH   1   2
BRANCH   1  24
ATOM     24  C   UNL A   1      33.942  28.656  26.560  1.00  0.00     0.116 C 
BRANCH  24  25
ATOM     25  N   UNL A   1      33.738  29.973  27.134  1.00  0.00    -0.352 N 
ATOM     26  C   UNL A   1      34.554  30.684  27.980  1.00  0.00     0.251 C 
ATOM     27  H   UNL A   1      32.897  30.418  26.883  1.00  0.00     0.163 HD
ATOM     28  O   UNL A   1      34.132  31.726  28.486  1.00  0.00    -0.269 OA
BRANCH  26  29
ATOM     29  C   UNL A   1      35.915  30.200  28.309  1.00  0.00     0.039 A 
ATOM     30  C   UNL A   1      36.920  30.316  27.344  1.00  0.00     0.014 A 
ATOM     31  C   UNL A   1      36.208  29.621  29.548  1.00  0.00     0.014 A 
ATOM     32  C   UNL A   1      38.221  29.895  27.636  1.00  0.00     0.010 A 
ATOM     33  C   UNL A   1      37.520  29.271  29.864  1.00  0.00     0.010 A 
ATOM     34  C   UNL A   1      38.541  29.394  28.910  1.00  0.00    -0.014 A 
BRANCH  34  35
ATOM     35  C   UNL A   1      39.933  28.984  29.244  1.00  0.00     0.031 A 
ATOM     36  C   UNL A   1      40.860  29.940  29.948  1.00  0.00     0.074 A 
ATOM     37  C   UNL A   1      40.376  27.762  28.884  1.00  0.00     0.049 A 
ATOM     38  N   UNL A   1      42.105  29.763  30.314  1.00  0.00    -0.248 NA
ATOM     39  C   UNL A   1      40.328  31.274  30.268  1.00  0.00     0.031 C 
ATOM     40  C   UNL A   1      39.591  26.753  28.168  1.00  0.00     0.029 A 
ATOM     41  N   UNL A   1      41.595  27.158  29.073  1.00  0.00    -0.354 N 
ATOM     42  C   UNL A   1      42.506  30.963  30.890  1.00  0.00     0.074 A 
ATOM     43  C   UNL A   1      41.391  31.877  30.781  1.00  0.00     0.031 C 
ATOM     44  C   UNL A   1      40.335  25.647  28.011  1.00  0.00     0.029 A 
ATOM     45  C   UNL A   1      41.662  25.878  28.573  1.00  0.00     0.049 A 
ATOM     46  H   UNL A   1      42.351  27.601  29.523  1.00  0.00     0.167 HD
ATOM     47  C   UNL A   1      43.690  31.273  31.473  1.00  0.00     0.031 A 
ATOM     48  C   UNL A   1      42.677  24.990  28.562  1.00  0.00     0.031 A 
ATOM     49  C   UNL A   1      44.797  30.361  31.586  1.00  0.00     0.049 A 
ATOM     50  C   UNL A   1      43.989  25.367  29.196  1.00  0.00     0.074 A 
ATOM     51  C   UNL A   1      46.017  30.563  32.210  1.00  0.00     0.029 A 
ATOM     52  N   UNL A   1      44.828  29.079  31.057  1.00  0.00    -0.354 N 
ATOM     53  N   UNL A   1      44.323  26.481  29.802  1.00  0.00    -0.248 NA
ATOM     54  C   UNL A   1      45.059  24.360  29.155  1.00  0.00     0.031 C 
ATOM     55  C   UNL A   1      46.808  29.429  32.004  1.00  0.00     0.029 A 
ATOM     56  C   UNL A   1      46.055  28.491  31.313  1.00  0.00     0.049 A 
ATOM     57  H   UNL A   1      44.086  28.651  30.572  1.00  0.00     0.167 HD
ATOM     58  C   UNL A   1      45.631  26.298  30.241  1.00  0.00     0.074 A 
ATOM     59  C   UNL A   1      46.020  24.960  29.843  1.00  0.00     0.031 C 
ATOM     60  C   UNL A   1      46.434  27.158  30.913  1.00  0.00     0.031 A 
BRANCH  47  61
ATOM     61  C   UNL A   1      43.855  32.668  32.024  1.00  0.00    -0.014 A 
ATOM     62  C   UNL A   1      44.293  33.728  31.209  1.00  0.00     0.010 A 
ATOM     63  C   UNL A   1      43.520  32.933  33.365  1.00  0.00     0.010 A 
ATOM     64  C   UNL A   1      44.436  35.014  31.735  1.00  0.00     0.020 A 
ATOM     65  C   UNL A   1      43.631  34.225  33.887  1.00  0.00     0.020 A 
ATOM     66  C   UNL A   1      44.106  35.254  33.073  1.00  0.00     0.054 A 
BRANCH  66  67
ATOM     67  S   UNL A   1      44.283  36.939  33.722  1.00  0.00     0.124 S 
ATOM     68  O   UNL A   1      42.893  37.379  33.803  1.00  0.00    -0.237 OA
ATOM     69  O   UNL A   1      44.946  36.719  35.005  1.00  0.00    -0.237 OA
ATOM     70  O   UNL A   1      45.093  37.617  32.713  1.00  0.00    -0.744 OA
ENDBRANCH  66  67
ENDBRANCH  47  61
BRANCH  48  71
ATOM     71  C   UNL A   1      42.487  23.647  27.946  1.00  0.00    -0.014 A 
ATOM     72  C   UNL A   1      42.839  23.418  26.604  1.00  0.00     0.010 A 
ATOM     73  C   UNL A   1      41.953  22.585  28.700  1.00  0.00     0.010 A 
ATOM     74  C   UNL A   1      42.644  22.162  26.022  1.00  0.00     0.020 A 
ATOM     75  C   UNL A   1      41.785  21.319  28.131  1.00  0.00     0.020 A 
ATOM     76  C   UNL A   1      42.120  21.119  26.791  1.00  0.00     0.054 A 
BRANCH  76  77
ATOM     77  S   UNL A   1      41.920  19.486  26.026  1.00  0.00     0.124 S 
ATOM     78  O   UNL A   1      42.403  18.596  27.077  1.00  0.00    -0.237 OA
ATOM     79  O   UNL A   1      40.484  19.435  25.763  1.00  0.00    -0.237 OA
ATOM     80  O   UNL A   1      42.761  19.560  24.833  1.00  0.00    -0.744 OA
ENDBRANCH  76  77
ENDBRANCH  48  71
BRANCH  60  81
ATOM     81  C   UNL A   1      47.807  26.672  31.301  1.00  0.00    -0.014 A 
ATOM     82  C   UNL A   1      48.056  26.107  32.564  1.00  0.00     0.010 A 
ATOM     83  C   UNL A   1      48.853  26.733  30.361  1.00  0.00     0.010 A 
ATOM     84  C   UNL A   1      49.333  25.641  32.891  1.00  0.00     0.020 A 
ATOM     85  C   UNL A   1      50.122  26.239  30.672  1.00  0.00     0.020 A 
ATOM     86  C   UNL A   1      50.357  25.708  31.942  1.00  0.00     0.054 A 
BRANCH  86  87
ATOM     87  S   UNL A   1      51.993  25.055  32.376  1.00  0.00     0.124 S 
ATOM     88  O   UNL A   1      52.855  25.723  31.406  1.00  0.00    -0.237 OA
ATOM     89  O   UNL A   1      52.152  25.487  33.762  1.00  0.00    -0.237 OA
ATOM     90  O   UNL A   1      51.850  23.612  32.192  1.00  0.00    -0.744 OA
ENDBRANCH  86  87
ENDBRANCH  60  81
ENDBRANCH  34  35
ENDBRANCH  26  29
ENDBRANCH  24  25
ENDBRANCH   1  24
TORSDOF 18
ENDMDL
