MODEL 1
REMARK VINA RESULT:     -11.7      0.000      0.000
REMARK SMILES O=C(NCCCCNC(=O)[C@@H]1C=C[C@H](NC(=O)[C@@H]2Cc3ccccc3O2)C1)c1ccc(-c2c3nc(c(-c4ccc(S(=O)(=O)[O-])cc4)c4ccc([nH]4)c(-c4ccc(S(=O)(=O)[O-])cc4)c4nc(c(-c5ccc(S(=O)(=O)[O-])cc5)c5ccc2[nH]5)C=C4)C=C3)cc1
REMARK SMILES IDX 5 1 4 2 3 3 1 4 2 5 28 7 29 8 87 9 30 10 86 11 31 12 32 13
REMARK SMILES IDX 33 14 80 15 34 16 85 17 79 18 81 19 35 20 84 21 78 22 77 23
REMARK SMILES IDX 36 25 66 26 47 27 65 28 48 29 51 30 64 31 82 32 49 33 50 34
REMARK SMILES IDX 63 36 83 37 52 38 37 39 38 40 46 41 39 42 45 43 40 44 41 45
REMARK SMILES IDX 42 46 43 47 44 48 67 49 68 50 76 51 69 52 75 53 70 54 71 55
REMARK SMILES IDX 72 56 73 57 74 58 53 59 54 60 62 61 55 62 61 63 56 64 57 65
REMARK SMILES IDX 58 66 59 67 60 68 6 69 7 70 8 71 9 72 10 74 11 75 12 76
REMARK SMILES IDX 27 77 13 78 14 79 15 80 16 81 17 83 18 84 19 85 26 86 20 87
REMARK SMILES IDX 25 88 21 89 24 90 22 91 23 92
REMARK H PARENT 3 6 81 24 51 35 8 73 15 82
REMARK Flexibility Score: inf
ROOT
ATOM      1  C   UNL A   1      40.383  21.930  27.277  1.00  0.00     0.023 C 
ENDROOT
BRANCH   1   2
ATOM      2  C   UNL A   1      40.115  23.421  27.100  1.00  0.00     0.116 C 
BRANCH   2   3
ATOM      3  N   UNL A   1      40.923  24.076  26.067  1.00  0.00    -0.352 N 
ATOM      4  O   UNL A   1      41.911  25.837  25.010  1.00  0.00    -0.269 OA
ATOM      5  C   UNL A   1      41.255  25.418  25.960  1.00  0.00     0.251 C 
ATOM      6  H   UNL A   1      41.273  23.490  25.358  1.00  0.00     0.163 HD
BRANCH   5   7
ATOM      7  C   UNL A   1      40.752  26.357  26.989  1.00  0.00     0.039 A 
ATOM      8  C   UNL A   1      41.070  27.710  26.895  1.00  0.00     0.014 A 
ATOM      9  C   UNL A   1      40.098  25.860  28.119  1.00  0.00     0.014 A 
ATOM     10  C   UNL A   1      40.975  28.505  28.028  1.00  0.00     0.010 A 
ATOM     11  C   UNL A   1      39.889  26.702  29.219  1.00  0.00     0.010 A 
ATOM     12  C   UNL A   1      40.389  28.012  29.209  1.00  0.00    -0.014 A 
BRANCH  12  13
ATOM     13  C   UNL A   1      40.304  28.904  30.398  1.00  0.00     0.031 A 
ATOM     14  C   UNL A   1      41.284  28.800  31.540  1.00  0.00     0.074 A 
ATOM     15  C   UNL A   1      39.359  29.866  30.411  1.00  0.00     0.049 A 
ATOM     16  N   UNL A   1      41.350  29.519  32.633  1.00  0.00    -0.248 NA
ATOM     17  C   UNL A   1      42.318  27.756  31.454  1.00  0.00     0.031 C 
ATOM     18  C   UNL A   1      38.358  30.077  29.360  1.00  0.00     0.029 A 
ATOM     19  N   UNL A   1      39.104  30.866  31.313  1.00  0.00    -0.354 N 
ATOM     20  C   UNL A   1      42.403  28.997  33.378  1.00  0.00     0.074 A 
ATOM     21  C   UNL A   1      42.943  27.891  32.617  1.00  0.00     0.031 C 
ATOM     22  C   UNL A   1      37.647  31.175  29.642  1.00  0.00     0.029 A 
ATOM     23  C   UNL A   1      38.078  31.697  30.933  1.00  0.00     0.049 A 
ATOM     24  H   UNL A   1      39.607  30.977  32.152  1.00  0.00     0.167 HD
ATOM     25  C   UNL A   1      42.873  29.401  34.585  1.00  0.00     0.031 A 
ATOM     26  C   UNL A   1      37.519  32.749  31.559  1.00  0.00     0.031 A 
ATOM     27  C   UNL A   1      42.339  30.511  35.333  1.00  0.00     0.049 A 
ATOM     28  C   UNL A   1      38.042  33.159  32.901  1.00  0.00     0.074 A 
ATOM     29  C   UNL A   1      42.763  31.012  36.552  1.00  0.00     0.029 A 
ATOM     30  N   UNL A   1      41.264  31.293  34.935  1.00  0.00    -0.354 N 
ATOM     31  N   UNL A   1      39.038  32.649  33.583  1.00  0.00    -0.248 NA
ATOM     32  C   UNL A   1      37.361  34.278  33.560  1.00  0.00     0.031 C 
ATOM     33  C   UNL A   1      41.915  32.065  36.914  1.00  0.00     0.029 A 
ATOM     34  C   UNL A   1      40.996  32.255  35.895  1.00  0.00     0.049 A 
ATOM     35  H   UNL A   1      40.765  31.180  34.093  1.00  0.00     0.167 HD
ATOM     36  C   UNL A   1      39.106  33.388  34.757  1.00  0.00     0.074 A 
ATOM     37  C   UNL A   1      38.068  34.397  34.676  1.00  0.00     0.031 C 
ATOM     38  C   UNL A   1      39.948  33.241  35.808  1.00  0.00     0.031 A 
BRANCH  25  39
ATOM     39  C   UNL A   1      44.005  28.615  35.199  1.00  0.00    -0.014 A 
ATOM     40  C   UNL A   1      43.766  27.549  36.084  1.00  0.00     0.010 A 
ATOM     41  C   UNL A   1      45.334  28.914  34.837  1.00  0.00     0.010 A 
ATOM     42  C   UNL A   1      44.831  26.823  36.626  1.00  0.00     0.020 A 
ATOM     43  C   UNL A   1      46.401  28.174  35.358  1.00  0.00     0.020 A 
ATOM     44  C   UNL A   1      46.144  27.145  36.265  1.00  0.00     0.054 A 
BRANCH  44  45
ATOM     45  S   UNL A   1      47.507  26.179  36.973  1.00  0.00     0.124 S 
ATOM     46  O   UNL A   1      47.242  24.847  36.437  1.00  0.00    -0.237 OA
ATOM     47  O   UNL A   1      48.689  26.848  36.435  1.00  0.00    -0.237 OA
ATOM     48  O   UNL A   1      47.320  26.319  38.416  1.00  0.00    -0.744 OA
ENDBRANCH  44  45
ENDBRANCH  25  39
BRANCH  26  49
ATOM     49  C   UNL A   1      36.377  33.452  30.919  1.00  0.00    -0.014 A 
ATOM     50  C   UNL A   1      35.169  33.639  31.610  1.00  0.00     0.010 A 
ATOM     51  C   UNL A   1      36.519  33.993  29.626  1.00  0.00     0.010 A 
ATOM     52  C   UNL A   1      34.122  34.354  31.021  1.00  0.00     0.020 A 
ATOM     53  C   UNL A   1      35.488  34.734  29.047  1.00  0.00     0.020 A 
ATOM     54  C   UNL A   1      34.291  34.902  29.746  1.00  0.00     0.054 A 
BRANCH  54  55
ATOM     55  S   UNL A   1      32.952  35.895  29.031  1.00  0.00     0.124 S 
ATOM     56  O   UNL A   1      32.336  34.949  28.105  1.00  0.00    -0.237 OA
ATOM     57  O   UNL A   1      32.155  36.244  30.204  1.00  0.00    -0.237 OA
ATOM     58  O   UNL A   1      33.654  37.016  28.410  1.00  0.00    -0.744 OA
ENDBRANCH  54  55
ENDBRANCH  26  49
BRANCH  38  59
ATOM     59  C   UNL A   1      39.785  34.206  36.951  1.00  0.00    -0.014 A 
ATOM     60  C   UNL A   1      39.068  33.846  38.105  1.00  0.00     0.010 A 
ATOM     61  C   UNL A   1      40.378  35.479  36.876  1.00  0.00     0.010 A 
ATOM     62  C   UNL A   1      38.917  34.757  39.153  1.00  0.00     0.020 A 
ATOM     63  C   UNL A   1      40.250  36.384  37.932  1.00  0.00     0.020 A 
ATOM     64  C   UNL A   1      39.505  36.022  39.058  1.00  0.00     0.054 A 
BRANCH  64  65
ATOM     65  S   UNL A   1      39.320  37.179  40.442  1.00  0.00     0.124 S 
ATOM     66  O   UNL A   1      40.710  37.454  40.796  1.00  0.00    -0.237 OA
ATOM     67  O   UNL A   1      38.593  38.292  39.838  1.00  0.00    -0.237 OA
ATOM     68  O   UNL A   1      38.565  36.414  41.433  1.00  0.00    -0.744 OA
ENDBRANCH  64  65
ENDBRANCH  38  59
ENDBRANCH  12  13
ENDBRANCH   5   7
ENDBRANCH   2   3
ENDBRANCH   1   2
BRANCH   1  69
ATOM     69  C   UNL A   1      41.822  21.595  27.640  1.00  0.00     0.023 C 
BRANCH  69  70
ATOM     70  C   UNL A   1      42.283  20.126  27.536  1.00  0.00     0.116 C 
BRANCH  70  71
ATOM     71  N   UNL A   1      43.316  19.962  26.492  1.00  0.00    -0.356 N 
ATOM     72  C   UNL A   1      43.391  18.854  25.658  1.00  0.00     0.227 C 
ATOM     73  H   UNL A   1      43.986  20.675  26.382  1.00  0.00     0.163 HD
ATOM     74  O   UNL A   1      42.418  18.123  25.486  1.00  0.00    -0.274 OA
BRANCH  72  75
ATOM     75  C   UNL A   1      44.787  18.573  25.014  1.00  0.00     0.103 C 
ATOM     76  C   UNL A   1      45.880  19.396  25.635  1.00  0.00    -0.016 C 
ATOM     77  C   UNL A   1      44.980  19.027  23.552  1.00  0.00     0.047 C 
ATOM     78  C   UNL A   1      46.268  20.412  24.846  1.00  0.00    -0.006 C 
ATOM     79  C   UNL A   1      45.522  20.454  23.539  1.00  0.00     0.106 C 
BRANCH  79  80
ATOM     80  N   UNL A   1      44.633  21.612  23.580  1.00  0.00    -0.347 N 
ATOM     81  C   UNL A   1      44.241  22.466  24.572  1.00  0.00     0.261 C 
ATOM     82  H   UNL A   1      44.230  21.823  22.706  1.00  0.00     0.164 HD
ATOM     83  O   UNL A   1      43.014  22.629  24.668  1.00  0.00    -0.271 OA
BRANCH  81  84
ATOM     84  C   UNL A   1      45.179  23.342  25.454  1.00  0.00     0.266 C 
ATOM     85  C   UNL A   1      45.061  23.105  26.949  1.00  0.00     0.095 C 
ATOM     86  O   UNL A   1      45.260  24.758  25.193  1.00  0.00    -0.480 OA
ATOM     87  C   UNL A   1      44.687  24.469  27.393  1.00  0.00    -0.002 A 
ATOM     88  C   UNL A   1      44.981  25.361  26.391  1.00  0.00     0.123 A 
ATOM     89  C   UNL A   1      44.081  24.917  28.559  1.00  0.00     0.008 A 
ATOM     90  C   UNL A   1      44.913  26.721  26.609  1.00  0.00     0.047 A 
ATOM     91  C   UNL A   1      43.968  26.278  28.800  1.00  0.00     0.001 A 
ATOM     92  C   UNL A   1      44.433  27.180  27.845  1.00  0.00     0.004 A 
ENDBRANCH  81  84
ENDBRANCH  79  80
ENDBRANCH  72  75
ENDBRANCH  70  71
ENDBRANCH  69  70
ENDBRANCH   1  69
TORSDOF 16
ENDMDL
MODEL 2
REMARK VINA RESULT:     -11.5      5.234     11.344
REMARK SMILES O=C(NCCCCNC(=O)[C@@H]1C=C[C@H](NC(=O)[C@@H]2Cc3ccccc3O2)C1)c1ccc(-c2c3nc(c(-c4ccc(S(=O)(=O)[O-])cc4)c4ccc([nH]4)c(-c4ccc(S(=O)(=O)[O-])cc4)c4nc(c(-c5ccc(S(=O)(=O)[O-])cc5)c5ccc2[nH]5)C=C4)C=C3)cc1
REMARK SMILES IDX 5 1 4 2 3 3 1 4 2 5 28 7 29 8 87 9 30 10 86 11 31 12 32 13
REMARK SMILES IDX 33 14 80 15 34 16 85 17 79 18 81 19 35 20 84 21 78 22 77 23
REMARK SMILES IDX 36 25 66 26 47 27 65 28 48 29 51 30 64 31 82 32 49 33 50 34
REMARK SMILES IDX 63 36 83 37 52 38 37 39 38 40 46 41 39 42 45 43 40 44 41 45
REMARK SMILES IDX 42 46 43 47 44 48 67 49 68 50 76 51 69 52 75 53 70 54 71 55
REMARK SMILES IDX 72 56 73 57 74 58 53 59 54 60 62 61 55 62 61 63 56 64 57 65
REMARK SMILES IDX 58 66 59 67 60 68 6 69 7 70 8 71 9 72 10 74 11 75 12 76
REMARK SMILES IDX 27 77 13 78 14 79 15 80 16 81 17 83 18 84 19 85 26 86 20 87
REMARK SMILES IDX 25 88 21 89 24 90 22 91 23 92
REMARK H PARENT 3 6 81 24 51 35 8 73 15 82
REMARK Flexibility Score: inf
ROOT
ATOM      1  C   UNL A   1      31.812  28.233  27.603  1.00  0.00     0.023 C 
ENDROOT
BRANCH   1   2
ATOM      2  C   UNL A   1      33.198  28.818  27.358  1.00  0.00     0.116 C 
BRANCH   2   3
ATOM      3  N   UNL A   1      33.328  30.248  27.656  1.00  0.00    -0.352 N 
ATOM      4  O   UNL A   1      34.410  32.141  28.320  1.00  0.00    -0.269 OA
ATOM      5  C   UNL A   1      34.457  30.941  28.064  1.00  0.00     0.251 C 
ATOM      6  H   UNL A   1      32.509  30.785  27.556  1.00  0.00     0.163 HD
BRANCH   5   7
ATOM      7  C   UNL A   1      35.722  30.191  28.244  1.00  0.00     0.039 A 
ATOM      8  C   UNL A   1      36.034  29.666  29.496  1.00  0.00     0.014 A 
ATOM      9  C   UNL A   1      36.657  30.151  27.207  1.00  0.00     0.014 A 
ATOM     10  C   UNL A   1      37.353  29.345  29.783  1.00  0.00     0.010 A 
ATOM     11  C   UNL A   1      37.958  29.705  27.470  1.00  0.00     0.010 A 
ATOM     12  C   UNL A   1      38.337  29.366  28.777  1.00  0.00    -0.014 A 
BRANCH  12  13
ATOM     13  C   UNL A   1      39.738  29.008  29.131  1.00  0.00     0.031 A 
ATOM     14  C   UNL A   1      40.615  29.936  29.935  1.00  0.00     0.074 A 
ATOM     15  C   UNL A   1      40.200  27.794  28.771  1.00  0.00     0.049 A 
ATOM     16  N   UNL A   1      41.848  29.756  30.338  1.00  0.00    -0.248 NA
ATOM     17  C   UNL A   1      40.044  31.233  30.333  1.00  0.00     0.031 C 
ATOM     18  C   UNL A   1      39.444  26.801  28.001  1.00  0.00     0.029 A 
ATOM     19  N   UNL A   1      41.393  27.171  29.030  1.00  0.00    -0.354 N 
ATOM     20  C   UNL A   1      42.213  30.922  31.004  1.00  0.00     0.074 A 
ATOM     21  C   UNL A   1      41.073  31.810  30.942  1.00  0.00     0.031 C 
ATOM     22  C   UNL A   1      40.161  25.674  27.910  1.00  0.00     0.029 A 
ATOM     23  C   UNL A   1      41.460  25.890  28.536  1.00  0.00     0.049 A 
ATOM     24  H   UNL A   1      42.131  27.600  29.522  1.00  0.00     0.167 HD
ATOM     25  C   UNL A   1      43.390  31.224  31.607  1.00  0.00     0.031 A 
ATOM     26  C   UNL A   1      42.460  24.990  28.555  1.00  0.00     0.031 A 
ATOM     27  C   UNL A   1      44.518  30.329  31.676  1.00  0.00     0.049 A 
ATOM     28  C   UNL A   1      43.757  25.358  29.208  1.00  0.00     0.074 A 
ATOM     29  C   UNL A   1      45.744  30.535  32.286  1.00  0.00     0.029 A 
ATOM     30  N   UNL A   1      44.562  29.061  31.116  1.00  0.00    -0.354 N 
ATOM     31  N   UNL A   1      44.076  26.467  29.829  1.00  0.00    -0.248 NA
ATOM     32  C   UNL A   1      44.830  24.358  29.152  1.00  0.00     0.031 C 
ATOM     33  C   UNL A   1      46.545  29.411  32.053  1.00  0.00     0.029 A 
ATOM     34  C   UNL A   1      45.800  28.483  31.344  1.00  0.00     0.049 A 
ATOM     35  H   UNL A   1      43.821  28.634  30.627  1.00  0.00     0.167 HD
ATOM     36  C   UNL A   1      45.391  26.298  30.244  1.00  0.00     0.074 A 
ATOM     37  C   UNL A   1      45.795  24.970  29.826  1.00  0.00     0.031 C 
ATOM     38  C   UNL A   1      46.193  27.167  30.906  1.00  0.00     0.031 A 
BRANCH  25  39
ATOM     39  C   UNL A   1      43.539  32.597  32.215  1.00  0.00    -0.014 A 
ATOM     40  C   UNL A   1      43.329  32.820  33.587  1.00  0.00     0.010 A 
ATOM     41  C   UNL A   1      43.952  33.672  31.405  1.00  0.00     0.010 A 
ATOM     42  C   UNL A   1      43.492  34.099  34.131  1.00  0.00     0.020 A 
ATOM     43  C   UNL A   1      44.140  34.947  31.950  1.00  0.00     0.020 A 
ATOM     44  C   UNL A   1      43.890  35.156  33.307  1.00  0.00     0.054 A 
BRANCH  44  45
ATOM     45  S   UNL A   1      44.105  36.803  34.040  1.00  0.00     0.124 S 
ATOM     46  O   UNL A   1      43.204  37.615  33.227  1.00  0.00    -0.237 OA
ATOM     47  O   UNL A   1      43.686  36.596  35.424  1.00  0.00    -0.237 OA
ATOM     48  O   UNL A   1      45.529  37.080  33.860  1.00  0.00    -0.744 OA
ENDBRANCH  44  45
ENDBRANCH  25  39
BRANCH  26  49
ATOM     49  C   UNL A   1      42.263  23.671  27.899  1.00  0.00    -0.014 A 
ATOM     50  C   UNL A   1      42.919  23.361  26.696  1.00  0.00     0.010 A 
ATOM     51  C   UNL A   1      41.458  22.692  28.514  1.00  0.00     0.010 A 
ATOM     52  C   UNL A   1      42.774  22.097  26.119  1.00  0.00     0.020 A 
ATOM     53  C   UNL A   1      41.336  21.419  27.956  1.00  0.00     0.020 A 
ATOM     54  C   UNL A   1      41.988  21.132  26.757  1.00  0.00     0.054 A 
BRANCH  54  55
ATOM     55  S   UNL A   1      41.877  19.471  26.035  1.00  0.00     0.124 S 
ATOM     56  O   UNL A   1      40.446  19.351  25.775  1.00  0.00    -0.237 OA
ATOM     57  O   UNL A   1      42.729  19.581  24.854  1.00  0.00    -0.237 OA
ATOM     58  O   UNL A   1      42.399  18.606  27.091  1.00  0.00    -0.744 OA
ENDBRANCH  54  55
ENDBRANCH  26  49
BRANCH  38  59
ATOM     59  C   UNL A   1      47.585  26.698  31.228  1.00  0.00    -0.014 A 
ATOM     60  C   UNL A   1      48.666  27.009  30.384  1.00  0.00     0.010 A 
ATOM     61  C   UNL A   1      47.817  25.959  32.402  1.00  0.00     0.010 A 
ATOM     62  C   UNL A   1      49.951  26.557  30.692  1.00  0.00     0.020 A 
ATOM     63  C   UNL A   1      49.105  25.527  32.725  1.00  0.00     0.020 A 
ATOM     64  C   UNL A   1      50.162  25.814  31.859  1.00  0.00     0.054 A 
BRANCH  64  65
ATOM     65  S   UNL A   1      51.844  25.263  32.252  1.00  0.00     0.124 S 
ATOM     66  O   UNL A   1      52.198  26.139  33.365  1.00  0.00    -0.237 OA
ATOM     67  O   UNL A   1      51.650  23.856  32.597  1.00  0.00    -0.237 OA
ATOM     68  O   UNL A   1      52.583  25.498  31.014  1.00  0.00    -0.744 OA
ENDBRANCH  64  65
ENDBRANCH  38  59
ENDBRANCH  12  13
ENDBRANCH   5   7
ENDBRANCH   2   3
ENDBRANCH   1   2
BRANCH   1  69
ATOM     69  C   UNL A   1      31.287  27.377  26.460  1.00  0.00     0.023 C 
BRANCH  69  70
ATOM     70  C   UNL A   1      31.555  27.839  25.012  1.00  0.00     0.116 C 
BRANCH  70  71
ATOM     71  N   UNL A   1      32.029  26.720  24.172  1.00  0.00    -0.356 N 
ATOM     72  C   UNL A   1      33.338  26.258  24.179  1.00  0.00     0.227 C 
ATOM     73  H   UNL A   1      31.382  26.277  23.576  1.00  0.00     0.163 HD
ATOM     74  O   UNL A   1      34.090  26.498  25.122  1.00  0.00    -0.274 OA
BRANCH  72  75
ATOM     75  C   UNL A   1      33.799  25.480  22.904  1.00  0.00     0.103 C 
ATOM     76  C   UNL A   1      32.646  25.094  22.021  1.00  0.00    -0.016 C 
ATOM     77  C   UNL A   1      34.383  24.069  23.127  1.00  0.00     0.047 C 
ATOM     78  C   UNL A   1      32.348  23.787  22.111  1.00  0.00    -0.006 C 
ATOM     79  C   UNL A   1      33.253  23.045  23.058  1.00  0.00     0.106 C 
BRANCH  79  80
ATOM     80  N   UNL A   1      32.463  22.694  24.235  1.00  0.00    -0.347 N 
ATOM     81  C   UNL A   1      32.590  21.743  25.207  1.00  0.00     0.261 C 
ATOM     82  H   UNL A   1      31.669  23.264  24.352  1.00  0.00     0.164 HD
ATOM     83  O   UNL A   1      31.571  21.062  25.409  1.00  0.00    -0.271 OA
BRANCH  81  84
ATOM     84  C   UNL A   1      33.810  21.556  26.155  1.00  0.00     0.266 C 
ATOM     85  C   UNL A   1      34.311  22.828  26.817  1.00  0.00     0.095 C 
ATOM     86  O   UNL A   1      34.932  20.772  25.701  1.00  0.00    -0.480 OA
ATOM     87  C   UNL A   1      35.709  22.837  26.322  1.00  0.00    -0.002 A 
ATOM     88  C   UNL A   1      36.024  21.586  25.851  1.00  0.00     0.123 A 
ATOM     89  C   UNL A   1      36.638  23.864  26.227  1.00  0.00     0.008 A 
ATOM     90  C   UNL A   1      37.321  21.262  25.510  1.00  0.00     0.047 A 
ATOM     91  C   UNL A   1      37.945  23.581  25.858  1.00  0.00     0.001 A 
ATOM     92  C   UNL A   1      38.297  22.268  25.550  1.00  0.00     0.004 A 
ENDBRANCH  81  84
ENDBRANCH  79  80
ENDBRANCH  72  75
ENDBRANCH  70  71
ENDBRANCH  69  70
ENDBRANCH   1  69
TORSDOF 16
ENDMDL
MODEL 3
REMARK VINA RESULT:     -11.4      5.406     10.763
REMARK SMILES O=C(NCCCCNC(=O)[C@@H]1C=C[C@H](NC(=O)[C@@H]2Cc3ccccc3O2)C1)c1ccc(-c2c3nc(c(-c4ccc(S(=O)(=O)[O-])cc4)c4ccc([nH]4)c(-c4ccc(S(=O)(=O)[O-])cc4)c4nc(c(-c5ccc(S(=O)(=O)[O-])cc5)c5ccc2[nH]5)C=C4)C=C3)cc1
REMARK SMILES IDX 5 1 4 2 3 3 1 4 2 5 28 7 29 8 87 9 30 10 86 11 31 12 32 13
REMARK SMILES IDX 33 14 80 15 34 16 85 17 79 18 81 19 35 20 84 21 78 22 77 23
REMARK SMILES IDX 36 25 66 26 47 27 65 28 48 29 51 30 64 31 82 32 49 33 50 34
REMARK SMILES IDX 63 36 83 37 52 38 37 39 38 40 46 41 39 42 45 43 40 44 41 45
REMARK SMILES IDX 42 46 43 47 44 48 67 49 68 50 76 51 69 52 75 53 70 54 71 55
REMARK SMILES IDX 72 56 73 57 74 58 53 59 54 60 62 61 55 62 61 63 56 64 57 65
REMARK SMILES IDX 58 66 59 67 60 68 6 69 7 70 8 71 9 72 10 74 11 75 12 76
REMARK SMILES IDX 27 77 13 78 14 79 15 80 16 81 17 83 18 84 19 85 26 86 20 87
REMARK SMILES IDX 25 88 21 89 24 90 22 91 23 92
REMARK H PARENT 3 6 81 24 51 35 8 73 15 82
REMARK Flexibility Score: inf
ROOT
ATOM      1  C   UNL A   1      31.860  28.030  27.620  1.00  0.00     0.023 C 
ENDROOT
BRANCH   1   2
ATOM      2  C   UNL A   1      33.219  28.683  27.388  1.00  0.00     0.116 C 
BRANCH   2   3
ATOM      3  N   UNL A   1      33.298  30.097  27.767  1.00  0.00    -0.352 N 
ATOM      4  O   UNL A   1      34.315  31.988  28.530  1.00  0.00    -0.269 OA
ATOM      5  C   UNL A   1      34.405  30.807  28.207  1.00  0.00     0.251 C 
ATOM      6  H   UNL A   1      32.459  30.608  27.702  1.00  0.00     0.163 HD
BRANCH   5   7
ATOM      7  C   UNL A   1      35.697  30.096  28.336  1.00  0.00     0.039 A 
ATOM      8  C   UNL A   1      36.073  29.579  29.574  1.00  0.00     0.014 A 
ATOM      9  C   UNL A   1      36.593  30.085  27.264  1.00  0.00     0.014 A 
ATOM     10  C   UNL A   1      37.411  29.297  29.810  1.00  0.00     0.010 A 
ATOM     11  C   UNL A   1      37.916  29.678  27.477  1.00  0.00     0.010 A 
ATOM     12  C   UNL A   1      38.354  29.349  28.767  1.00  0.00    -0.014 A 
BRANCH  12  13
ATOM     13  C   UNL A   1      39.778  29.033  29.067  1.00  0.00     0.031 A 
ATOM     14  C   UNL A   1      40.399  27.716  28.671  1.00  0.00     0.074 A 
ATOM     15  C   UNL A   1      40.536  29.982  29.651  1.00  0.00     0.049 A 
ATOM     16  N   UNL A   1      41.630  27.304  28.845  1.00  0.00    -0.248 NA
ATOM     17  C   UNL A   1      39.533  26.732  28.001  1.00  0.00     0.031 C 
ATOM     18  C   UNL A   1      40.054  31.302  30.073  1.00  0.00     0.029 A 
ATOM     19  N   UNL A   1      41.871  30.005  29.961  1.00  0.00    -0.354 N 
ATOM     20  C   UNL A   1      41.680  26.007  28.342  1.00  0.00     0.074 A 
ATOM     21  C   UNL A   1      40.351  25.695  27.863  1.00  0.00     0.031 C 
ATOM     22  C   UNL A   1      41.087  32.027  30.519  1.00  0.00     0.029 A 
ATOM     23  C   UNL A   1      42.287  31.198  30.500  1.00  0.00     0.049 A 
ATOM     24  H   UNL A   1      42.473  29.240  29.812  1.00  0.00     0.167 HD
ATOM     25  C   UNL A   1      42.735  25.157  28.287  1.00  0.00     0.031 A 
ATOM     26  C   UNL A   1      43.492  31.586  30.958  1.00  0.00     0.031 A 
ATOM     27  C   UNL A   1      44.061  25.478  28.754  1.00  0.00     0.049 A 
ATOM     28  C   UNL A   1      44.635  30.619  30.906  1.00  0.00     0.074 A 
ATOM     29  C   UNL A   1      45.200  24.692  28.719  1.00  0.00     0.029 A 
ATOM     30  N   UNL A   1      44.425  26.680  29.343  1.00  0.00    -0.354 N 
ATOM     31  N   UNL A   1      44.655  29.399  30.427  1.00  0.00    -0.248 NA
ATOM     32  C   UNL A   1      45.911  31.075  31.467  1.00  0.00     0.031 C 
ATOM     33  C   UNL A   1      46.241  25.400  29.330  1.00  0.00     0.029 A 
ATOM     34  C   UNL A   1      45.765  26.648  29.696  1.00  0.00     0.049 A 
ATOM     35  H   UNL A   1      43.821  27.444  29.487  1.00  0.00     0.167 HD
ATOM     36  C   UNL A   1      45.951  28.941  30.625  1.00  0.00     0.074 A 
ATOM     37  C   UNL A   1      46.689  30.025  31.243  1.00  0.00     0.031 C 
ATOM     38  C   UNL A   1      46.480  27.729  30.327  1.00  0.00     0.031 A 
BRANCH  25  39
ATOM     39  C   UNL A   1      42.497  23.774  27.733  1.00  0.00    -0.014 A 
ATOM     40  C   UNL A   1      42.624  23.500  26.360  1.00  0.00     0.010 A 
ATOM     41  C   UNL A   1      42.198  22.716  28.613  1.00  0.00     0.010 A 
ATOM     42  C   UNL A   1      42.417  22.205  25.872  1.00  0.00     0.020 A 
ATOM     43  C   UNL A   1      42.014  21.415  28.133  1.00  0.00     0.020 A 
ATOM     44  C   UNL A   1      42.107  21.171  26.762  1.00  0.00     0.054 A 
BRANCH  44  45
ATOM     45  S   UNL A   1      41.855  19.498  26.104  1.00  0.00     0.124 S 
ATOM     46  O   UNL A   1      42.689  19.518  24.905  1.00  0.00    -0.237 OA
ATOM     47  O   UNL A   1      42.338  18.650  27.190  1.00  0.00    -0.237 OA
ATOM     48  O   UNL A   1      40.415  19.433  25.861  1.00  0.00    -0.744 OA
ENDBRANCH  44  45
ENDBRANCH  25  39
BRANCH  26  49
ATOM     49  C   UNL A   1      43.648  32.947  31.532  1.00  0.00    -0.014 A 
ATOM     50  C   UNL A   1      43.463  33.174  32.906  1.00  0.00     0.010 A 
ATOM     51  C   UNL A   1      44.043  34.018  30.707  1.00  0.00     0.010 A 
ATOM     52  C   UNL A   1      43.670  34.446  33.445  1.00  0.00     0.020 A 
ATOM     53  C   UNL A   1      44.281  35.282  31.247  1.00  0.00     0.020 A 
ATOM     54  C   UNL A   1      44.085  35.491  32.613  1.00  0.00     0.054 A 
BRANCH  54  55
ATOM     55  S   UNL A   1      44.427  37.115  33.344  1.00  0.00     0.124 S 
ATOM     56  O   UNL A   1      43.095  37.545  33.760  1.00  0.00    -0.237 OA
ATOM     57  O   UNL A   1      45.353  36.788  34.425  1.00  0.00    -0.237 OA
ATOM     58  O   UNL A   1      45.014  37.869  32.239  1.00  0.00    -0.744 OA
ENDBRANCH  54  55
ENDBRANCH  26  49
BRANCH  38  59
ATOM     59  C   UNL A   1      47.933  27.521  30.657  1.00  0.00    -0.014 A 
ATOM     60  C   UNL A   1      48.941  27.876  29.744  1.00  0.00     0.010 A 
ATOM     61  C   UNL A   1      48.292  26.986  31.907  1.00  0.00     0.010 A 
ATOM     62  C   UNL A   1      50.284  27.667  30.061  1.00  0.00     0.020 A 
ATOM     63  C   UNL A   1      49.636  26.798  32.238  1.00  0.00     0.020 A 
ATOM     64  C   UNL A   1      50.624  27.125  31.305  1.00  0.00     0.054 A 
BRANCH  64  65
ATOM     65  S   UNL A   1      52.376  26.888  31.708  1.00  0.00     0.124 S 
ATOM     66  O   UNL A   1      52.516  25.438  31.616  1.00  0.00    -0.237 OA
ATOM     67  O   UNL A   1      53.053  27.653  30.663  1.00  0.00    -0.237 OA
ATOM     68  O   UNL A   1      52.499  27.442  33.055  1.00  0.00    -0.744 OA
ENDBRANCH  64  65
ENDBRANCH  38  59
ENDBRANCH  12  13
ENDBRANCH   5   7
ENDBRANCH   2   3
ENDBRANCH   1   2
BRANCH   1  69
ATOM     69  C   UNL A   1      31.320  27.273  26.416  1.00  0.00     0.023 C 
BRANCH  69  70
ATOM     70  C   UNL A   1      31.709  27.763  25.005  1.00  0.00     0.116 C 
BRANCH  70  71
ATOM     71  N   UNL A   1      32.134  26.639  24.146  1.00  0.00    -0.356 N 
ATOM     72  C   UNL A   1      33.420  26.112  24.156  1.00  0.00     0.227 C 
ATOM     73  H   UNL A   1      31.472  26.241  23.535  1.00  0.00     0.163 HD
ATOM     74  O   UNL A   1      34.173  26.296  25.110  1.00  0.00    -0.274 OA
BRANCH  72  75
ATOM     75  C   UNL A   1      33.854  25.339  22.869  1.00  0.00     0.103 C 
ATOM     76  C   UNL A   1      32.687  24.993  21.987  1.00  0.00    -0.016 C 
ATOM     77  C   UNL A   1      34.402  23.911  23.071  1.00  0.00     0.047 C 
ATOM     78  C   UNL A   1      32.356  23.693  22.063  1.00  0.00    -0.006 C 
ATOM     79  C   UNL A   1      33.247  22.916  22.996  1.00  0.00     0.106 C 
BRANCH  79  80
ATOM     80  N   UNL A   1      32.453  22.572  24.173  1.00  0.00    -0.347 N 
ATOM     81  C   UNL A   1      32.601  21.654  25.174  1.00  0.00     0.261 C 
ATOM     82  H   UNL A   1      31.638  23.116  24.264  1.00  0.00     0.164 HD
ATOM     83  O   UNL A   1      31.604  20.943  25.383  1.00  0.00    -0.271 OA
BRANCH  81  84
ATOM     84  C   UNL A   1      33.814  21.537  26.142  1.00  0.00     0.266 C 
ATOM     85  C   UNL A   1      34.268  22.846  26.765  1.00  0.00     0.095 C 
ATOM     86  O   UNL A   1      34.965  20.773  25.728  1.00  0.00    -0.480 OA
ATOM     87  C   UNL A   1      35.671  22.881  26.286  1.00  0.00    -0.002 A 
ATOM     88  C   UNL A   1      36.029  21.625  25.863  1.00  0.00     0.123 A 
ATOM     89  C   UNL A   1      36.570  23.932  26.166  1.00  0.00     0.008 A 
ATOM     90  C   UNL A   1      37.340  21.330  25.548  1.00  0.00     0.047 A 
ATOM     91  C   UNL A   1      37.889  23.677  25.822  1.00  0.00     0.001 A 
ATOM     92  C   UNL A   1      38.285  22.366  25.565  1.00  0.00     0.004 A 
ENDBRANCH  81  84
ENDBRANCH  79  80
ENDBRANCH  72  75
ENDBRANCH  70  71
ENDBRANCH  69  70
ENDBRANCH   1  69
TORSDOF 16
ENDMDL
