MODEL 1
REMARK VINA RESULT:     -12.4      0.000      0.000
REMARK SMILES CC1(C)C(NC(=O)[C@@H]2CCC[C@@H](C(=O)NCCCCNC(=O)c3ccc(-c4c5nc(c(-c6ccc(S(=O)(=O)[O-])cc6)c6ccc([nH]6)c(-c6ccc(S(=O)(=O)[O-])cc6)c6nc(c(-c7ccc(S(=O)(=O)[O-])cc7)c7ccc4[nH]7)C=C6)C=C5)cc3)C2)C1(C)C
REMARK SMILES IDX 18 1 17 2 16 3 15 4 13 5 14 6 12 8 8 9 9 10 83 11 10 12
REMARK SMILES IDX 11 13 6 14 5 15 7 17 4 18 1 19 2 20 3 21 84 22 85 23 86 24
REMARK SMILES IDX 19 25 20 26 21 27 22 29 23 30 24 31 82 32 25 33 81 34 26 35
REMARK SMILES IDX 27 36 28 37 75 38 29 39 80 40 74 41 76 42 30 43 79 44 73 45
REMARK SMILES IDX 72 46 31 48 61 49 42 50 60 51 43 52 46 53 59 54 77 55 44 56
REMARK SMILES IDX 45 57 58 59 78 60 47 61 32 62 33 63 41 64 34 65 40 66 35 67
REMARK SMILES IDX 36 68 37 69 38 70 39 71 62 72 63 73 71 74 64 75 70 76 65 77
REMARK SMILES IDX 66 78 67 79 68 80 69 81 48 82 49 83 57 84 50 85 56 86 51 87
REMARK SMILES IDX 52 88 53 89 54 90 55 91
REMARK H PARENT 15 7 5 16 20 28 76 47 46 58
REMARK Flexibility Score: inf
ROOT
ATOM      1  C   UNL A   1      37.627  23.650  25.849  1.00  0.00     0.023 C 
ENDROOT
BRANCH   1   2
ATOM      2  C   UNL A   1      37.563  22.136  25.642  1.00  0.00     0.023 C 
BRANCH   2   3
ATOM      3  C   UNL A   1      37.024  21.696  24.285  1.00  0.00     0.116 C 
BRANCH   3   4
ATOM      4  N   UNL A   1      36.318  22.769  23.612  1.00  0.00    -0.356 N 
ATOM      5  C   UNL A   1      34.989  23.056  23.568  1.00  0.00     0.223 C 
ATOM      6  O   UNL A   1      34.632  24.046  22.928  1.00  0.00    -0.275 OA
ATOM      7  H   UNL A   1      36.892  23.389  23.106  1.00  0.00     0.163 HD
BRANCH   5   8
ATOM      8  C   UNL A   1      33.991  22.134  24.260  1.00  0.00     0.079 C 
ATOM      9  C   UNL A   1      32.247  23.809  25.176  1.00  0.00     0.079 C 
ATOM     10  C   UNL A   1      31.220  23.126  24.266  1.00  0.00     0.013 C 
ATOM     11  C   UNL A   1      33.373  22.811  25.490  1.00  0.00     0.027 C 
ATOM     12  C   UNL A   1      31.860  22.645  22.969  1.00  0.00     0.002 C 
ATOM     13  C   UNL A   1      32.957  21.628  23.249  1.00  0.00     0.013 C 
BRANCH   9  14
ATOM     14  C   UNL A   1      31.651  24.363  26.479  1.00  0.00     0.223 C 
ATOM     15  N   UNL A   1      32.061  25.593  26.930  1.00  0.00    -0.352 N 
ATOM     16  H   UNL A   1      31.762  25.852  27.832  1.00  0.00     0.163 HD
ATOM     17  O   UNL A   1      30.848  23.727  27.165  1.00  0.00    -0.275 OA
BRANCH  15  18
ATOM     18  C   UNL A   1      32.873  26.537  26.237  1.00  0.00     0.094 C 
ATOM     19  C   UNL A   1      33.010  27.372  23.792  1.00  0.00     0.014 C 
ATOM     20  C   UNL A   1      32.254  27.349  25.103  1.00  0.00    -0.007 C 
ATOM     21  C   UNL A   1      30.756  27.310  24.873  1.00  0.00     0.014 C 
ATOM     22  C   UNL A   1      32.812  28.040  26.363  1.00  0.00    -0.007 C 
ATOM     23  C   UNL A   1      34.150  28.755  26.292  1.00  0.00     0.014 C 
ATOM     24  C   UNL A   1      31.904  28.657  27.400  1.00  0.00     0.014 C 
ENDBRANCH  15  18
ENDBRANCH   9  14
ENDBRANCH   5   8
ENDBRANCH   3   4
ENDBRANCH   2   3
ENDBRANCH   1   2
BRANCH   1  25
ATOM     25  C   UNL A   1      38.795  24.148  26.695  1.00  0.00     0.116 C 
BRANCH  25  26
ATOM     26  N   UNL A   1      39.922  24.595  25.896  1.00  0.00    -0.352 N 
ATOM     27  C   UNL A   1      40.785  25.643  26.108  1.00  0.00     0.251 C 
ATOM     28  H   UNL A   1      40.093  24.070  25.081  1.00  0.00     0.163 HD
ATOM     29  O   UNL A   1      41.594  25.944  25.237  1.00  0.00    -0.269 OA
BRANCH  27  30
ATOM     30  C   UNL A   1      40.719  26.424  27.364  1.00  0.00     0.039 A 
ATOM     31  C   UNL A   1      41.568  27.523  27.509  1.00  0.00     0.014 A 
ATOM     32  C   UNL A   1      39.839  26.082  28.395  1.00  0.00     0.014 A 
ATOM     33  C   UNL A   1      41.490  28.312  28.659  1.00  0.00     0.010 A 
ATOM     34  C   UNL A   1      39.707  26.915  29.505  1.00  0.00     0.010 A 
ATOM     35  C   UNL A   1      40.532  28.039  29.650  1.00  0.00    -0.014 A 
BRANCH  35  36
ATOM     36  C   UNL A   1      40.380  28.945  30.820  1.00  0.00     0.031 A 
ATOM     37  C   UNL A   1      41.250  28.788  32.039  1.00  0.00     0.074 A 
ATOM     38  C   UNL A   1      39.432  29.904  30.790  1.00  0.00     0.049 A 
ATOM     39  N   UNL A   1      41.279  29.514  33.128  1.00  0.00    -0.248 NA
ATOM     40  C   UNL A   1      42.199  27.661  32.047  1.00  0.00     0.031 C 
ATOM     41  C   UNL A   1      38.486  30.124  29.690  1.00  0.00     0.029 A 
ATOM     42  N   UNL A   1      39.113  30.881  31.698  1.00  0.00    -0.354 N 
ATOM     43  C   UNL A   1      42.242  28.936  33.947  1.00  0.00     0.074 A 
ATOM     44  C   UNL A   1      42.733  27.764  33.255  1.00  0.00     0.031 C 
ATOM     45  C   UNL A   1      37.729  31.196  29.969  1.00  0.00     0.029 A 
ATOM     46  C   UNL A   1      38.104  31.717  31.280  1.00  0.00     0.049 A 
ATOM     47  H   UNL A   1      39.563  30.975  32.569  1.00  0.00     0.167 HD
ATOM     48  C   UNL A   1      42.695  29.354  35.154  1.00  0.00     0.031 A 
ATOM     49  C   UNL A   1      37.543  32.786  31.879  1.00  0.00     0.031 A 
ATOM     50  C   UNL A   1      42.203  30.522  35.842  1.00  0.00     0.049 A 
ATOM     51  C   UNL A   1      38.061  33.224  33.222  1.00  0.00     0.074 A 
ATOM     52  C   UNL A   1      42.629  31.053  37.046  1.00  0.00     0.029 A 
ATOM     53  N   UNL A   1      41.177  31.336  35.389  1.00  0.00    -0.354 N 
ATOM     54  N   UNL A   1      39.025  32.704  33.945  1.00  0.00    -0.248 NA
ATOM     55  C   UNL A   1      37.427  34.406  33.818  1.00  0.00     0.031 C 
ATOM     56  C   UNL A   1      41.823  32.156  37.349  1.00  0.00     0.029 A 
ATOM     57  C   UNL A   1      40.940  32.351  36.301  1.00  0.00     0.049 A 
ATOM     58  H   UNL A   1      40.688  31.212  34.543  1.00  0.00     0.167 HD
ATOM     59  C   UNL A   1      39.127  33.513  35.071  1.00  0.00     0.074 A 
ATOM     60  C   UNL A   1      38.151  34.572  34.916  1.00  0.00     0.031 C 
ATOM     61  C   UNL A   1      39.954  33.391  36.141  1.00  0.00     0.031 A 
BRANCH  48  62
ATOM     62  C   UNL A   1      43.783  28.546  35.812  1.00  0.00    -0.014 A 
ATOM     63  C   UNL A   1      45.140  28.858  35.611  1.00  0.00     0.010 A 
ATOM     64  C   UNL A   1      43.448  27.501  36.695  1.00  0.00     0.010 A 
ATOM     65  C   UNL A   1      46.141  28.124  36.254  1.00  0.00     0.020 A 
ATOM     66  C   UNL A   1      44.445  26.784  37.362  1.00  0.00     0.020 A 
ATOM     67  C   UNL A   1      45.787  27.091  37.128  1.00  0.00     0.054 A 
BRANCH  67  68
ATOM     68  S   UNL A   1      47.107  26.187  37.982  1.00  0.00     0.124 S 
ATOM     69  O   UNL A   1      47.568  27.174  38.954  1.00  0.00    -0.237 OA
ATOM     70  O   UNL A   1      46.397  25.040  38.541  1.00  0.00    -0.237 OA
ATOM     71  O   UNL A   1      48.057  25.871  36.918  1.00  0.00    -0.744 OA
ENDBRANCH  67  68
ENDBRANCH  48  62
BRANCH  49  72
ATOM     72  C   UNL A   1      36.441  33.529  31.209  1.00  0.00    -0.014 A 
ATOM     73  C   UNL A   1      35.281  33.890  31.918  1.00  0.00     0.010 A 
ATOM     74  C   UNL A   1      36.538  33.868  29.846  1.00  0.00     0.010 A 
ATOM     75  C   UNL A   1      34.227  34.541  31.272  1.00  0.00     0.020 A 
ATOM     76  C   UNL A   1      35.502  34.551  29.205  1.00  0.00     0.020 A 
ATOM     77  C   UNL A   1      34.344  34.868  29.918  1.00  0.00     0.054 A 
BRANCH  77  78
ATOM     78  S   UNL A   1      32.976  35.738  29.104  1.00  0.00     0.124 S 
ATOM     79  O   UNL A   1      32.420  34.696  28.248  1.00  0.00    -0.237 OA
ATOM     80  O   UNL A   1      32.143  36.142  30.234  1.00  0.00    -0.237 OA
ATOM     81  O   UNL A   1      33.639  36.837  28.405  1.00  0.00    -0.744 OA
ENDBRANCH  77  78
ENDBRANCH  49  72
BRANCH  61  82
ATOM     82  C   UNL A   1      39.850  34.449  37.210  1.00  0.00    -0.014 A 
ATOM     83  C   UNL A   1      39.016  34.281  38.330  1.00  0.00     0.010 A 
ATOM     84  C   UNL A   1      40.599  35.634  37.088  1.00  0.00     0.010 A 
ATOM     85  C   UNL A   1      38.882  35.303  39.273  1.00  0.00     0.020 A 
ATOM     86  C   UNL A   1      40.496  36.644  38.048  1.00  0.00     0.020 A 
ATOM     87  C   UNL A   1      39.617  36.482  39.120  1.00  0.00     0.054 A 
BRANCH  87  88
ATOM     88  S   UNL A   1      39.418  37.800  40.350  1.00  0.00     0.124 S 
ATOM     89  O   UNL A   1      38.174  38.431  39.921  1.00  0.00    -0.237 OA
ATOM     90  O   UNL A   1      39.345  37.057  41.607  1.00  0.00    -0.237 OA
ATOM     91  O   UNL A   1      40.620  38.614  40.184  1.00  0.00    -0.744 OA
ENDBRANCH  87  88
ENDBRANCH  61  82
ENDBRANCH  35  36
ENDBRANCH  27  30
ENDBRANCH  25  26
ENDBRANCH   1  25
TORSDOF 16
ENDMDL
MODEL 2
REMARK VINA RESULT:     -12.3      1.174      1.962
REMARK SMILES CC1(C)C(NC(=O)[C@@H]2CCC[C@@H](C(=O)NCCCCNC(=O)c3ccc(-c4c5nc(c(-c6ccc(S(=O)(=O)[O-])cc6)c6ccc([nH]6)c(-c6ccc(S(=O)(=O)[O-])cc6)c6nc(c(-c7ccc(S(=O)(=O)[O-])cc7)c7ccc4[nH]7)C=C6)C=C5)cc3)C2)C1(C)C
REMARK SMILES IDX 18 1 17 2 16 3 15 4 13 5 14 6 12 8 8 9 9 10 83 11 10 12
REMARK SMILES IDX 11 13 6 14 5 15 7 17 4 18 1 19 2 20 3 21 84 22 85 23 86 24
REMARK SMILES IDX 19 25 20 26 21 27 22 29 23 30 24 31 82 32 25 33 81 34 26 35
REMARK SMILES IDX 27 36 28 37 75 38 29 39 80 40 74 41 76 42 30 43 79 44 73 45
REMARK SMILES IDX 72 46 31 48 61 49 42 50 60 51 43 52 46 53 59 54 77 55 44 56
REMARK SMILES IDX 45 57 58 59 78 60 47 61 32 62 33 63 41 64 34 65 40 66 35 67
REMARK SMILES IDX 36 68 37 69 38 70 39 71 62 72 63 73 71 74 64 75 70 76 65 77
REMARK SMILES IDX 66 78 67 79 68 80 69 81 48 82 49 83 57 84 50 85 56 86 51 87
REMARK SMILES IDX 52 88 53 89 54 90 55 91
REMARK H PARENT 15 7 5 16 20 28 76 47 46 58
REMARK Flexibility Score: inf
ROOT
ATOM      1  C   UNL A   1      39.980  22.300  26.973  1.00  0.00     0.023 C 
ENDROOT
BRANCH   1   2
ATOM      2  C   UNL A   1      38.749  22.950  26.340  1.00  0.00     0.023 C 
BRANCH   2   3
ATOM      3  C   UNL A   1      37.724  21.970  25.779  1.00  0.00     0.116 C 
BRANCH   3   4
ATOM      4  N   UNL A   1      37.485  22.189  24.366  1.00  0.00    -0.356 N 
ATOM      5  C   UNL A   1      36.468  22.838  23.736  1.00  0.00     0.223 C 
ATOM      6  O   UNL A   1      36.496  22.900  22.506  1.00  0.00    -0.275 OA
ATOM      7  H   UNL A   1      38.166  21.807  23.767  1.00  0.00     0.163 HD
BRANCH   5   8
ATOM      8  C   UNL A   1      35.318  23.418  24.552  1.00  0.00     0.079 C 
ATOM      9  C   UNL A   1      33.844  24.498  22.722  1.00  0.00     0.079 C 
ATOM     10  C   UNL A   1      32.744  23.512  23.129  1.00  0.00     0.013 C 
ATOM     11  C   UNL A   1      34.786  24.710  23.918  1.00  0.00     0.027 C 
ATOM     12  C   UNL A   1      33.330  22.175  23.567  1.00  0.00     0.002 C 
ATOM     13  C   UNL A   1      34.242  22.351  24.773  1.00  0.00     0.013 C 
BRANCH   9  14
ATOM     14  C   UNL A   1      33.312  25.850  22.220  1.00  0.00     0.223 C 
ATOM     15  N   UNL A   1      32.684  26.689  23.106  1.00  0.00    -0.352 N 
ATOM     16  H   UNL A   1      32.239  27.479  22.722  1.00  0.00     0.163 HD
ATOM     17  O   UNL A   1      33.388  26.196  21.040  1.00  0.00    -0.275 OA
BRANCH  15  18
ATOM     18  C   UNL A   1      32.603  26.542  24.521  1.00  0.00     0.094 C 
ATOM     19  C   UNL A   1      32.652  28.175  26.528  1.00  0.00     0.014 C 
ATOM     20  C   UNL A   1      31.900  27.624  25.335  1.00  0.00    -0.007 C 
ATOM     21  C   UNL A   1      31.114  28.713  24.631  1.00  0.00     0.014 C 
ATOM     22  C   UNL A   1      31.375  26.175  25.319  1.00  0.00    -0.007 C 
ATOM     23  C   UNL A   1      31.621  25.278  26.519  1.00  0.00     0.014 C 
ATOM     24  C   UNL A   1      30.108  25.797  24.590  1.00  0.00     0.014 C 
ENDBRANCH  15  18
ENDBRANCH   9  14
ENDBRANCH   5   8
ENDBRANCH   3   4
ENDBRANCH   2   3
ENDBRANCH   1   2
BRANCH   1  25
ATOM     25  C   UNL A   1      41.157  23.237  27.230  1.00  0.00     0.116 C 
BRANCH  25  26
ATOM     26  N   UNL A   1      41.408  24.144  26.124  1.00  0.00    -0.352 N 
ATOM     27  C   UNL A   1      41.398  25.518  26.099  1.00  0.00     0.251 C 
ATOM     28  H   UNL A   1      41.616  23.711  25.265  1.00  0.00     0.163 HD
ATOM     29  O   UNL A   1      41.499  26.102  25.026  1.00  0.00    -0.269 OA
BRANCH  27  30
ATOM     30  C   UNL A   1      41.233  26.288  27.353  1.00  0.00     0.039 A 
ATOM     31  C   UNL A   1      42.197  27.243  27.679  1.00  0.00     0.014 A 
ATOM     32  C   UNL A   1      40.147  26.073  28.207  1.00  0.00     0.014 A 
ATOM     33  C   UNL A   1      42.040  28.024  28.826  1.00  0.00     0.010 A 
ATOM     34  C   UNL A   1      39.951  26.906  29.309  1.00  0.00     0.010 A 
ATOM     35  C   UNL A   1      40.896  27.889  29.631  1.00  0.00    -0.014 A 
BRANCH  35  36
ATOM     36  C   UNL A   1      40.680  28.797  30.790  1.00  0.00     0.031 A 
ATOM     37  C   UNL A   1      41.524  28.679  32.032  1.00  0.00     0.074 A 
ATOM     38  C   UNL A   1      39.699  29.720  30.728  1.00  0.00     0.049 A 
ATOM     39  N   UNL A   1      41.498  29.413  33.117  1.00  0.00    -0.248 NA
ATOM     40  C   UNL A   1      42.513  27.588  32.073  1.00  0.00     0.031 C 
ATOM     41  C   UNL A   1      38.775  29.899  29.604  1.00  0.00     0.029 A 
ATOM     42  N   UNL A   1      39.321  30.690  31.621  1.00  0.00    -0.354 N 
ATOM     43  C   UNL A   1      42.459  28.875  33.964  1.00  0.00     0.074 A 
ATOM     44  C   UNL A   1      43.011  27.718  33.294  1.00  0.00     0.031 C 
ATOM     45  C   UNL A   1      37.972  30.945  29.855  1.00  0.00     0.029 A 
ATOM     46  C   UNL A   1      38.294  31.487  31.172  1.00  0.00     0.049 A 
ATOM     47  H   UNL A   1      39.745  30.806  32.503  1.00  0.00     0.167 HD
ATOM     48  C   UNL A   1      42.865  29.317  35.180  1.00  0.00     0.031 A 
ATOM     49  C   UNL A   1      37.680  32.538  31.748  1.00  0.00     0.031 A 
ATOM     50  C   UNL A   1      42.314  30.470  35.846  1.00  0.00     0.049 A 
ATOM     51  C   UNL A   1      38.146  33.003  33.101  1.00  0.00     0.074 A 
ATOM     52  C   UNL A   1      42.689  31.023  37.057  1.00  0.00     0.029 A 
ATOM     53  N   UNL A   1      41.271  31.243  35.361  1.00  0.00    -0.354 N 
ATOM     54  N   UNL A   1      39.109  32.523  33.852  1.00  0.00    -0.248 NA
ATOM     55  C   UNL A   1      37.454  34.165  33.672  1.00  0.00     0.031 C 
ATOM     56  C   UNL A   1      41.836  32.099  37.331  1.00  0.00     0.029 A 
ATOM     57  C   UNL A   1      40.974  32.255  36.260  1.00  0.00     0.049 A 
ATOM     58  H   UNL A   1      40.809  31.096  34.504  1.00  0.00     0.167 HD
ATOM     59  C   UNL A   1      39.153  33.342  34.975  1.00  0.00     0.074 A 
ATOM     60  C   UNL A   1      38.143  34.364  34.787  1.00  0.00     0.031 C 
ATOM     61  C   UNL A   1      39.955  33.257  36.067  1.00  0.00     0.031 A 
BRANCH  48  62
ATOM     62  C   UNL A   1      43.965  28.553  35.871  1.00  0.00    -0.014 A 
ATOM     63  C   UNL A   1      43.672  27.478  36.730  1.00  0.00     0.010 A 
ATOM     64  C   UNL A   1      45.312  28.869  35.611  1.00  0.00     0.010 A 
ATOM     65  C   UNL A   1      44.701  26.753  37.339  1.00  0.00     0.020 A 
ATOM     66  C   UNL A   1      46.344  28.129  36.195  1.00  0.00     0.020 A 
ATOM     67  C   UNL A   1      46.032  27.083  37.065  1.00  0.00     0.054 A 
BRANCH  67  68
ATOM     68  S   UNL A   1      47.345  26.096  37.835  1.00  0.00     0.124 S 
ATOM     69  O   UNL A   1      46.821  25.898  39.184  1.00  0.00    -0.237 OA
ATOM     70  O   UNL A   1      47.381  24.902  36.995  1.00  0.00    -0.237 OA
ATOM     71  O   UNL A   1      48.524  26.955  37.745  1.00  0.00    -0.744 OA
ENDBRANCH  67  68
ENDBRANCH  48  62
BRANCH  49  72
ATOM     72  C   UNL A   1      36.569  33.236  31.045  1.00  0.00    -0.014 A 
ATOM     73  C   UNL A   1      36.815  33.997  29.888  1.00  0.00     0.010 A 
ATOM     74  C   UNL A   1      35.254  33.157  31.539  1.00  0.00     0.010 A 
ATOM     75  C   UNL A   1      35.778  34.694  29.261  1.00  0.00     0.020 A 
ATOM     76  C   UNL A   1      34.207  33.822  30.895  1.00  0.00     0.020 A 
ATOM     77  C   UNL A   1      34.480  34.601  29.770  1.00  0.00     0.054 A 
BRANCH  77  78
ATOM     78  S   UNL A   1      33.142  35.491  28.925  1.00  0.00     0.124 S 
ATOM     79  O   UNL A   1      32.381  36.030  30.046  1.00  0.00    -0.237 OA
ATOM     80  O   UNL A   1      33.872  36.470  28.124  1.00  0.00    -0.237 OA
ATOM     81  O   UNL A   1      32.470  34.445  28.156  1.00  0.00    -0.744 OA
ENDBRANCH  77  78
ENDBRANCH  49  72
BRANCH  61  82
ATOM     82  C   UNL A   1      39.785  34.317  37.125  1.00  0.00    -0.014 A 
ATOM     83  C   UNL A   1      40.499  35.528  37.069  1.00  0.00     0.010 A 
ATOM     84  C   UNL A   1      38.898  34.096  38.195  1.00  0.00     0.010 A 
ATOM     85  C   UNL A   1      40.380  36.468  38.096  1.00  0.00     0.020 A 
ATOM     86  C   UNL A   1      38.749  35.049  39.205  1.00  0.00     0.020 A 
ATOM     87  C   UNL A   1      39.510  36.218  39.162  1.00  0.00     0.054 A 
BRANCH  87  88
ATOM     88  S   UNL A   1      39.380  37.447  40.489  1.00  0.00     0.124 S 
ATOM     89  O   UNL A   1      39.100  36.610  41.652  1.00  0.00    -0.237 OA
ATOM     90  O   UNL A   1      40.698  38.078  40.472  1.00  0.00    -0.237 OA
ATOM     91  O   UNL A   1      38.279  38.306  40.059  1.00  0.00    -0.744 OA
ENDBRANCH  87  88
ENDBRANCH  61  82
ENDBRANCH  35  36
ENDBRANCH  27  30
ENDBRANCH  25  26
ENDBRANCH   1  25
TORSDOF 16
ENDMDL
MODEL 3
REMARK VINA RESULT:     -12.2      6.553     12.216
REMARK SMILES CC1(C)C(NC(=O)[C@@H]2CCC[C@@H](C(=O)NCCCCNC(=O)c3ccc(-c4c5nc(c(-c6ccc(S(=O)(=O)[O-])cc6)c6ccc([nH]6)c(-c6ccc(S(=O)(=O)[O-])cc6)c6nc(c(-c7ccc(S(=O)(=O)[O-])cc7)c7ccc4[nH]7)C=C6)C=C5)cc3)C2)C1(C)C
REMARK SMILES IDX 18 1 17 2 16 3 15 4 13 5 14 6 12 8 8 9 9 10 83 11 10 12
REMARK SMILES IDX 11 13 6 14 5 15 7 17 4 18 1 19 2 20 3 21 84 22 85 23 86 24
REMARK SMILES IDX 19 25 20 26 21 27 22 29 23 30 24 31 82 32 25 33 81 34 26 35
REMARK SMILES IDX 27 36 28 37 75 38 29 39 80 40 74 41 76 42 30 43 79 44 73 45
REMARK SMILES IDX 72 46 31 48 61 49 42 50 60 51 43 52 46 53 59 54 77 55 44 56
REMARK SMILES IDX 45 57 58 59 78 60 47 61 32 62 33 63 41 64 34 65 40 66 35 67
REMARK SMILES IDX 36 68 37 69 38 70 39 71 62 72 63 73 71 74 64 75 70 76 65 77
REMARK SMILES IDX 66 78 67 79 68 80 69 81 48 82 49 83 57 84 50 85 56 86 51 87
REMARK SMILES IDX 52 88 53 89 54 90 55 91
REMARK H PARENT 15 7 5 16 20 28 76 47 46 58
REMARK Flexibility Score: inf
ROOT
ATOM      1  C   UNL A   1      36.120  33.418  28.957  1.00  0.00     0.023 C 
ENDROOT
BRANCH   1   2
ATOM      2  C   UNL A   1      34.594  33.450  28.850  1.00  0.00     0.023 C 
BRANCH   2   3
ATOM      3  C   UNL A   1      34.004  32.505  27.809  1.00  0.00     0.116 C 
BRANCH   3   4
ATOM      4  N   UNL A   1      34.637  31.200  27.845  1.00  0.00    -0.356 N 
ATOM      5  C   UNL A   1      34.291  30.039  27.225  1.00  0.00     0.223 C 
ATOM      6  O   UNL A   1      35.007  29.053  27.406  1.00  0.00    -0.275 OA
ATOM      7  H   UNL A   1      35.443  31.146  28.406  1.00  0.00     0.163 HD
BRANCH   5   8
ATOM      8  C   UNL A   1      33.025  29.978  26.379  1.00  0.00     0.079 C 
ATOM      9  C   UNL A   1      33.205  27.636  25.299  1.00  0.00     0.079 C 
ATOM     10  C   UNL A   1      31.916  27.273  26.043  1.00  0.00     0.013 C 
ATOM     11  C   UNL A   1      33.251  29.160  25.102  1.00  0.00     0.027 C 
ATOM     12  C   UNL A   1      31.840  27.970  27.396  1.00  0.00     0.002 C 
ATOM     13  C   UNL A   1      31.850  29.483  27.229  1.00  0.00     0.013 C 
BRANCH   9  14
ATOM     14  C   UNL A   1      33.363  26.921  23.947  1.00  0.00     0.223 C 
ATOM     15  N   UNL A   1      34.126  25.782  23.881  1.00  0.00    -0.352 N 
ATOM     16  H   UNL A   1      34.315  25.433  22.980  1.00  0.00     0.163 HD
ATOM     17  O   UNL A   1      32.869  27.355  22.905  1.00  0.00    -0.275 OA
BRANCH  15  18
ATOM     18  C   UNL A   1      34.675  25.049  24.973  1.00  0.00     0.094 C 
ATOM     19  C   UNL A   1      33.693  23.531  26.824  1.00  0.00     0.014 C 
ATOM     20  C   UNL A   1      34.037  23.719  25.362  1.00  0.00    -0.007 C 
ATOM     21  C   UNL A   1      32.988  23.090  24.466  1.00  0.00     0.014 C 
ATOM     22  C   UNL A   1      35.502  23.789  24.885  1.00  0.00    -0.007 C 
ATOM     23  C   UNL A   1      36.624  23.674  25.901  1.00  0.00     0.014 C 
ATOM     24  C   UNL A   1      35.922  23.275  23.529  1.00  0.00     0.014 C 
ENDBRANCH  15  18
ENDBRANCH   9  14
ENDBRANCH   5   8
ENDBRANCH   3   4
ENDBRANCH   2   3
ENDBRANCH   1   2
BRANCH   1  25
ATOM     25  C   UNL A   1      36.674  33.142  30.351  1.00  0.00     0.116 C 
BRANCH  25  26
ATOM     26  N   UNL A   1      36.158  31.914  30.932  1.00  0.00    -0.352 N 
ATOM     27  C   UNL A   1      36.685  30.645  30.908  1.00  0.00     0.251 C 
ATOM     28  H   UNL A   1      35.304  32.003  31.412  1.00  0.00     0.163 HD
ATOM     29  O   UNL A   1      36.023  29.709  31.340  1.00  0.00    -0.269 OA
BRANCH  27  30
ATOM     30  C   UNL A   1      38.029  30.404  30.334  1.00  0.00     0.039 A 
ATOM     31  C   UNL A   1      39.118  30.325  31.204  1.00  0.00     0.014 A 
ATOM     32  C   UNL A   1      38.224  30.263  28.957  1.00  0.00     0.014 A 
ATOM     33  C   UNL A   1      40.390  30.043  30.699  1.00  0.00     0.010 A 
ATOM     34  C   UNL A   1      39.478  29.905  28.463  1.00  0.00     0.010 A 
ATOM     35  C   UNL A   1      40.575  29.792  29.329  1.00  0.00    -0.014 A 
BRANCH  35  36
ATOM     36  C   UNL A   1      41.910  29.386  28.811  1.00  0.00     0.031 A 
ATOM     37  C   UNL A   1      43.036  30.381  28.715  1.00  0.00     0.074 A 
ATOM     38  C   UNL A   1      42.098  28.114  28.405  1.00  0.00     0.049 A 
ATOM     39  N   UNL A   1      44.272  30.187  28.326  1.00  0.00    -0.248 NA
ATOM     40  C   UNL A   1      42.737  31.775  29.083  1.00  0.00     0.031 C 
ATOM     41  C   UNL A   1      41.070  27.068  28.396  1.00  0.00     0.029 A 
ATOM     42  N   UNL A   1      43.218  27.478  27.936  1.00  0.00    -0.354 N 
ATOM     43  C   UNL A   1      44.894  31.428  28.402  1.00  0.00     0.074 A 
ATOM     44  C   UNL A   1      43.886  32.379  28.817  1.00  0.00     0.031 C 
ATOM     45  C   UNL A   1      41.620  25.914  27.989  1.00  0.00     0.029 A 
ATOM     46  C   UNL A   1      43.026  26.142  27.671  1.00  0.00     0.049 A 
ATOM     47  H   UNL A   1      44.081  27.934  27.800  1.00  0.00     0.167 HD
ATOM     48  C   UNL A   1      46.192  31.745  28.171  1.00  0.00     0.031 A 
ATOM     49  C   UNL A   1      43.883  25.202  27.226  1.00  0.00     0.031 A 
ATOM     50  C   UNL A   1      47.194  30.796  27.758  1.00  0.00     0.049 A 
ATOM     51  C   UNL A   1      45.316  25.583  26.973  1.00  0.00     0.074 A 
ATOM     52  C   UNL A   1      48.544  31.011  27.543  1.00  0.00     0.029 A 
ATOM     53  N   UNL A   1      46.957  29.456  27.493  1.00  0.00    -0.354 N 
ATOM     54  N   UNL A   1      45.900  26.748  27.122  1.00  0.00    -0.248 NA
ATOM     55  C   UNL A   1      46.209  24.514  26.508  1.00  0.00     0.031 C 
ATOM     56  C   UNL A   1      49.113  29.813  27.095  1.00  0.00     0.029 A 
ATOM     57  C   UNL A   1      48.131  28.837  27.095  1.00  0.00     0.049 A 
ATOM     58  H   UNL A   1      46.084  29.009  27.577  1.00  0.00     0.167 HD
ATOM     59  C   UNL A   1      47.235  26.545  26.793  1.00  0.00     0.074 A 
ATOM     60  C   UNL A   1      47.377  25.140  26.469  1.00  0.00     0.031 C 
ATOM     61  C   UNL A   1      48.255  27.440  26.760  1.00  0.00     0.031 A 
BRANCH  48  62
ATOM     62  C   UNL A   1      46.607  33.181  28.366  1.00  0.00    -0.014 A 
ATOM     63  C   UNL A   1      47.137  33.623  29.592  1.00  0.00     0.010 A 
ATOM     64  C   UNL A   1      46.528  34.088  27.291  1.00  0.00     0.010 A 
ATOM     65  C   UNL A   1      47.553  34.948  29.750  1.00  0.00     0.020 A 
ATOM     66  C   UNL A   1      46.969  35.406  27.437  1.00  0.00     0.020 A 
ATOM     67  C   UNL A   1      47.467  35.832  28.670  1.00  0.00     0.054 A 
BRANCH  67  68
ATOM     68  S   UNL A   1      48.056  37.533  28.893  1.00  0.00     0.124 S 
ATOM     69  O   UNL A   1      46.829  38.228  29.276  1.00  0.00    -0.237 OA
ATOM     70  O   UNL A   1      49.052  37.390  29.951  1.00  0.00    -0.237 OA
ATOM     71  O   UNL A   1      48.590  37.891  27.581  1.00  0.00    -0.744 OA
ENDBRANCH  67  68
ENDBRANCH  48  62
BRANCH  49  72
ATOM     72  C   UNL A   1      43.417  23.804  27.009  1.00  0.00    -0.014 A 
ATOM     73  C   UNL A   1      43.110  23.341  25.717  1.00  0.00     0.010 A 
ATOM     74  C   UNL A   1      43.262  22.930  28.100  1.00  0.00     0.010 A 
ATOM     75  C   UNL A   1      42.623  22.045  25.524  1.00  0.00     0.020 A 
ATOM     76  C   UNL A   1      42.809  21.622  27.908  1.00  0.00     0.020 A 
ATOM     77  C   UNL A   1      42.476  21.193  26.622  1.00  0.00     0.054 A 
BRANCH  77  78
ATOM     78  S   UNL A   1      41.869  19.506  26.347  1.00  0.00     0.124 S 
ATOM     79  O   UNL A   1      42.540  19.140  25.105  1.00  0.00    -0.237 OA
ATOM     80  O   UNL A   1      42.327  18.807  27.545  1.00  0.00    -0.237 OA
ATOM     81  O   UNL A   1      40.420  19.676  26.251  1.00  0.00    -0.744 OA
ENDBRANCH  77  78
ENDBRANCH  49  72
BRANCH  61  82
ATOM     82  C   UNL A   1      49.616  26.912  26.385  1.00  0.00    -0.014 A 
ATOM     83  C   UNL A   1      50.078  26.954  25.057  1.00  0.00     0.010 A 
ATOM     84  C   UNL A   1      50.446  26.363  27.380  1.00  0.00     0.010 A 
ATOM     85  C   UNL A   1      51.314  26.396  24.719  1.00  0.00     0.020 A 
ATOM     86  C   UNL A   1      51.699  25.837  27.052  1.00  0.00     0.020 A 
ATOM     87  C   UNL A   1      52.113  25.834  25.719  1.00  0.00     0.054 A 
BRANCH  87  88
ATOM     88  S   UNL A   1      53.708  25.106  25.256  1.00  0.00     0.124 S 
ATOM     89  O   UNL A   1      54.584  25.597  26.315  1.00  0.00    -0.237 OA
ATOM     90  O   UNL A   1      53.427  23.672  25.287  1.00  0.00    -0.237 OA
ATOM     91  O   UNL A   1      53.966  25.655  23.927  1.00  0.00    -0.744 OA
ENDBRANCH  87  88
ENDBRANCH  61  82
ENDBRANCH  35  36
ENDBRANCH  27  30
ENDBRANCH  25  26
ENDBRANCH   1  25
TORSDOF 16
ENDMDL
