MODEL 1
REMARK VINA RESULT:      -9.9      0.000      0.000
REMARK SMILES O=C(N/N=C/c1ccccc1O)C(=O)Nc1cccc(C(=O)NCCCCNC(=O)c2ccc(-c3c4nc(c(-c5ccc(S(=O)(=O)[O-])cc5)c5ccc([nH]5)c(-c5ccc(S(=O)(=O)[O-])cc5)c5nc(c(-c6ccc(S(=O)(=O)[O-])cc6)c6ccc3[nH]6)C=C5)C=C4)cc2)c1
REMARK SMILES IDX 24 1 23 2 21 3 22 4 20 6 16 7 17 8 91 9 18 10 19 11 15 12
REMARK SMILES IDX 13 13 14 14 2 16 1 17 3 18 4 20 5 21 6 22 7 23 11 24 8 25
REMARK SMILES IDX 10 26 9 27 12 28 25 30 26 31 27 32 28 33 29 34 30 36 31 37
REMARK SMILES IDX 32 38 90 39 33 40 89 41 34 42 35 43 36 44 83 45 37 46 88 47
REMARK SMILES IDX 82 48 84 49 38 50 87 51 81 52 80 53 39 55 69 56 50 57 68 58
REMARK SMILES IDX 51 59 54 60 67 61 85 62 52 63 53 64 66 66 86 67 55 68 40 69
REMARK SMILES IDX 41 70 49 71 42 72 48 73 43 74 44 75 45 76 46 77 47 78 70 79
REMARK SMILES IDX 71 80 79 81 72 82 78 83 73 84 74 85 75 86 76 87 77 88 56 89
REMARK SMILES IDX 57 90 65 91 58 92 64 93 59 94 60 95 61 96 62 97 63 98
REMARK H PARENT 23 5 15 15 3 19 12 29 28 35 84 54 54 65
REMARK Flexibility Score: inf
ROOT
ATOM      1  C   UNL A   1      35.344  34.225  32.059  1.00  0.00     0.116 C 
ENDROOT
BRANCH   1   2
ATOM      2  N   UNL A   1      36.609  34.807  31.656  1.00  0.00    -0.352 N 
ATOM      3  C   UNL A   1      37.890  34.350  31.813  1.00  0.00     0.251 C 
ATOM      4  O   UNL A   1      38.822  34.933  31.253  1.00  0.00    -0.269 OA
ATOM      5  H   UNL A   1      36.535  35.672  31.193  1.00  0.00     0.163 HD
BRANCH   3   6
ATOM      6  C   UNL A   1      38.258  33.193  32.670  1.00  0.00     0.041 A 
ATOM      7  C   UNL A   1      39.326  31.883  35.336  1.00  0.00     0.042 A 
ATOM      8  C   UNL A   1      38.611  30.266  34.853  1.00  0.00     0.026 A 
ATOM      9  C   UNL A   1      39.232  33.316  34.221  1.00  0.00     0.040 A 
ATOM     10  C   UNL A   1      37.811  30.104  33.215  1.00  0.00     0.003 A 
ATOM     11  C   UNL A   1      37.596  31.568  32.163  1.00  0.00     0.014 A 
BRANCH   7  12
ATOM     12  N   UNL A   1      39.330  32.119  36.709  1.00  0.00    -0.318 N 
ATOM     13  C   UNL A   1      40.452  32.185  37.529  1.00  0.00     0.315 C 
ATOM     14  O   UNL A   1      40.275  32.620  38.672  1.00  0.00    -0.263 OA
ATOM     15  H   UNL A   1      38.456  32.252  37.140  1.00  0.00     0.170 HD
BRANCH  13  16
ATOM     16  C   UNL A   1      41.907  31.833  37.122  1.00  0.00     0.329 C 
ATOM     17  O   UNL A   1      42.824  32.526  37.563  1.00  0.00    -0.262 OA
ATOM     18  N   UNL A   1      42.188  30.859  36.156  1.00  0.00    -0.239 N 
ATOM     19  H   UNL A   1      42.534  31.094  35.264  1.00  0.00     0.194 HD
BRANCH  18  20
ATOM     20  N   UNL A   1      41.955  29.558  36.524  1.00  0.00    -0.180 NA
ATOM     21  C   UNL A   1      42.830  28.636  36.003  1.00  0.00     0.145 C 
BRANCH  21  22
ATOM     22  C   UNL A   1      42.750  26.647  35.244  1.00  0.00     0.036 A 
ATOM     23  C   UNL A   1      43.651  26.006  34.189  1.00  0.00     0.013 A 
ATOM     24  C   UNL A   1      41.912  25.409  35.569  1.00  0.00     0.124 A 
ATOM     25  C   UNL A   1      43.920  24.640  33.881  1.00  0.00     0.001 A 
ATOM     26  C   UNL A   1      42.204  24.026  35.317  1.00  0.00     0.047 A 
ATOM     27  C   UNL A   1      43.253  23.638  34.525  1.00  0.00     0.004 A 
BRANCH  24  28
ATOM     28  O   UNL A   1      40.566  25.414  35.950  1.00  0.00    -0.507 OA
ATOM     29  H   UNL A   1      40.142  24.612  36.181  1.00  0.00     0.293 HD
ENDBRANCH  24  28
ENDBRANCH  21  22
ENDBRANCH  18  20
ENDBRANCH  13  16
ENDBRANCH   7  12
ENDBRANCH   3   6
ENDBRANCH   1   2
BRANCH   1  30
ATOM     30  C   UNL A   1      34.443  33.911  30.867  1.00  0.00     0.023 C 
BRANCH  30  31
ATOM     31  C   UNL A   1      34.768  32.600  30.151  1.00  0.00     0.023 C 
BRANCH  31  32
ATOM     32  C   UNL A   1      34.778  32.677  28.626  1.00  0.00     0.116 C 
BRANCH  32  33
ATOM     33  N   UNL A   1      34.102  31.566  27.977  1.00  0.00    -0.352 N 
ATOM     34  C   UNL A   1      34.615  30.334  27.648  1.00  0.00     0.251 C 
ATOM     35  H   UNL A   1      33.157  31.714  27.743  1.00  0.00     0.163 HD
ATOM     36  O   UNL A   1      33.947  29.539  26.994  1.00  0.00    -0.269 OA
BRANCH  34  37
ATOM     37  C   UNL A   1      35.994  29.988  28.053  1.00  0.00     0.039 A 
ATOM     38  C   UNL A   1      36.199  29.411  29.309  1.00  0.00     0.014 A 
ATOM     39  C   UNL A   1      37.076  30.221  27.200  1.00  0.00     0.014 A 
ATOM     40  C   UNL A   1      37.485  29.024  29.689  1.00  0.00     0.010 A 
ATOM     41  C   UNL A   1      38.345  29.772  27.551  1.00  0.00     0.010 A 
ATOM     42  C   UNL A   1      38.564  29.181  28.803  1.00  0.00    -0.014 A 
BRANCH  42  43
ATOM     43  C   UNL A   1      39.932  28.762  29.191  1.00  0.00     0.031 A 
ATOM     44  C   UNL A   1      40.810  29.700  29.974  1.00  0.00     0.074 A 
ATOM     45  C   UNL A   1      40.396  27.557  28.808  1.00  0.00     0.049 A 
ATOM     46  N   UNL A   1      42.032  29.519  30.403  1.00  0.00    -0.248 NA
ATOM     47  C   UNL A   1      40.250  31.023  30.293  1.00  0.00     0.031 C 
ATOM     48  C   UNL A   1      39.660  26.580  28.001  1.00  0.00     0.029 A 
ATOM     49  N   UNL A   1      41.601  26.947  29.050  1.00  0.00    -0.354 N 
ATOM     50  C   UNL A   1      42.393  30.709  31.025  1.00  0.00     0.074 A 
ATOM     51  C   UNL A   1      41.280  31.621  30.873  1.00  0.00     0.031 C 
ATOM     52  C   UNL A   1      40.414  25.480  27.846  1.00  0.00     0.029 A 
ATOM     53  C   UNL A   1      41.693  25.681  28.521  1.00  0.00     0.049 A 
ATOM     54  H   UNL A   1      42.330  27.375  29.553  1.00  0.00     0.167 HD
ATOM     55  C   UNL A   1      43.537  31.011  31.685  1.00  0.00     0.031 A 
ATOM     56  C   UNL A   1      42.689  24.777  28.591  1.00  0.00     0.031 A 
ATOM     57  C   UNL A   1      44.632  30.095  31.855  1.00  0.00     0.049 A 
ATOM     58  C   UNL A   1      43.929  25.114  29.371  1.00  0.00     0.074 A 
ATOM     59  C   UNL A   1      45.820  30.285  32.540  1.00  0.00     0.029 A 
ATOM     60  N   UNL A   1      44.667  28.807  31.341  1.00  0.00    -0.354 N 
ATOM     61  N   UNL A   1      44.231  26.226  29.998  1.00  0.00    -0.248 NA
ATOM     62  C   UNL A   1      44.951  24.064  29.474  1.00  0.00     0.031 C 
ATOM     63  C   UNL A   1      46.583  29.118  32.422  1.00  0.00     0.029 A 
ATOM     64  C   UNL A   1      45.853  28.189  31.696  1.00  0.00     0.049 A 
ATOM     65  H   UNL A   1      43.954  28.394  30.803  1.00  0.00     0.167 HD
ATOM     66  C   UNL A   1      45.463  25.998  30.598  1.00  0.00     0.074 A 
ATOM     67  C   UNL A   1      45.846  24.640  30.265  1.00  0.00     0.031 C 
ATOM     68  C   UNL A   1      46.210  26.834  31.361  1.00  0.00     0.031 A 
BRANCH  55  69
ATOM     69  C   UNL A   1      43.646  32.391  32.274  1.00  0.00    -0.014 A 
ATOM     70  C   UNL A   1      43.172  32.663  33.570  1.00  0.00     0.010 A 
ATOM     71  C   UNL A   1      44.228  33.431  31.525  1.00  0.00     0.010 A 
ATOM     72  C   UNL A   1      43.229  33.959  34.088  1.00  0.00     0.020 A 
ATOM     73  C   UNL A   1      44.310  34.724  32.050  1.00  0.00     0.020 A 
ATOM     74  C   UNL A   1      43.789  34.984  33.320  1.00  0.00     0.054 A 
BRANCH  74  75
ATOM     75  S   UNL A   1      43.852  36.660  34.010  1.00  0.00     0.124 S 
ATOM     76  O   UNL A   1      43.256  36.463  35.330  1.00  0.00    -0.237 OA
ATOM     77  O   UNL A   1      45.282  36.959  34.007  1.00  0.00    -0.237 OA
ATOM     78  O   UNL A   1      43.053  37.450  33.077  1.00  0.00    -0.744 OA
ENDBRANCH  74  75
ENDBRANCH  55  69
BRANCH  56  79
ATOM     79  C   UNL A   1      42.526  23.444  27.952  1.00  0.00    -0.014 A 
ATOM     80  C   UNL A   1      43.223  23.135  26.771  1.00  0.00     0.010 A 
ATOM     81  C   UNL A   1      41.688  22.472  28.529  1.00  0.00     0.010 A 
ATOM     82  C   UNL A   1      43.072  21.885  26.165  1.00  0.00     0.020 A 
ATOM     83  C   UNL A   1      41.551  21.213  27.937  1.00  0.00     0.020 A 
ATOM     84  C   UNL A   1      42.235  20.932  26.752  1.00  0.00     0.054 A 
BRANCH  84  85
ATOM     85  S   UNL A   1      42.091  19.296  25.980  1.00  0.00     0.124 S 
ATOM     86  O   UNL A   1      42.631  18.423  27.017  1.00  0.00    -0.237 OA
ATOM     87  O   UNL A   1      40.654  19.181  25.741  1.00  0.00    -0.237 OA
ATOM     88  O   UNL A   1      42.906  19.416  24.773  1.00  0.00    -0.744 OA
ENDBRANCH  84  85
ENDBRANCH  56  79
BRANCH  68  89
ATOM     89  C   UNL A   1      47.492  26.288  31.922  1.00  0.00    -0.014 A 
ATOM     90  C   UNL A   1      48.727  26.534  31.298  1.00  0.00     0.010 A 
ATOM     91  C   UNL A   1      47.460  25.542  33.115  1.00  0.00     0.010 A 
ATOM     92  C   UNL A   1      49.906  26.010  31.834  1.00  0.00     0.020 A 
ATOM     93  C   UNL A   1      48.638  25.035  33.667  1.00  0.00     0.020 A 
ATOM     94  C   UNL A   1      49.852  25.258  33.013  1.00  0.00     0.054 A 
BRANCH  94  95
ATOM     95  S   UNL A   1      51.396  24.608  33.709  1.00  0.00     0.124 S 
ATOM     96  O   UNL A   1      51.525  25.386  34.938  1.00  0.00    -0.237 OA
ATOM     97  O   UNL A   1      51.098  23.189  33.891  1.00  0.00    -0.237 OA
ATOM     98  O   UNL A   1      52.389  24.901  32.677  1.00  0.00    -0.744 OA
ENDBRANCH  94  95
ENDBRANCH  68  89
ENDBRANCH  42  43
ENDBRANCH  34  37
ENDBRANCH  32  33
ENDBRANCH  31  32
ENDBRANCH  30  31
ENDBRANCH   1  30
TORSDOF 19
ENDMDL
MODEL 2
REMARK VINA RESULT:      -8.4      5.255     12.887
REMARK SMILES O=C(N/N=C/c1ccccc1O)C(=O)Nc1cccc(C(=O)NCCCCNC(=O)c2ccc(-c3c4nc(c(-c5ccc(S(=O)(=O)[O-])cc5)c5ccc([nH]5)c(-c5ccc(S(=O)(=O)[O-])cc5)c5nc(c(-c6ccc(S(=O)(=O)[O-])cc6)c6ccc3[nH]6)C=C5)C=C4)cc2)c1
REMARK SMILES IDX 24 1 23 2 21 3 22 4 20 6 16 7 17 8 91 9 18 10 19 11 15 12
REMARK SMILES IDX 13 13 14 14 2 16 1 17 3 18 4 20 5 21 6 22 7 23 11 24 8 25
REMARK SMILES IDX 10 26 9 27 12 28 25 30 26 31 27 32 28 33 29 34 30 36 31 37
REMARK SMILES IDX 32 38 90 39 33 40 89 41 34 42 35 43 36 44 83 45 37 46 88 47
REMARK SMILES IDX 82 48 84 49 38 50 87 51 81 52 80 53 39 55 69 56 50 57 68 58
REMARK SMILES IDX 51 59 54 60 67 61 85 62 52 63 53 64 66 66 86 67 55 68 40 69
REMARK SMILES IDX 41 70 49 71 42 72 48 73 43 74 44 75 45 76 46 77 47 78 70 79
REMARK SMILES IDX 71 80 79 81 72 82 78 83 73 84 74 85 75 86 76 87 77 88 56 89
REMARK SMILES IDX 57 90 65 91 58 92 64 93 59 94 60 95 61 96 62 97 63 98
REMARK H PARENT 23 5 15 15 3 19 12 29 28 35 84 54 54 65
REMARK Flexibility Score: inf
ROOT
ATOM      1  C   UNL A   1      44.524  22.825  24.008  1.00  0.00     0.116 C 
ENDROOT
BRANCH   1   2
ATOM      2  N   UNL A   1      43.478  22.015  24.604  1.00  0.00    -0.352 N 
ATOM      3  C   UNL A   1      42.676  22.253  25.687  1.00  0.00     0.251 C 
ATOM      4  O   UNL A   1      41.737  21.492  25.934  1.00  0.00    -0.269 OA
ATOM      5  H   UNL A   1      43.320  21.153  24.156  1.00  0.00     0.163 HD
BRANCH   3   6
ATOM      6  C   UNL A   1      42.885  23.372  26.643  1.00  0.00     0.041 A 
ATOM      7  C   UNL A   1      42.420  26.313  27.691  1.00  0.00     0.042 A 
ATOM      8  C   UNL A   1      43.059  25.847  29.344  1.00  0.00     0.026 A 
ATOM      9  C   UNL A   1      42.413  25.116  26.322  1.00  0.00     0.040 A 
ATOM     10  C   UNL A   1      43.711  24.157  29.600  1.00  0.00     0.003 A 
ATOM     11  C   UNL A   1      43.575  22.923  28.274  1.00  0.00     0.014 A 
BRANCH   7  12
ATOM     12  N   UNL A   1      41.425  27.288  27.716  1.00  0.00    -0.318 N 
ATOM     13  C   UNL A   1      41.324  28.381  26.863  1.00  0.00     0.315 C 
ATOM     14  O   UNL A   1      40.260  29.009  26.894  1.00  0.00    -0.263 OA
ATOM     15  H   UNL A   1      40.728  27.193  28.403  1.00  0.00     0.170 HD
BRANCH  13  16
ATOM     16  C   UNL A   1      42.387  28.841  25.830  1.00  0.00     0.329 C 
ATOM     17  O   UNL A   1      42.275  28.463  24.664  1.00  0.00    -0.262 OA
ATOM     18  N   UNL A   1      43.540  29.535  26.218  1.00  0.00    -0.239 N 
ATOM     19  H   UNL A   1      44.432  29.118  26.193  1.00  0.00     0.194 HD
BRANCH  18  20
ATOM     20  N   UNL A   1      43.354  30.829  26.634  1.00  0.00    -0.180 NA
ATOM     21  C   UNL A   1      44.035  31.779  25.911  1.00  0.00     0.145 C 
BRANCH  21  22
ATOM     22  C   UNL A   1      45.069  33.603  26.292  1.00  0.00     0.036 A 
ATOM     23  C   UNL A   1      46.431  34.041  25.755  1.00  0.00     0.013 A 
ATOM     24  C   UNL A   1      44.736  34.882  27.062  1.00  0.00     0.124 A 
ATOM     25  C   UNL A   1      47.033  35.329  25.646  1.00  0.00     0.001 A 
ATOM     26  C   UNL A   1      45.294  36.198  26.915  1.00  0.00     0.047 A 
ATOM     27  C   UNL A   1      46.406  36.433  26.151  1.00  0.00     0.004 A 
BRANCH  24  28
ATOM     28  O   UNL A   1      43.993  34.952  28.244  1.00  0.00    -0.507 OA
ATOM     29  H   UNL A   1      43.622  35.767  28.517  1.00  0.00     0.293 HD
ENDBRANCH  24  28
ENDBRANCH  21  22
ENDBRANCH  18  20
ENDBRANCH  13  16
ENDBRANCH   7  12
ENDBRANCH   3   6
ENDBRANCH   1   2
BRANCH   1  30
ATOM     30  C   UNL A   1      45.734  22.978  24.926  1.00  0.00     0.023 C 
BRANCH  30  31
ATOM     31  C   UNL A   1      46.059  24.420  25.316  1.00  0.00     0.023 C 
BRANCH  31  32
ATOM     32  C   UNL A   1      46.780  24.586  26.651  1.00  0.00     0.116 C 
BRANCH  32  33
ATOM     33  N   UNL A   1      48.228  24.636  26.536  1.00  0.00    -0.352 N 
ATOM     34  C   UNL A   1      49.061  25.707  26.760  1.00  0.00     0.251 C 
ATOM     35  H   UNL A   1      48.668  23.799  26.264  1.00  0.00     0.163 HD
ATOM     36  O   UNL A   1      50.258  25.623  26.507  1.00  0.00    -0.269 OA
BRANCH  34  37
ATOM     37  C   UNL A   1      48.497  26.975  27.270  1.00  0.00     0.039 A 
ATOM     38  C   UNL A   1      48.697  27.304  28.613  1.00  0.00     0.014 A 
ATOM     39  C   UNL A   1      47.785  27.836  26.432  1.00  0.00     0.014 A 
ATOM     40  C   UNL A   1      48.223  28.523  29.102  1.00  0.00     0.010 A 
ATOM     41  C   UNL A   1      47.374  29.080  26.902  1.00  0.00     0.010 A 
ATOM     42  C   UNL A   1      47.578  29.429  28.244  1.00  0.00    -0.014 A 
BRANCH  42  43
ATOM     43  C   UNL A   1      47.080  30.731  28.750  1.00  0.00     0.031 A 
ATOM     44  C   UNL A   1      45.737  30.811  29.422  1.00  0.00     0.074 A 
ATOM     45  C   UNL A   1      47.818  31.844  28.570  1.00  0.00     0.049 A 
ATOM     46  N   UNL A   1      45.129  31.854  29.926  1.00  0.00    -0.248 NA
ATOM     47  C   UNL A   1      44.965  29.561  29.516  1.00  0.00     0.031 C 
ATOM     48  C   UNL A   1      49.113  31.903  27.886  1.00  0.00     0.029 A 
ATOM     49  N   UNL A   1      47.585  33.140  28.953  1.00  0.00    -0.354 N 
ATOM     50  C   UNL A   1      43.900  31.390  30.379  1.00  0.00     0.074 A 
ATOM     51  C   UNL A   1      43.827  29.985  30.045  1.00  0.00     0.031 C 
ATOM     52  C   UNL A   1      49.575  33.163  27.930  1.00  0.00     0.029 A 
ATOM     53  C   UNL A   1      48.604  34.003  28.623  1.00  0.00     0.049 A 
ATOM     54  H   UNL A   1      46.766  33.426  29.419  1.00  0.00     0.167 HD
ATOM     55  C   UNL A   1      42.926  32.065  31.037  1.00  0.00     0.031 A 
ATOM     56  C   UNL A   1      48.745  35.320  28.870  1.00  0.00     0.031 A 
ATOM     57  C   UNL A   1      43.009  33.457  31.389  1.00  0.00     0.049 A 
ATOM     58  C   UNL A   1      47.675  36.037  29.645  1.00  0.00     0.074 A 
ATOM     59  C   UNL A   1      42.098  34.228  32.090  1.00  0.00     0.029 A 
ATOM     60  N   UNL A   1      44.077  34.284  31.073  1.00  0.00    -0.354 N 
ATOM     61  N   UNL A   1      46.542  35.570  30.112  1.00  0.00    -0.248 NA
ATOM     62  C   UNL A   1      47.916  37.455  29.948  1.00  0.00     0.031 C 
ATOM     63  C   UNL A   1      42.606  35.528  32.180  1.00  0.00     0.029 A 
ATOM     64  C   UNL A   1      43.850  35.556  31.569  1.00  0.00     0.049 A 
ATOM     65  H   UNL A   1      44.878  34.007  30.573  1.00  0.00     0.167 HD
ATOM     66  C   UNL A   1      45.950  36.627  30.793  1.00  0.00     0.074 A 
ATOM     67  C   UNL A   1      46.854  37.755  30.683  1.00  0.00     0.031 C 
ATOM     68  C   UNL A   1      44.767  36.662  31.454  1.00  0.00     0.031 A 
BRANCH  55  69
ATOM     69  C   UNL A   1      41.692  31.292  31.417  1.00  0.00    -0.014 A 
ATOM     70  C   UNL A   1      41.607  30.631  32.656  1.00  0.00     0.010 A 
ATOM     71  C   UNL A   1      40.603  31.224  30.530  1.00  0.00     0.010 A 
ATOM     72  C   UNL A   1      40.480  29.872  32.979  1.00  0.00     0.020 A 
ATOM     73  C   UNL A   1      39.462  30.487  30.860  1.00  0.00     0.020 A 
ATOM     74  C   UNL A   1      39.419  29.796  32.073  1.00  0.00     0.054 A 
BRANCH  74  75
ATOM     75  S   UNL A   1      37.964  28.805  32.512  1.00  0.00     0.124 S 
ATOM     76  O   UNL A   1      38.511  27.449  32.501  1.00  0.00    -0.237 OA
ATOM     77  O   UNL A   1      37.602  29.324  33.828  1.00  0.00    -0.237 OA
ATOM     78  O   UNL A   1      37.010  29.100  31.446  1.00  0.00    -0.744 OA
ENDBRANCH  74  75
ENDBRANCH  55  69
BRANCH  56  79
ATOM     79  C   UNL A   1      49.976  36.028  28.431  1.00  0.00    -0.014 A 
ATOM     80  C   UNL A   1      49.980  36.767  27.234  1.00  0.00     0.010 A 
ATOM     81  C   UNL A   1      51.145  35.982  29.212  1.00  0.00     0.010 A 
ATOM     82  C   UNL A   1      51.135  37.432  26.815  1.00  0.00     0.020 A 
ATOM     83  C   UNL A   1      52.296  36.664  28.806  1.00  0.00     0.020 A 
ATOM     84  C   UNL A   1      52.287  37.375  27.603  1.00  0.00     0.054 A 
BRANCH  84  85
ATOM     85  S   UNL A   1      53.762  38.287  27.069  1.00  0.00     0.124 S 
ATOM     86  O   UNL A   1      54.664  38.092  28.200  1.00  0.00    -0.237 OA
ATOM     87  O   UNL A   1      54.135  37.598  25.836  1.00  0.00    -0.237 OA
ATOM     88  O   UNL A   1      53.271  39.651  26.886  1.00  0.00    -0.744 OA
ENDBRANCH  84  85
ENDBRANCH  56  79
BRANCH  68  89
ATOM     89  C   UNL A   1      44.406  37.946  32.147  1.00  0.00    -0.014 A 
ATOM     90  C   UNL A   1      44.704  38.152  33.505  1.00  0.00     0.010 A 
ATOM     91  C   UNL A   1      43.788  38.974  31.413  1.00  0.00     0.010 A 
ATOM     92  C   UNL A   1      44.353  39.351  34.129  1.00  0.00     0.020 A 
ATOM     93  C   UNL A   1      43.456  40.183  32.028  1.00  0.00     0.020 A 
ATOM     94  C   UNL A   1      43.725  40.357  33.387  1.00  0.00     0.054 A 
BRANCH  94  95
ATOM     95  S   UNL A   1      43.301  41.918  34.208  1.00  0.00     0.124 S 
ATOM     96  O   UNL A   1      41.851  41.964  34.040  1.00  0.00    -0.237 OA
ATOM     97  O   UNL A   1      43.769  41.704  35.575  1.00  0.00    -0.237 OA
ATOM     98  O   UNL A   1      44.049  42.920  33.451  1.00  0.00    -0.744 OA
ENDBRANCH  94  95
ENDBRANCH  68  89
ENDBRANCH  42  43
ENDBRANCH  34  37
ENDBRANCH  32  33
ENDBRANCH  31  32
ENDBRANCH  30  31
ENDBRANCH   1  30
TORSDOF 19
ENDMDL
MODEL 3
REMARK VINA RESULT:      -8.4      4.127     12.226
REMARK SMILES O=C(N/N=C/c1ccccc1O)C(=O)Nc1cccc(C(=O)NCCCCNC(=O)c2ccc(-c3c4nc(c(-c5ccc(S(=O)(=O)[O-])cc5)c5ccc([nH]5)c(-c5ccc(S(=O)(=O)[O-])cc5)c5nc(c(-c6ccc(S(=O)(=O)[O-])cc6)c6ccc3[nH]6)C=C5)C=C4)cc2)c1
REMARK SMILES IDX 24 1 23 2 21 3 22 4 20 6 16 7 17 8 91 9 18 10 19 11 15 12
REMARK SMILES IDX 13 13 14 14 2 16 1 17 3 18 4 20 5 21 6 22 7 23 11 24 8 25
REMARK SMILES IDX 10 26 9 27 12 28 25 30 26 31 27 32 28 33 29 34 30 36 31 37
REMARK SMILES IDX 32 38 90 39 33 40 89 41 34 42 35 43 36 44 83 45 37 46 88 47
REMARK SMILES IDX 82 48 84 49 38 50 87 51 81 52 80 53 39 55 69 56 50 57 68 58
REMARK SMILES IDX 51 59 54 60 67 61 85 62 52 63 53 64 66 66 86 67 55 68 40 69
REMARK SMILES IDX 41 70 49 71 42 72 48 73 43 74 44 75 45 76 46 77 47 78 70 79
REMARK SMILES IDX 71 80 79 81 72 82 78 83 73 84 74 85 75 86 76 87 77 88 56 89
REMARK SMILES IDX 57 90 65 91 58 92 64 93 59 94 60 95 61 96 62 97 63 98
REMARK H PARENT 23 5 15 15 3 19 12 29 28 35 84 54 54 65
REMARK Flexibility Score: inf
ROOT
ATOM      1  C   UNL A   1      46.631  24.657  27.773  1.00  0.00     0.116 C 
ENDROOT
BRANCH   1   2
ATOM      2  N   UNL A   1      47.265  24.953  29.044  1.00  0.00    -0.352 N 
ATOM      3  C   UNL A   1      48.133  25.951  29.395  1.00  0.00     0.251 C 
ATOM      4  O   UNL A   1      48.434  26.114  30.580  1.00  0.00    -0.269 OA
ATOM      5  H   UNL A   1      47.032  24.335  29.774  1.00  0.00     0.163 HD
BRANCH   3   6
ATOM      6  C   UNL A   1      48.795  26.855  28.418  1.00  0.00     0.041 A 
ATOM      7  C   UNL A   1      50.333  27.463  25.729  1.00  0.00     0.042 A 
ATOM      8  C   UNL A   1      49.908  29.240  25.863  1.00  0.00     0.026 A 
ATOM      9  C   UNL A   1      49.861  26.289  27.036  1.00  0.00     0.040 A 
ATOM     10  C   UNL A   1      49.011  29.829  27.346  1.00  0.00     0.003 A 
ATOM     11  C   UNL A   1      48.421  28.635  28.581  1.00  0.00     0.014 A 
BRANCH   7  12
ATOM     12  N   UNL A   1      50.414  26.991  24.421  1.00  0.00    -0.318 N 
ATOM     13  C   UNL A   1      49.344  26.705  23.581  1.00  0.00     0.315 C 
ATOM     14  O   UNL A   1      49.613  26.509  22.391  1.00  0.00    -0.263 OA
ATOM     15  H   UNL A   1      51.317  26.845  24.057  1.00  0.00     0.170 HD
BRANCH  13  16
ATOM     16  C   UNL A   1      47.845  26.679  23.981  1.00  0.00     0.329 C 
ATOM     17  O   UNL A   1      47.153  27.666  23.730  1.00  0.00    -0.262 OA
ATOM     18  N   UNL A   1      47.305  25.642  24.752  1.00  0.00    -0.239 N 
ATOM     19  H   UNL A   1      47.031  25.777  25.688  1.00  0.00     0.194 HD
BRANCH  18  20
ATOM     20  N   UNL A   1      47.179  24.428  24.126  1.00  0.00    -0.180 NA
ATOM     21  C   UNL A   1      46.021  23.743  24.404  1.00  0.00     0.145 C 
BRANCH  21  22
ATOM     22  C   UNL A   1      45.428  21.722  24.726  1.00  0.00     0.036 A 
ATOM     23  C   UNL A   1      44.223  21.211  25.516  1.00  0.00     0.013 A 
ATOM     24  C   UNL A   1      45.939  20.365  24.239  1.00  0.00     0.124 A 
ATOM     25  C   UNL A   1      43.544  19.957  25.495  1.00  0.00     0.001 A 
ATOM     26  C   UNL A   1      45.242  19.111  24.157  1.00  0.00     0.047 A 
ATOM     27  C   UNL A   1      44.011  18.927  24.729  1.00  0.00     0.004 A 
BRANCH  24  28
ATOM     28  O   UNL A   1      47.278  20.031  24.019  1.00  0.00    -0.507 OA
ATOM     29  H   UNL A   1      47.842  20.628  23.570  1.00  0.00     0.293 HD
ENDBRANCH  24  28
ENDBRANCH  21  22
ENDBRANCH  18  20
ENDBRANCH  13  16
ENDBRANCH   7  12
ENDBRANCH   3   6
ENDBRANCH   1   2
BRANCH   1  30
ATOM     30  C   UNL A   1      45.112  24.797  27.837  1.00  0.00     0.023 C 
BRANCH  30  31
ATOM     31  C   UNL A   1      44.356  23.475  27.978  1.00  0.00     0.023 C 
BRANCH  31  32
ATOM     32  C   UNL A   1      42.841  23.572  27.816  1.00  0.00     0.116 C 
BRANCH  32  33
ATOM     33  N   UNL A   1      42.421  24.214  26.581  1.00  0.00    -0.352 N 
ATOM     34  C   UNL A   1      41.795  25.429  26.425  1.00  0.00     0.251 C 
ATOM     35  H   UNL A   1      42.609  23.718  25.752  1.00  0.00     0.163 HD
ATOM     36  O   UNL A   1      41.399  25.783  25.320  1.00  0.00    -0.269 OA
BRANCH  34  37
ATOM     37  C   UNL A   1      41.567  26.288  27.607  1.00  0.00     0.039 A 
ATOM     38  C   UNL A   1      42.445  27.348  27.843  1.00  0.00     0.014 A 
ATOM     39  C   UNL A   1      40.493  26.056  28.469  1.00  0.00     0.014 A 
ATOM     40  C   UNL A   1      42.215  28.206  28.920  1.00  0.00     0.010 A 
ATOM     41  C   UNL A   1      40.225  26.952  29.500  1.00  0.00     0.010 A 
ATOM     42  C   UNL A   1      41.091  28.028  29.743  1.00  0.00    -0.014 A 
BRANCH  42  43
ATOM     43  C   UNL A   1      40.830  28.940  30.882  1.00  0.00     0.031 A 
ATOM     44  C   UNL A   1      41.665  28.839  32.129  1.00  0.00     0.074 A 
ATOM     45  C   UNL A   1      39.822  29.829  30.809  1.00  0.00     0.049 A 
ATOM     46  N   UNL A   1      41.590  29.542  33.230  1.00  0.00    -0.248 NA
ATOM     47  C   UNL A   1      42.702  27.794  32.153  1.00  0.00     0.031 C 
ATOM     48  C   UNL A   1      38.908  29.986  29.674  1.00  0.00     0.029 A 
ATOM     49  N   UNL A   1      39.397  30.774  31.709  1.00  0.00    -0.354 N 
ATOM     50  C   UNL A   1      42.554  29.015  34.080  1.00  0.00     0.074 A 
ATOM     51  C   UNL A   1      43.165  27.901  33.389  1.00  0.00     0.031 C 
ATOM     52  C   UNL A   1      38.056  30.992  29.931  1.00  0.00     0.029 A 
ATOM     53  C   UNL A   1      38.347  31.535  31.255  1.00  0.00     0.049 A 
ATOM     54  H   UNL A   1      39.807  30.894  32.596  1.00  0.00     0.167 HD
ATOM     55  C   UNL A   1      42.917  29.432  35.318  1.00  0.00     0.031 A 
ATOM     56  C   UNL A   1      37.703  32.567  31.833  1.00  0.00     0.031 A 
ATOM     57  C   UNL A   1      42.324  30.554  35.994  1.00  0.00     0.049 A 
ATOM     58  C   UNL A   1      38.156  33.045  33.184  1.00  0.00     0.074 A 
ATOM     59  C   UNL A   1      42.645  31.086  37.230  1.00  0.00     0.029 A 
ATOM     60  N   UNL A   1      41.291  31.324  35.480  1.00  0.00    -0.354 N 
ATOM     61  N   UNL A   1      39.105  32.567  33.953  1.00  0.00    -0.248 NA
ATOM     62  C   UNL A   1      37.466  34.220  33.735  1.00  0.00     0.031 C 
ATOM     63  C   UNL A   1      41.790  32.168  37.474  1.00  0.00     0.029 A 
ATOM     64  C   UNL A   1      40.965  32.330  36.373  1.00  0.00     0.049 A 
ATOM     65  H   UNL A   1      40.856  31.178  34.610  1.00  0.00     0.167 HD
ATOM     66  C   UNL A   1      39.149  33.402  35.063  1.00  0.00     0.074 A 
ATOM     67  C   UNL A   1      38.137  34.419  34.862  1.00  0.00     0.031 C 
ATOM     68  C   UNL A   1      39.959  33.337  36.149  1.00  0.00     0.031 A 
BRANCH  55  69
ATOM     69  C   UNL A   1      44.013  28.665  36.007  1.00  0.00    -0.014 A 
ATOM     70  C   UNL A   1      45.363  29.027  35.840  1.00  0.00     0.010 A 
ATOM     71  C   UNL A   1      43.695  27.570  36.830  1.00  0.00     0.010 A 
ATOM     72  C   UNL A   1      46.377  28.277  36.440  1.00  0.00     0.020 A 
ATOM     73  C   UNL A   1      44.705  26.832  37.454  1.00  0.00     0.020 A 
ATOM     74  C   UNL A   1      46.041  27.178  37.235  1.00  0.00     0.054 A 
BRANCH  74  75
ATOM     75  S   UNL A   1      47.373  26.216  38.005  1.00  0.00     0.124 S 
ATOM     76  O   UNL A   1      48.403  26.248  36.969  1.00  0.00    -0.237 OA
ATOM     77  O   UNL A   1      47.673  26.985  39.211  1.00  0.00    -0.237 OA
ATOM     78  O   UNL A   1      46.765  24.909  38.241  1.00  0.00    -0.744 OA
ENDBRANCH  74  75
ENDBRANCH  55  69
BRANCH  56  79
ATOM     79  C   UNL A   1      36.602  33.255  31.108  1.00  0.00    -0.014 A 
ATOM     80  C   UNL A   1      35.282  33.172  31.582  1.00  0.00     0.010 A 
ATOM     81  C   UNL A   1      36.870  34.008  29.951  1.00  0.00     0.010 A 
ATOM     82  C   UNL A   1      34.243  33.814  30.903  1.00  0.00     0.020 A 
ATOM     83  C   UNL A   1      35.836  34.670  29.281  1.00  0.00     0.020 A 
ATOM     84  C   UNL A   1      34.527  34.558  29.755  1.00  0.00     0.054 A 
BRANCH  84  85
ATOM     85  S   UNL A   1      33.173  35.427  28.915  1.00  0.00     0.124 S 
ATOM     86  O   UNL A   1      32.376  35.905  30.041  1.00  0.00    -0.237 OA
ATOM     87  O   UNL A   1      33.878  36.458  28.156  1.00  0.00    -0.237 OA
ATOM     88  O   UNL A   1      32.551  34.384  28.102  1.00  0.00    -0.744 OA
ENDBRANCH  84  85
ENDBRANCH  56  79
BRANCH  68  89
ATOM     89  C   UNL A   1      39.810  34.421  37.179  1.00  0.00    -0.014 A 
ATOM     90  C   UNL A   1      38.944  34.272  38.277  1.00  0.00     0.010 A 
ATOM     91  C   UNL A   1      40.578  35.594  37.061  1.00  0.00     0.010 A 
ATOM     92  C   UNL A   1      38.818  35.296  39.219  1.00  0.00     0.020 A 
ATOM     93  C   UNL A   1      40.470  36.611  38.012  1.00  0.00     0.020 A 
ATOM     94  C   UNL A   1      39.578  36.462  39.076  1.00  0.00     0.054 A 
BRANCH  94  95
ATOM     95  S   UNL A   1      39.419  37.770  40.323  1.00  0.00     0.124 S 
ATOM     96  O   UNL A   1      38.164  38.409  39.935  1.00  0.00    -0.237 OA
ATOM     97  O   UNL A   1      39.382  37.022  41.577  1.00  0.00    -0.237 OA
ATOM     98  O   UNL A   1      40.619  38.581  40.125  1.00  0.00    -0.744 OA
ENDBRANCH  94  95
ENDBRANCH  68  89
ENDBRANCH  42  43
ENDBRANCH  34  37
ENDBRANCH  32  33
ENDBRANCH  31  32
ENDBRANCH  30  31
ENDBRANCH   1  30
TORSDOF 19
ENDMDL
