MODEL 1
REMARK VINA RESULT:     -11.0      0.000      0.000
REMARK SMILES Cn1cncc1COc1c(F)cc(C(=O)NCCCCNC(=O)c2ccc(-c3c4nc(c(-c5ccc(S(=O)(=O)[O-])cc5)c5ccc([nH]5)c(-c5ccc(S(=O)(=O)[O-])cc5)c5nc(c(-c6ccc(S(=O)(=O)[O-])cc6)c6ccc3[nH]6)C=C5)C=C4)cc2)cc1F
REMARK SMILES IDX 18 1 17 2 16 3 14 4 15 5 13 7 9 8 10 9 85 10 11 11 12 12
REMARK SMILES IDX 84 13 86 14 8 15 7 16 6 17 1 18 2 19 3 20 4 21 5 22 19 23
REMARK SMILES IDX 20 24 21 25 22 26 23 28 24 29 25 30 83 31 26 32 82 33 27 34
REMARK SMILES IDX 28 35 29 36 76 37 30 38 81 39 75 40 77 41 31 42 80 43 74 44
REMARK SMILES IDX 73 45 32 47 62 48 43 49 61 50 44 51 47 52 60 53 78 54 45 55
REMARK SMILES IDX 46 56 59 58 79 59 48 60 33 61 34 62 42 63 35 64 41 65 36 66
REMARK SMILES IDX 37 67 38 68 39 69 40 70 63 71 64 72 72 73 65 74 71 75 66 76
REMARK SMILES IDX 67 77 68 78 69 79 70 80 49 81 50 82 58 83 51 84 57 85 52 86
REMARK SMILES IDX 53 87 54 88 55 89 56 90
REMARK H PARENT 16 6 21 27 77 46 47 57
REMARK Flexibility Score: inf
ROOT
ATOM      1  C   UNL A   1      31.535  26.792  26.801  1.00  0.00     0.023 C 
ENDROOT
BRANCH   1   2
ATOM      2  C   UNL A   1      30.755  25.923  25.808  1.00  0.00     0.116 C 
BRANCH   2   3
ATOM      3  N   UNL A   1      29.923  24.941  26.484  1.00  0.00    -0.352 N 
ATOM      4  C   UNL A   1      30.162  23.640  26.850  1.00  0.00     0.251 C 
ATOM      5  O   UNL A   1      29.334  23.068  27.558  1.00  0.00    -0.269 OA
ATOM      6  H   UNL A   1      29.026  25.270  26.724  1.00  0.00     0.163 HD
BRANCH   4   7
ATOM      7  C   UNL A   1      31.386  22.890  26.447  1.00  0.00     0.045 A 
ATOM      8  C   UNL A   1      33.726  21.446  25.811  1.00  0.00     0.191 A 
ATOM      9  C   UNL A   1      32.661  21.511  24.924  1.00  0.00     0.168 A 
ATOM     10  C   UNL A   1      33.583  22.047  27.057  1.00  0.00     0.168 A 
ATOM     11  F   UNL A   1      32.692  20.865  23.754  1.00  0.00    -0.203 F 
ATOM     12  C   UNL A   1      31.511  22.226  25.231  1.00  0.00     0.057 A 
ATOM     13  C   UNL A   1      32.427  22.765  27.381  1.00  0.00     0.057 A 
ATOM     14  F   UNL A   1      34.559  21.942  27.970  1.00  0.00    -0.203 F 
BRANCH   8  15
ATOM     15  O   UNL A   1      34.839  20.709  25.508  1.00  0.00    -0.481 OA
BRANCH  15  16
ATOM     16  C   UNL A   1      35.671  21.355  24.528  1.00  0.00     0.285 C 
BRANCH  16  17
ATOM     17  C   UNL A   1      36.751  22.112  25.218  1.00  0.00     0.075 A 
ATOM     18  C   UNL A   1      35.636  24.378  25.280  1.00  0.00     0.151 C 
ATOM     19  N   UNL A   1      36.723  23.458  25.503  1.00  0.00    -0.335 N 
ATOM     20  C   UNL A   1      37.928  23.795  26.053  1.00  0.00     0.199 A 
ATOM     21  N   UNL A   1      38.701  22.745  26.200  1.00  0.00    -0.245 NA
ATOM     22  C   UNL A   1      37.986  21.698  25.680  1.00  0.00     0.138 A 
ENDBRANCH  16  17
ENDBRANCH  15  16
ENDBRANCH   8  15
ENDBRANCH   4   7
ENDBRANCH   2   3
ENDBRANCH   1   2
BRANCH   1  23
ATOM     23  C   UNL A   1      32.541  27.759  26.180  1.00  0.00     0.023 C 
BRANCH  23  24
ATOM     24  C   UNL A   1      33.612  28.278  27.128  1.00  0.00     0.116 C 
BRANCH  24  25
ATOM     25  N   UNL A   1      33.449  29.679  27.483  1.00  0.00    -0.352 N 
ATOM     26  C   UNL A   1      34.376  30.530  28.042  1.00  0.00     0.251 C 
ATOM     27  H   UNL A   1      32.563  30.069  27.300  1.00  0.00     0.163 HD
ATOM     28  O   UNL A   1      34.055  31.665  28.360  1.00  0.00    -0.269 OA
BRANCH  26  29
ATOM     29  C   UNL A   1      35.749  30.037  28.294  1.00  0.00     0.039 A 
ATOM     30  C   UNL A   1      36.687  30.110  27.263  1.00  0.00     0.014 A 
ATOM     31  C   UNL A   1      36.117  29.538  29.547  1.00  0.00     0.014 A 
ATOM     32  C   UNL A   1      38.009  29.737  27.506  1.00  0.00     0.010 A 
ATOM     33  C   UNL A   1      37.451  29.242  29.810  1.00  0.00     0.010 A 
ATOM     34  C   UNL A   1      38.409  29.328  28.790  1.00  0.00    -0.014 A 
BRANCH  34  35
ATOM     35  C   UNL A   1      39.823  28.978  29.073  1.00  0.00     0.031 A 
ATOM     36  C   UNL A   1      40.739  29.983  29.717  1.00  0.00     0.074 A 
ATOM     37  C   UNL A   1      40.295  27.768  28.710  1.00  0.00     0.049 A 
ATOM     38  N   UNL A   1      42.000  29.859  30.045  1.00  0.00    -0.248 NA
ATOM     39  C   UNL A   1      40.173  31.312  30.006  1.00  0.00     0.031 C 
ATOM     40  C   UNL A   1      39.524  26.727  28.025  1.00  0.00     0.029 A 
ATOM     41  N   UNL A   1      41.536  27.207  28.872  1.00  0.00    -0.354 N 
ATOM     42  C   UNL A   1      42.379  31.091  30.566  1.00  0.00     0.074 A 
ATOM     43  C   UNL A   1      41.233  31.966  30.456  1.00  0.00     0.031 C 
ATOM     44  C   UNL A   1      40.299  25.642  27.860  1.00  0.00     0.029 A 
ATOM     45  C   UNL A   1      41.626  25.919  28.398  1.00  0.00     0.049 A 
ATOM     46  H   UNL A   1      42.292  27.682  29.288  1.00  0.00     0.167 HD
ATOM     47  C   UNL A   1      43.565  31.454  31.110  1.00  0.00     0.031 A 
ATOM     48  C   UNL A   1      42.660  25.055  28.405  1.00  0.00     0.031 A 
ATOM     49  C   UNL A   1      44.698  30.577  31.231  1.00  0.00     0.049 A 
ATOM     50  C   UNL A   1      43.960  25.474  29.034  1.00  0.00     0.074 A 
ATOM     51  C   UNL A   1      45.925  30.830  31.819  1.00  0.00     0.029 A 
ATOM     52  N   UNL A   1      44.743  29.274  30.756  1.00  0.00    -0.354 N 
ATOM     53  N   UNL A   1      44.274  26.621  29.590  1.00  0.00    -0.248 NA
ATOM     54  C   UNL A   1      45.035  24.475  29.058  1.00  0.00     0.031 C 
ATOM     55  C   UNL A   1      46.728  29.695  31.661  1.00  0.00     0.029 A 
ATOM     56  C   UNL A   1      45.982  28.717  31.022  1.00  0.00     0.049 A 
ATOM     57  H   UNL A   1      44.004  28.814  30.298  1.00  0.00     0.167 HD
ATOM     58  C   UNL A   1      45.578  26.470  30.051  1.00  0.00     0.074 A 
ATOM     59  C   UNL A   1      45.982  25.117  29.726  1.00  0.00     0.031 C 
ATOM     60  C   UNL A   1      46.370  27.371  30.684  1.00  0.00     0.031 A 
BRANCH  47  61
ATOM     61  C   UNL A   1      43.690  32.867  31.617  1.00  0.00    -0.014 A 
ATOM     62  C   UNL A   1      43.394  33.186  32.956  1.00  0.00     0.010 A 
ATOM     63  C   UNL A   1      44.132  33.886  30.754  1.00  0.00     0.010 A 
ATOM     64  C   UNL A   1      43.493  34.504  33.410  1.00  0.00     0.020 A 
ATOM     65  C   UNL A   1      44.261  35.200  31.212  1.00  0.00     0.020 A 
ATOM     66  C   UNL A   1      43.922  35.504  32.533  1.00  0.00     0.054 A 
BRANCH  66  67
ATOM     67  S   UNL A   1      44.056  37.203  33.152  1.00  0.00     0.124 S 
ATOM     68  O   UNL A   1      42.850  37.322  33.969  1.00  0.00    -0.237 OA
ATOM     69  O   UNL A   1      45.315  37.177  33.892  1.00  0.00    -0.237 OA
ATOM     70  O   UNL A   1      44.067  38.015  31.938  1.00  0.00    -0.744 OA
ENDBRANCH  66  67
ENDBRANCH  47  61
BRANCH  48  71
ATOM     71  C   UNL A   1      42.495  23.693  27.828  1.00  0.00    -0.014 A 
ATOM     72  C   UNL A   1      42.888  23.426  26.504  1.00  0.00     0.010 A 
ATOM     73  C   UNL A   1      41.951  22.652  28.602  1.00  0.00     0.010 A 
ATOM     74  C   UNL A   1      42.722  22.150  25.959  1.00  0.00     0.020 A 
ATOM     75  C   UNL A   1      41.808  21.368  28.070  1.00  0.00     0.020 A 
ATOM     76  C   UNL A   1      42.183  21.129  26.746  1.00  0.00     0.054 A 
BRANCH  76  77
ATOM     77  S   UNL A   1      42.019  19.468  26.033  1.00  0.00     0.124 S 
ATOM     78  O   UNL A   1      42.549  18.625  27.100  1.00  0.00    -0.237 OA
ATOM     79  O   UNL A   1      40.581  19.364  25.800  1.00  0.00    -0.237 OA
ATOM     80  O   UNL A   1      42.834  19.535  24.822  1.00  0.00    -0.744 OA
ENDBRANCH  76  77
ENDBRANCH  48  71
BRANCH  60  81
ATOM     81  C   UNL A   1      47.743  26.907  31.093  1.00  0.00    -0.014 A 
ATOM     82  C   UNL A   1      47.965  26.290  32.337  1.00  0.00     0.010 A 
ATOM     83  C   UNL A   1      48.823  27.072  30.207  1.00  0.00     0.010 A 
ATOM     84  C   UNL A   1      49.252  25.893  32.709  1.00  0.00     0.020 A 
ATOM     85  C   UNL A   1      50.107  26.650  30.563  1.00  0.00     0.020 A 
ATOM     86  C   UNL A   1      50.316  26.082  31.821  1.00  0.00     0.054 A 
BRANCH  86  87
ATOM     87  S   UNL A   1      51.976  25.549  32.319  1.00  0.00     0.124 S 
ATOM     88  O   UNL A   1      52.191  26.327  33.537  1.00  0.00    -0.237 OA
ATOM     89  O   UNL A   1      51.808  24.111  32.514  1.00  0.00    -0.237 OA
ATOM     90  O   UNL A   1      52.815  25.924  31.183  1.00  0.00    -0.744 OA
ENDBRANCH  86  87
ENDBRANCH  60  81
ENDBRANCH  34  35
ENDBRANCH  26  29
ENDBRANCH  24  25
ENDBRANCH  23  24
ENDBRANCH   1  23
TORSDOF 17
ENDMDL
MODEL 2
REMARK VINA RESULT:     -10.8      1.779      2.751
REMARK SMILES Cn1cncc1COc1c(F)cc(C(=O)NCCCCNC(=O)c2ccc(-c3c4nc(c(-c5ccc(S(=O)(=O)[O-])cc5)c5ccc([nH]5)c(-c5ccc(S(=O)(=O)[O-])cc5)c5nc(c(-c6ccc(S(=O)(=O)[O-])cc6)c6ccc3[nH]6)C=C5)C=C4)cc2)cc1F
REMARK SMILES IDX 18 1 17 2 16 3 14 4 15 5 13 7 9 8 10 9 85 10 11 11 12 12
REMARK SMILES IDX 84 13 86 14 8 15 7 16 6 17 1 18 2 19 3 20 4 21 5 22 19 23
REMARK SMILES IDX 20 24 21 25 22 26 23 28 24 29 25 30 83 31 26 32 82 33 27 34
REMARK SMILES IDX 28 35 29 36 76 37 30 38 81 39 75 40 77 41 31 42 80 43 74 44
REMARK SMILES IDX 73 45 32 47 62 48 43 49 61 50 44 51 47 52 60 53 78 54 45 55
REMARK SMILES IDX 46 56 59 58 79 59 48 60 33 61 34 62 42 63 35 64 41 65 36 66
REMARK SMILES IDX 37 67 38 68 39 69 40 70 63 71 64 72 72 73 65 74 71 75 66 76
REMARK SMILES IDX 67 77 68 78 69 79 70 80 49 81 50 82 58 83 51 84 57 85 52 86
REMARK SMILES IDX 53 87 54 88 55 89 56 90
REMARK H PARENT 16 6 21 27 77 46 47 57
REMARK Flexibility Score: inf
ROOT
ATOM      1  C   UNL A   1      33.279  29.214  24.631  1.00  0.00     0.023 C 
ENDROOT
BRANCH   1   2
ATOM      2  C   UNL A   1      33.373  28.979  23.120  1.00  0.00     0.116 C 
BRANCH   2   3
ATOM      3  N   UNL A   1      32.089  29.158  22.462  1.00  0.00    -0.352 N 
ATOM      4  C   UNL A   1      30.940  28.407  22.484  1.00  0.00     0.251 C 
ATOM      5  O   UNL A   1      29.929  28.866  21.954  1.00  0.00    -0.269 OA
ATOM      6  H   UNL A   1      32.033  29.965  21.901  1.00  0.00     0.163 HD
BRANCH   4   7
ATOM      7  C   UNL A   1      30.851  27.069  23.135  1.00  0.00     0.045 A 
ATOM      8  C   UNL A   1      30.795  24.504  24.312  1.00  0.00     0.191 A 
ATOM      9  C   UNL A   1      30.206  25.593  24.938  1.00  0.00     0.168 A 
ATOM     10  C   UNL A   1      31.483  24.722  23.122  1.00  0.00     0.168 A 
ATOM     11  F   UNL A   1      29.622  25.472  26.135  1.00  0.00    -0.203 F 
ATOM     12  C   UNL A   1      30.225  26.855  24.359  1.00  0.00     0.057 A 
ATOM     13  C   UNL A   1      31.515  25.990  22.532  1.00  0.00     0.057 A 
ATOM     14  F   UNL A   1      32.129  23.711  22.525  1.00  0.00    -0.203 F 
BRANCH   8  15
ATOM     15  O   UNL A   1      30.795  23.273  24.910  1.00  0.00    -0.481 OA
BRANCH  15  16
ATOM     16  C   UNL A   1      31.951  23.071  25.743  1.00  0.00     0.285 C 
BRANCH  16  17
ATOM     17  C   UNL A   1      32.662  21.836  25.309  1.00  0.00     0.075 A 
ATOM     18  C   UNL A   1      34.942  22.367  26.256  1.00  0.00     0.151 C 
ATOM     19  N   UNL A   1      33.996  21.571  25.517  1.00  0.00    -0.335 N 
ATOM     20  C   UNL A   1      34.289  20.390  24.895  1.00  0.00     0.199 A 
ATOM     21  N   UNL A   1      33.221  19.849  24.359  1.00  0.00    -0.245 NA
ATOM     22  C   UNL A   1      32.208  20.738  24.602  1.00  0.00     0.138 A 
ENDBRANCH  16  17
ENDBRANCH  15  16
ENDBRANCH   8  15
ENDBRANCH   4   7
ENDBRANCH   2   3
ENDBRANCH   1   2
BRANCH   1  23
ATOM     23  C   UNL A   1      33.615  28.010  25.507  1.00  0.00     0.023 C 
BRANCH  23  24
ATOM     24  C   UNL A   1      33.594  28.271  27.006  1.00  0.00     0.116 C 
BRANCH  24  25
ATOM     25  N   UNL A   1      33.417  29.673  27.353  1.00  0.00    -0.352 N 
ATOM     26  C   UNL A   1      34.323  30.527  27.939  1.00  0.00     0.251 C 
ATOM     27  H   UNL A   1      32.536  30.059  27.142  1.00  0.00     0.163 HD
ATOM     28  O   UNL A   1      33.990  31.662  28.245  1.00  0.00    -0.269 OA
BRANCH  26  29
ATOM     29  C   UNL A   1      35.689  30.039  28.234  1.00  0.00     0.039 A 
ATOM     30  C   UNL A   1      36.650  30.084  27.222  1.00  0.00     0.014 A 
ATOM     31  C   UNL A   1      36.028  29.571  29.507  1.00  0.00     0.014 A 
ATOM     32  C   UNL A   1      37.966  29.714  27.504  1.00  0.00     0.010 A 
ATOM     33  C   UNL A   1      37.355  29.281  29.807  1.00  0.00     0.010 A 
ATOM     34  C   UNL A   1      38.336  29.339  28.808  1.00  0.00    -0.014 A 
BRANCH  34  35
ATOM     35  C   UNL A   1      39.743  28.993  29.131  1.00  0.00     0.031 A 
ATOM     36  C   UNL A   1      40.631  29.997  29.815  1.00  0.00     0.074 A 
ATOM     37  C   UNL A   1      40.233  27.790  28.770  1.00  0.00     0.049 A 
ATOM     38  N   UNL A   1      41.882  29.876  30.181  1.00  0.00    -0.248 NA
ATOM     39  C   UNL A   1      40.048  31.318  30.100  1.00  0.00     0.031 C 
ATOM     40  C   UNL A   1      39.491  26.753  28.049  1.00  0.00     0.029 A 
ATOM     41  N   UNL A   1      41.472  27.235  28.964  1.00  0.00    -0.354 N 
ATOM     42  C   UNL A   1      42.237  31.104  30.727  1.00  0.00     0.074 A 
ATOM     43  C   UNL A   1      41.090  31.975  30.591  1.00  0.00     0.031 C 
ATOM     44  C   UNL A   1      40.277  25.675  27.896  1.00  0.00     0.029 A 
ATOM     45  C   UNL A   1      41.585  25.954  28.479  1.00  0.00     0.049 A 
ATOM     46  H   UNL A   1      42.212  27.710  29.409  1.00  0.00     0.167 HD
ATOM     47  C   UNL A   1      43.403  31.468  31.312  1.00  0.00     0.031 A 
ATOM     48  C   UNL A   1      42.623  25.095  28.509  1.00  0.00     0.031 A 
ATOM     49  C   UNL A   1      44.537  30.597  31.459  1.00  0.00     0.049 A 
ATOM     50  C   UNL A   1      43.900  25.514  29.184  1.00  0.00     0.074 A 
ATOM     51  C   UNL A   1      45.743  30.851  32.088  1.00  0.00     0.029 A 
ATOM     52  N   UNL A   1      44.606  29.300  30.971  1.00  0.00    -0.354 N 
ATOM     53  N   UNL A   1      44.190  26.657  29.762  1.00  0.00    -0.248 NA
ATOM     54  C   UNL A   1      44.981  24.522  29.230  1.00  0.00     0.031 C 
ATOM     55  C   UNL A   1      46.558  29.722  31.943  1.00  0.00     0.029 A 
ATOM     56  C   UNL A   1      45.839  28.746  31.270  1.00  0.00     0.049 A 
ATOM     57  H   UNL A   1      43.884  28.840  30.485  1.00  0.00     0.167 HD
ATOM     58  C   UNL A   1      45.480  26.509  30.261  1.00  0.00     0.074 A 
ATOM     59  C   UNL A   1      45.902  25.162  29.935  1.00  0.00     0.031 C 
ATOM     60  C   UNL A   1      46.246  27.407  30.929  1.00  0.00     0.031 A 
BRANCH  47  61
ATOM     61  C   UNL A   1      43.503  32.877  31.838  1.00  0.00    -0.014 A 
ATOM     62  C   UNL A   1      43.193  33.173  33.180  1.00  0.00     0.010 A 
ATOM     63  C   UNL A   1      43.937  33.913  30.992  1.00  0.00     0.010 A 
ATOM     64  C   UNL A   1      43.269  34.486  33.651  1.00  0.00     0.020 A 
ATOM     65  C   UNL A   1      44.042  35.223  31.468  1.00  0.00     0.020 A 
ATOM     66  C   UNL A   1      43.689  35.504  32.790  1.00  0.00     0.054 A 
BRANCH  66  67
ATOM     67  S   UNL A   1      43.793  37.197  33.432  1.00  0.00     0.124 S 
ATOM     68  O   UNL A   1      42.567  37.295  34.222  1.00  0.00    -0.237 OA
ATOM     69  O   UNL A   1      45.035  37.173  34.202  1.00  0.00    -0.237 OA
ATOM     70  O   UNL A   1      43.825  38.024  32.229  1.00  0.00    -0.744 OA
ENDBRANCH  66  67
ENDBRANCH  47  61
BRANCH  48  71
ATOM     71  C   UNL A   1      42.485  23.739  27.912  1.00  0.00    -0.014 A 
ATOM     72  C   UNL A   1      42.029  22.659  28.689  1.00  0.00     0.010 A 
ATOM     73  C   UNL A   1      42.800  23.522  26.558  1.00  0.00     0.010 A 
ATOM     74  C   UNL A   1      41.912  21.383  28.131  1.00  0.00     0.020 A 
ATOM     75  C   UNL A   1      42.657  22.253  25.988  1.00  0.00     0.020 A 
ATOM     76  C   UNL A   1      42.227  21.189  26.783  1.00  0.00     0.054 A 
BRANCH  76  77
ATOM     77  S   UNL A   1      42.022  19.534  26.066  1.00  0.00     0.124 S 
ATOM     78  O   UNL A   1      40.579  19.472  25.852  1.00  0.00    -0.237 OA
ATOM     79  O   UNL A   1      42.839  19.609  24.858  1.00  0.00    -0.237 OA
ATOM     80  O   UNL A   1      42.541  18.647  27.104  1.00  0.00    -0.744 OA
ENDBRANCH  76  77
ENDBRANCH  48  71
BRANCH  60  81
ATOM     81  C   UNL A   1      47.608  26.947  31.376  1.00  0.00    -0.014 A 
ATOM     82  C   UNL A   1      47.803  26.366  32.642  1.00  0.00     0.010 A 
ATOM     83  C   UNL A   1      48.705  27.078  30.505  1.00  0.00     0.010 A 
ATOM     84  C   UNL A   1      49.082  25.971  33.048  1.00  0.00     0.020 A 
ATOM     85  C   UNL A   1      49.979  26.658  30.896  1.00  0.00     0.020 A 
ATOM     86  C   UNL A   1      50.162  26.127  32.174  1.00  0.00     0.054 A 
BRANCH  86  87
ATOM     87  S   UNL A   1      51.809  25.598  32.717  1.00  0.00     0.124 S 
ATOM     88  O   UNL A   1      52.643  26.719  32.291  1.00  0.00    -0.237 OA
ATOM     89  O   UNL A   1      51.641  25.454  34.161  1.00  0.00    -0.237 OA
ATOM     90  O   UNL A   1      52.027  24.348  31.993  1.00  0.00    -0.744 OA
ENDBRANCH  86  87
ENDBRANCH  60  81
ENDBRANCH  34  35
ENDBRANCH  26  29
ENDBRANCH  24  25
ENDBRANCH  23  24
ENDBRANCH   1  23
TORSDOF 17
ENDMDL
MODEL 3
REMARK VINA RESULT:     -10.3      2.666      9.249
REMARK SMILES Cn1cncc1COc1c(F)cc(C(=O)NCCCCNC(=O)c2ccc(-c3c4nc(c(-c5ccc(S(=O)(=O)[O-])cc5)c5ccc([nH]5)c(-c5ccc(S(=O)(=O)[O-])cc5)c5nc(c(-c6ccc(S(=O)(=O)[O-])cc6)c6ccc3[nH]6)C=C5)C=C4)cc2)cc1F
REMARK SMILES IDX 18 1 17 2 16 3 14 4 15 5 13 7 9 8 10 9 85 10 11 11 12 12
REMARK SMILES IDX 84 13 86 14 8 15 7 16 6 17 1 18 2 19 3 20 4 21 5 22 19 23
REMARK SMILES IDX 20 24 21 25 22 26 23 28 24 29 25 30 83 31 26 32 82 33 27 34
REMARK SMILES IDX 28 35 29 36 76 37 30 38 81 39 75 40 77 41 31 42 80 43 74 44
REMARK SMILES IDX 73 45 32 47 62 48 43 49 61 50 44 51 47 52 60 53 78 54 45 55
REMARK SMILES IDX 46 56 59 58 79 59 48 60 33 61 34 62 42 63 35 64 41 65 36 66
REMARK SMILES IDX 37 67 38 68 39 69 40 70 63 71 64 72 72 73 65 74 71 75 66 76
REMARK SMILES IDX 67 77 68 78 69 79 70 80 49 81 50 82 58 83 51 84 57 85 52 86
REMARK SMILES IDX 53 87 54 88 55 89 56 90
REMARK H PARENT 16 6 21 27 77 46 47 57
REMARK Flexibility Score: inf
ROOT
ATOM      1  C   UNL A   1      35.525  21.663  26.018  1.00  0.00     0.023 C 
ENDROOT
BRANCH   1   2
ATOM      2  C   UNL A   1      35.453  20.508  25.015  1.00  0.00     0.116 C 
BRANCH   2   3
ATOM      3  N   UNL A   1      34.267  19.690  25.213  1.00  0.00    -0.352 N 
ATOM      4  C   UNL A   1      32.942  19.924  24.942  1.00  0.00     0.251 C 
ATOM      5  O   UNL A   1      32.146  18.994  25.065  1.00  0.00    -0.269 OA
ATOM      6  H   UNL A   1      34.448  18.809  25.614  1.00  0.00     0.163 HD
BRANCH   4   7
ATOM      7  C   UNL A   1      32.422  21.244  24.485  1.00  0.00     0.045 A 
ATOM      8  C   UNL A   1      31.427  23.779  23.746  1.00  0.00     0.191 A 
ATOM      9  C   UNL A   1      32.297  23.082  22.920  1.00  0.00     0.168 A 
ATOM     10  C   UNL A   1      31.114  23.231  24.986  1.00  0.00     0.168 A 
ATOM     11  F   UNL A   1      32.722  23.602  21.763  1.00  0.00    -0.203 F 
ATOM     12  C   UNL A   1      32.784  21.832  23.278  1.00  0.00     0.057 A 
ATOM     13  C   UNL A   1      31.603  21.975  25.360  1.00  0.00     0.057 A 
ATOM     14  F   UNL A   1      30.337  23.908  25.843  1.00  0.00    -0.203 F 
BRANCH   8  15
ATOM     15  O   UNL A   1      30.982  25.025  23.394  1.00  0.00    -0.481 OA
BRANCH  15  16
ATOM     16  C   UNL A   1      31.901  26.062  23.780  1.00  0.00     0.285 C 
BRANCH  16  17
ATOM     17  C   UNL A   1      31.238  27.388  23.635  1.00  0.00     0.075 A 
ATOM     18  C   UNL A   1      32.494  28.631  25.440  1.00  0.00     0.151 C 
ATOM     19  N   UNL A   1      31.494  28.495  24.411  1.00  0.00    -0.335 N 
ATOM     20  C   UNL A   1      30.625  29.480  24.034  1.00  0.00     0.199 A 
ATOM     21  N   UNL A   1      29.874  29.101  23.028  1.00  0.00    -0.245 NA
ATOM     22  C   UNL A   1      30.239  27.805  22.776  1.00  0.00     0.138 A 
ENDBRANCH  16  17
ENDBRANCH  15  16
ENDBRANCH   8  15
ENDBRANCH   4   7
ENDBRANCH   2   3
ENDBRANCH   1   2
BRANCH   1  23
ATOM     23  C   UNL A   1      35.575  23.062  25.409  1.00  0.00     0.023 C 
BRANCH  23  24
ATOM     24  C   UNL A   1      36.964  23.677  25.308  1.00  0.00     0.116 C 
BRANCH  24  25
ATOM     25  N   UNL A   1      38.042  22.717  25.485  1.00  0.00    -0.352 N 
ATOM     26  C   UNL A   1      39.251  22.900  26.118  1.00  0.00     0.251 C 
ATOM     27  H   UNL A   1      37.888  21.823  25.101  1.00  0.00     0.163 HD
ATOM     28  O   UNL A   1      40.091  22.013  26.107  1.00  0.00    -0.269 OA
BRANCH  26  29
ATOM     29  C   UNL A   1      39.535  24.198  26.771  1.00  0.00     0.039 A 
ATOM     30  C   UNL A   1      39.083  24.405  28.076  1.00  0.00     0.014 A 
ATOM     31  C   UNL A   1      40.270  25.189  26.115  1.00  0.00     0.014 A 
ATOM     32  C   UNL A   1      39.418  25.584  28.742  1.00  0.00     0.010 A 
ATOM     33  C   UNL A   1      40.670  26.328  26.808  1.00  0.00     0.010 A 
ATOM     34  C   UNL A   1      40.240  26.542  28.125  1.00  0.00    -0.014 A 
BRANCH  34  35
ATOM     35  C   UNL A   1      40.644  27.776  28.843  1.00  0.00     0.031 A 
ATOM     36  C   UNL A   1      42.011  27.876  29.466  1.00  0.00     0.074 A 
ATOM     37  C   UNL A   1      39.766  28.791  28.971  1.00  0.00     0.049 A 
ATOM     38  N   UNL A   1      42.544  28.872  30.127  1.00  0.00    -0.248 NA
ATOM     39  C   UNL A   1      42.882  26.695  29.356  1.00  0.00     0.031 C 
ATOM     40  C   UNL A   1      38.391  28.792  28.464  1.00  0.00     0.029 A 
ATOM     41  N   UNL A   1      39.901  30.020  29.564  1.00  0.00    -0.354 N 
ATOM     42  C   UNL A   1      43.804  28.434  30.521  1.00  0.00     0.074 A 
ATOM     43  C   UNL A   1      43.932  27.064  30.076  1.00  0.00     0.031 C 
ATOM     44  C   UNL A   1      37.824  29.979  28.735  1.00  0.00     0.029 A 
ATOM     45  C   UNL A   1      38.780  30.810  29.458  1.00  0.00     0.049 A 
ATOM     46  H   UNL A   1      40.722  30.310  30.023  1.00  0.00     0.167 HD
ATOM     47  C   UNL A   1      44.776  29.118  31.170  1.00  0.00     0.031 A 
ATOM     48  C   UNL A   1      38.551  32.066  29.889  1.00  0.00     0.031 A 
ATOM     49  C   UNL A   1      44.651  30.484  31.599  1.00  0.00     0.049 A 
ATOM     50  C   UNL A   1      39.653  32.812  30.589  1.00  0.00     0.074 A 
ATOM     51  C   UNL A   1      45.598  31.285  32.212  1.00  0.00     0.029 A 
ATOM     52  N   UNL A   1      43.507  31.256  31.457  1.00  0.00    -0.354 N 
ATOM     53  N   UNL A   1      40.865  32.404  30.885  1.00  0.00    -0.248 NA
ATOM     54  C   UNL A   1      39.364  34.194  30.991  1.00  0.00     0.031 C 
ATOM     55  C   UNL A   1      45.012  32.527  32.481  1.00  0.00     0.029 A 
ATOM     56  C   UNL A   1      43.717  32.517  31.986  1.00  0.00     0.049 A 
ATOM     57  H   UNL A   1      42.668  30.951  31.040  1.00  0.00     0.167 HD
ATOM     58  C   UNL A   1      41.491  33.491  31.488  1.00  0.00     0.074 A 
ATOM     59  C   UNL A   1      40.530  34.575  31.493  1.00  0.00     0.031 C 
ATOM     60  C   UNL A   1      42.746  33.582  31.991  1.00  0.00     0.031 A 
BRANCH  47  61
ATOM     61  C   UNL A   1      46.063  28.388  31.454  1.00  0.00    -0.014 A 
ATOM     62  C   UNL A   1      46.301  27.801  32.712  1.00  0.00     0.010 A 
ATOM     63  C   UNL A   1      47.036  28.262  30.446  1.00  0.00     0.010 A 
ATOM     64  C   UNL A   1      47.508  27.145  32.971  1.00  0.00     0.020 A 
ATOM     65  C   UNL A   1      48.231  27.581  30.692  1.00  0.00     0.020 A 
ATOM     66  C   UNL A   1      48.467  27.043  31.959  1.00  0.00     0.054 A 
BRANCH  66  67
ATOM     67  S   UNL A   1      50.017  26.173  32.318  1.00  0.00     0.124 S 
ATOM     68  O   UNL A   1      50.734  27.157  33.126  1.00  0.00    -0.237 OA
ATOM     69  O   UNL A   1      49.560  24.984  33.034  1.00  0.00    -0.237 OA
ATOM     70  O   UNL A   1      50.587  25.920  30.997  1.00  0.00    -0.744 OA
ENDBRANCH  66  67
ENDBRANCH  47  61
BRANCH  48  71
ATOM     71  C   UNL A   1      37.233  32.710  29.637  1.00  0.00    -0.014 A 
ATOM     72  C   UNL A   1      36.262  32.773  30.653  1.00  0.00     0.010 A 
ATOM     73  C   UNL A   1      36.944  33.274  28.381  1.00  0.00     0.010 A 
ATOM     74  C   UNL A   1      35.021  33.367  30.412  1.00  0.00     0.020 A 
ATOM     75  C   UNL A   1      35.714  33.894  28.144  1.00  0.00     0.020 A 
ATOM     76  C   UNL A   1      34.755  33.924  29.158  1.00  0.00     0.054 A 
BRANCH  76  77
ATOM     77  S   UNL A   1      33.154  34.733  28.881  1.00  0.00     0.124 S 
ATOM     78  O   UNL A   1      32.578  34.733  30.222  1.00  0.00    -0.237 OA
ATOM     79  O   UNL A   1      33.546  36.040  28.359  1.00  0.00    -0.237 OA
ATOM     80  O   UNL A   1      32.493  33.858  27.915  1.00  0.00    -0.744 OA
ENDBRANCH  76  77
ENDBRANCH  48  71
BRANCH  60  81
ATOM     81  C   UNL A   1      43.159  34.912  32.564  1.00  0.00    -0.014 A 
ATOM     82  C   UNL A   1      43.854  35.857  31.788  1.00  0.00     0.010 A 
ATOM     83  C   UNL A   1      42.825  35.228  33.894  1.00  0.00     0.010 A 
ATOM     84  C   UNL A   1      44.252  37.074  32.348  1.00  0.00     0.020 A 
ATOM     85  C   UNL A   1      43.197  36.456  34.449  1.00  0.00     0.020 A 
ATOM     86  C   UNL A   1      43.926  37.362  33.677  1.00  0.00     0.054 A 
BRANCH  86  87
ATOM     87  S   UNL A   1      44.444  38.952  34.379  1.00  0.00     0.124 S 
ATOM     88  O   UNL A   1      45.680  39.218  33.647  1.00  0.00    -0.237 OA
ATOM     89  O   UNL A   1      43.321  39.828  34.055  1.00  0.00    -0.237 OA
ATOM     90  O   UNL A   1      44.611  38.663  35.801  1.00  0.00    -0.744 OA
ENDBRANCH  86  87
ENDBRANCH  60  81
ENDBRANCH  34  35
ENDBRANCH  26  29
ENDBRANCH  24  25
ENDBRANCH  23  24
ENDBRANCH   1  23
TORSDOF 17
ENDMDL
