MODEL 1
REMARK VINA RESULT:      -8.7      0.000      0.000
REMARK SMILES COc1ccc([C@H](C)[N@H+]2CC[C@H](C(=O)NCCCCNC(=O)c3ccc(-c4c5nc(c(-c6ccc(S(=O)(=O)[O-])cc6)c6ccc([nH]6)c(-c6ccc(S(=O)(=O)[O-])cc6)c6nc(c(-c7ccc(S(=O)(=O)[O-])cc7)c7ccc4[nH]7)C=C6)C=C5)cc3)[C@@H]2C)cc1
REMARK SMILES IDX 17 1 16 2 15 3 13 4 14 5 12 7 9 8 10 9 83 10 11 12 84 13
REMARK SMILES IDX 7 14 8 15 6 16 3 17 4 18 86 19 5 20 85 21 2 22 1 23 18 24
REMARK SMILES IDX 19 25 20 26 21 27 22 29 23 30 24 31 82 32 25 33 81 34 26 35
REMARK SMILES IDX 27 36 28 37 75 38 29 39 80 40 74 41 76 42 30 43 79 44 73 45
REMARK SMILES IDX 72 46 31 48 61 49 42 50 60 51 43 52 46 53 59 54 77 55 44 56
REMARK SMILES IDX 45 57 58 59 78 60 47 61 32 62 33 63 41 64 34 65 40 66 35 67
REMARK SMILES IDX 36 68 37 69 38 70 39 71 62 72 63 73 71 74 64 75 70 76 65 77
REMARK SMILES IDX 66 78 67 79 68 80 69 81 48 82 49 83 57 84 50 85 56 86 51 87
REMARK SMILES IDX 52 88 53 89 54 90 55 91
REMARK H PARENT 15 6 9 11 20 28 76 47 46 58
REMARK Flexibility Score: inf
ROOT
ATOM      1  C   UNL A   1      36.963  33.420  28.634  1.00  0.00     0.023 C 
ENDROOT
BRANCH   1   2
ATOM      2  C   UNL A   1      37.986  33.975  29.625  1.00  0.00     0.116 C 
BRANCH   2   3
ATOM      3  N   UNL A   1      37.363  34.573  30.787  1.00  0.00    -0.356 N 
ATOM      4  C   UNL A   1      37.667  34.518  32.106  1.00  0.00     0.229 C 
ATOM      5  O   UNL A   1      36.997  35.245  32.851  1.00  0.00    -0.275 OA
ATOM      6  H   UNL A   1      36.570  35.120  30.581  1.00  0.00     0.163 HD
BRANCH   4   7
ATOM      7  C   UNL A   1      38.762  33.648  32.725  1.00  0.00     0.142 C 
ATOM      8  N   UNL A   1      38.701  32.582  34.883  1.00  0.00    -0.326 N 
ATOM      9  C   UNL A   1      39.453  33.829  35.034  1.00  0.00     0.264 C 
ATOM     10  C   UNL A   1      38.373  32.365  33.464  1.00  0.00     0.194 C 
ATOM     11  H   UNL A   1      37.812  32.681  35.372  1.00  0.00     0.348 HD
ATOM     12  C   UNL A   1      39.762  34.329  33.638  1.00  0.00     0.081 C 
ATOM     13  C   UNL A   1      36.935  31.894  33.269  1.00  0.00     0.076 C 
BRANCH   8  14
ATOM     14  C   UNL A   1      39.284  31.428  35.598  1.00  0.00     0.212 C 
ATOM     15  C   UNL A   1      38.236  30.520  36.277  1.00  0.00     0.081 C 
BRANCH  14  16
ATOM     16  C   UNL A   1      40.239  30.682  34.659  1.00  0.00     0.009 A 
ATOM     17  C   UNL A   1      41.962  29.064  33.128  1.00  0.00     0.118 A 
ATOM     18  C   UNL A   1      40.593  28.816  33.128  1.00  0.00     0.047 A 
ATOM     19  C   UNL A   1      42.471  30.153  33.832  1.00  0.00     0.047 A 
ATOM     20  C   UNL A   1      39.739  29.610  33.897  1.00  0.00     0.013 A 
ATOM     21  C   UNL A   1      41.615  30.954  34.593  1.00  0.00     0.013 A 
BRANCH  17  22
ATOM     22  O   UNL A   1      42.743  28.220  32.386  1.00  0.00    -0.497 OA
ATOM     23  C   UNL A   1      43.377  27.215  33.178  1.00  0.00     0.278 C 
ENDBRANCH  17  22
ENDBRANCH  14  16
ENDBRANCH   8  14
ENDBRANCH   4   7
ENDBRANCH   2   3
ENDBRANCH   1   2
BRANCH   1  24
ATOM     24  C   UNL A   1      35.501  33.655  28.998  1.00  0.00     0.023 C 
BRANCH  24  25
ATOM     25  C   UNL A   1      34.832  32.500  29.726  1.00  0.00     0.116 C 
BRANCH  25  26
ATOM     26  N   UNL A   1      34.057  31.627  28.857  1.00  0.00    -0.352 N 
ATOM     27  C   UNL A   1      34.475  30.499  28.186  1.00  0.00     0.251 C 
ATOM     28  H   UNL A   1      33.112  31.874  28.732  1.00  0.00     0.163 HD
ATOM     29  O   UNL A   1      33.722  29.922  27.416  1.00  0.00    -0.269 OA
BRANCH  27  30
ATOM     30  C   UNL A   1      35.864  30.025  28.378  1.00  0.00     0.039 A 
ATOM     31  C   UNL A   1      36.752  30.089  27.303  1.00  0.00     0.014 A 
ATOM     32  C   UNL A   1      36.296  29.566  29.625  1.00  0.00     0.014 A 
ATOM     33  C   UNL A   1      38.092  29.750  27.498  1.00  0.00     0.010 A 
ATOM     34  C   UNL A   1      37.646  29.319  29.840  1.00  0.00     0.010 A 
ATOM     35  C   UNL A   1      38.556  29.393  28.775  1.00  0.00    -0.014 A 
BRANCH  35  36
ATOM     36  C   UNL A   1      39.984  29.060  29.004  1.00  0.00     0.031 A 
ATOM     37  C   UNL A   1      40.908  30.088  29.601  1.00  0.00     0.074 A 
ATOM     38  C   UNL A   1      40.456  27.853  28.638  1.00  0.00     0.049 A 
ATOM     39  N   UNL A   1      42.180  29.985  29.885  1.00  0.00    -0.248 NA
ATOM     40  C   UNL A   1      40.337  31.416  29.889  1.00  0.00     0.031 C 
ATOM     41  C   UNL A   1      39.677  26.797  27.985  1.00  0.00     0.029 A 
ATOM     42  N   UNL A   1      41.707  27.307  28.767  1.00  0.00    -0.354 N 
ATOM     43  C   UNL A   1      42.563  31.233  30.364  1.00  0.00     0.074 A 
ATOM     44  C   UNL A   1      41.406  32.095  30.276  1.00  0.00     0.031 C 
ATOM     45  C   UNL A   1      40.457  25.718  27.810  1.00  0.00     0.029 A 
ATOM     46  C   UNL A   1      41.795  26.012  28.311  1.00  0.00     0.049 A 
ATOM     47  H   UNL A   1      42.472  27.796  29.150  1.00  0.00     0.167 HD
ATOM     48  C   UNL A   1      43.759  31.621  30.865  1.00  0.00     0.031 A 
ATOM     49  C   UNL A   1      42.834  25.155  28.313  1.00  0.00     0.031 A 
ATOM     50  C   UNL A   1      44.901  30.754  30.978  1.00  0.00     0.049 A 
ATOM     51  C   UNL A   1      44.142  25.594  28.912  1.00  0.00     0.074 A 
ATOM     52  C   UNL A   1      46.138  31.026  31.533  1.00  0.00     0.029 A 
ATOM     53  N   UNL A   1      44.940  29.441  30.534  1.00  0.00    -0.354 N 
ATOM     54  N   UNL A   1      44.460  26.754  29.437  1.00  0.00    -0.248 NA
ATOM     55  C   UNL A   1      45.224  24.602  28.937  1.00  0.00     0.031 C 
ATOM     56  C   UNL A   1      46.940  29.889  31.389  1.00  0.00     0.029 A 
ATOM     57  C   UNL A   1      46.185  28.894  30.788  1.00  0.00     0.049 A 
ATOM     58  H   UNL A   1      44.192  28.968  30.102  1.00  0.00     0.167 HD
ATOM     59  C   UNL A   1      45.772  26.623  29.875  1.00  0.00     0.074 A 
ATOM     60  C   UNL A   1      46.179  25.265  29.574  1.00  0.00     0.031 C 
ATOM     61  C   UNL A   1      46.572  27.542  30.472  1.00  0.00     0.031 A 
BRANCH  48  62
ATOM     62  C   UNL A   1      43.885  33.046  31.334  1.00  0.00    -0.014 A 
ATOM     63  C   UNL A   1      43.599  33.397  32.667  1.00  0.00     0.010 A 
ATOM     64  C   UNL A   1      44.312  34.044  30.440  1.00  0.00     0.010 A 
ATOM     65  C   UNL A   1      43.694  34.727  33.085  1.00  0.00     0.020 A 
ATOM     66  C   UNL A   1      44.436  35.372  30.863  1.00  0.00     0.020 A 
ATOM     67  C   UNL A   1      44.107  35.706  32.178  1.00  0.00     0.054 A 
BRANCH  67  68
ATOM     68  S   UNL A   1      44.242  37.422  32.754  1.00  0.00     0.124 S 
ATOM     69  O   UNL A   1      45.526  37.404  33.450  1.00  0.00    -0.237 OA
ATOM     70  O   UNL A   1      44.214  38.182  31.508  1.00  0.00    -0.237 OA
ATOM     71  O   UNL A   1      43.072  37.592  33.612  1.00  0.00    -0.744 OA
ENDBRANCH  67  68
ENDBRANCH  48  62
BRANCH  49  72
ATOM     72  C   UNL A   1      42.667  23.780  27.767  1.00  0.00    -0.014 A 
ATOM     73  C   UNL A   1      43.050  23.487  26.445  1.00  0.00     0.010 A 
ATOM     74  C   UNL A   1      42.130  22.755  28.566  1.00  0.00     0.010 A 
ATOM     75  C   UNL A   1      42.877  22.200  25.926  1.00  0.00     0.020 A 
ATOM     76  C   UNL A   1      41.979  21.461  28.058  1.00  0.00     0.020 A 
ATOM     77  C   UNL A   1      42.341  21.196  26.735  1.00  0.00     0.054 A 
BRANCH  77  78
ATOM     78  S   UNL A   1      42.168  19.522  26.057  1.00  0.00     0.124 S 
ATOM     79  O   UNL A   1      40.753  19.483  25.703  1.00  0.00    -0.237 OA
ATOM     80  O   UNL A   1      43.102  19.536  24.935  1.00  0.00    -0.237 OA
ATOM     81  O   UNL A   1      42.559  18.661  27.171  1.00  0.00    -0.744 OA
ENDBRANCH  77  78
ENDBRANCH  49  72
BRANCH  61  82
ATOM     82  C   UNL A   1      47.956  27.098  30.857  1.00  0.00    -0.014 A 
ATOM     83  C   UNL A   1      48.192  26.424  32.069  1.00  0.00     0.010 A 
ATOM     84  C   UNL A   1      49.031  27.335  29.981  1.00  0.00     0.010 A 
ATOM     85  C   UNL A   1      49.487  26.036  32.419  1.00  0.00     0.020 A 
ATOM     86  C   UNL A   1      50.323  26.923  30.316  1.00  0.00     0.020 A 
ATOM     87  C   UNL A   1      50.545  26.294  31.542  1.00  0.00     0.054 A 
BRANCH  87  88
ATOM     88  S   UNL A   1      52.217  25.767  32.011  1.00  0.00     0.124 S 
ATOM     89  O   UNL A   1      52.495  26.629  33.155  1.00  0.00    -0.237 OA
ATOM     90  O   UNL A   1      52.034  24.350  32.320  1.00  0.00    -0.237 OA
ATOM     91  O   UNL A   1      53.011  26.039  30.815  1.00  0.00    -0.744 OA
ENDBRANCH  87  88
ENDBRANCH  61  82
ENDBRANCH  35  36
ENDBRANCH  27  30
ENDBRANCH  25  26
ENDBRANCH  24  25
ENDBRANCH   1  24
TORSDOF 17
ENDMDL
MODEL 2
REMARK VINA RESULT:      -8.6      4.192      7.227
REMARK SMILES COc1ccc([C@H](C)[N@H+]2CC[C@H](C(=O)NCCCCNC(=O)c3ccc(-c4c5nc(c(-c6ccc(S(=O)(=O)[O-])cc6)c6ccc([nH]6)c(-c6ccc(S(=O)(=O)[O-])cc6)c6nc(c(-c7ccc(S(=O)(=O)[O-])cc7)c7ccc4[nH]7)C=C6)C=C5)cc3)[C@@H]2C)cc1
REMARK SMILES IDX 17 1 16 2 15 3 13 4 14 5 12 7 9 8 10 9 83 10 11 12 84 13
REMARK SMILES IDX 7 14 8 15 6 16 3 17 4 18 86 19 5 20 85 21 2 22 1 23 18 24
REMARK SMILES IDX 19 25 20 26 21 27 22 29 23 30 24 31 82 32 25 33 81 34 26 35
REMARK SMILES IDX 27 36 28 37 75 38 29 39 80 40 74 41 76 42 30 43 79 44 73 45
REMARK SMILES IDX 72 46 31 48 61 49 42 50 60 51 43 52 46 53 59 54 77 55 44 56
REMARK SMILES IDX 45 57 58 59 78 60 47 61 32 62 33 63 41 64 34 65 40 66 35 67
REMARK SMILES IDX 36 68 37 69 38 70 39 71 62 72 63 73 71 74 64 75 70 76 65 77
REMARK SMILES IDX 66 78 67 79 68 80 69 81 48 82 49 83 57 84 50 85 56 86 51 87
REMARK SMILES IDX 52 88 53 89 54 90 55 91
REMARK H PARENT 15 6 9 11 20 28 76 47 46 58
REMARK Flexibility Score: inf
ROOT
ATOM      1  C   UNL A   1      33.397  29.507  26.984  1.00  0.00     0.023 C 
ENDROOT
BRANCH   1   2
ATOM      2  C   UNL A   1      32.425  29.841  25.854  1.00  0.00     0.116 C 
BRANCH   2   3
ATOM      3  N   UNL A   1      33.008  29.642  24.544  1.00  0.00    -0.356 N 
ATOM      4  C   UNL A   1      32.892  28.635  23.645  1.00  0.00     0.229 C 
ATOM      5  O   UNL A   1      33.436  28.819  22.548  1.00  0.00    -0.275 OA
ATOM      6  H   UNL A   1      33.600  30.373  24.252  1.00  0.00     0.163 HD
BRANCH   4   7
ATOM      7  C   UNL A   1      32.145  27.322  23.880  1.00  0.00     0.142 C 
ATOM      8  N   UNL A   1      33.010  25.099  23.555  1.00  0.00    -0.326 N 
ATOM      9  C   UNL A   1      32.245  25.448  22.357  1.00  0.00     0.264 C 
ATOM     10  C   UNL A   1      32.866  26.160  24.566  1.00  0.00     0.194 C 
ATOM     11  H   UNL A   1      33.999  25.068  23.309  1.00  0.00     0.348 HD
ATOM     12  C   UNL A   1      31.448  26.692  22.690  1.00  0.00     0.081 C 
ATOM     13  C   UNL A   1      34.193  26.503  25.236  1.00  0.00     0.076 C 
BRANCH   8  14
ATOM     14  C   UNL A   1      32.800  23.716  24.032  1.00  0.00     0.212 C 
ATOM     15  C   UNL A   1      31.707  22.948  23.258  1.00  0.00     0.081 C 
BRANCH  14  16
ATOM     16  C   UNL A   1      34.149  22.991  24.091  1.00  0.00     0.009 A 
ATOM     17  C   UNL A   1      36.683  21.822  24.463  1.00  0.00     0.118 A 
ATOM     18  C   UNL A   1      35.626  21.471  25.298  1.00  0.00     0.047 A 
ATOM     19  C   UNL A   1      36.470  22.700  23.404  1.00  0.00     0.047 A 
ATOM     20  C   UNL A   1      34.372  22.060  25.122  1.00  0.00     0.013 A 
ATOM     21  C   UNL A   1      35.213  23.282  23.221  1.00  0.00     0.013 A 
BRANCH  17  22
ATOM     22  O   UNL A   1      37.894  21.238  24.722  1.00  0.00    -0.497 OA
ATOM     23  C   UNL A   1      38.552  21.807  25.854  1.00  0.00     0.278 C 
ENDBRANCH  17  22
ENDBRANCH  14  16
ENDBRANCH   8  14
ENDBRANCH   4   7
ENDBRANCH   2   3
ENDBRANCH   1   2
BRANCH   1  24
ATOM     24  C   UNL A   1      34.302  30.651  27.431  1.00  0.00     0.023 C 
BRANCH  24  25
ATOM     25  C   UNL A   1      35.596  30.215  28.101  1.00  0.00     0.116 C 
BRANCH  25  26
ATOM     26  N   UNL A   1      35.555  30.277  29.555  1.00  0.00    -0.352 N 
ATOM     27  C   UNL A   1      36.530  29.904  30.454  1.00  0.00     0.251 C 
ATOM     28  H   UNL A   1      34.723  30.630  29.946  1.00  0.00     0.163 HD
ATOM     29  O   UNL A   1      36.307  29.931  31.656  1.00  0.00    -0.269 OA
BRANCH  27  30
ATOM     30  C   UNL A   1      37.834  29.429  29.941  1.00  0.00     0.039 A 
ATOM     31  C   UNL A   1      38.138  29.624  28.593  1.00  0.00     0.014 A 
ATOM     32  C   UNL A   1      38.767  28.840  30.797  1.00  0.00     0.014 A 
ATOM     33  C   UNL A   1      39.406  29.281  28.118  1.00  0.00     0.010 A 
ATOM     34  C   UNL A   1      40.056  28.587  30.346  1.00  0.00     0.010 A 
ATOM     35  C   UNL A   1      40.385  28.790  28.998  1.00  0.00    -0.014 A 
BRANCH  35  36
ATOM     36  C   UNL A   1      41.747  28.452  28.515  1.00  0.00     0.031 A 
ATOM     37  C   UNL A   1      42.804  29.521  28.439  1.00  0.00     0.074 A 
ATOM     38  C   UNL A   1      42.019  27.197  28.107  1.00  0.00     0.049 A 
ATOM     39  N   UNL A   1      44.049  29.421  28.053  1.00  0.00    -0.248 NA
ATOM     40  C   UNL A   1      42.402  30.888  28.816  1.00  0.00     0.031 C 
ATOM     41  C   UNL A   1      41.059  26.089  28.066  1.00  0.00     0.029 A 
ATOM     42  N   UNL A   1      43.186  26.639  27.652  1.00  0.00    -0.354 N 
ATOM     43  C   UNL A   1      44.571  30.709  28.124  1.00  0.00     0.074 A 
ATOM     44  C   UNL A   1      43.493  31.582  28.528  1.00  0.00     0.031 C 
ATOM     45  C   UNL A   1      41.689  24.978  27.650  1.00  0.00     0.029 A 
ATOM     46  C   UNL A   1      43.084  25.297  27.371  1.00  0.00     0.049 A 
ATOM     47  H   UNL A   1      44.019  27.152  27.537  1.00  0.00     0.167 HD
ATOM     48  C   UNL A   1      45.841  31.124  27.904  1.00  0.00     0.031 A 
ATOM     49  C   UNL A   1      44.017  24.420  26.951  1.00  0.00     0.031 A 
ATOM     50  C   UNL A   1      46.918  30.248  27.529  1.00  0.00     0.049 A 
ATOM     51  C   UNL A   1      45.430  24.896  26.754  1.00  0.00     0.074 A 
ATOM     52  C   UNL A   1      48.255  30.555  27.349  1.00  0.00     0.029 A 
ATOM     53  N   UNL A   1      46.780  28.891  27.285  1.00  0.00    -0.354 N 
ATOM     54  N   UNL A   1      45.922  26.103  26.906  1.00  0.00    -0.248 NA
ATOM     55  C   UNL A   1      46.417  23.887  26.348  1.00  0.00     0.031 C 
ATOM     56  C   UNL A   1      48.919  29.388  26.957  1.00  0.00     0.029 A 
ATOM     57  C   UNL A   1      48.005  28.347  26.940  1.00  0.00     0.049 A 
ATOM     58  H   UNL A   1      45.936  28.388  27.348  1.00  0.00     0.167 HD
ATOM     59  C   UNL A   1      47.280  25.993  26.636  1.00  0.00     0.074 A 
ATOM     60  C   UNL A   1      47.534  24.599  26.334  1.00  0.00     0.031 C 
ATOM     61  C   UNL A   1      48.235  26.957  26.635  1.00  0.00     0.031 A 
BRANCH  48  62
ATOM     62  C   UNL A   1      46.128  32.592  28.074  1.00  0.00    -0.014 A 
ATOM     63  C   UNL A   1      46.014  33.482  26.989  1.00  0.00     0.010 A 
ATOM     64  C   UNL A   1      46.496  33.094  29.334  1.00  0.00     0.010 A 
ATOM     65  C   UNL A   1      46.307  34.838  27.152  1.00  0.00     0.020 A 
ATOM     66  C   UNL A   1      46.763  34.456  29.508  1.00  0.00     0.020 A 
ATOM     67  C   UNL A   1      46.684  35.316  28.410  1.00  0.00     0.054 A 
BRANCH  67  68
ATOM     68  S   UNL A   1      47.039  37.085  28.597  1.00  0.00     0.124 S 
ATOM     69  O   UNL A   1      45.789  37.582  29.168  1.00  0.00    -0.237 OA
ATOM     70  O   UNL A   1      48.186  37.089  29.500  1.00  0.00    -0.237 OA
ATOM     71  O   UNL A   1      47.320  37.528  27.234  1.00  0.00    -0.744 OA
ENDBRANCH  67  68
ENDBRANCH  48  62
BRANCH  49  72
ATOM     72  C   UNL A   1      43.653  22.993  26.730  1.00  0.00    -0.014 A 
ATOM     73  C   UNL A   1      42.937  22.281  27.709  1.00  0.00     0.010 A 
ATOM     74  C   UNL A   1      44.015  22.342  25.538  1.00  0.00     0.010 A 
ATOM     75  C   UNL A   1      42.610  20.936  27.509  1.00  0.00     0.020 A 
ATOM     76  C   UNL A   1      43.668  21.004  25.324  1.00  0.00     0.020 A 
ATOM     77  C   UNL A   1      42.979  20.306  26.319  1.00  0.00     0.054 A 
BRANCH  77  78
ATOM     78  S   UNL A   1      42.505  18.573  26.060  1.00  0.00     0.124 S 
ATOM     79  O   UNL A   1      42.806  17.979  27.358  1.00  0.00    -0.237 OA
ATOM     80  O   UNL A   1      41.088  18.679  25.725  1.00  0.00    -0.237 OA
ATOM     81  O   UNL A   1      43.366  18.145  24.960  1.00  0.00    -0.744 OA
ENDBRANCH  77  78
ENDBRANCH  49  72
BRANCH  61  82
ATOM     82  C   UNL A   1      49.641  26.529  26.321  1.00  0.00    -0.014 A 
ATOM     83  C   UNL A   1      50.468  25.968  27.311  1.00  0.00     0.010 A 
ATOM     84  C   UNL A   1      50.133  26.664  25.009  1.00  0.00     0.010 A 
ATOM     85  C   UNL A   1      51.778  25.594  27.006  1.00  0.00     0.020 A 
ATOM     86  C   UNL A   1      51.433  26.264  24.694  1.00  0.00     0.020 A 
ATOM     87  C   UNL A   1      52.254  25.750  25.700  1.00  0.00     0.054 A 
BRANCH  87  88
ATOM     88  S   UNL A   1      53.954  25.242  25.322  1.00  0.00     0.124 S 
ATOM     89  O   UNL A   1      54.297  26.133  24.218  1.00  0.00    -0.237 OA
ATOM     90  O   UNL A   1      54.655  25.499  26.579  1.00  0.00    -0.237 OA
ATOM     91  O   UNL A   1      53.821  23.831  24.968  1.00  0.00    -0.744 OA
ENDBRANCH  87  88
ENDBRANCH  61  82
ENDBRANCH  35  36
ENDBRANCH  27  30
ENDBRANCH  25  26
ENDBRANCH  24  25
ENDBRANCH   1  24
TORSDOF 17
ENDMDL
MODEL 3
REMARK VINA RESULT:      -8.2      4.584     11.508
REMARK SMILES COc1ccc([C@H](C)[N@H+]2CC[C@H](C(=O)NCCCCNC(=O)c3ccc(-c4c5nc(c(-c6ccc(S(=O)(=O)[O-])cc6)c6ccc([nH]6)c(-c6ccc(S(=O)(=O)[O-])cc6)c6nc(c(-c7ccc(S(=O)(=O)[O-])cc7)c7ccc4[nH]7)C=C6)C=C5)cc3)[C@@H]2C)cc1
REMARK SMILES IDX 17 1 16 2 15 3 13 4 14 5 12 7 9 8 10 9 83 10 11 12 84 13
REMARK SMILES IDX 7 14 8 15 6 16 3 17 4 18 86 19 5 20 85 21 2 22 1 23 18 24
REMARK SMILES IDX 19 25 20 26 21 27 22 29 23 30 24 31 82 32 25 33 81 34 26 35
REMARK SMILES IDX 27 36 28 37 75 38 29 39 80 40 74 41 76 42 30 43 79 44 73 45
REMARK SMILES IDX 72 46 31 48 61 49 42 50 60 51 43 52 46 53 59 54 77 55 44 56
REMARK SMILES IDX 45 57 58 59 78 60 47 61 32 62 33 63 41 64 34 65 40 66 35 67
REMARK SMILES IDX 36 68 37 69 38 70 39 71 62 72 63 73 71 74 64 75 70 76 65 77
REMARK SMILES IDX 66 78 67 79 68 80 69 81 48 82 49 83 57 84 50 85 56 86 51 87
REMARK SMILES IDX 52 88 53 89 54 90 55 91
REMARK H PARENT 15 6 9 11 20 28 76 47 46 58
REMARK Flexibility Score: inf
ROOT
ATOM      1  C   UNL A   1      35.074  23.804  24.660  1.00  0.00     0.023 C 
ENDROOT
BRANCH   1   2
ATOM      2  C   UNL A   1      34.085  22.872  23.960  1.00  0.00     0.116 C 
BRANCH   2   3
ATOM      3  N   UNL A   1      33.942  23.172  22.551  1.00  0.00    -0.356 N 
ATOM      4  C   UNL A   1      33.086  23.980  21.881  1.00  0.00     0.229 C 
ATOM      5  O   UNL A   1      33.299  24.112  20.668  1.00  0.00    -0.275 OA
ATOM      6  H   UNL A   1      34.586  22.702  21.973  1.00  0.00     0.163 HD
BRANCH   4   7
ATOM      7  C   UNL A   1      31.908  24.730  22.502  1.00  0.00     0.142 C 
ATOM      8  N   UNL A   1      31.890  25.879  24.618  1.00  0.00    -0.326 N 
ATOM      9  C   UNL A   1      31.305  24.554  24.835  1.00  0.00     0.264 C 
ATOM     10  C   UNL A   1      32.152  26.079  23.183  1.00  0.00     0.194 C 
ATOM     11  H   UNL A   1      32.797  25.910  25.083  1.00  0.00     0.348 HD
ATOM     12  C   UNL A   1      31.025  23.966  23.468  1.00  0.00     0.081 C 
ATOM     13  C   UNL A   1      33.514  26.717  22.928  1.00  0.00     0.076 C 
BRANCH   8  14
ATOM     14  C   UNL A   1      31.186  26.978  25.309  1.00  0.00     0.212 C 
ATOM     15  C   UNL A   1      32.118  27.903  26.121  1.00  0.00     0.081 C 
BRANCH  14  16
ATOM     16  C   UNL A   1      30.295  27.717  24.305  1.00  0.00     0.009 A 
ATOM     17  C   UNL A   1      28.590  29.276  22.693  1.00  0.00     0.118 A 
ATOM     18  C   UNL A   1      29.835  29.771  23.071  1.00  0.00     0.047 A 
ATOM     19  C   UNL A   1      28.217  27.985  23.057  1.00  0.00     0.047 A 
ATOM     20  C   UNL A   1      30.676  29.004  23.880  1.00  0.00     0.013 A 
ATOM     21  C   UNL A   1      29.062  27.212  23.858  1.00  0.00     0.013 A 
BRANCH  17  22
ATOM     22  O   UNL A   1      27.802  30.100  21.937  1.00  0.00    -0.497 OA
ATOM     23  C   UNL A   1      28.504  31.246  21.453  1.00  0.00     0.278 C 
ENDBRANCH  17  22
ENDBRANCH  14  16
ENDBRANCH   8  14
ENDBRANCH   4   7
ENDBRANCH   2   3
ENDBRANCH   1   2
BRANCH   1  24
ATOM     24  C   UNL A   1      36.524  23.332  24.674  1.00  0.00     0.023 C 
BRANCH  24  25
ATOM     25  C   UNL A   1      37.088  23.047  26.057  1.00  0.00     0.116 C 
BRANCH  25  26
ATOM     26  N   UNL A   1      38.140  22.041  26.067  1.00  0.00    -0.352 N 
ATOM     27  C   UNL A   1      39.463  22.192  26.418  1.00  0.00     0.251 C 
ATOM     28  H   UNL A   1      37.871  21.136  25.787  1.00  0.00     0.163 HD
ATOM     29  O   UNL A   1      40.248  21.265  26.284  1.00  0.00    -0.269 OA
BRANCH  27  30
ATOM     30  C   UNL A   1      39.928  23.506  26.915  1.00  0.00     0.039 A 
ATOM     31  C   UNL A   1      40.580  23.567  28.147  1.00  0.00     0.014 A 
ATOM     32  C   UNL A   1      39.762  24.660  26.146  1.00  0.00     0.014 A 
ATOM     33  C   UNL A   1      41.121  24.781  28.578  1.00  0.00     0.010 A 
ATOM     34  C   UNL A   1      40.382  25.843  26.531  1.00  0.00     0.010 A 
ATOM     35  C   UNL A   1      41.054  25.919  27.759  1.00  0.00    -0.014 A 
BRANCH  35  36
ATOM     36  C   UNL A   1      41.652  27.207  28.190  1.00  0.00     0.031 A 
ATOM     37  C   UNL A   1      43.140  27.415  28.089  1.00  0.00     0.074 A 
ATOM     38  C   UNL A   1      40.865  28.170  28.708  1.00  0.00     0.049 A 
ATOM     39  N   UNL A   1      43.847  28.468  28.406  1.00  0.00    -0.248 NA
ATOM     40  C   UNL A   1      43.943  26.281  27.599  1.00  0.00     0.031 C 
ATOM     41  C   UNL A   1      39.419  28.063  28.922  1.00  0.00     0.029 A 
ATOM     42  N   UNL A   1      41.170  29.434  29.145  1.00  0.00    -0.354 N 
ATOM     43  C   UNL A   1      45.172  28.118  28.171  1.00  0.00     0.074 A 
ATOM     44  C   UNL A   1      45.178  26.737  27.746  1.00  0.00     0.031 C 
ATOM     45  C   UNL A   1      38.959  29.227  29.410  1.00  0.00     0.029 A 
ATOM     46  C   UNL A   1      40.076  30.151  29.568  1.00  0.00     0.049 A 
ATOM     47  H   UNL A   1      42.087  29.794  29.154  1.00  0.00     0.167 HD
ATOM     48  C   UNL A   1      46.284  28.885  28.269  1.00  0.00     0.031 A 
ATOM     49  C   UNL A   1      39.983  31.418  30.018  1.00  0.00     0.031 A 
ATOM     50  C   UNL A   1      46.273  30.267  28.664  1.00  0.00     0.049 A 
ATOM     51  C   UNL A   1      41.225  32.264  30.078  1.00  0.00     0.074 A 
ATOM     52  C   UNL A   1      47.334  31.153  28.729  1.00  0.00     0.029 A 
ATOM     53  N   UNL A   1      45.141  30.965  29.055  1.00  0.00    -0.354 N 
ATOM     54  N   UNL A   1      42.459  31.938  29.772  1.00  0.00    -0.248 NA
ATOM     55  C   UNL A   1      41.058  33.653  30.523  1.00  0.00     0.031 C 
ATOM     56  C   UNL A   1      46.848  32.379  29.198  1.00  0.00     0.029 A 
ATOM     57  C   UNL A   1      45.478  32.268  29.378  1.00  0.00     0.049 A 
ATOM     58  H   UNL A   1      44.231  30.590  29.097  1.00  0.00     0.167 HD
ATOM     59  C   UNL A   1      43.212  33.090  29.968  1.00  0.00     0.074 A 
ATOM     60  C   UNL A   1      42.290  34.123  30.395  1.00  0.00     0.031 C 
ATOM     61  C   UNL A   1      44.546  33.279  29.810  1.00  0.00     0.031 A 
BRANCH  48  62
ATOM     62  C   UNL A   1      47.602  28.240  27.931  1.00  0.00    -0.014 A 
ATOM     63  C   UNL A   1      48.383  27.625  28.927  1.00  0.00     0.010 A 
ATOM     64  C   UNL A   1      48.058  28.228  26.601  1.00  0.00     0.010 A 
ATOM     65  C   UNL A   1      49.616  27.051  28.607  1.00  0.00     0.020 A 
ATOM     66  C   UNL A   1      49.278  27.630  26.272  1.00  0.00     0.020 A 
ATOM     67  C   UNL A   1      50.057  27.062  27.282  1.00  0.00     0.054 A 
BRANCH  67  68
ATOM     68  S   UNL A   1      51.653  26.291  26.891  1.00  0.00     0.124 S 
ATOM     69  O   UNL A   1      52.465  26.686  28.039  1.00  0.00    -0.237 OA
ATOM     70  O   UNL A   1      51.316  24.872  26.819  1.00  0.00    -0.237 OA
ATOM     71  O   UNL A   1      52.032  26.905  25.621  1.00  0.00    -0.744 OA
ENDBRANCH  67  68
ENDBRANCH  48  62
BRANCH  49  72
ATOM     72  C   UNL A   1      38.659  31.976  30.407  1.00  0.00    -0.014 A 
ATOM     73  C   UNL A   1      38.207  31.880  31.735  1.00  0.00     0.010 A 
ATOM     74  C   UNL A   1      37.844  32.611  29.452  1.00  0.00     0.010 A 
ATOM     75  C   UNL A   1      36.956  32.389  32.097  1.00  0.00     0.020 A 
ATOM     76  C   UNL A   1      36.603  33.142  29.815  1.00  0.00     0.020 A 
ATOM     77  C   UNL A   1      36.161  33.015  31.134  1.00  0.00     0.054 A 
BRANCH  77  78
ATOM     78  S   UNL A   1      34.561  33.709  31.635  1.00  0.00     0.124 S 
ATOM     79  O   UNL A   1      34.965  34.887  32.395  1.00  0.00    -0.237 OA
ATOM     80  O   UNL A   1      33.915  33.973  30.352  1.00  0.00    -0.237 OA
ATOM     81  O   UNL A   1      33.954  32.635  32.418  1.00  0.00    -0.744 OA
ENDBRANCH  77  78
ENDBRANCH  49  72
BRANCH  61  82
ATOM     82  C   UNL A   1      45.080  34.659  30.079  1.00  0.00    -0.014 A 
ATOM     83  C   UNL A   1      45.544  35.021  31.357  1.00  0.00     0.010 A 
ATOM     84  C   UNL A   1      45.143  35.597  29.033  1.00  0.00     0.010 A 
ATOM     85  C   UNL A   1      46.018  36.313  31.594  1.00  0.00     0.020 A 
ATOM     86  C   UNL A   1      45.643  36.881  29.260  1.00  0.00     0.020 A 
ATOM     87  C   UNL A   1      46.059  37.236  30.545  1.00  0.00     0.054 A 
BRANCH  87  88
ATOM     88  S   UNL A   1      46.694  38.904  30.872  1.00  0.00     0.124 S 
ATOM     89  O   UNL A   1      45.493  39.601  31.323  1.00  0.00    -0.237 OA
ATOM     90  O   UNL A   1      47.707  38.668  31.898  1.00  0.00    -0.237 OA
ATOM     91  O   UNL A   1      47.216  39.333  29.577  1.00  0.00    -0.744 OA
ENDBRANCH  87  88
ENDBRANCH  61  82
ENDBRANCH  35  36
ENDBRANCH  27  30
ENDBRANCH  25  26
ENDBRANCH  24  25
ENDBRANCH   1  24
TORSDOF 17
ENDMDL
