MODEL 1
REMARK VINA RESULT:     -11.0      0.000      0.000
REMARK SMILES CC1(C)CCC[C@H]1NC(=O)N[C@@H]1COC[C@@]1(C)C(=O)NCCCCNC(=O)c1ccc(-c2c3nc(c(-c4ccc(S(=O)(=O)[O-])cc4)c4ccc([nH]4)c(-c4ccc(S(=O)(=O)[O-])cc4)c4nc(c(-c5ccc(S(=O)(=O)[O-])cc5)c5ccc2[nH]5)C=C4)C=C3)cc1
REMARK SMILES IDX 23 1 22 2 21 3 20 4 18 5 19 6 16 8 12 9 13 10 14 11 15 12
REMARK SMILES IDX 17 13 11 14 8 15 9 16 10 18 7 20 1 21 2 22 3 23 4 24 5 25
REMARK SMILES IDX 6 26 24 27 25 28 26 29 27 31 28 32 29 33 87 34 30 35 86 36
REMARK SMILES IDX 31 37 32 38 33 39 80 40 34 41 85 42 79 43 81 44 35 45 84 46
REMARK SMILES IDX 78 47 77 48 36 50 66 51 47 52 65 53 48 54 51 55 64 56 82 57
REMARK SMILES IDX 49 58 50 59 63 61 83 62 52 63 37 64 38 65 46 66 39 67 45 68
REMARK SMILES IDX 40 69 41 70 42 71 43 72 44 73 67 74 68 75 76 76 69 77 75 78
REMARK SMILES IDX 70 79 71 80 72 81 73 82 74 83 53 84 54 85 62 86 55 87 61 88
REMARK SMILES IDX 56 89 57 90 58 91 59 92 60 93
REMARK H PARENT 20 7 8 17 11 19 25 30 81 49 51 60
REMARK Flexibility Score: inf
ROOT
ATOM      1  C   UNL A   1      33.327  27.693  26.861  1.00  0.00     0.023 C 
ENDROOT
BRANCH   1   2
ATOM      2  C   UNL A   1      31.806  27.676  26.941  1.00  0.00     0.023 C 
BRANCH   2   3
ATOM      3  C   UNL A   1      31.052  26.822  25.916  1.00  0.00     0.116 C 
BRANCH   3   4
ATOM      4  N   UNL A   1      31.116  27.253  24.530  1.00  0.00    -0.355 N 
ATOM      5  C   UNL A   1      31.461  26.576  23.392  1.00  0.00     0.230 C 
ATOM      6  O   UNL A   1      31.115  27.084  22.321  1.00  0.00    -0.274 OA
ATOM      7  H   UNL A   1      30.868  28.195  24.384  1.00  0.00     0.163 HD
BRANCH   5   8
ATOM      8  C   UNL A   1      32.325  25.307  23.424  1.00  0.00     0.092 C 
ATOM      9  C   UNL A   1      31.659  24.047  24.010  1.00  0.00     0.127 C 
ATOM     10  C   UNL A   1      31.970  22.901  23.051  1.00  0.00     0.186 C 
ATOM     11  O   UNL A   1      32.857  23.420  22.057  1.00  0.00    -0.378 OA
ATOM     12  C   UNL A   1      32.591  24.831  21.980  1.00  0.00     0.179 C 
ATOM     13  C   UNL A   1      33.660  25.700  24.009  1.00  0.00     0.026 C 
BRANCH   9  14
ATOM     14  N   UNL A   1      31.817  23.680  25.425  1.00  0.00    -0.332 N 
ATOM     15  N   UNL A   1      33.865  22.617  26.038  1.00  0.00    -0.335 N 
ATOM     16  C   UNL A   1      32.667  23.131  26.286  1.00  0.00     0.315 C 
ATOM     17  H   UNL A   1      34.376  22.487  26.870  1.00  0.00     0.165 HD
ATOM     18  O   UNL A   1      32.300  23.126  27.467  1.00  0.00    -0.249 OA
ATOM     19  H   UNL A   1      30.997  23.933  25.910  1.00  0.00     0.165 HD
BRANCH  15  20
ATOM     20  C   UNL A   1      34.638  22.189  24.872  1.00  0.00     0.089 C 
ATOM     21  C   UNL A   1      36.455  23.942  25.700  1.00  0.00     0.013 C 
ATOM     22  C   UNL A   1      36.141  22.660  24.907  1.00  0.00    -0.015 C 
ATOM     23  C   UNL A   1      36.709  22.822  23.473  1.00  0.00     0.013 C 
ATOM     24  C   UNL A   1      36.845  21.477  25.589  1.00  0.00     0.008 C 
ATOM     25  C   UNL A   1      36.179  20.258  24.983  1.00  0.00     0.003 C 
ATOM     26  C   UNL A   1      34.707  20.641  24.872  1.00  0.00     0.025 C 
ENDBRANCH  15  20
ENDBRANCH   9  14
ENDBRANCH   5   8
ENDBRANCH   3   4
ENDBRANCH   2   3
ENDBRANCH   1   2
BRANCH   1  27
ATOM     27  C   UNL A   1      33.924  28.937  26.237  1.00  0.00     0.116 C 
BRANCH  27  28
ATOM     28  N   UNL A   1      33.640  30.166  26.960  1.00  0.00    -0.352 N 
ATOM     29  C   UNL A   1      34.448  30.804  27.881  1.00  0.00     0.251 C 
ATOM     30  H   UNL A   1      32.773  30.593  26.771  1.00  0.00     0.163 HD
ATOM     31  O   UNL A   1      34.054  31.787  28.481  1.00  0.00    -0.269 OA
BRANCH  29  32
ATOM     32  C   UNL A   1      35.780  30.222  28.164  1.00  0.00     0.039 A 
ATOM     33  C   UNL A   1      36.790  30.360  27.214  1.00  0.00     0.014 A 
ATOM     34  C   UNL A   1      36.043  29.618  29.396  1.00  0.00     0.014 A 
ATOM     35  C   UNL A   1      38.087  29.948  27.529  1.00  0.00     0.010 A 
ATOM     36  C   UNL A   1      37.349  29.314  29.747  1.00  0.00     0.010 A 
ATOM     37  C   UNL A   1      38.382  29.456  28.812  1.00  0.00    -0.014 A 
BRANCH  37  38
ATOM     38  C   UNL A   1      39.759  29.045  29.180  1.00  0.00     0.031 A 
ATOM     39  C   UNL A   1      40.652  30.008  29.916  1.00  0.00     0.074 A 
ATOM     40  C   UNL A   1      40.217  27.832  28.812  1.00  0.00     0.049 A 
ATOM     41  N   UNL A   1      41.888  29.846  30.311  1.00  0.00    -0.248 NA
ATOM     42  C   UNL A   1      40.099  31.340  30.215  1.00  0.00     0.031 C 
ATOM     43  C   UNL A   1      39.465  26.837  28.041  1.00  0.00     0.029 A 
ATOM     44  N   UNL A   1      41.426  27.226  29.042  1.00  0.00    -0.354 N 
ATOM     45  C   UNL A   1      42.260  31.056  30.888  1.00  0.00     0.074 A 
ATOM     46  C   UNL A   1      41.147  31.964  30.727  1.00  0.00     0.031 C 
ATOM     47  C   UNL A   1      40.214  25.730  27.902  1.00  0.00     0.029 A 
ATOM     48  C   UNL A   1      41.507  25.949  28.542  1.00  0.00     0.049 A 
ATOM     49  H   UNL A   1      42.165  27.666  29.521  1.00  0.00     0.167 HD
ATOM     50  C   UNL A   1      43.411  31.375  31.524  1.00  0.00     0.031 A 
ATOM     51  C   UNL A   1      42.509  25.050  28.600  1.00  0.00     0.031 A 
ATOM     52  C   UNL A   1      44.503  30.458  31.704  1.00  0.00     0.049 A 
ATOM     53  C   UNL A   1      43.773  25.420  29.330  1.00  0.00     0.074 A 
ATOM     54  C   UNL A   1      45.687  30.655  32.390  1.00  0.00     0.029 A 
ATOM     55  N   UNL A   1      44.540  29.168  31.198  1.00  0.00    -0.354 N 
ATOM     56  N   UNL A   1      44.074  26.542  29.938  1.00  0.00    -0.248 NA
ATOM     57  C   UNL A   1      44.823  24.395  29.395  1.00  0.00     0.031 C 
ATOM     58  C   UNL A   1      46.463  29.498  32.257  1.00  0.00     0.029 A 
ATOM     59  C   UNL A   1      45.736  28.562  31.537  1.00  0.00     0.049 A 
ATOM     60  H   UNL A   1      43.821  28.745  30.674  1.00  0.00     0.167 HD
ATOM     61  C   UNL A   1      45.343  26.352  30.477  1.00  0.00     0.074 A 
ATOM     62  C   UNL A   1      45.739  24.999  30.141  1.00  0.00     0.031 C 
ATOM     63  C   UNL A   1      46.111  27.216  31.185  1.00  0.00     0.031 A 
BRANCH  50  64
ATOM     64  C   UNL A   1      43.536  32.771  32.075  1.00  0.00    -0.014 A 
ATOM     65  C   UNL A   1      43.082  33.083  33.371  1.00  0.00     0.010 A 
ATOM     66  C   UNL A   1      44.131  33.781  31.299  1.00  0.00     0.010 A 
ATOM     67  C   UNL A   1      43.179  34.387  33.862  1.00  0.00     0.020 A 
ATOM     68  C   UNL A   1      44.258  35.081  31.799  1.00  0.00     0.020 A 
ATOM     69  C   UNL A   1      43.764  35.379  33.070  1.00  0.00     0.054 A 
BRANCH  69  70
ATOM     70  S   UNL A   1      43.896  37.059  33.741  1.00  0.00     0.124 S 
ATOM     71  O   UNL A   1      42.628  37.197  34.455  1.00  0.00    -0.237 OA
ATOM     72  O   UNL A   1      45.085  36.975  34.585  1.00  0.00    -0.237 OA
ATOM     73  O   UNL A   1      44.036  37.897  32.553  1.00  0.00    -0.744 OA
ENDBRANCH  69  70
ENDBRANCH  50  64
BRANCH  51  74
ATOM     74  C   UNL A   1      42.345  23.706  27.982  1.00  0.00    -0.014 A 
ATOM     75  C   UNL A   1      42.842  23.447  26.693  1.00  0.00     0.010 A 
ATOM     76  C   UNL A   1      41.702  22.671  28.686  1.00  0.00     0.010 A 
ATOM     77  C   UNL A   1      42.682  22.186  26.110  1.00  0.00     0.020 A 
ATOM     78  C   UNL A   1      41.563  21.401  28.117  1.00  0.00     0.020 A 
ATOM     79  C   UNL A   1      42.044  21.170  26.827  1.00  0.00     0.054 A 
BRANCH  79  80
ATOM     80  S   UNL A   1      41.890  19.528  26.070  1.00  0.00     0.124 S 
ATOM     81  O   UNL A   1      40.455  19.441  25.824  1.00  0.00    -0.237 OA
ATOM     82  O   UNL A   1      42.732  19.647  24.882  1.00  0.00    -0.237 OA
ATOM     83  O   UNL A   1      42.405  18.628  27.100  1.00  0.00    -0.744 OA
ENDBRANCH  79  80
ENDBRANCH  51  74
BRANCH  63  84
ATOM     84  C   UNL A   1      47.448  26.716  31.661  1.00  0.00    -0.014 A 
ATOM     85  C   UNL A   1      48.609  26.905  30.892  1.00  0.00     0.010 A 
ATOM     86  C   UNL A   1      47.549  26.095  32.918  1.00  0.00     0.010 A 
ATOM     87  C   UNL A   1      49.844  26.447  31.356  1.00  0.00     0.020 A 
ATOM     88  C   UNL A   1      48.786  25.660  33.398  1.00  0.00     0.020 A 
ATOM     89  C   UNL A   1      49.924  25.825  32.606  1.00  0.00     0.054 A 
BRANCH  89  90
ATOM     90  S   UNL A   1      51.544  25.269  33.202  1.00  0.00     0.124 S 
ATOM     91  O   UNL A   1      52.223  26.536  33.461  1.00  0.00    -0.237 OA
ATOM     92  O   UNL A   1      51.198  24.487  34.387  1.00  0.00    -0.237 OA
ATOM     93  O   UNL A   1      52.076  24.492  32.085  1.00  0.00    -0.744 OA
ENDBRANCH  89  90
ENDBRANCH  63  84
ENDBRANCH  37  38
ENDBRANCH  29  32
ENDBRANCH  27  28
ENDBRANCH   1  27
TORSDOF 16
ENDMDL
MODEL 2
REMARK VINA RESULT:     -10.9      4.092     10.126
REMARK SMILES CC1(C)CCC[C@H]1NC(=O)N[C@@H]1COC[C@@]1(C)C(=O)NCCCCNC(=O)c1ccc(-c2c3nc(c(-c4ccc(S(=O)(=O)[O-])cc4)c4ccc([nH]4)c(-c4ccc(S(=O)(=O)[O-])cc4)c4nc(c(-c5ccc(S(=O)(=O)[O-])cc5)c5ccc2[nH]5)C=C4)C=C3)cc1
REMARK SMILES IDX 23 1 22 2 21 3 20 4 18 5 19 6 16 8 12 9 13 10 14 11 15 12
REMARK SMILES IDX 17 13 11 14 8 15 9 16 10 18 7 20 1 21 2 22 3 23 4 24 5 25
REMARK SMILES IDX 6 26 24 27 25 28 26 29 27 31 28 32 29 33 87 34 30 35 86 36
REMARK SMILES IDX 31 37 32 38 33 39 80 40 34 41 85 42 79 43 81 44 35 45 84 46
REMARK SMILES IDX 78 47 77 48 36 50 66 51 47 52 65 53 48 54 51 55 64 56 82 57
REMARK SMILES IDX 49 58 50 59 63 61 83 62 52 63 37 64 38 65 46 66 39 67 45 68
REMARK SMILES IDX 40 69 41 70 42 71 43 72 44 73 67 74 68 75 76 76 69 77 75 78
REMARK SMILES IDX 70 79 71 80 72 81 73 82 74 83 53 84 54 85 62 86 55 87 61 88
REMARK SMILES IDX 56 89 57 90 58 91 59 92 60 93
REMARK H PARENT 20 7 8 17 11 19 25 30 81 49 51 60
REMARK Flexibility Score: inf
ROOT
ATOM      1  C   UNL A   1      37.638  22.966  26.065  1.00  0.00     0.023 C 
ENDROOT
BRANCH   1   2
ATOM      2  C   UNL A   1      37.131  23.004  24.629  1.00  0.00     0.023 C 
BRANCH   2   3
ATOM      3  C   UNL A   1      35.627  23.203  24.414  1.00  0.00     0.116 C 
BRANCH   3   4
ATOM      4  N   UNL A   1      34.738  22.326  25.157  1.00  0.00    -0.355 N 
ATOM      5  C   UNL A   1      33.395  22.408  25.407  1.00  0.00     0.230 C 
ATOM      6  O   UNL A   1      32.838  21.371  25.778  1.00  0.00    -0.274 OA
ATOM      7  H   UNL A   1      35.177  21.536  25.547  1.00  0.00     0.163 HD
BRANCH   5   8
ATOM      8  C   UNL A   1      32.629  23.737  25.334  1.00  0.00     0.092 C 
ATOM      9  C   UNL A   1      32.099  24.141  23.946  1.00  0.00     0.127 C 
ATOM     10  C   UNL A   1      30.654  24.592  24.143  1.00  0.00     0.186 C 
ATOM     11  O   UNL A   1      30.402  24.580  25.549  1.00  0.00    -0.378 OA
ATOM     12  C   UNL A   1      31.299  23.605  26.109  1.00  0.00     0.179 C 
ATOM     13  C   UNL A   1      33.460  24.763  26.066  1.00  0.00     0.026 C 
BRANCH   9  14
ATOM     14  N   UNL A   1      32.867  25.025  23.056  1.00  0.00    -0.332 N 
ATOM     15  N   UNL A   1      32.923  27.343  23.627  1.00  0.00    -0.335 N 
ATOM     16  C   UNL A   1      33.242  26.288  22.886  1.00  0.00     0.315 C 
ATOM     17  H   UNL A   1      33.507  28.109  23.425  1.00  0.00     0.165 HD
ATOM     18  O   UNL A   1      34.003  26.494  21.935  1.00  0.00    -0.249 OA
ATOM     19  H   UNL A   1      33.239  24.485  22.320  1.00  0.00     0.165 HD
BRANCH  15  20
ATOM     20  C   UNL A   1      31.945  27.683  24.660  1.00  0.00     0.089 C 
ATOM     21  C   UNL A   1      34.055  28.243  26.174  1.00  0.00     0.013 C 
ATOM     22  C   UNL A   1      32.562  28.472  25.875  1.00  0.00    -0.015 C 
ATOM     23  C   UNL A   1      31.758  28.213  27.176  1.00  0.00     0.013 C 
ATOM     24  C   UNL A   1      32.366  29.938  25.454  1.00  0.00     0.008 C 
ATOM     25  C   UNL A   1      30.985  29.956  24.830  1.00  0.00     0.003 C 
ATOM     26  C   UNL A   1      30.902  28.650  24.046  1.00  0.00     0.025 C 
ENDBRANCH  15  20
ENDBRANCH   9  14
ENDBRANCH   5   8
ENDBRANCH   3   4
ENDBRANCH   2   3
ENDBRANCH   1   2
BRANCH   1  27
ATOM     27  C   UNL A   1      38.486  24.150  26.479  1.00  0.00     0.116 C 
BRANCH  27  28
ATOM     28  N   UNL A   1      39.884  24.052  26.093  1.00  0.00    -0.352 N 
ATOM     29  C   UNL A   1      40.933  24.837  26.529  1.00  0.00     0.251 C 
ATOM     30  H   UNL A   1      40.110  23.344  25.447  1.00  0.00     0.163 HD
ATOM     31  O   UNL A   1      42.049  24.705  26.062  1.00  0.00    -0.269 OA
BRANCH  29  32
ATOM     32  C   UNL A   1      40.649  25.886  27.535  1.00  0.00     0.039 A 
ATOM     33  C   UNL A   1      39.716  25.623  28.537  1.00  0.00     0.014 A 
ATOM     34  C   UNL A   1      41.363  27.086  27.529  1.00  0.00     0.014 A 
ATOM     35  C   UNL A   1      39.548  26.543  29.574  1.00  0.00     0.010 A 
ATOM     36  C   UNL A   1      41.277  27.943  28.616  1.00  0.00     0.010 A 
ATOM     37  C   UNL A   1      40.354  27.692  29.640  1.00  0.00    -0.014 A 
BRANCH  37  38
ATOM     38  C   UNL A   1      40.217  28.666  30.750  1.00  0.00     0.031 A 
ATOM     39  C   UNL A   1      41.095  28.537  31.966  1.00  0.00     0.074 A 
ATOM     40  C   UNL A   1      39.276  29.629  30.685  1.00  0.00     0.049 A 
ATOM     41  N   UNL A   1      41.119  29.274  33.047  1.00  0.00    -0.248 NA
ATOM     42  C   UNL A   1      42.048  27.413  31.989  1.00  0.00     0.031 C 
ATOM     43  C   UNL A   1      38.324  29.814  29.586  1.00  0.00     0.029 A 
ATOM     44  N   UNL A   1      38.968  30.637  31.562  1.00  0.00    -0.354 N 
ATOM     45  C   UNL A   1      42.072  28.693  33.877  1.00  0.00     0.074 A 
ATOM     46  C   UNL A   1      42.552  27.505  33.209  1.00  0.00     0.031 C 
ATOM     47  C   UNL A   1      37.570  30.898  29.836  1.00  0.00     0.029 A 
ATOM     48  C   UNL A   1      37.960  31.462  31.123  1.00  0.00     0.049 A 
ATOM     49  H   UNL A   1      39.426  30.759  32.425  1.00  0.00     0.167 HD
ATOM     50  C   UNL A   1      42.532  29.126  35.073  1.00  0.00     0.031 A 
ATOM     51  C   UNL A   1      37.418  32.557  31.691  1.00  0.00     0.031 A 
ATOM     52  C   UNL A   1      42.070  30.324  35.719  1.00  0.00     0.049 A 
ATOM     53  C   UNL A   1      37.958  33.031  33.013  1.00  0.00     0.074 A 
ATOM     54  C   UNL A   1      42.514  30.892  36.900  1.00  0.00     0.029 A 
ATOM     55  N   UNL A   1      41.060  31.142  35.234  1.00  0.00    -0.354 N 
ATOM     56  N   UNL A   1      38.915  32.513  33.745  1.00  0.00    -0.248 NA
ATOM     57  C   UNL A   1      37.357  34.248  33.576  1.00  0.00     0.031 C 
ATOM     58  C   UNL A   1      41.738  32.028  37.153  1.00  0.00     0.029 A 
ATOM     59  C   UNL A   1      40.851  32.198  36.102  1.00  0.00     0.049 A 
ATOM     60  H   UNL A   1      40.566  30.992  34.396  1.00  0.00     0.167 HD
ATOM     61  C   UNL A   1      39.046  33.352  34.847  1.00  0.00     0.074 A 
ATOM     62  C   UNL A   1      38.085  34.423  34.670  1.00  0.00     0.031 C 
ATOM     63  C   UNL A   1      39.883  33.249  35.908  1.00  0.00     0.031 A 
BRANCH  50  64
ATOM     64  C   UNL A   1      43.593  28.299  35.751  1.00  0.00    -0.014 A 
ATOM     65  C   UNL A   1      44.960  28.548  35.525  1.00  0.00     0.010 A 
ATOM     66  C   UNL A   1      43.223  27.274  36.638  1.00  0.00     0.010 A 
ATOM     67  C   UNL A   1      45.936  27.758  36.138  1.00  0.00     0.020 A 
ATOM     68  C   UNL A   1      44.197  26.500  37.277  1.00  0.00     0.020 A 
ATOM     69  C   UNL A   1      45.547  26.736  37.008  1.00  0.00     0.054 A 
BRANCH  69  70
ATOM     70  S   UNL A   1      46.835  25.738  37.805  1.00  0.00     0.124 S 
ATOM     71  O   UNL A   1      46.294  25.570  39.152  1.00  0.00    -0.237 OA
ATOM     72  O   UNL A   1      46.860  24.531  36.984  1.00  0.00    -0.237 OA
ATOM     73  O   UNL A   1      48.029  26.576  37.714  1.00  0.00    -0.744 OA
ENDBRANCH  69  70
ENDBRANCH  50  64
BRANCH  51  74
ATOM     74  C   UNL A   1      36.328  33.297  30.997  1.00  0.00    -0.014 A 
ATOM     75  C   UNL A   1      35.063  33.433  31.596  1.00  0.00     0.010 A 
ATOM     76  C   UNL A   1      36.553  33.882  29.738  1.00  0.00     0.010 A 
ATOM     77  C   UNL A   1      34.038  34.122  30.941  1.00  0.00     0.020 A 
ATOM     78  C   UNL A   1      35.538  34.595  29.092  1.00  0.00     0.020 A 
ATOM     79  C   UNL A   1      34.283  34.700  29.693  1.00  0.00     0.054 A 
BRANCH  79  80
ATOM     80  S   UNL A   1      32.952  35.632  28.883  1.00  0.00     0.124 S 
ATOM     81  O   UNL A   1      32.147  36.063  30.022  1.00  0.00    -0.237 OA
ATOM     82  O   UNL A   1      33.684  36.687  28.187  1.00  0.00    -0.237 OA
ATOM     83  O   UNL A   1      32.324  34.641  28.012  1.00  0.00    -0.744 OA
ENDBRANCH  79  80
ENDBRANCH  51  74
BRANCH  63  84
ATOM     84  C   UNL A   1      39.811  34.331  36.950  1.00  0.00    -0.014 A 
ATOM     85  C   UNL A   1      40.513  35.539  36.792  1.00  0.00     0.010 A 
ATOM     86  C   UNL A   1      38.989  34.156  38.077  1.00  0.00     0.010 A 
ATOM     87  C   UNL A   1      40.423  36.538  37.763  1.00  0.00     0.020 A 
ATOM     88  C   UNL A   1      38.874  35.165  39.037  1.00  0.00     0.020 A 
ATOM     89  C   UNL A   1      39.606  36.344  38.881  1.00  0.00     0.054 A 
BRANCH  89  90
ATOM     90  S   UNL A   1      39.479  37.670  40.111  1.00  0.00     0.124 S 
ATOM     91  O   UNL A   1      40.779  38.323  39.987  1.00  0.00    -0.237 OA
ATOM     92  O   UNL A   1      38.338  38.445  39.631  1.00  0.00    -0.237 OA
ATOM     93  O   UNL A   1      39.257  36.957  41.367  1.00  0.00    -0.744 OA
ENDBRANCH  89  90
ENDBRANCH  63  84
ENDBRANCH  37  38
ENDBRANCH  29  32
ENDBRANCH  27  28
ENDBRANCH   1  27
TORSDOF 16
ENDMDL
MODEL 3
REMARK VINA RESULT:     -10.9      2.244      2.903
REMARK SMILES CC1(C)CCC[C@H]1NC(=O)N[C@@H]1COC[C@@]1(C)C(=O)NCCCCNC(=O)c1ccc(-c2c3nc(c(-c4ccc(S(=O)(=O)[O-])cc4)c4ccc([nH]4)c(-c4ccc(S(=O)(=O)[O-])cc4)c4nc(c(-c5ccc(S(=O)(=O)[O-])cc5)c5ccc2[nH]5)C=C4)C=C3)cc1
REMARK SMILES IDX 23 1 22 2 21 3 20 4 18 5 19 6 16 8 12 9 13 10 14 11 15 12
REMARK SMILES IDX 17 13 11 14 8 15 9 16 10 18 7 20 1 21 2 22 3 23 4 24 5 25
REMARK SMILES IDX 6 26 24 27 25 28 26 29 27 31 28 32 29 33 87 34 30 35 86 36
REMARK SMILES IDX 31 37 32 38 33 39 80 40 34 41 85 42 79 43 81 44 35 45 84 46
REMARK SMILES IDX 78 47 77 48 36 50 66 51 47 52 65 53 48 54 51 55 64 56 82 57
REMARK SMILES IDX 49 58 50 59 63 61 83 62 52 63 37 64 38 65 46 66 39 67 45 68
REMARK SMILES IDX 40 69 41 70 42 71 43 72 44 73 67 74 68 75 76 76 69 77 75 78
REMARK SMILES IDX 70 79 71 80 72 81 73 82 74 83 53 84 54 85 62 86 55 87 61 88
REMARK SMILES IDX 56 89 57 90 58 91 59 92 60 93
REMARK H PARENT 20 7 8 17 11 19 25 30 81 49 51 60
REMARK Flexibility Score: inf
ROOT
ATOM      1  C   UNL A   1      33.239  28.119  26.940  1.00  0.00     0.023 C 
ENDROOT
BRANCH   1   2
ATOM      2  C   UNL A   1      31.718  28.119  26.844  1.00  0.00     0.023 C 
BRANCH   2   3
ATOM      3  C   UNL A   1      31.071  27.129  25.871  1.00  0.00     0.116 C 
BRANCH   3   4
ATOM      4  N   UNL A   1      31.064  27.501  24.466  1.00  0.00    -0.355 N 
ATOM      5  C   UNL A   1      31.384  26.786  23.344  1.00  0.00     0.230 C 
ATOM      6  O   UNL A   1      30.977  27.235  22.269  1.00  0.00    -0.274 OA
ATOM      7  H   UNL A   1      30.779  28.427  24.291  1.00  0.00     0.163 HD
BRANCH   5   8
ATOM      8  C   UNL A   1      32.289  25.546  23.394  1.00  0.00     0.092 C 
ATOM      9  C   UNL A   1      31.634  24.247  23.900  1.00  0.00     0.127 C 
ATOM     10  C   UNL A   1      32.045  23.143  22.929  1.00  0.00     0.186 C 
ATOM     11  O   UNL A   1      32.972  23.722  22.009  1.00  0.00    -0.378 OA
ATOM     12  C   UNL A   1      32.662  25.125  21.956  1.00  0.00     0.179 C 
ATOM     13  C   UNL A   1      33.570  25.966  24.072  1.00  0.00     0.026 C 
BRANCH   9  14
ATOM     14  N   UNL A   1      31.718  23.841  25.311  1.00  0.00    -0.332 N 
ATOM     15  N   UNL A   1      33.703  22.698  25.987  1.00  0.00    -0.335 N 
ATOM     16  C   UNL A   1      32.511  23.245  26.195  1.00  0.00     0.315 C 
ATOM     17  H   UNL A   1      34.171  22.532  26.836  1.00  0.00     0.165 HD
ATOM     18  O   UNL A   1      32.092  23.224  27.357  1.00  0.00    -0.249 OA
ATOM     19  H   UNL A   1      30.885  24.109  25.765  1.00  0.00     0.165 HD
BRANCH  15  20
ATOM     20  C   UNL A   1      34.513  22.274  24.845  1.00  0.00     0.089 C 
ATOM     21  C   UNL A   1      36.294  24.036  25.726  1.00  0.00     0.013 C 
ATOM     22  C   UNL A   1      36.011  22.753  24.925  1.00  0.00    -0.015 C 
ATOM     23  C   UNL A   1      36.622  22.916  23.509  1.00  0.00     0.013 C 
ATOM     24  C   UNL A   1      36.700  21.573  25.630  1.00  0.00     0.008 C 
ATOM     25  C   UNL A   1      36.060  20.351  25.005  1.00  0.00     0.003 C 
ATOM     26  C   UNL A   1      34.590  20.726  24.848  1.00  0.00     0.025 C 
ENDBRANCH  15  20
ENDBRANCH   9  14
ENDBRANCH   5   8
ENDBRANCH   3   4
ENDBRANCH   2   3
ENDBRANCH   1   2
BRANCH   1  27
ATOM     27  C   UNL A   1      33.927  29.267  26.232  1.00  0.00     0.116 C 
BRANCH  27  28
ATOM     28  N   UNL A   1      33.575  30.583  26.738  1.00  0.00    -0.352 N 
ATOM     29  C   UNL A   1      34.267  31.339  27.664  1.00  0.00     0.251 C 
ATOM     30  H   UNL A   1      32.749  30.982  26.380  1.00  0.00     0.163 HD
ATOM     31  O   UNL A   1      33.818  32.396  28.069  1.00  0.00    -0.269 OA
BRANCH  29  32
ATOM     32  C   UNL A   1      35.539  30.799  28.198  1.00  0.00     0.039 A 
ATOM     33  C   UNL A   1      36.731  31.446  27.878  1.00  0.00     0.014 A 
ATOM     34  C   UNL A   1      35.536  29.711  29.072  1.00  0.00     0.014 A 
ATOM     35  C   UNL A   1      37.917  31.038  28.491  1.00  0.00     0.010 A 
ATOM     36  C   UNL A   1      36.692  29.381  29.763  1.00  0.00     0.010 A 
ATOM     37  C   UNL A   1      37.899  30.026  29.466  1.00  0.00    -0.014 A 
BRANCH  37  38
ATOM     38  C   UNL A   1      39.141  29.600  30.156  1.00  0.00     0.031 A 
ATOM     39  C   UNL A   1      39.568  30.297  31.420  1.00  0.00     0.074 A 
ATOM     40  C   UNL A   1      39.904  28.625  29.622  1.00  0.00     0.049 A 
ATOM     41  N   UNL A   1      40.625  30.086  32.161  1.00  0.00    -0.248 NA
ATOM     42  C   UNL A   1      38.716  31.402  31.897  1.00  0.00     0.031 C 
ATOM     43  C   UNL A   1      39.626  27.919  28.367  1.00  0.00     0.029 A 
ATOM     44  N   UNL A   1      41.068  28.055  30.070  1.00  0.00    -0.354 N 
ATOM     45  C   UNL A   1      40.571  31.037  33.174  1.00  0.00     0.074 A 
ATOM     46  C   UNL A   1      39.419  31.871  32.915  1.00  0.00     0.031 C 
ATOM     47  C   UNL A   1      40.568  26.982  28.172  1.00  0.00     0.029 A 
ATOM     48  C   UNL A   1      41.533  27.043  29.265  1.00  0.00     0.049 A 
ATOM     49  H   UNL A   1      41.527  28.345  30.892  1.00  0.00     0.167 HD
ATOM     50  C   UNL A   1      41.385  31.183  34.245  1.00  0.00     0.031 A 
ATOM     51  C   UNL A   1      42.611  26.247  29.398  1.00  0.00     0.031 A 
ATOM     52  C   UNL A   1      42.513  30.333  34.512  1.00  0.00     0.049 A 
ATOM     53  C   UNL A   1      43.493  26.416  30.606  1.00  0.00     0.074 A 
ATOM     54  C   UNL A   1      43.366  30.350  35.600  1.00  0.00     0.029 A 
ATOM     55  N   UNL A   1      42.941  29.308  33.681  1.00  0.00    -0.354 N 
ATOM     56  N   UNL A   1      43.379  27.269  31.596  1.00  0.00    -0.248 NA
ATOM     57  C   UNL A   1      44.637  25.502  30.723  1.00  0.00     0.031 C 
ATOM     58  C   UNL A   1      44.340  29.366  35.404  1.00  0.00     0.029 A 
ATOM     59  C   UNL A   1      44.059  28.700  34.221  1.00  0.00     0.049 A 
ATOM     60  H   UNL A   1      42.512  29.052  32.833  1.00  0.00     0.167 HD
ATOM     61  C   UNL A   1      44.426  26.982  32.465  1.00  0.00     0.074 A 
ATOM     62  C   UNL A   1      45.146  25.862  31.894  1.00  0.00     0.031 C 
ATOM     63  C   UNL A   1      44.763  27.589  33.630  1.00  0.00     0.031 A 
BRANCH  50  64
ATOM     64  C   UNL A   1      41.076  32.302  35.205  1.00  0.00    -0.014 A 
ATOM     65  C   UNL A   1      41.551  33.607  34.976  1.00  0.00     0.010 A 
ATOM     66  C   UNL A   1      40.285  32.052  36.340  1.00  0.00     0.010 A 
ATOM     67  C   UNL A   1      41.280  34.631  35.887  1.00  0.00     0.020 A 
ATOM     68  C   UNL A   1      39.986  33.081  37.239  1.00  0.00     0.020 A 
ATOM     69  C   UNL A   1      40.501  34.359  37.015  1.00  0.00     0.054 A 
BRANCH  69  70
ATOM     70  S   UNL A   1      40.148  35.712  38.171  1.00  0.00     0.124 S 
ATOM     71  O   UNL A   1      39.718  36.776  37.265  1.00  0.00    -0.237 OA
ATOM     72  O   UNL A   1      39.100  35.147  39.017  1.00  0.00    -0.237 OA
ATOM     73  O   UNL A   1      41.427  35.942  38.838  1.00  0.00    -0.744 OA
ENDBRANCH  69  70
ENDBRANCH  50  64
BRANCH  51  74
ATOM     74  C   UNL A   1      42.897  25.198  28.380  1.00  0.00    -0.014 A 
ATOM     75  C   UNL A   1      42.411  23.890  28.548  1.00  0.00     0.010 A 
ATOM     76  C   UNL A   1      43.645  25.506  27.230  1.00  0.00     0.010 A 
ATOM     77  C   UNL A   1      42.685  22.904  27.595  1.00  0.00     0.020 A 
ATOM     78  C   UNL A   1      43.899  24.530  26.262  1.00  0.00     0.020 A 
ATOM     79  C   UNL A   1      43.427  23.230  26.457  1.00  0.00     0.054 A 
BRANCH  79  80
ATOM     80  S   UNL A   1      43.729  21.947  25.210  1.00  0.00     0.124 S 
ATOM     81  O   UNL A   1      43.542  22.683  23.964  1.00  0.00    -0.237 OA
ATOM     82  O   UNL A   1      45.100  21.537  25.504  1.00  0.00    -0.237 OA
ATOM     83  O   UNL A   1      42.711  20.940  25.502  1.00  0.00    -0.744 OA
ENDBRANCH  79  80
ENDBRANCH  51  74
BRANCH  63  84
ATOM     84  C   UNL A   1      45.950  27.040  34.373  1.00  0.00    -0.014 A 
ATOM     85  C   UNL A   1      45.808  25.982  35.288  1.00  0.00     0.010 A 
ATOM     86  C   UNL A   1      47.231  27.559  34.115  1.00  0.00     0.010 A 
ATOM     87  C   UNL A   1      46.924  25.476  35.959  1.00  0.00     0.020 A 
ATOM     88  C   UNL A   1      48.353  27.037  34.763  1.00  0.00     0.020 A 
ATOM     89  C   UNL A   1      48.189  26.009  35.693  1.00  0.00     0.054 A 
BRANCH  89  90
ATOM     90  S   UNL A   1      49.627  25.313  36.552  1.00  0.00     0.124 S 
ATOM     91  O   UNL A   1      49.135  23.995  36.946  1.00  0.00    -0.237 OA
ATOM     92  O   UNL A   1      50.653  25.316  35.513  1.00  0.00    -0.237 OA
ATOM     93  O   UNL A   1      49.859  26.247  37.651  1.00  0.00    -0.744 OA
ENDBRANCH  89  90
ENDBRANCH  63  84
ENDBRANCH  37  38
ENDBRANCH  29  32
ENDBRANCH  27  28
ENDBRANCH   1  27
TORSDOF 16
ENDMDL
