MODEL 1
REMARK VINA RESULT:      -9.5      0.000      0.000
REMARK SMILES CCN(CC)C(=O)[C@H](C)S[C@H](C)C(=O)NCCCCNC(=O)c1ccc(-c2c3nc(c(-c4ccc(S(=O)(=O)[O-])cc4)c4ccc([nH]4)c(-c4ccc(S(=O)(=O)[O-])cc4)c4nc(c(-c5ccc(S(=O)(=O)[O-])cc5)c5ccc2[nH]5)C=C4)C=C3)cc1
REMARK SMILES IDX 17 1 16 2 15 3 13 4 14 5 11 7 12 8 10 9 8 10 9 11 6 12 3 13
REMARK SMILES IDX 7 14 2 15 1 16 4 17 5 18 18 19 19 20 20 21 21 22 22 24 23 25
REMARK SMILES IDX 24 26 82 27 25 28 81 29 26 30 27 31 28 32 75 33 29 34 80 35
REMARK SMILES IDX 74 36 76 37 30 38 79 39 73 40 72 41 31 43 61 44 42 45 60 46
REMARK SMILES IDX 43 47 46 48 59 49 77 50 44 51 45 52 58 54 78 55 47 56 32 57
REMARK SMILES IDX 33 58 41 59 34 60 40 61 35 62 36 63 37 64 38 65 39 66 62 67
REMARK SMILES IDX 63 68 71 69 64 70 70 71 65 72 66 73 67 74 68 75 69 76 48 77
REMARK SMILES IDX 49 78 57 79 50 80 56 81 51 82 52 83 53 84 54 85 55 86
REMARK H PARENT 15 6 20 23 76 42 46 53
REMARK Flexibility Score: inf
ROOT
ATOM      1  C   UNL A   1      35.617  21.854  26.206  1.00  0.00     0.023 C 
ENDROOT
BRANCH   1   2
ATOM      2  C   UNL A   1      35.307  21.023  24.965  1.00  0.00     0.116 C 
BRANCH   2   3
ATOM      3  N   UNL A   1      33.986  20.426  25.041  1.00  0.00    -0.355 N 
ATOM      4  C   UNL A   1      32.752  20.961  24.853  1.00  0.00     0.232 C 
ATOM      5  O   UNL A   1      31.790  20.206  25.038  1.00  0.00    -0.274 OA
ATOM      6  H   UNL A   1      33.985  19.467  25.267  1.00  0.00     0.163 HD
BRANCH   4   7
ATOM      7  C   UNL A   1      32.512  22.421  24.508  1.00  0.00     0.133 C 
ATOM      8  C   UNL A   1      32.506  22.591  22.986  1.00  0.00     0.030 C 
BRANCH   7   9
ATOM      9  S   UNL A   1      31.004  23.177  25.209  1.00  0.00    -0.136 SA
BRANCH   9  10
ATOM     10  C   UNL A   1      31.074  24.956  24.731  1.00  0.00     0.133 C 
ATOM     11  C   UNL A   1      29.993  25.367  23.747  1.00  0.00     0.030 C 
BRANCH  10  12
ATOM     12  C   UNL A   1      31.598  25.875  25.854  1.00  0.00     0.235 C 
ATOM     13  N   UNL A   1      32.257  27.076  25.636  1.00  0.00    -0.342 N 
ATOM     14  O   UNL A   1      31.413  25.494  27.023  1.00  0.00    -0.274 OA
BRANCH  13  15
ATOM     15  C   UNL A   1      32.755  27.790  26.820  1.00  0.00     0.116 C 
ATOM     16  C   UNL A   1      31.825  28.912  27.260  1.00  0.00     0.027 C 
ENDBRANCH  13  15
BRANCH  13  17
ATOM     17  C   UNL A   1      32.507  27.740  24.358  1.00  0.00     0.116 C 
ATOM     18  C   UNL A   1      33.955  28.178  24.193  1.00  0.00     0.027 C 
ENDBRANCH  13  17
ENDBRANCH  10  12
ENDBRANCH   9  10
ENDBRANCH   7   9
ENDBRANCH   4   7
ENDBRANCH   2   3
ENDBRANCH   1   2
BRANCH   1  19
ATOM     19  C   UNL A   1      35.838  23.344  25.945  1.00  0.00     0.023 C 
BRANCH  19  20
ATOM     20  C   UNL A   1      37.088  23.689  25.142  1.00  0.00     0.116 C 
BRANCH  20  21
ATOM     21  N   UNL A   1      38.183  22.759  25.376  1.00  0.00    -0.352 N 
ATOM     22  C   UNL A   1      39.373  22.979  26.029  1.00  0.00     0.251 C 
ATOM     23  H   UNL A   1      38.053  21.851  25.019  1.00  0.00     0.163 HD
ATOM     24  O   UNL A   1      40.253  22.123  26.013  1.00  0.00    -0.269 OA
BRANCH  22  25
ATOM     25  C   UNL A   1      39.592  24.264  26.723  1.00  0.00     0.039 A 
ATOM     26  C   UNL A   1      39.026  24.461  27.985  1.00  0.00     0.014 A 
ATOM     27  C   UNL A   1      40.389  25.254  26.141  1.00  0.00     0.014 A 
ATOM     28  C   UNL A   1      39.324  25.623  28.700  1.00  0.00     0.010 A 
ATOM     29  C   UNL A   1      40.733  26.381  26.881  1.00  0.00     0.010 A 
ATOM     30  C   UNL A   1      40.211  26.573  28.170  1.00  0.00    -0.014 A 
BRANCH  30  31
ATOM     31  C   UNL A   1      40.626  27.771  28.943  1.00  0.00     0.031 A 
ATOM     32  C   UNL A   1      41.928  27.763  29.694  1.00  0.00     0.074 A 
ATOM     33  C   UNL A   1      39.790  28.823  29.050  1.00  0.00     0.049 A 
ATOM     34  N   UNL A   1      42.400  28.645  30.537  1.00  0.00    -0.248 NA
ATOM     35  C   UNL A   1      42.803  26.596  29.492  1.00  0.00     0.031 C 
ATOM     36  C   UNL A   1      38.487  28.943  28.393  1.00  0.00     0.029 A 
ATOM     37  N   UNL A   1      39.906  29.987  29.769  1.00  0.00    -0.354 N 
ATOM     38  C   UNL A   1      43.610  28.128  30.987  1.00  0.00     0.074 A 
ATOM     39  C   UNL A   1      43.782  26.841  30.351  1.00  0.00     0.031 C 
ATOM     40  C   UNL A   1      37.929  30.117  28.733  1.00  0.00     0.029 A 
ATOM     41  C   UNL A   1      38.811  30.813  29.664  1.00  0.00     0.049 A 
ATOM     42  H   UNL A   1      40.698  30.209  30.311  1.00  0.00     0.167 HD
ATOM     43  C   UNL A   1      44.502  28.682  31.842  1.00  0.00     0.031 A 
ATOM     44  C   UNL A   1      38.537  31.989  30.263  1.00  0.00     0.031 A 
ATOM     45  C   UNL A   1      44.336  29.971  32.458  1.00  0.00     0.049 A 
ATOM     46  C   UNL A   1      39.538  32.580  31.217  1.00  0.00     0.074 A 
ATOM     47  C   UNL A   1      45.209  30.641  33.296  1.00  0.00     0.029 A 
ATOM     48  N   UNL A   1      43.225  30.785  32.302  1.00  0.00    -0.354 N 
ATOM     49  N   UNL A   1      40.699  32.099  31.591  1.00  0.00    -0.248 NA
ATOM     50  C   UNL A   1      39.198  33.875  31.824  1.00  0.00     0.031 C 
ATOM     51  C   UNL A   1      44.608  31.843  33.682  1.00  0.00     0.029 A 
ATOM     52  C   UNL A   1      43.383  31.944  33.043  1.00  0.00     0.049 A 
ATOM     53  H   UNL A   1      42.441  30.571  31.747  1.00  0.00     0.167 HD
ATOM     54  C   UNL A   1      41.241  33.045  32.455  1.00  0.00     0.074 A 
ATOM     55  C   UNL A   1      40.284  34.129  32.543  1.00  0.00     0.031 C 
ATOM     56  C   UNL A   1      42.425  33.019  33.110  1.00  0.00     0.031 A 
BRANCH  43  57
ATOM     57  C   UNL A   1      45.736  27.885  32.170  1.00  0.00    -0.014 A 
ATOM     58  C   UNL A   1      46.927  28.058  31.442  1.00  0.00     0.010 A 
ATOM     59  C   UNL A   1      45.716  26.977  33.244  1.00  0.00     0.010 A 
ATOM     60  C   UNL A   1      48.061  27.305  31.752  1.00  0.00     0.020 A 
ATOM     61  C   UNL A   1      46.856  26.241  33.576  1.00  0.00     0.020 A 
ATOM     62  C   UNL A   1      48.017  26.395  32.814  1.00  0.00     0.054 A 
BRANCH  62  63
ATOM     63  S   UNL A   1      49.507  25.439  33.204  1.00  0.00     0.124 S 
ATOM     64  O   UNL A   1      48.973  24.391  34.070  1.00  0.00    -0.237 OA
ATOM     65  O   UNL A   1      49.958  24.995  31.887  1.00  0.00    -0.237 OA
ATOM     66  O   UNL A   1      50.378  26.409  33.864  1.00  0.00    -0.744 OA
ENDBRANCH  62  63
ENDBRANCH  43  57
BRANCH  44  67
ATOM     67  C   UNL A   1      37.256  32.687  29.973  1.00  0.00    -0.014 A 
ATOM     68  C   UNL A   1      36.141  32.506  30.811  1.00  0.00     0.010 A 
ATOM     69  C   UNL A   1      37.148  33.552  28.869  1.00  0.00     0.010 A 
ATOM     70  C   UNL A   1      34.939  33.166  30.543  1.00  0.00     0.020 A 
ATOM     71  C   UNL A   1      35.954  34.233  28.612  1.00  0.00     0.020 A 
ATOM     72  C   UNL A   1      34.853  34.026  29.445  1.00  0.00     0.054 A 
BRANCH  72  73
ATOM     73  S   UNL A   1      33.299  34.916  29.149  1.00  0.00     0.124 S 
ATOM     74  O   UNL A   1      32.623  34.037  28.201  1.00  0.00    -0.237 OA
ATOM     75  O   UNL A   1      32.711  34.980  30.485  1.00  0.00    -0.237 OA
ATOM     76  O   UNL A   1      33.740  36.200  28.609  1.00  0.00    -0.744 OA
ENDBRANCH  72  73
ENDBRANCH  44  67
BRANCH  56  77
ATOM     77  C   UNL A   1      42.787  34.212  33.952  1.00  0.00    -0.014 A 
ATOM     78  C   UNL A   1      42.611  34.199  35.347  1.00  0.00     0.010 A 
ATOM     79  C   UNL A   1      43.398  35.325  33.346  1.00  0.00     0.010 A 
ATOM     80  C   UNL A   1      43.033  35.284  36.120  1.00  0.00     0.020 A 
ATOM     81  C   UNL A   1      43.842  36.401  34.118  1.00  0.00     0.020 A 
ATOM     82  C   UNL A   1      43.650  36.376  35.501  1.00  0.00     0.054 A 
BRANCH  82  83
ATOM     83  S   UNL A   1      44.262  37.736  36.535  1.00  0.00     0.124 S 
ATOM     84  O   UNL A   1      44.226  38.863  35.608  1.00  0.00    -0.237 OA
ATOM     85  O   UNL A   1      43.283  37.781  37.619  1.00  0.00    -0.237 OA
ATOM     86  O   UNL A   1      45.598  37.296  36.930  1.00  0.00    -0.744 OA
ENDBRANCH  82  83
ENDBRANCH  56  77
ENDBRANCH  30  31
ENDBRANCH  22  25
ENDBRANCH  20  21
ENDBRANCH  19  20
ENDBRANCH   1  19
TORSDOF 19
ENDMDL
MODEL 2
REMARK VINA RESULT:      -9.3      2.687      9.288
REMARK SMILES CCN(CC)C(=O)[C@H](C)S[C@H](C)C(=O)NCCCCNC(=O)c1ccc(-c2c3nc(c(-c4ccc(S(=O)(=O)[O-])cc4)c4ccc([nH]4)c(-c4ccc(S(=O)(=O)[O-])cc4)c4nc(c(-c5ccc(S(=O)(=O)[O-])cc5)c5ccc2[nH]5)C=C4)C=C3)cc1
REMARK SMILES IDX 17 1 16 2 15 3 13 4 14 5 11 7 12 8 10 9 8 10 9 11 6 12 3 13
REMARK SMILES IDX 7 14 2 15 1 16 4 17 5 18 18 19 19 20 20 21 21 22 22 24 23 25
REMARK SMILES IDX 24 26 82 27 25 28 81 29 26 30 27 31 28 32 75 33 29 34 80 35
REMARK SMILES IDX 74 36 76 37 30 38 79 39 73 40 72 41 31 43 61 44 42 45 60 46
REMARK SMILES IDX 43 47 46 48 59 49 77 50 44 51 45 52 58 54 78 55 47 56 32 57
REMARK SMILES IDX 33 58 41 59 34 60 40 61 35 62 36 63 37 64 38 65 39 66 62 67
REMARK SMILES IDX 63 68 71 69 64 70 70 71 65 72 66 73 67 74 68 75 69 76 48 77
REMARK SMILES IDX 49 78 57 79 50 80 56 81 51 82 52 83 53 84 54 85 55 86
REMARK H PARENT 15 6 20 23 76 42 46 53
REMARK Flexibility Score: inf
ROOT
ATOM      1  C   UNL A   1      33.149  29.043  24.775  1.00  0.00     0.023 C 
ENDROOT
BRANCH   1   2
ATOM      2  C   UNL A   1      31.829  28.561  24.184  1.00  0.00     0.116 C 
BRANCH   2   3
ATOM      3  N   UNL A   1      32.044  27.701  23.034  1.00  0.00    -0.355 N 
ATOM      4  C   UNL A   1      31.682  26.413  22.801  1.00  0.00     0.232 C 
ATOM      5  O   UNL A   1      32.055  25.920  21.730  1.00  0.00    -0.274 OA
ATOM      6  H   UNL A   1      32.537  28.127  22.294  1.00  0.00     0.163 HD
BRANCH   4   7
ATOM      7  C   UNL A   1      30.927  25.558  23.805  1.00  0.00     0.133 C 
ATOM      8  C   UNL A   1      29.496  26.086  23.950  1.00  0.00     0.030 C 
BRANCH   7   9
ATOM      9  S   UNL A   1      30.878  23.764  23.459  1.00  0.00    -0.136 SA
BRANCH   9  10
ATOM     10  C   UNL A   1      32.022  22.994  24.682  1.00  0.00     0.133 C 
ATOM     11  C   UNL A   1      31.459  21.749  25.344  1.00  0.00     0.030 C 
BRANCH  10  12
ATOM     12  C   UNL A   1      33.514  23.170  24.327  1.00  0.00     0.235 C 
ATOM     13  N   UNL A   1      34.524  23.338  25.262  1.00  0.00    -0.342 N 
ATOM     14  O   UNL A   1      33.807  23.164  23.118  1.00  0.00    -0.274 OA
BRANCH  13  15
ATOM     15  C   UNL A   1      35.881  23.566  24.747  1.00  0.00     0.116 C 
ATOM     16  C   UNL A   1      36.873  23.915  25.847  1.00  0.00     0.027 C 
ENDBRANCH  13  15
BRANCH  13  17
ATOM     17  C   UNL A   1      34.410  23.299  26.719  1.00  0.00     0.116 C 
ATOM     18  C   UNL A   1      34.352  21.881  27.269  1.00  0.00     0.027 C 
ENDBRANCH  13  17
ENDBRANCH  10  12
ENDBRANCH   9  10
ENDBRANCH   7   9
ENDBRANCH   4   7
ENDBRANCH   2   3
ENDBRANCH   1   2
BRANCH   1  19
ATOM     19  C   UNL A   1      33.793  28.086  25.779  1.00  0.00     0.023 C 
BRANCH  19  20
ATOM     20  C   UNL A   1      33.510  28.390  27.247  1.00  0.00     0.116 C 
BRANCH  20  21
ATOM     21  N   UNL A   1      33.444  29.818  27.524  1.00  0.00    -0.352 N 
ATOM     22  C   UNL A   1      34.398  30.629  28.092  1.00  0.00     0.251 C 
ATOM     23  H   UNL A   1      32.603  30.261  27.271  1.00  0.00     0.163 HD
ATOM     24  O   UNL A   1      34.126  31.789  28.388  1.00  0.00    -0.269 OA
BRANCH  22  25
ATOM     25  C   UNL A   1      35.742  30.082  28.369  1.00  0.00     0.039 A 
ATOM     26  C   UNL A   1      36.706  30.104  27.357  1.00  0.00     0.014 A 
ATOM     27  C   UNL A   1      36.056  29.588  29.637  1.00  0.00     0.014 A 
ATOM     28  C   UNL A   1      38.012  29.700  27.642  1.00  0.00     0.010 A 
ATOM     29  C   UNL A   1      37.372  29.245  29.934  1.00  0.00     0.010 A 
ATOM     30  C   UNL A   1      38.365  29.305  28.942  1.00  0.00    -0.014 A 
BRANCH  30  31
ATOM     31  C   UNL A   1      39.764  28.964  29.304  1.00  0.00     0.031 A 
ATOM     32  C   UNL A   1      40.649  30.002  29.934  1.00  0.00     0.074 A 
ATOM     33  C   UNL A   1      40.266  27.756  28.976  1.00  0.00     0.049 A 
ATOM     34  N   UNL A   1      41.931  29.948  30.191  1.00  0.00    -0.248 NA
ATOM     35  C   UNL A   1      40.015  31.280  30.300  1.00  0.00     0.031 C 
ATOM     36  C   UNL A   1      39.518  26.671  28.336  1.00  0.00     0.029 A 
ATOM     37  N   UNL A   1      41.533  27.246  29.118  1.00  0.00    -0.354 N 
ATOM     38  C   UNL A   1      42.262  31.191  30.719  1.00  0.00     0.074 A 
ATOM     39  C   UNL A   1      41.055  31.988  30.714  1.00  0.00     0.031 C 
ATOM     40  C   UNL A   1      40.338  25.623  28.150  1.00  0.00     0.029 A 
ATOM     41  C   UNL A   1      41.676  25.974  28.615  1.00  0.00     0.049 A 
ATOM     42  H   UNL A   1      42.270  27.745  29.540  1.00  0.00     0.167 HD
ATOM     43  C   UNL A   1      43.460  31.624  31.178  1.00  0.00     0.031 A 
ATOM     44  C   UNL A   1      42.765  25.186  28.519  1.00  0.00     0.031 A 
ATOM     45  C   UNL A   1      44.654  30.821  31.199  1.00  0.00     0.049 A 
ATOM     46  C   UNL A   1      44.087  25.691  29.027  1.00  0.00     0.074 A 
ATOM     47  C   UNL A   1      45.902  31.153  31.694  1.00  0.00     0.029 A 
ATOM     48  N   UNL A   1      44.748  29.530  30.705  1.00  0.00    -0.354 N 
ATOM     49  N   UNL A   1      44.370  26.851  29.569  1.00  0.00    -0.248 NA
ATOM     50  C   UNL A   1      45.236  24.780  28.918  1.00  0.00     0.031 C 
ATOM     51  C   UNL A   1      46.764  30.076  31.462  1.00  0.00     0.029 A 
ATOM     52  C   UNL A   1      46.038  29.056  30.868  1.00  0.00     0.049 A 
ATOM     53  H   UNL A   1      44.007  29.024  30.299  1.00  0.00     0.167 HD
ATOM     54  C   UNL A   1      45.722  26.799  29.892  1.00  0.00     0.074 A 
ATOM     55  C   UNL A   1      46.199  25.492  29.490  1.00  0.00     0.031 C 
ATOM     56  C   UNL A   1      46.494  27.747  30.473  1.00  0.00     0.031 A 
BRANCH  43  57
ATOM     57  C   UNL A   1      43.539  33.037  31.688  1.00  0.00    -0.014 A 
ATOM     58  C   UNL A   1      43.733  34.118  30.808  1.00  0.00     0.010 A 
ATOM     59  C   UNL A   1      43.381  33.294  33.062  1.00  0.00     0.010 A 
ATOM     60  C   UNL A   1      43.813  35.423  31.297  1.00  0.00     0.020 A 
ATOM     61  C   UNL A   1      43.433  34.601  33.553  1.00  0.00     0.020 A 
ATOM     62  C   UNL A   1      43.669  35.656  32.669  1.00  0.00     0.054 A 
BRANCH  62  63
ATOM     63  S   UNL A   1      43.765  37.362  33.276  1.00  0.00     0.124 S 
ATOM     64  O   UNL A   1      44.982  37.325  34.083  1.00  0.00    -0.237 OA
ATOM     65  O   UNL A   1      43.854  38.138  32.042  1.00  0.00    -0.237 OA
ATOM     66  O   UNL A   1      42.524  37.532  34.028  1.00  0.00    -0.744 OA
ENDBRANCH  62  63
ENDBRANCH  43  57
BRANCH  44  67
ATOM     67  C   UNL A   1      42.647  23.829  27.918  1.00  0.00    -0.014 A 
ATOM     68  C   UNL A   1      42.220  22.740  28.699  1.00  0.00     0.010 A 
ATOM     69  C   UNL A   1      42.942  23.622  26.558  1.00  0.00     0.010 A 
ATOM     70  C   UNL A   1      42.104  21.467  28.135  1.00  0.00     0.020 A 
ATOM     71  C   UNL A   1      42.802  22.355  25.985  1.00  0.00     0.020 A 
ATOM     72  C   UNL A   1      42.395  21.282  26.780  1.00  0.00     0.054 A 
BRANCH  72  73
ATOM     73  S   UNL A   1      42.183  19.632  26.055  1.00  0.00     0.124 S 
ATOM     74  O   UNL A   1      43.055  19.700  24.888  1.00  0.00    -0.237 OA
ATOM     75  O   UNL A   1      42.632  18.753  27.132  1.00  0.00    -0.237 OA
ATOM     76  O   UNL A   1      40.752  19.568  25.767  1.00  0.00    -0.744 OA
ENDBRANCH  72  73
ENDBRANCH  44  67
BRANCH  56  77
ATOM     77  C   UNL A   1      47.931  27.404  30.755  1.00  0.00    -0.014 A 
ATOM     78  C   UNL A   1      48.293  26.665  31.895  1.00  0.00     0.010 A 
ATOM     79  C   UNL A   1      48.920  27.748  29.815  1.00  0.00     0.010 A 
ATOM     80  C   UNL A   1      49.623  26.283  32.094  1.00  0.00     0.020 A 
ATOM     81  C   UNL A   1      50.246  27.348  29.999  1.00  0.00     0.020 A 
ATOM     82  C   UNL A   1      50.590  26.622  31.142  1.00  0.00     0.054 A 
BRANCH  82  83
ATOM     83  S   UNL A   1      52.293  26.046  31.383  1.00  0.00     0.124 S 
ATOM     84  O   UNL A   1      52.831  26.111  30.027  1.00  0.00    -0.237 OA
ATOM     85  O   UNL A   1      52.835  27.026  32.322  1.00  0.00    -0.237 OA
ATOM     86  O   UNL A   1      52.129  24.699  31.924  1.00  0.00    -0.744 OA
ENDBRANCH  82  83
ENDBRANCH  56  77
ENDBRANCH  30  31
ENDBRANCH  22  25
ENDBRANCH  20  21
ENDBRANCH  19  20
ENDBRANCH   1  19
TORSDOF 19
ENDMDL
MODEL 3
REMARK VINA RESULT:      -9.1      4.698     10.517
REMARK SMILES CCN(CC)C(=O)[C@H](C)S[C@H](C)C(=O)NCCCCNC(=O)c1ccc(-c2c3nc(c(-c4ccc(S(=O)(=O)[O-])cc4)c4ccc([nH]4)c(-c4ccc(S(=O)(=O)[O-])cc4)c4nc(c(-c5ccc(S(=O)(=O)[O-])cc5)c5ccc2[nH]5)C=C4)C=C3)cc1
REMARK SMILES IDX 17 1 16 2 15 3 13 4 14 5 11 7 12 8 10 9 8 10 9 11 6 12 3 13
REMARK SMILES IDX 7 14 2 15 1 16 4 17 5 18 18 19 19 20 20 21 21 22 22 24 23 25
REMARK SMILES IDX 24 26 82 27 25 28 81 29 26 30 27 31 28 32 75 33 29 34 80 35
REMARK SMILES IDX 74 36 76 37 30 38 79 39 73 40 72 41 31 43 61 44 42 45 60 46
REMARK SMILES IDX 43 47 46 48 59 49 77 50 44 51 45 52 58 54 78 55 47 56 32 57
REMARK SMILES IDX 33 58 41 59 34 60 40 61 35 62 36 63 37 64 38 65 39 66 62 67
REMARK SMILES IDX 63 68 71 69 64 70 70 71 65 72 66 73 67 74 68 75 69 76 48 77
REMARK SMILES IDX 49 78 57 79 50 80 56 81 51 82 52 83 53 84 54 85 55 86
REMARK H PARENT 15 6 20 23 76 42 46 53
REMARK Flexibility Score: inf
ROOT
ATOM      1  C   UNL A   1      33.568  29.401  25.796  1.00  0.00     0.023 C 
ENDROOT
BRANCH   1   2
ATOM      2  C   UNL A   1      32.060  29.173  25.804  1.00  0.00     0.116 C 
BRANCH   2   3
ATOM      3  N   UNL A   1      31.471  29.465  24.511  1.00  0.00    -0.355 N 
ATOM      4  C   UNL A   1      30.959  28.645  23.557  1.00  0.00     0.232 C 
ATOM      5  O   UNL A   1      30.566  29.186  22.516  1.00  0.00    -0.274 OA
ATOM      6  H   UNL A   1      31.435  30.423  24.286  1.00  0.00     0.163 HD
BRANCH   4   7
ATOM      7  C   UNL A   1      30.920  27.131  23.682  1.00  0.00     0.133 C 
ATOM      8  C   UNL A   1      29.477  26.676  23.919  1.00  0.00     0.030 C 
BRANCH   7   9
ATOM      9  S   UNL A   1      31.632  26.189  22.287  1.00  0.00    -0.136 SA
BRANCH   9  10
ATOM     10  C   UNL A   1      33.156  25.394  22.954  1.00  0.00     0.133 C 
ATOM     11  C   UNL A   1      33.782  26.150  24.112  1.00  0.00     0.030 C 
BRANCH  10  12
ATOM     12  C   UNL A   1      33.145  23.855  22.847  1.00  0.00     0.235 C 
ATOM     13  N   UNL A   1      32.374  23.023  23.646  1.00  0.00    -0.342 N 
ATOM     14  O   UNL A   1      33.886  23.347  21.988  1.00  0.00    -0.274 OA
BRANCH  13  15
ATOM     15  C   UNL A   1      32.541  21.575  23.460  1.00  0.00     0.116 C 
ATOM     16  C   UNL A   1      31.846  21.062  22.207  1.00  0.00     0.027 C 
ENDBRANCH  13  15
BRANCH  13  17
ATOM     17  C   UNL A   1      31.388  23.411  24.652  1.00  0.00     0.116 C 
ATOM     18  C   UNL A   1      31.847  23.117  26.073  1.00  0.00     0.027 C 
ENDBRANCH  13  17
ENDBRANCH  10  12
ENDBRANCH   9  10
ENDBRANCH   7   9
ENDBRANCH   4   7
ENDBRANCH   2   3
ENDBRANCH   1   2
BRANCH   1  19
ATOM     19  C   UNL A   1      34.336  28.678  26.903  1.00  0.00     0.023 C 
BRANCH  19  20
ATOM     20  C   UNL A   1      35.569  29.407  27.427  1.00  0.00     0.116 C 
BRANCH  20  21
ATOM     21  N   UNL A   1      35.339  30.054  28.710  1.00  0.00    -0.352 N 
ATOM     22  C   UNL A   1      36.245  30.346  29.701  1.00  0.00     0.251 C 
ATOM     23  H   UNL A   1      34.408  30.319  28.892  1.00  0.00     0.163 HD
ATOM     24  O   UNL A   1      35.859  30.767  30.788  1.00  0.00    -0.269 OA
BRANCH  22  25
ATOM     25  C   UNL A   1      37.684  30.119  29.457  1.00  0.00     0.039 A 
ATOM     26  C   UNL A   1      38.540  29.942  30.548  1.00  0.00     0.014 A 
ATOM     27  C   UNL A   1      38.176  30.043  28.152  1.00  0.00     0.014 A 
ATOM     28  C   UNL A   1      39.878  29.610  30.327  1.00  0.00     0.010 A 
ATOM     29  C   UNL A   1      39.494  29.652  27.935  1.00  0.00     0.010 A 
ATOM     30  C   UNL A   1      40.355  29.423  29.020  1.00  0.00    -0.014 A 
BRANCH  30  31
ATOM     31  C   UNL A   1      41.745  28.974  28.752  1.00  0.00     0.031 A 
ATOM     32  C   UNL A   1      42.867  29.975  28.749  1.00  0.00     0.074 A 
ATOM     33  C   UNL A   1      41.983  27.691  28.414  1.00  0.00     0.049 A 
ATOM     34  N   UNL A   1      44.117  29.812  28.399  1.00  0.00    -0.248 NA
ATOM     35  C   UNL A   1      42.533  31.346  29.169  1.00  0.00     0.031 C 
ATOM     36  C   UNL A   1      40.977  26.628  28.353  1.00  0.00     0.029 A 
ATOM     37  N   UNL A   1      43.147  27.067  28.038  1.00  0.00    -0.354 N 
ATOM     38  C   UNL A   1      44.711  31.063  28.529  1.00  0.00     0.074 A 
ATOM     39  C   UNL A   1      43.677  31.980  28.956  1.00  0.00     0.031 C 
ATOM     40  C   UNL A   1      41.568  25.484  27.972  1.00  0.00     0.029 A 
ATOM     41  C   UNL A   1      42.984  25.739  27.719  1.00  0.00     0.049 A 
ATOM     42  H   UNL A   1      44.017  27.526  27.999  1.00  0.00     0.167 HD
ATOM     43  C   UNL A   1      46.003  31.412  28.323  1.00  0.00     0.031 A 
ATOM     44  C   UNL A   1      43.866  24.832  27.256  1.00  0.00     0.031 A 
ATOM     45  C   UNL A   1      47.032  30.493  27.917  1.00  0.00     0.049 A 
ATOM     46  C   UNL A   1      45.294  25.245  27.026  1.00  0.00     0.074 A 
ATOM     47  C   UNL A   1      48.381  30.741  27.735  1.00  0.00     0.029 A 
ATOM     48  N   UNL A   1      46.828  29.153  27.631  1.00  0.00    -0.354 N 
ATOM     49  N   UNL A   1      45.847  26.420  27.202  1.00  0.00    -0.248 NA
ATOM     50  C   UNL A   1      46.218  24.209  26.542  1.00  0.00     0.031 C 
ATOM     51  C   UNL A   1      48.987  29.558  27.298  1.00  0.00     0.029 A 
ATOM     52  C   UNL A   1      48.024  28.563  27.257  1.00  0.00     0.049 A 
ATOM     53  H   UNL A   1      45.962  28.688  27.687  1.00  0.00     0.167 HD
ATOM     54  C   UNL A   1      47.190  26.259  26.878  1.00  0.00     0.074 A 
ATOM     55  C   UNL A   1      47.367  24.872  26.502  1.00  0.00     0.031 C 
ATOM     56  C   UNL A   1      48.185  27.177  26.897  1.00  0.00     0.031 A 
BRANCH  43  57
ATOM     57  C   UNL A   1      46.372  32.857  28.525  1.00  0.00    -0.014 A 
ATOM     58  C   UNL A   1      46.812  33.326  29.776  1.00  0.00     0.010 A 
ATOM     59  C   UNL A   1      46.313  33.751  27.441  1.00  0.00     0.010 A 
ATOM     60  C   UNL A   1      47.142  34.672  29.951  1.00  0.00     0.020 A 
ATOM     61  C   UNL A   1      46.669  35.092  27.604  1.00  0.00     0.020 A 
ATOM     62  C   UNL A   1      47.062  35.549  28.864  1.00  0.00     0.054 A 
BRANCH  62  63
ATOM     63  S   UNL A   1      47.509  37.288  29.114  1.00  0.00     0.124 S 
ATOM     64  O   UNL A   1      48.783  37.171  29.819  1.00  0.00    -0.237 OA
ATOM     65  O   UNL A   1      47.592  37.799  27.749  1.00  0.00    -0.237 OA
ATOM     66  O   UNL A   1      46.404  37.819  29.909  1.00  0.00    -0.744 OA
ENDBRANCH  62  63
ENDBRANCH  43  57
BRANCH  44  67
ATOM     67  C   UNL A   1      43.422  23.438  26.983  1.00  0.00    -0.014 A 
ATOM     68  C   UNL A   1      43.380  22.951  25.664  1.00  0.00     0.010 A 
ATOM     69  C   UNL A   1      43.057  22.584  28.040  1.00  0.00     0.010 A 
ATOM     70  C   UNL A   1      42.968  21.640  25.407  1.00  0.00     0.020 A 
ATOM     71  C   UNL A   1      42.669  21.265  27.788  1.00  0.00     0.020 A 
ATOM     72  C   UNL A   1      42.616  20.805  26.470  1.00  0.00     0.054 A 
BRANCH  72  73
ATOM     73  S   UNL A   1      42.139  19.090  26.117  1.00  0.00     0.124 S 
ATOM     74  O   UNL A   1      42.431  18.428  27.383  1.00  0.00    -0.237 OA
ATOM     75  O   UNL A   1      40.723  19.218  25.780  1.00  0.00    -0.237 OA
ATOM     76  O   UNL A   1      43.004  18.719  24.999  1.00  0.00    -0.744 OA
ENDBRANCH  72  73
ENDBRANCH  44  67
BRANCH  56  77
ATOM     77  C   UNL A   1      49.572  26.714  26.542  1.00  0.00    -0.014 A 
ATOM     78  C   UNL A   1      50.446  26.215  27.522  1.00  0.00     0.010 A 
ATOM     79  C   UNL A   1      49.969  26.695  25.192  1.00  0.00     0.010 A 
ATOM     80  C   UNL A   1      51.698  25.710  27.159  1.00  0.00     0.020 A 
ATOM     81  C   UNL A   1      51.210  26.171  24.822  1.00  0.00     0.020 A 
ATOM     82  C   UNL A   1      52.070  25.687  25.811  1.00  0.00     0.054 A 
BRANCH  82  83
ATOM     83  S   UNL A   1      53.666  24.953  25.357  1.00  0.00     0.124 S 
ATOM     84  O   UNL A   1      54.096  25.815  24.260  1.00  0.00    -0.237 OA
ATOM     85  O   UNL A   1      54.438  25.074  26.592  1.00  0.00    -0.237 OA
ATOM     86  O   UNL A   1      53.322  23.585  24.977  1.00  0.00    -0.744 OA
ENDBRANCH  82  83
ENDBRANCH  56  77
ENDBRANCH  30  31
ENDBRANCH  22  25
ENDBRANCH  20  21
ENDBRANCH  19  20
ENDBRANCH   1  19
TORSDOF 19
ENDMDL
