MODEL 1
REMARK VINA RESULT:     -11.2      0.000      0.000
REMARK SMILES Cc1cccc2sc(NC(=O)/C=C/C(=O)NCCCCNC(=O)c3ccc(-c4c5nc(c(-c6ccc(S(=O)(=O)[O-])cc6)c6ccc([nH]6)c(-c6ccc(S(=O)(=O)[O-])cc6)c6nc(c(-c7ccc(S(=O)(=O)[O-])cc7)c7ccc4[nH]7)C=C6)C=C5)cc3)nc12
REMARK SMILES IDX 19 1 18 2 17 3 16 4 14 5 15 6 13 8 12 9 10 10 9 11 11 13
REMARK SMILES IDX 8 14 1 15 2 16 3 17 85 18 4 19 6 20 84 21 5 22 7 23 20 24
REMARK SMILES IDX 21 25 22 26 23 28 24 29 25 30 83 31 26 32 82 33 27 34 28 35
REMARK SMILES IDX 29 36 76 37 30 38 81 39 75 40 77 41 31 42 80 43 74 44 73 45
REMARK SMILES IDX 32 47 62 48 43 49 61 50 44 51 47 52 60 53 78 54 45 55 46 56
REMARK SMILES IDX 59 58 79 59 48 60 33 61 34 62 42 63 35 64 41 65 36 66 37 67
REMARK SMILES IDX 38 68 39 69 40 70 63 71 64 72 72 73 65 74 71 75 66 76 67 77
REMARK SMILES IDX 68 78 69 79 70 80 49 81 50 82 58 83 51 84 57 85 52 86 53 87
REMARK SMILES IDX 54 88 55 89 56 90
REMARK H PARENT 16 7 9 12 21 27 77 46 47 57
REMARK Flexibility Score: inf
ROOT
ATOM      1  C   UNL A   1      32.112  27.809  27.189  1.00  0.00     0.023 C 
ENDROOT
BRANCH   1   2
ATOM      2  C   UNL A   1      31.959  26.724  26.119  1.00  0.00     0.023 C 
BRANCH   2   3
ATOM      3  C   UNL A   1      30.679  26.811  25.293  1.00  0.00     0.116 C 
BRANCH   3   4
ATOM      4  N   UNL A   1      30.726  27.909  24.347  1.00  0.00    -0.353 N 
ATOM      5  C   UNL A   1      30.909  27.873  23.003  1.00  0.00     0.244 C 
ATOM      6  O   UNL A   1      30.743  28.878  22.320  1.00  0.00    -0.270 OA
ATOM      7  H   UNL A   1      30.608  28.808  24.734  1.00  0.00     0.163 HD
BRANCH   5   8
ATOM      8  C   UNL A   1      31.294  26.610  22.348  1.00  0.00     0.077 C 
ATOM      9  C   UNL A   1      32.553  26.428  21.925  1.00  0.00     0.077 C 
BRANCH   9  10
ATOM     10  C   UNL A   1      32.864  25.280  21.061  1.00  0.00     0.250 C 
ATOM     11  N   UNL A   1      33.099  24.044  21.581  1.00  0.00    -0.298 N 
ATOM     12  H   UNL A   1      33.353  23.372  20.908  1.00  0.00     0.172 HD
ATOM     13  O   UNL A   1      32.921  25.462  19.845  1.00  0.00    -0.270 OA
BRANCH  11  14
ATOM     14  C   UNL A   1      33.050  23.553  22.861  1.00  0.00     0.190 A 
ATOM     15  C   UNL A   1      36.187  23.047  25.786  1.00  0.00     0.047 C 
ATOM     16  C   UNL A   1      34.700  22.984  25.978  1.00  0.00    -0.024 A 
ATOM     17  C   UNL A   1      34.160  22.830  27.270  1.00  0.00     0.006 A 
ATOM     18  C   UNL A   1      33.802  23.113  24.891  1.00  0.00     0.087 A 
ATOM     19  C   UNL A   1      32.784  22.755  27.480  1.00  0.00     0.002 A 
ATOM     20  C   UNL A   1      32.435  22.978  25.125  1.00  0.00     0.057 A 
ATOM     21  N   UNL A   1      34.142  23.402  23.572  1.00  0.00    -0.220 NA
ATOM     22  C   UNL A   1      31.898  22.802  26.406  1.00  0.00     0.021 A 
ATOM     23  S   UNL A   1      31.618  23.053  23.624  1.00  0.00    -0.097 S 
ENDBRANCH  11  14
ENDBRANCH   9  10
ENDBRANCH   5   8
ENDBRANCH   3   4
ENDBRANCH   2   3
ENDBRANCH   1   2
BRANCH   1  24
ATOM     24  C   UNL A   1      33.467  28.511  27.222  1.00  0.00     0.116 C 
BRANCH  24  25
ATOM     25  N   UNL A   1      33.378  29.929  27.532  1.00  0.00    -0.352 N 
ATOM     26  C   UNL A   1      34.349  30.745  28.058  1.00  0.00     0.251 C 
ATOM     27  H   UNL A   1      32.513  30.359  27.339  1.00  0.00     0.163 HD
ATOM     28  O   UNL A   1      34.097  31.915  28.332  1.00  0.00    -0.269 OA
BRANCH  26  29
ATOM     29  C   UNL A   1      35.683  30.180  28.336  1.00  0.00     0.039 A 
ATOM     30  C   UNL A   1      36.642  30.196  27.321  1.00  0.00     0.014 A 
ATOM     31  C   UNL A   1      35.997  29.694  29.608  1.00  0.00     0.014 A 
ATOM     32  C   UNL A   1      37.945  29.786  27.603  1.00  0.00     0.010 A 
ATOM     33  C   UNL A   1      37.311  29.342  29.903  1.00  0.00     0.010 A 
ATOM     34  C   UNL A   1      38.296  29.392  28.905  1.00  0.00    -0.014 A 
BRANCH  34  35
ATOM     35  C   UNL A   1      39.694  29.032  29.244  1.00  0.00     0.031 A 
ATOM     36  C   UNL A   1      40.589  30.039  29.911  1.00  0.00     0.074 A 
ATOM     37  C   UNL A   1      40.175  27.823  28.889  1.00  0.00     0.049 A 
ATOM     38  N   UNL A   1      41.853  29.934  30.229  1.00  0.00    -0.248 NA
ATOM     39  C   UNL A   1      39.991  31.344  30.239  1.00  0.00     0.031 C 
ATOM     40  C   UNL A   1      39.416  26.779  28.196  1.00  0.00     0.029 A 
ATOM     41  N   UNL A   1      41.420  27.273  29.055  1.00  0.00    -0.354 N 
ATOM     42  C   UNL A   1      42.207  31.162  30.775  1.00  0.00     0.074 A 
ATOM     43  C   UNL A   1      41.038  32.011  30.703  1.00  0.00     0.031 C 
ATOM     44  C   UNL A   1      40.205  25.708  28.018  1.00  0.00     0.029 A 
ATOM     45  C   UNL A   1      41.532  25.999  28.551  1.00  0.00     0.049 A 
ATOM     46  H   UNL A   1      42.164  27.745  29.494  1.00  0.00     0.167 HD
ATOM     47  C   UNL A   1      43.394  31.543  31.303  1.00  0.00     0.031 A 
ATOM     48  C   UNL A   1      42.585  25.159  28.521  1.00  0.00     0.031 A 
ATOM     49  C   UNL A   1      44.548  30.690  31.387  1.00  0.00     0.049 A 
ATOM     50  C   UNL A   1      43.888  25.599  29.129  1.00  0.00     0.074 A 
ATOM     51  C   UNL A   1      45.780  30.962  31.955  1.00  0.00     0.029 A 
ATOM     52  N   UNL A   1      44.611  29.395  30.893  1.00  0.00    -0.354 N 
ATOM     53  N   UNL A   1      44.186  26.743  29.696  1.00  0.00    -0.248 NA
ATOM     54  C   UNL A   1      44.993  24.629  29.105  1.00  0.00     0.031 C 
ATOM     55  C   UNL A   1      46.602  29.844  31.770  1.00  0.00     0.029 A 
ATOM     56  C   UNL A   1      45.865  28.860  31.131  1.00  0.00     0.049 A 
ATOM     57  H   UNL A   1      43.874  28.927  30.440  1.00  0.00     0.167 HD
ATOM     58  C   UNL A   1      45.503  26.621  30.123  1.00  0.00     0.074 A 
ATOM     59  C   UNL A   1      45.942  25.290  29.757  1.00  0.00     0.031 C 
ATOM     60  C   UNL A   1      46.280  27.530  30.763  1.00  0.00     0.031 A 
BRANCH  47  61
ATOM     61  C   UNL A   1      43.497  32.949  31.830  1.00  0.00    -0.014 A 
ATOM     62  C   UNL A   1      43.792  34.024  30.971  1.00  0.00     0.010 A 
ATOM     63  C   UNL A   1      43.273  33.205  33.195  1.00  0.00     0.010 A 
ATOM     64  C   UNL A   1      43.909  35.321  31.475  1.00  0.00     0.020 A 
ATOM     65  C   UNL A   1      43.361  34.506  33.698  1.00  0.00     0.020 A 
ATOM     66  C   UNL A   1      43.698  35.553  32.838  1.00  0.00     0.054 A 
BRANCH  66  67
ATOM     67  S   UNL A   1      43.843  37.249  33.466  1.00  0.00     0.124 S 
ATOM     68  O   UNL A   1      44.146  37.995  32.246  1.00  0.00    -0.237 OA
ATOM     69  O   UNL A   1      42.524  37.494  34.040  1.00  0.00    -0.237 OA
ATOM     70  O   UNL A   1      44.935  37.167  34.432  1.00  0.00    -0.744 OA
ENDBRANCH  66  67
ENDBRANCH  47  61
BRANCH  48  71
ATOM     71  C   UNL A   1      42.440  23.808  27.916  1.00  0.00    -0.014 A 
ATOM     72  C   UNL A   1      42.791  23.590  26.572  1.00  0.00     0.010 A 
ATOM     73  C   UNL A   1      41.967  22.728  28.684  1.00  0.00     0.010 A 
ATOM     74  C   UNL A   1      42.660  22.320  26.003  1.00  0.00     0.020 A 
ATOM     75  C   UNL A   1      41.857  21.452  28.125  1.00  0.00     0.020 A 
ATOM     76  C   UNL A   1      42.194  21.258  26.783  1.00  0.00     0.054 A 
BRANCH  76  77
ATOM     77  S   UNL A   1      42.083  19.606  26.041  1.00  0.00     0.124 S 
ATOM     78  O   UNL A   1      42.990  19.724  24.903  1.00  0.00    -0.237 OA
ATOM     79  O   UNL A   1      42.537  18.739  27.125  1.00  0.00    -0.237 OA
ATOM     80  O   UNL A   1      40.666  19.479  25.704  1.00  0.00    -0.744 OA
ENDBRANCH  76  77
ENDBRANCH  48  71
BRANCH  60  81
ATOM     81  C   UNL A   1      47.670  27.105  31.145  1.00  0.00    -0.014 A 
ATOM     82  C   UNL A   1      47.901  26.303  32.277  1.00  0.00     0.010 A 
ATOM     83  C   UNL A   1      48.753  27.457  30.318  1.00  0.00     0.010 A 
ATOM     84  C   UNL A   1      49.197  25.880  32.587  1.00  0.00     0.020 A 
ATOM     85  C   UNL A   1      50.045  27.018  30.612  1.00  0.00     0.020 A 
ATOM     86  C   UNL A   1      50.259  26.240  31.752  1.00  0.00     0.054 A 
BRANCH  86  87
ATOM     87  S   UNL A   1      51.924  25.631  32.143  1.00  0.00     0.124 S 
ATOM     88  O   UNL A   1      52.331  26.531  33.219  1.00  0.00    -0.237 OA
ATOM     89  O   UNL A   1      51.675  24.248  32.542  1.00  0.00    -0.237 OA
ATOM     90  O   UNL A   1      52.654  25.789  30.888  1.00  0.00    -0.744 OA
ENDBRANCH  86  87
ENDBRANCH  60  81
ENDBRANCH  34  35
ENDBRANCH  26  29
ENDBRANCH  24  25
ENDBRANCH   1  24
TORSDOF 16
ENDMDL
MODEL 2
REMARK VINA RESULT:     -11.1      1.328      2.200
REMARK SMILES Cc1cccc2sc(NC(=O)/C=C/C(=O)NCCCCNC(=O)c3ccc(-c4c5nc(c(-c6ccc(S(=O)(=O)[O-])cc6)c6ccc([nH]6)c(-c6ccc(S(=O)(=O)[O-])cc6)c6nc(c(-c7ccc(S(=O)(=O)[O-])cc7)c7ccc4[nH]7)C=C6)C=C5)cc3)nc12
REMARK SMILES IDX 19 1 18 2 17 3 16 4 14 5 15 6 13 8 12 9 10 10 9 11 11 13
REMARK SMILES IDX 8 14 1 15 2 16 3 17 85 18 4 19 6 20 84 21 5 22 7 23 20 24
REMARK SMILES IDX 21 25 22 26 23 28 24 29 25 30 83 31 26 32 82 33 27 34 28 35
REMARK SMILES IDX 29 36 76 37 30 38 81 39 75 40 77 41 31 42 80 43 74 44 73 45
REMARK SMILES IDX 32 47 62 48 43 49 61 50 44 51 47 52 60 53 78 54 45 55 46 56
REMARK SMILES IDX 59 58 79 59 48 60 33 61 34 62 42 63 35 64 41 65 36 66 37 67
REMARK SMILES IDX 38 68 39 69 40 70 63 71 64 72 72 73 65 74 71 75 66 76 67 77
REMARK SMILES IDX 68 78 69 79 70 80 49 81 50 82 58 83 51 84 57 85 52 86 53 87
REMARK SMILES IDX 54 88 55 89 56 90
REMARK H PARENT 16 7 9 12 21 27 77 46 47 57
REMARK Flexibility Score: inf
ROOT
ATOM      1  C   UNL A   1      33.253  28.956  24.977  1.00  0.00     0.023 C 
ENDROOT
BRANCH   1   2
ATOM      2  C   UNL A   1      33.700  27.934  23.927  1.00  0.00     0.023 C 
BRANCH   2   3
ATOM      3  C   UNL A   1      32.566  27.267  23.155  1.00  0.00     0.116 C 
BRANCH   3   4
ATOM      4  N   UNL A   1      33.010  26.782  21.863  1.00  0.00    -0.353 N 
ATOM      5  C   UNL A   1      32.934  25.528  21.348  1.00  0.00     0.244 C 
ATOM      6  O   UNL A   1      33.192  25.319  20.168  1.00  0.00    -0.270 OA
ATOM      7  H   UNL A   1      33.425  27.456  21.276  1.00  0.00     0.163 HD
BRANCH   5   8
ATOM      8  C   UNL A   1      32.519  24.405  22.208  1.00  0.00     0.077 C 
ATOM      9  C   UNL A   1      33.040  23.184  22.018  1.00  0.00     0.077 C 
BRANCH   9  10
ATOM     10  C   UNL A   1      32.444  22.031  22.709  1.00  0.00     0.250 C 
ATOM     11  N   UNL A   1      33.038  21.472  23.798  1.00  0.00    -0.298 N 
ATOM     12  H   UNL A   1      32.575  20.672  24.136  1.00  0.00     0.172 HD
ATOM     13  O   UNL A   1      31.391  21.568  22.270  1.00  0.00    -0.270 OA
BRANCH  11  14
ATOM     14  C   UNL A   1      34.158  21.807  24.516  1.00  0.00     0.190 A 
ATOM     15  C   UNL A   1      37.962  19.792  24.871  1.00  0.00     0.047 C 
ATOM     16  C   UNL A   1      37.591  21.186  25.286  1.00  0.00    -0.024 A 
ATOM     17  C   UNL A   1      38.575  22.060  25.789  1.00  0.00     0.006 A 
ATOM     18  C   UNL A   1      36.269  21.677  25.153  1.00  0.00     0.087 A 
ATOM     19  C   UNL A   1      38.260  23.356  26.194  1.00  0.00     0.002 A 
ATOM     20  C   UNL A   1      35.974  22.957  25.620  1.00  0.00     0.057 A 
ATOM     21  N   UNL A   1      35.200  21.011  24.559  1.00  0.00    -0.220 NA
ATOM     22  C   UNL A   1      36.947  23.818  26.140  1.00  0.00     0.021 A 
ATOM     23  S   UNL A   1      34.293  23.223  25.444  1.00  0.00    -0.097 S 
ENDBRANCH  11  14
ENDBRANCH   9  10
ENDBRANCH   5   8
ENDBRANCH   3   4
ENDBRANCH   2   3
ENDBRANCH   1   2
BRANCH   1  24
ATOM     24  C   UNL A   1      34.048  28.949  26.279  1.00  0.00     0.116 C 
BRANCH  24  25
ATOM     25  N   UNL A   1      33.775  30.096  27.131  1.00  0.00    -0.352 N 
ATOM     26  C   UNL A   1      34.590  30.660  28.082  1.00  0.00     0.251 C 
ATOM     27  H   UNL A   1      32.896  30.523  27.011  1.00  0.00     0.163 HD
ATOM     28  O   UNL A   1      34.188  31.589  28.775  1.00  0.00    -0.269 OA
BRANCH  26  29
ATOM     29  C   UNL A   1      35.938  30.097  28.291  1.00  0.00     0.039 A 
ATOM     30  C   UNL A   1      36.863  30.170  27.247  1.00  0.00     0.014 A 
ATOM     31  C   UNL A   1      36.299  29.558  29.528  1.00  0.00     0.014 A 
ATOM     32  C   UNL A   1      38.179  29.763  27.468  1.00  0.00     0.010 A 
ATOM     33  C   UNL A   1      37.625  29.208  29.764  1.00  0.00     0.010 A 
ATOM     34  C   UNL A   1      38.577  29.314  28.738  1.00  0.00    -0.014 A 
BRANCH  34  35
ATOM     35  C   UNL A   1      39.989  28.955  29.016  1.00  0.00     0.031 A 
ATOM     36  C   UNL A   1      40.924  29.978  29.596  1.00  0.00     0.074 A 
ATOM     37  C   UNL A   1      40.442  27.730  28.680  1.00  0.00     0.049 A 
ATOM     38  N   UNL A   1      42.203  29.874  29.849  1.00  0.00    -0.248 NA
ATOM     39  C   UNL A   1      40.354  31.299  29.906  1.00  0.00     0.031 C 
ATOM     40  C   UNL A   1      39.640  26.668  28.068  1.00  0.00     0.029 A 
ATOM     41  N   UNL A   1      41.690  27.176  28.800  1.00  0.00    -0.354 N 
ATOM     42  C   UNL A   1      42.594  31.119  30.329  1.00  0.00     0.074 A 
ATOM     43  C   UNL A   1      41.428  31.974  30.289  1.00  0.00     0.031 C 
ATOM     44  C   UNL A   1      40.411  25.583  27.888  1.00  0.00     0.029 A 
ATOM     45  C   UNL A   1      41.766  25.883  28.339  1.00  0.00     0.049 A 
ATOM     46  H   UNL A   1      42.460  27.657  29.181  1.00  0.00     0.167 HD
ATOM     47  C   UNL A   1      43.810  31.508  30.779  1.00  0.00     0.031 A 
ATOM     48  C   UNL A   1      42.811  25.034  28.284  1.00  0.00     0.031 A 
ATOM     49  C   UNL A   1      44.962  30.649  30.833  1.00  0.00     0.049 A 
ATOM     50  C   UNL A   1      44.148  25.484  28.804  1.00  0.00     0.074 A 
ATOM     51  C   UNL A   1      46.224  30.931  31.323  1.00  0.00     0.029 A 
ATOM     52  N   UNL A   1      44.989  29.337  30.385  1.00  0.00    -0.354 N 
ATOM     53  N   UNL A   1      44.483  26.646  29.312  1.00  0.00    -0.248 NA
ATOM     54  C   UNL A   1      45.243  24.505  28.758  1.00  0.00     0.031 C 
ATOM     55  C   UNL A   1      47.027  29.801  31.137  1.00  0.00     0.029 A 
ATOM     56  C   UNL A   1      46.251  28.800  30.575  1.00  0.00     0.049 A 
ATOM     57  H   UNL A   1      44.225  28.859  29.989  1.00  0.00     0.167 HD
ATOM     58  C   UNL A   1      45.820  26.528  29.672  1.00  0.00     0.074 A 
ATOM     59  C   UNL A   1      46.230  25.181  29.332  1.00  0.00     0.031 C 
ATOM     60  C   UNL A   1      46.636  27.453  30.236  1.00  0.00     0.031 A 
BRANCH  47  61
ATOM     61  C   UNL A   1      43.950  32.931  31.247  1.00  0.00    -0.014 A 
ATOM     62  C   UNL A   1      43.653  33.291  32.574  1.00  0.00     0.010 A 
ATOM     63  C   UNL A   1      44.408  33.920  30.357  1.00  0.00     0.010 A 
ATOM     64  C   UNL A   1      43.764  34.619  32.990  1.00  0.00     0.020 A 
ATOM     65  C   UNL A   1      44.548  35.246  30.777  1.00  0.00     0.020 A 
ATOM     66  C   UNL A   1      44.206  35.590  32.086  1.00  0.00     0.054 A 
BRANCH  66  67
ATOM     67  S   UNL A   1      44.354  37.306  32.655  1.00  0.00     0.124 S 
ATOM     68  O   UNL A   1      45.767  37.381  33.019  1.00  0.00    -0.237 OA
ATOM     69  O   UNL A   1      43.969  38.072  31.473  1.00  0.00    -0.237 OA
ATOM     70  O   UNL A   1      43.418  37.382  33.774  1.00  0.00    -0.744 OA
ENDBRANCH  66  67
ENDBRANCH  47  61
BRANCH  48  71
ATOM     71  C   UNL A   1      42.624  23.663  27.738  1.00  0.00    -0.014 A 
ATOM     72  C   UNL A   1      42.751  23.423  26.358  1.00  0.00     0.010 A 
ATOM     73  C   UNL A   1      42.337  22.585  28.596  1.00  0.00     0.010 A 
ATOM     74  C   UNL A   1      42.581  22.135  25.844  1.00  0.00     0.020 A 
ATOM     75  C   UNL A   1      42.190  21.291  28.088  1.00  0.00     0.020 A 
ATOM     76  C   UNL A   1      42.302  21.076  26.712  1.00  0.00     0.054 A 
BRANCH  76  77
ATOM     77  S   UNL A   1      42.139  19.402  26.031  1.00  0.00     0.124 S 
ATOM     78  O   UNL A   1      42.655  18.580  27.121  1.00  0.00    -0.237 OA
ATOM     79  O   UNL A   1      40.703  19.298  25.783  1.00  0.00    -0.237 OA
ATOM     80  O   UNL A   1      42.969  19.443  24.828  1.00  0.00    -0.744 OA
ENDBRANCH  76  77
ENDBRANCH  48  71
BRANCH  60  81
ATOM     81  C   UNL A   1      48.042  27.031  30.558  1.00  0.00    -0.014 A 
ATOM     82  C   UNL A   1      49.089  27.224  29.639  1.00  0.00     0.010 A 
ATOM     83  C   UNL A   1      48.331  26.498  31.828  1.00  0.00     0.010 A 
ATOM     84  C   UNL A   1      50.397  26.869  29.977  1.00  0.00     0.020 A 
ATOM     85  C   UNL A   1      49.641  26.162  32.177  1.00  0.00     0.020 A 
ATOM     86  C   UNL A   1      50.664  26.341  31.244  1.00  0.00     0.054 A 
BRANCH  86  87
ATOM     87  S   UNL A   1      52.379  25.940  31.681  1.00  0.00     0.124 S 
ATOM     88  O   UNL A   1      53.067  26.118  30.406  1.00  0.00    -0.237 OA
ATOM     89  O   UNL A   1      52.691  26.933  32.706  1.00  0.00    -0.237 OA
ATOM     90  O   UNL A   1      52.301  24.562  32.161  1.00  0.00    -0.744 OA
ENDBRANCH  86  87
ENDBRANCH  60  81
ENDBRANCH  34  35
ENDBRANCH  26  29
ENDBRANCH  24  25
ENDBRANCH   1  24
TORSDOF 16
ENDMDL
MODEL 3
REMARK VINA RESULT:     -10.8      5.513     11.614
REMARK SMILES Cc1cccc2sc(NC(=O)/C=C/C(=O)NCCCCNC(=O)c3ccc(-c4c5nc(c(-c6ccc(S(=O)(=O)[O-])cc6)c6ccc([nH]6)c(-c6ccc(S(=O)(=O)[O-])cc6)c6nc(c(-c7ccc(S(=O)(=O)[O-])cc7)c7ccc4[nH]7)C=C6)C=C5)cc3)nc12
REMARK SMILES IDX 19 1 18 2 17 3 16 4 14 5 15 6 13 8 12 9 10 10 9 11 11 13
REMARK SMILES IDX 8 14 1 15 2 16 3 17 85 18 4 19 6 20 84 21 5 22 7 23 20 24
REMARK SMILES IDX 21 25 22 26 23 28 24 29 25 30 83 31 26 32 82 33 27 34 28 35
REMARK SMILES IDX 29 36 76 37 30 38 81 39 75 40 77 41 31 42 80 43 74 44 73 45
REMARK SMILES IDX 32 47 62 48 43 49 61 50 44 51 47 52 60 53 78 54 45 55 46 56
REMARK SMILES IDX 59 58 79 59 48 60 33 61 34 62 42 63 35 64 41 65 36 66 37 67
REMARK SMILES IDX 38 68 39 69 40 70 63 71 64 72 72 73 65 74 71 75 66 76 67 77
REMARK SMILES IDX 68 78 69 79 70 80 49 81 50 82 58 83 51 84 57 85 52 86 53 87
REMARK SMILES IDX 54 88 55 89 56 90
REMARK H PARENT 16 7 9 12 21 27 77 46 47 57
REMARK Flexibility Score: inf
ROOT
ATOM      1  C   UNL A   1      39.588  22.406  26.587  1.00  0.00     0.023 C 
ENDROOT
BRANCH   1   2
ATOM      2  C   UNL A   1      40.421  21.301  27.244  1.00  0.00     0.023 C 
BRANCH   2   3
ATOM      3  C   UNL A   1      41.260  20.469  26.279  1.00  0.00     0.116 C 
BRANCH   3   4
ATOM      4  N   UNL A   1      41.701  19.228  26.884  1.00  0.00    -0.353 N 
ATOM      5  C   UNL A   1      42.761  18.445  26.556  1.00  0.00     0.244 C 
ATOM      6  O   UNL A   1      43.104  17.519  27.282  1.00  0.00    -0.270 OA
ATOM      7  H   UNL A   1      41.157  18.908  27.640  1.00  0.00     0.163 HD
BRANCH   5   8
ATOM      8  C   UNL A   1      43.522  18.718  25.323  1.00  0.00     0.077 C 
ATOM      9  C   UNL A   1      44.795  19.132  25.397  1.00  0.00     0.077 C 
BRANCH   9  10
ATOM     10  C   UNL A   1      45.460  19.635  24.185  1.00  0.00     0.250 C 
ATOM     11  N   UNL A   1      45.765  20.953  24.039  1.00  0.00    -0.298 N 
ATOM     12  H   UNL A   1      46.155  21.175  23.163  1.00  0.00     0.172 HD
ATOM     13  O   UNL A   1      45.727  18.833  23.291  1.00  0.00    -0.270 OA
BRANCH  11  14
ATOM     14  C   UNL A   1      45.635  22.032  24.876  1.00  0.00     0.190 A 
ATOM     15  C   UNL A   1      43.445  22.461  28.573  1.00  0.00     0.047 C 
ATOM     16  C   UNL A   1      44.489  23.365  27.985  1.00  0.00    -0.024 A 
ATOM     17  C   UNL A   1      44.943  24.486  28.709  1.00  0.00     0.006 A 
ATOM     18  C   UNL A   1      45.071  23.108  26.721  1.00  0.00     0.087 A 
ATOM     19  C   UNL A   1      45.902  25.351  28.186  1.00  0.00     0.002 A 
ATOM     20  C   UNL A   1      45.985  24.022  26.200  1.00  0.00     0.057 A 
ATOM     21  N   UNL A   1      44.848  21.988  25.924  1.00  0.00    -0.220 NA
ATOM     22  C   UNL A   1      46.421  25.148  26.909  1.00  0.00     0.021 A 
ATOM     23  S   UNL A   1      46.417  23.519  24.623  1.00  0.00    -0.097 S 
ENDBRANCH  11  14
ENDBRANCH   9  10
ENDBRANCH   5   8
ENDBRANCH   3   4
ENDBRANCH   2   3
ENDBRANCH   1   2
BRANCH   1  24
ATOM     24  C   UNL A   1      40.088  23.829  26.821  1.00  0.00     0.116 C 
BRANCH  24  25
ATOM     25  N   UNL A   1      41.172  24.215  25.932  1.00  0.00    -0.352 N 
ATOM     26  C   UNL A   1      42.076  25.237  26.089  1.00  0.00     0.251 C 
ATOM     27  H   UNL A   1      41.273  23.675  25.114  1.00  0.00     0.163 HD
ATOM     28  O   UNL A   1      42.895  25.484  25.210  1.00  0.00    -0.269 OA
BRANCH  26  29
ATOM     29  C   UNL A   1      42.011  26.065  27.309  1.00  0.00     0.039 A 
ATOM     30  C   UNL A   1      42.746  27.251  27.353  1.00  0.00     0.014 A 
ATOM     31  C   UNL A   1      41.183  25.699  28.372  1.00  0.00     0.014 A 
ATOM     32  C   UNL A   1      42.597  28.110  28.441  1.00  0.00     0.010 A 
ATOM     33  C   UNL A   1      40.990  26.584  29.428  1.00  0.00     0.010 A 
ATOM     34  C   UNL A   1      41.691  27.800  29.468  1.00  0.00    -0.014 A 
BRANCH  34  35
ATOM     35  C   UNL A   1      41.455  28.739  30.592  1.00  0.00     0.031 A 
ATOM     36  C   UNL A   1      42.309  28.662  31.827  1.00  0.00     0.074 A 
ATOM     37  C   UNL A   1      40.429  29.611  30.526  1.00  0.00     0.049 A 
ATOM     38  N   UNL A   1      42.218  29.352  32.934  1.00  0.00    -0.248 NA
ATOM     39  C   UNL A   1      43.389  27.662  31.827  1.00  0.00     0.031 C 
ATOM     40  C   UNL A   1      39.503  29.747  29.399  1.00  0.00     0.029 A 
ATOM     41  N   UNL A   1      39.990  30.543  31.430  1.00  0.00    -0.354 N 
ATOM     42  C   UNL A   1      43.213  28.856  33.769  1.00  0.00     0.074 A 
ATOM     43  C   UNL A   1      43.865  27.779  33.058  1.00  0.00     0.031 C 
ATOM     44  C   UNL A   1      38.621  30.722  29.670  1.00  0.00     0.029 A 
ATOM     45  C   UNL A   1      38.895  31.255  31.001  1.00  0.00     0.049 A 
ATOM     46  H   UNL A   1      40.417  30.689  32.305  1.00  0.00     0.167 HD
ATOM     47  C   UNL A   1      43.562  29.273  35.009  1.00  0.00     0.031 A 
ATOM     48  C   UNL A   1      38.191  32.229  31.610  1.00  0.00     0.031 A 
ATOM     49  C   UNL A   1      42.921  30.355  35.705  1.00  0.00     0.049 A 
ATOM     50  C   UNL A   1      38.608  32.685  32.980  1.00  0.00     0.074 A 
ATOM     51  C   UNL A   1      43.236  30.891  36.941  1.00  0.00     0.029 A 
ATOM     52  N   UNL A   1      41.836  31.072  35.222  1.00  0.00    -0.354 N 
ATOM     53  N   UNL A   1      39.591  32.247  33.729  1.00  0.00    -0.248 NA
ATOM     54  C   UNL A   1      37.831  33.778  33.582  1.00  0.00     0.031 C 
ATOM     55  C   UNL A   1      42.317  31.907  37.223  1.00  0.00     0.029 A 
ATOM     56  C   UNL A   1      41.460  32.036  36.142  1.00  0.00     0.049 A 
ATOM     57  H   UNL A   1      41.397  30.917  34.355  1.00  0.00     0.167 HD
ATOM     58  C   UNL A   1      39.568  33.028  34.878  1.00  0.00     0.074 A 
ATOM     59  C   UNL A   1      38.481  33.972  34.722  1.00  0.00     0.031 C 
ATOM     60  C   UNL A   1      40.378  32.971  35.965  1.00  0.00     0.031 A 
BRANCH  47  61
ATOM     61  C   UNL A   1      44.692  28.548  35.689  1.00  0.00    -0.014 A 
ATOM     62  C   UNL A   1      46.027  28.953  35.506  1.00  0.00     0.010 A 
ATOM     63  C   UNL A   1      44.416  27.462  36.540  1.00  0.00     0.010 A 
ATOM     64  C   UNL A   1      47.069  28.257  36.123  1.00  0.00     0.020 A 
ATOM     65  C   UNL A   1      45.454  26.781  37.182  1.00  0.00     0.020 A 
ATOM     66  C   UNL A   1      46.775  27.171  36.954  1.00  0.00     0.054 A 
BRANCH  66  67
ATOM     67  S   UNL A   1      48.146  26.292  37.754  1.00  0.00     0.124 S 
ATOM     68  O   UNL A   1      49.170  27.332  37.824  1.00  0.00    -0.237 OA
ATOM     69  O   UNL A   1      47.569  25.892  39.034  1.00  0.00    -0.237 OA
ATOM     70  O   UNL A   1      48.436  25.194  36.835  1.00  0.00    -0.744 OA
ENDBRANCH  66  67
ENDBRANCH  47  61
BRANCH  48  71
ATOM     71  C   UNL A   1      37.034  32.854  30.914  1.00  0.00    -0.014 A 
ATOM     72  C   UNL A   1      37.245  33.766  29.864  1.00  0.00     0.010 A 
ATOM     73  C   UNL A   1      35.716  32.528  31.283  1.00  0.00     0.010 A 
ATOM     74  C   UNL A   1      36.160  34.351  29.205  1.00  0.00     0.020 A 
ATOM     75  C   UNL A   1      34.629  33.094  30.611  1.00  0.00     0.020 A 
ATOM     76  C   UNL A   1      34.858  34.011  29.583  1.00  0.00     0.054 A 
BRANCH  76  77
ATOM     77  S   UNL A   1      33.464  34.740  28.678  1.00  0.00     0.124 S 
ATOM     78  O   UNL A   1      34.068  35.937  28.104  1.00  0.00    -0.237 OA
ATOM     79  O   UNL A   1      33.117  33.686  27.727  1.00  0.00    -0.237 OA
ATOM     80  O   UNL A   1      32.468  34.977  29.722  1.00  0.00    -0.744 OA
ENDBRANCH  76  77
ENDBRANCH  48  71
BRANCH  60  81
ATOM     81  C   UNL A   1      40.146  33.979  37.055  1.00  0.00    -0.014 A 
ATOM     82  C   UNL A   1      40.822  35.212  37.061  1.00  0.00     0.010 A 
ATOM     83  C   UNL A   1      39.185  33.716  38.048  1.00  0.00     0.010 A 
ATOM     84  C   UNL A   1      40.557  36.156  38.057  1.00  0.00     0.020 A 
ATOM     85  C   UNL A   1      38.901  34.665  39.032  1.00  0.00     0.020 A 
ATOM     86  C   UNL A   1      39.597  35.876  39.036  1.00  0.00     0.054 A 
BRANCH  86  87
ATOM     87  S   UNL A   1      39.228  37.138  40.286  1.00  0.00     0.124 S 
ATOM     88  O   UNL A   1      38.439  36.383  41.255  1.00  0.00    -0.237 OA
ATOM     89  O   UNL A   1      40.557  37.543  40.737  1.00  0.00    -0.237 OA
ATOM     90  O   UNL A   1      38.492  38.157  39.541  1.00  0.00    -0.744 OA
ENDBRANCH  86  87
ENDBRANCH  60  81
ENDBRANCH  34  35
ENDBRANCH  26  29
ENDBRANCH  24  25
ENDBRANCH   1  24
TORSDOF 16
ENDMDL
