MODEL 1
REMARK VINA RESULT:     -10.7      0.000      0.000
REMARK SMILES CC1(C)CCC[C@@H]1[NH2+]Cc1cc(C(=O)NCCCCNC(=O)c2ccc(-c3c4nc(c(-c5ccc(S(=O)(=O)[O-])cc5)c5ccc([nH]5)c(-c5ccc(S(=O)(=O)[O-])cc5)c5nc(c(-c6ccc(S(=O)(=O)[O-])cc6)c6ccc3[nH]6)C=C5)C=C4)cc2)cs1
REMARK SMILES IDX 17 1 16 2 15 3 13 4 14 5 12 7 10 8 11 9 84 10 83 11 9 12
REMARK SMILES IDX 8 13 7 16 1 17 2 18 3 19 4 20 5 21 6 22 18 23 19 24 20 25
REMARK SMILES IDX 21 26 22 28 23 29 24 30 82 31 25 32 81 33 26 34 27 35 28 36
REMARK SMILES IDX 75 37 29 38 80 39 74 40 76 41 30 42 79 43 73 44 72 45 31 47
REMARK SMILES IDX 61 48 42 49 60 50 43 51 46 52 59 53 77 54 44 55 45 56 58 58
REMARK SMILES IDX 78 59 47 60 32 61 33 62 41 63 34 64 40 65 35 66 36 67 37 68
REMARK SMILES IDX 38 69 39 70 62 71 63 72 71 73 64 74 70 75 65 76 66 77 67 78
REMARK SMILES IDX 68 79 69 80 48 81 49 82 57 83 50 84 56 85 51 86 52 87 53 88
REMARK SMILES IDX 54 89 55 90
REMARK H PARENT 15 6 8 14 8 15 20 27 76 46 46 57
REMARK Flexibility Score: inf
ROOT
ATOM      1  C   UNL A   1      35.485  21.853  26.417  1.00  0.00     0.023 C 
ENDROOT
BRANCH   1   2
ATOM      2  C   UNL A   1      34.179  21.500  27.131  1.00  0.00     0.116 C 
BRANCH   2   3
ATOM      3  N   UNL A   1      33.440  20.490  26.398  1.00  0.00    -0.352 N 
ATOM      4  C   UNL A   1      32.417  20.607  25.492  1.00  0.00     0.252 C 
ATOM      5  O   UNL A   1      32.028  19.576  24.935  1.00  0.00    -0.269 OA
ATOM      6  H   UNL A   1      33.719  19.564  26.584  1.00  0.00     0.163 HD
BRANCH   4   7
ATOM      7  C   UNL A   1      31.854  21.914  25.149  1.00  0.00     0.051 A 
ATOM      8  C   UNL A   1      30.833  24.028  25.363  1.00  0.00     0.059 A 
ATOM      9  C   UNL A   1      30.989  22.768  25.908  1.00  0.00     0.035 A 
ATOM     10  S   UNL A   1      31.483  24.090  23.786  1.00  0.00    -0.142 S 
ATOM     11  C   UNL A   1      32.100  22.499  23.917  1.00  0.00     0.079 A 
BRANCH   8  12
ATOM     12  C   UNL A   1      30.203  25.233  26.009  1.00  0.00     0.308 C 
BRANCH  12  13
ATOM     13  N   UNL A   1      31.257  26.051  26.602  1.00  0.00    -0.339 N 
ATOM     14  H   UNL A   1      31.186  25.954  27.615  1.00  0.00     0.346 HD
ATOM     15  H   UNL A   1      32.121  25.698  26.191  1.00  0.00     0.346 HD
BRANCH  13  16
ATOM     16  C   UNL A   1      31.253  27.477  26.298  1.00  0.00     0.188 C 
ATOM     17  C   UNL A   1      31.715  27.988  23.823  1.00  0.00     0.017 C 
ATOM     18  C   UNL A   1      32.243  28.075  25.261  1.00  0.00     0.017 C 
ATOM     19  C   UNL A   1      33.658  27.469  25.340  1.00  0.00     0.017 C 
ATOM     20  C   UNL A   1      32.277  29.552  25.708  1.00  0.00     0.013 C 
ATOM     21  C   UNL A   1      32.344  29.489  27.224  1.00  0.00     0.007 C 
ATOM     22  C   UNL A   1      31.549  28.244  27.609  1.00  0.00     0.065 C 
ENDBRANCH  13  16
ENDBRANCH  12  13
ENDBRANCH   8  12
ENDBRANCH   4   7
ENDBRANCH   2   3
ENDBRANCH   1   2
BRANCH   1  23
ATOM     23  C   UNL A   1      35.550  23.294  25.910  1.00  0.00     0.023 C 
BRANCH  23  24
ATOM     24  C   UNL A   1      36.858  23.669  25.224  1.00  0.00     0.116 C 
BRANCH  24  25
ATOM     25  N   UNL A   1      37.922  22.699  25.440  1.00  0.00    -0.352 N 
ATOM     26  C   UNL A   1      39.116  22.889  26.095  1.00  0.00     0.251 C 
ATOM     27  H   UNL A   1      37.768  21.799  25.074  1.00  0.00     0.163 HD
ATOM     28  O   UNL A   1      39.970  22.010  26.099  1.00  0.00    -0.269 OA
BRANCH  26  29
ATOM     29  C   UNL A   1      39.365  24.188  26.754  1.00  0.00     0.039 A 
ATOM     30  C   UNL A   1      38.909  24.384  28.058  1.00  0.00     0.014 A 
ATOM     31  C   UNL A   1      40.111  25.175  26.105  1.00  0.00     0.014 A 
ATOM     32  C   UNL A   1      39.263  25.551  28.738  1.00  0.00     0.010 A 
ATOM     33  C   UNL A   1      40.528  26.296  26.812  1.00  0.00     0.010 A 
ATOM     34  C   UNL A   1      40.108  26.498  28.135  1.00  0.00    -0.014 A 
BRANCH  34  35
ATOM     35  C   UNL A   1      40.563  27.704  28.870  1.00  0.00     0.031 A 
ATOM     36  C   UNL A   1      41.923  27.722  29.515  1.00  0.00     0.074 A 
ATOM     37  C   UNL A   1      39.732  28.756  29.012  1.00  0.00     0.049 A 
ATOM     38  N   UNL A   1      42.476  28.656  30.245  1.00  0.00    -0.248 NA
ATOM     39  C   UNL A   1      42.760  26.523  29.339  1.00  0.00     0.031 C 
ATOM     40  C   UNL A   1      38.373  28.843  28.472  1.00  0.00     0.029 A 
ATOM     41  N   UNL A   1      39.906  29.954  29.661  1.00  0.00    -0.354 N 
ATOM     42  C   UNL A   1      43.715  28.153  30.626  1.00  0.00     0.074 A 
ATOM     43  C   UNL A   1      43.809  26.811  30.095  1.00  0.00     0.031 C 
ATOM     44  C   UNL A   1      37.850  30.040  28.784  1.00  0.00     0.029 A 
ATOM     45  C   UNL A   1      38.815  30.788  29.583  1.00  0.00     0.049 A 
ATOM     46  H   UNL A   1      40.734  30.193  30.136  1.00  0.00     0.167 HD
ATOM     47  C   UNL A   1      44.696  28.761  31.334  1.00  0.00     0.031 A 
ATOM     48  C   UNL A   1      38.611  32.015  30.102  1.00  0.00     0.031 A 
ATOM     49  C   UNL A   1      44.602  30.100  31.851  1.00  0.00     0.049 A 
ATOM     50  C   UNL A   1      39.711  32.663  30.900  1.00  0.00     0.074 A 
ATOM     51  C   UNL A   1      45.562  30.825  32.534  1.00  0.00     0.029 A 
ATOM     52  N   UNL A   1      43.484  30.914  31.745  1.00  0.00    -0.354 N 
ATOM     53  N   UNL A   1      40.903  32.198  31.190  1.00  0.00    -0.248 NA
ATOM     54  C   UNL A   1      39.443  34.007  31.429  1.00  0.00     0.031 C 
ATOM     55  C   UNL A   1      45.005  32.057  32.892  1.00  0.00     0.029 A 
ATOM     56  C   UNL A   1      43.722  32.125  32.372  1.00  0.00     0.049 A 
ATOM     57  H   UNL A   1      42.647  30.667  31.291  1.00  0.00     0.167 HD
ATOM     58  C   UNL A   1      41.537  33.205  31.910  1.00  0.00     0.074 A 
ATOM     59  C   UNL A   1      40.603  34.309  31.996  1.00  0.00     0.031 C 
ATOM     60  C   UNL A   1      42.782  33.216  32.448  1.00  0.00     0.031 A 
BRANCH  47  61
ATOM     61  C   UNL A   1      45.957  27.978  31.593  1.00  0.00    -0.014 A 
ATOM     62  C   UNL A   1      46.105  27.201  32.757  1.00  0.00     0.010 A 
ATOM     63  C   UNL A   1      46.990  27.982  30.639  1.00  0.00     0.010 A 
ATOM     64  C   UNL A   1      47.279  26.477  32.981  1.00  0.00     0.020 A 
ATOM     65  C   UNL A   1      48.154  27.233  30.845  1.00  0.00     0.020 A 
ATOM     66  C   UNL A   1      48.296  26.498  32.023  1.00  0.00     0.054 A 
BRANCH  66  67
ATOM     67  S   UNL A   1      49.795  25.524  32.328  1.00  0.00     0.124 S 
ATOM     68  O   UNL A   1      50.691  26.524  32.905  1.00  0.00    -0.237 OA
ATOM     69  O   UNL A   1      49.324  24.496  33.254  1.00  0.00    -0.237 OA
ATOM     70  O   UNL A   1      50.173  25.040  31.003  1.00  0.00    -0.744 OA
ENDBRANCH  66  67
ENDBRANCH  47  61
BRANCH  48  71
ATOM     71  C   UNL A   1      37.318  32.717  29.876  1.00  0.00    -0.014 A 
ATOM     72  C   UNL A   1      37.121  33.501  28.725  1.00  0.00     0.010 A 
ATOM     73  C   UNL A   1      36.271  32.604  30.810  1.00  0.00     0.010 A 
ATOM     74  C   UNL A   1      35.913  34.178  28.525  1.00  0.00     0.020 A 
ATOM     75  C   UNL A   1      35.052  33.254  30.599  1.00  0.00     0.020 A 
ATOM     76  C   UNL A   1      34.885  34.048  29.464  1.00  0.00     0.054 A 
BRANCH  76  77
ATOM     77  S   UNL A   1      33.313  34.901  29.162  1.00  0.00     0.124 S 
ATOM     78  O   UNL A   1      33.759  36.169  28.595  1.00  0.00    -0.237 OA
ATOM     79  O   UNL A   1      32.637  33.996  28.235  1.00  0.00    -0.237 OA
ATOM     80  O   UNL A   1      32.710  34.984  30.490  1.00  0.00    -0.744 OA
ENDBRANCH  76  77
ENDBRANCH  48  71
BRANCH  60  81
ATOM     81  C   UNL A   1      43.227  34.473  33.147  1.00  0.00    -0.014 A 
ATOM     82  C   UNL A   1      43.012  34.662  34.523  1.00  0.00     0.010 A 
ATOM     83  C   UNL A   1      43.924  35.456  32.421  1.00  0.00     0.010 A 
ATOM     84  C   UNL A   1      43.459  35.826  35.154  1.00  0.00     0.020 A 
ATOM     85  C   UNL A   1      44.401  36.606  33.054  1.00  0.00     0.020 A 
ATOM     86  C   UNL A   1      44.152  36.791  34.415  1.00  0.00     0.054 A 
BRANCH  86  87
ATOM     87  S   UNL A   1      44.762  38.271  35.268  1.00  0.00     0.124 S 
ATOM     88  O   UNL A   1      46.130  38.367  34.767  1.00  0.00    -0.237 OA
ATOM     89  O   UNL A   1      43.848  39.309  34.801  1.00  0.00    -0.237 OA
ATOM     90  O   UNL A   1      44.640  37.931  36.683  1.00  0.00    -0.744 OA
ENDBRANCH  86  87
ENDBRANCH  60  81
ENDBRANCH  34  35
ENDBRANCH  26  29
ENDBRANCH  24  25
ENDBRANCH  23  24
ENDBRANCH   1  23
TORSDOF 17
ENDMDL
MODEL 2
REMARK VINA RESULT:     -10.1      3.324      4.215
REMARK SMILES CC1(C)CCC[C@@H]1[NH2+]Cc1cc(C(=O)NCCCCNC(=O)c2ccc(-c3c4nc(c(-c5ccc(S(=O)(=O)[O-])cc5)c5ccc([nH]5)c(-c5ccc(S(=O)(=O)[O-])cc5)c5nc(c(-c6ccc(S(=O)(=O)[O-])cc6)c6ccc3[nH]6)C=C5)C=C4)cc2)cs1
REMARK SMILES IDX 17 1 16 2 15 3 13 4 14 5 12 7 10 8 11 9 84 10 83 11 9 12
REMARK SMILES IDX 8 13 7 16 1 17 2 18 3 19 4 20 5 21 6 22 18 23 19 24 20 25
REMARK SMILES IDX 21 26 22 28 23 29 24 30 82 31 25 32 81 33 26 34 27 35 28 36
REMARK SMILES IDX 75 37 29 38 80 39 74 40 76 41 30 42 79 43 73 44 72 45 31 47
REMARK SMILES IDX 61 48 42 49 60 50 43 51 46 52 59 53 77 54 44 55 45 56 58 58
REMARK SMILES IDX 78 59 47 60 32 61 33 62 41 63 34 64 40 65 35 66 36 67 37 68
REMARK SMILES IDX 38 69 39 70 62 71 63 72 71 73 64 74 70 75 65 76 66 77 67 78
REMARK SMILES IDX 68 79 69 80 48 81 49 82 57 83 50 84 56 85 51 86 52 87 53 88
REMARK SMILES IDX 54 89 55 90
REMARK H PARENT 15 6 8 14 8 15 20 27 76 46 46 57
REMARK Flexibility Score: inf
ROOT
ATOM      1  C   UNL A   1      39.229  21.440  26.052  1.00  0.00     0.023 C 
ENDROOT
BRANCH   1   2
ATOM      2  C   UNL A   1      37.879  22.127  25.839  1.00  0.00     0.116 C 
BRANCH   2   3
ATOM      3  N   UNL A   1      37.628  22.362  24.430  1.00  0.00    -0.352 N 
ATOM      4  C   UNL A   1      36.501  22.794  23.779  1.00  0.00     0.252 C 
ATOM      5  O   UNL A   1      36.590  23.005  22.566  1.00  0.00    -0.269 OA
ATOM      6  H   UNL A   1      38.396  22.180  23.842  1.00  0.00     0.163 HD
BRANCH   4   7
ATOM      7  C   UNL A   1      35.259  23.057  24.508  1.00  0.00     0.051 A 
ATOM      8  C   UNL A   1      33.503  24.208  25.580  1.00  0.00     0.059 A 
ATOM      9  C   UNL A   1      34.828  24.242  25.189  1.00  0.00     0.035 A 
ATOM     10  S   UNL A   1      32.858  22.638  25.397  1.00  0.00    -0.142 S 
ATOM     11  C   UNL A   1      34.293  22.074  24.655  1.00  0.00     0.079 A 
BRANCH   8  12
ATOM     12  C   UNL A   1      32.670  25.353  26.092  1.00  0.00     0.308 C 
BRANCH  12  13
ATOM     13  N   UNL A   1      33.181  26.596  25.521  1.00  0.00    -0.339 N 
ATOM     14  H   UNL A   1      33.124  27.311  26.245  1.00  0.00     0.346 HD
ATOM     15  H   UNL A   1      34.125  26.369  25.207  1.00  0.00     0.346 HD
BRANCH  13  16
ATOM     16  C   UNL A   1      32.509  27.117  24.336  1.00  0.00     0.188 C 
ATOM     17  C   UNL A   1      33.999  28.657  22.918  1.00  0.00     0.017 C 
ATOM     18  C   UNL A   1      32.775  28.563  23.839  1.00  0.00     0.017 C 
ATOM     19  C   UNL A   1      32.894  29.594  24.978  1.00  0.00     0.017 C 
ATOM     20  C   UNL A   1      31.494  28.831  23.020  1.00  0.00     0.013 C 
ATOM     21  C   UNL A   1      30.372  28.263  23.872  1.00  0.00     0.007 C 
ATOM     22  C   UNL A   1      30.984  27.065  24.593  1.00  0.00     0.065 C 
ENDBRANCH  13  16
ENDBRANCH  12  13
ENDBRANCH   8  12
ENDBRANCH   4   7
ENDBRANCH   2   3
ENDBRANCH   1   2
BRANCH   1  23
ATOM     23  C   UNL A   1      40.133  22.138  27.068  1.00  0.00     0.023 C 
BRANCH  23  24
ATOM     24  C   UNL A   1      39.959  23.649  27.142  1.00  0.00     0.116 C 
BRANCH  24  25
ATOM     25  N   UNL A   1      40.579  24.357  26.031  1.00  0.00    -0.352 N 
ATOM     26  C   UNL A   1      41.056  25.647  26.014  1.00  0.00     0.251 C 
ATOM     27  H   UNL A   1      40.668  23.852  25.192  1.00  0.00     0.163 HD
ATOM     28  O   UNL A   1      41.450  26.151  24.968  1.00  0.00    -0.269 OA
BRANCH  26  29
ATOM     29  C   UNL A   1      41.043  26.425  27.270  1.00  0.00     0.039 A 
ATOM     30  C   UNL A   1      41.960  27.464  27.432  1.00  0.00     0.014 A 
ATOM     31  C   UNL A   1      40.076  26.170  28.246  1.00  0.00     0.014 A 
ATOM     32  C   UNL A   1      41.862  28.295  28.550  1.00  0.00     0.010 A 
ATOM     33  C   UNL A   1      39.932  27.046  29.314  1.00  0.00     0.010 A 
ATOM     34  C   UNL A   1      40.823  28.117  29.480  1.00  0.00    -0.014 A 
BRANCH  34  35
ATOM     35  C   UNL A   1      40.651  29.039  30.630  1.00  0.00     0.031 A 
ATOM     36  C   UNL A   1      41.506  28.877  31.857  1.00  0.00     0.074 A 
ATOM     37  C   UNL A   1      39.685  29.979  30.596  1.00  0.00     0.049 A 
ATOM     38  N   UNL A   1      41.468  29.545  32.981  1.00  0.00    -0.248 NA
ATOM     39  C   UNL A   1      42.519  27.809  31.828  1.00  0.00     0.031 C 
ATOM     40  C   UNL A   1      38.762  30.208  29.482  1.00  0.00     0.029 A 
ATOM     41  N   UNL A   1      39.314  30.916  31.529  1.00  0.00    -0.354 N 
ATOM     42  C   UNL A   1      42.437  28.969  33.795  1.00  0.00     0.074 A 
ATOM     43  C   UNL A   1      43.006  27.864  33.058  1.00  0.00     0.031 C 
ATOM     44  C   UNL A   1      37.954  31.238  29.782  1.00  0.00     0.029 A 
ATOM     45  C   UNL A   1      38.269  31.714  31.125  1.00  0.00     0.049 A 
ATOM     46  H   UNL A   1      39.755  31.009  32.404  1.00  0.00     0.167 HD
ATOM     47  C   UNL A   1      42.834  29.341  35.035  1.00  0.00     0.031 A 
ATOM     48  C   UNL A   1      37.630  32.713  31.766  1.00  0.00     0.031 A 
ATOM     49  C   UNL A   1      42.271  30.450  35.760  1.00  0.00     0.049 A 
ATOM     50  C   UNL A   1      38.079  33.098  33.151  1.00  0.00     0.074 A 
ATOM     51  C   UNL A   1      42.641  30.941  37.000  1.00  0.00     0.029 A 
ATOM     52  N   UNL A   1      41.220  31.236  35.314  1.00  0.00    -0.354 N 
ATOM     53  N   UNL A   1      39.045  32.585  33.876  1.00  0.00    -0.248 NA
ATOM     54  C   UNL A   1      37.360  34.203  33.798  1.00  0.00     0.031 C 
ATOM     55  C   UNL A   1      41.776  31.989  37.329  1.00  0.00     0.029 A 
ATOM     56  C   UNL A   1      40.911  32.193  36.266  1.00  0.00     0.049 A 
ATOM     57  H   UNL A   1      40.762  31.130  34.450  1.00  0.00     0.167 HD
ATOM     58  C   UNL A   1      39.068  33.327  35.052  1.00  0.00     0.074 A 
ATOM     59  C   UNL A   1      38.032  34.332  34.934  1.00  0.00     0.031 C 
ATOM     60  C   UNL A   1      39.877  33.190  36.133  1.00  0.00     0.031 A 
BRANCH  47  61
ATOM     61  C   UNL A   1      43.930  28.539  35.687  1.00  0.00    -0.014 A 
ATOM     62  C   UNL A   1      43.633  27.420  36.488  1.00  0.00     0.010 A 
ATOM     63  C   UNL A   1      45.275  28.879  35.461  1.00  0.00     0.010 A 
ATOM     64  C   UNL A   1      44.661  26.682  37.082  1.00  0.00     0.020 A 
ATOM     65  C   UNL A   1      46.307  28.124  36.028  1.00  0.00     0.020 A 
ATOM     66  C   UNL A   1      45.991  27.040  36.848  1.00  0.00     0.054 A 
BRANCH  66  67
ATOM     67  S   UNL A   1      47.303  26.046  37.610  1.00  0.00     0.124 S 
ATOM     68  O   UNL A   1      47.938  27.016  38.499  1.00  0.00    -0.237 OA
ATOM     69  O   UNL A   1      46.552  24.983  38.275  1.00  0.00    -0.237 OA
ATOM     70  O   UNL A   1      48.117  25.615  36.476  1.00  0.00    -0.744 OA
ENDBRANCH  66  67
ENDBRANCH  47  61
BRANCH  48  71
ATOM     71  C   UNL A   1      36.505  33.428  31.103  1.00  0.00    -0.014 A 
ATOM     72  C   UNL A   1      35.268  33.579  31.756  1.00  0.00     0.010 A 
ATOM     73  C   UNL A   1      36.664  33.967  29.812  1.00  0.00     0.010 A 
ATOM     74  C   UNL A   1      34.206  34.232  31.122  1.00  0.00     0.020 A 
ATOM     75  C   UNL A   1      35.615  34.647  29.188  1.00  0.00     0.020 A 
ATOM     76  C   UNL A   1      34.387  34.764  29.842  1.00  0.00     0.054 A 
BRANCH  76  77
ATOM     77  S   UNL A   1      33.008  35.643  29.057  1.00  0.00     0.124 S 
ATOM     78  O   UNL A   1      32.228  36.076  30.212  1.00  0.00    -0.237 OA
ATOM     79  O   UNL A   1      33.691  36.705  28.321  1.00  0.00    -0.237 OA
ATOM     80  O   UNL A   1      32.381  34.621  28.223  1.00  0.00    -0.744 OA
ENDBRANCH  76  77
ENDBRANCH  48  71
BRANCH  60  81
ATOM     81  C   UNL A   1      39.705  34.172  37.260  1.00  0.00    -0.014 A 
ATOM     82  C   UNL A   1      39.039  33.817  38.447  1.00  0.00     0.010 A 
ATOM     83  C   UNL A   1      40.271  35.456  37.150  1.00  0.00     0.010 A 
ATOM     84  C   UNL A   1      38.916  34.739  39.490  1.00  0.00     0.020 A 
ATOM     85  C   UNL A   1      40.178  36.369  38.203  1.00  0.00     0.020 A 
ATOM     86  C   UNL A   1      39.488  36.009  39.362  1.00  0.00     0.054 A 
BRANCH  86  87
ATOM     87  S   UNL A   1      39.355  37.170  40.748  1.00  0.00     0.124 S 
ATOM     88  O   UNL A   1      40.756  37.443  41.051  1.00  0.00    -0.237 OA
ATOM     89  O   UNL A   1      38.609  38.281  40.165  1.00  0.00    -0.237 OA
ATOM     90  O   UNL A   1      38.634  36.410  41.768  1.00  0.00    -0.744 OA
ENDBRANCH  86  87
ENDBRANCH  60  81
ENDBRANCH  34  35
ENDBRANCH  26  29
ENDBRANCH  24  25
ENDBRANCH  23  24
ENDBRANCH   1  23
TORSDOF 17
ENDMDL
MODEL 3
REMARK VINA RESULT:      -9.9      4.424      9.908
REMARK SMILES CC1(C)CCC[C@@H]1[NH2+]Cc1cc(C(=O)NCCCCNC(=O)c2ccc(-c3c4nc(c(-c5ccc(S(=O)(=O)[O-])cc5)c5ccc([nH]5)c(-c5ccc(S(=O)(=O)[O-])cc5)c5nc(c(-c6ccc(S(=O)(=O)[O-])cc6)c6ccc3[nH]6)C=C5)C=C4)cc2)cs1
REMARK SMILES IDX 17 1 16 2 15 3 13 4 14 5 12 7 10 8 11 9 84 10 83 11 9 12
REMARK SMILES IDX 8 13 7 16 1 17 2 18 3 19 4 20 5 21 6 22 18 23 19 24 20 25
REMARK SMILES IDX 21 26 22 28 23 29 24 30 82 31 25 32 81 33 26 34 27 35 28 36
REMARK SMILES IDX 75 37 29 38 80 39 74 40 76 41 30 42 79 43 73 44 72 45 31 47
REMARK SMILES IDX 61 48 42 49 60 50 43 51 46 52 59 53 77 54 44 55 45 56 58 58
REMARK SMILES IDX 78 59 47 60 32 61 33 62 41 63 34 64 40 65 35 66 36 67 37 68
REMARK SMILES IDX 38 69 39 70 62 71 63 72 71 73 64 74 70 75 65 76 66 77 67 78
REMARK SMILES IDX 68 79 69 80 48 81 49 82 57 83 50 84 56 85 51 86 52 87 53 88
REMARK SMILES IDX 54 89 55 90
REMARK H PARENT 15 6 8 14 8 15 20 27 76 46 46 57
REMARK Flexibility Score: inf
ROOT
ATOM      1  C   UNL A   1      34.713  30.447  27.922  1.00  0.00     0.023 C 
ENDROOT
BRANCH   1   2
ATOM      2  C   UNL A   1      33.572  30.242  26.924  1.00  0.00     0.116 C 
BRANCH   2   3
ATOM      3  N   UNL A   1      32.477  29.506  27.525  1.00  0.00    -0.352 N 
ATOM      4  C   UNL A   1      31.939  28.284  27.214  1.00  0.00     0.252 C 
ATOM      5  O   UNL A   1      31.061  27.841  27.961  1.00  0.00    -0.269 OA
ATOM      6  H   UNL A   1      32.048  29.962  28.286  1.00  0.00     0.163 HD
BRANCH   4   7
ATOM      7  C   UNL A   1      32.433  27.506  26.077  1.00  0.00     0.051 A 
ATOM      8  C   UNL A   1      33.662  25.946  24.807  1.00  0.00     0.059 A 
ATOM      9  C   UNL A   1      33.625  26.721  25.950  1.00  0.00     0.035 A 
ATOM     10  S   UNL A   1      32.405  26.384  23.738  1.00  0.00    -0.142 S 
ATOM     11  C   UNL A   1      31.743  27.477  24.875  1.00  0.00     0.079 A 
BRANCH   8  12
ATOM     12  C   UNL A   1      34.632  24.842  24.481  1.00  0.00     0.308 C 
BRANCH  12  13
ATOM     13  N   UNL A   1      33.882  23.604  24.284  1.00  0.00    -0.339 N 
ATOM     14  H   UNL A   1      33.266  23.489  25.087  1.00  0.00     0.346 HD
ATOM     15  H   UNL A   1      33.411  23.727  23.387  1.00  0.00     0.346 HD
BRANCH  13  16
ATOM     16  C   UNL A   1      34.647  22.371  24.138  1.00  0.00     0.188 C 
ATOM     17  C   UNL A   1      33.453  20.315  25.112  1.00  0.00     0.017 C 
ATOM     18  C   UNL A   1      34.632  21.287  25.250  1.00  0.00     0.017 C 
ATOM     19  C   UNL A   1      34.673  21.868  26.676  1.00  0.00     0.017 C 
ATOM     20  C   UNL A   1      35.950  20.542  24.948  1.00  0.00     0.013 C 
ATOM     21  C   UNL A   1      36.951  21.645  24.648  1.00  0.00     0.007 C 
ATOM     22  C   UNL A   1      36.139  22.753  23.982  1.00  0.00     0.065 C 
ENDBRANCH  13  16
ENDBRANCH  12  13
ENDBRANCH   8  12
ENDBRANCH   4   7
ENDBRANCH   2   3
ENDBRANCH   1   2
BRANCH   1  23
ATOM     23  C   UNL A   1      35.248  31.879  27.975  1.00  0.00     0.023 C 
BRANCH  23  24
ATOM     24  C   UNL A   1      36.077  32.204  29.211  1.00  0.00     0.116 C 
BRANCH  24  25
ATOM     25  N   UNL A   1      35.830  31.300  30.325  1.00  0.00    -0.352 N 
ATOM     26  C   UNL A   1      36.669  30.334  30.829  1.00  0.00     0.251 C 
ATOM     27  H   UNL A   1      34.958  31.391  30.772  1.00  0.00     0.163 HD
ATOM     28  O   UNL A   1      36.280  29.565  31.702  1.00  0.00    -0.269 OA
BRANCH  26  29
ATOM     29  C   UNL A   1      38.030  30.213  30.268  1.00  0.00     0.039 A 
ATOM     30  C   UNL A   1      39.125  30.253  31.132  1.00  0.00     0.014 A 
ATOM     31  C   UNL A   1      38.211  29.988  28.901  1.00  0.00     0.014 A 
ATOM     32  C   UNL A   1      40.403  29.997  30.630  1.00  0.00     0.010 A 
ATOM     33  C   UNL A   1      39.471  29.655  28.420  1.00  0.00     0.010 A 
ATOM     34  C   UNL A   1      40.581  29.657  29.278  1.00  0.00    -0.014 A 
BRANCH  34  35
ATOM     35  C   UNL A   1      41.919  29.300  28.743  1.00  0.00     0.031 A 
ATOM     36  C   UNL A   1      42.194  27.892  28.286  1.00  0.00     0.074 A 
ATOM     37  C   UNL A   1      42.902  30.222  28.727  1.00  0.00     0.049 A 
ATOM     38  N   UNL A   1      43.310  27.374  27.843  1.00  0.00    -0.248 NA
ATOM     39  C   UNL A   1      41.076  26.936  28.362  1.00  0.00     0.031 C 
ATOM     40  C   UNL A   1      42.774  31.608  29.184  1.00  0.00     0.029 A 
ATOM     41  N   UNL A   1      44.209  30.130  28.316  1.00  0.00    -0.354 N 
ATOM     42  C   UNL A   1      43.033  26.033  27.602  1.00  0.00     0.074 A 
ATOM     43  C   UNL A   1      41.663  25.805  28.002  1.00  0.00     0.031 C 
ATOM     44  C   UNL A   1      43.942  32.244  28.999  1.00  0.00     0.029 A 
ATOM     45  C   UNL A   1      44.915  31.303  28.454  1.00  0.00     0.049 A 
ATOM     46  H   UNL A   1      44.603  29.304  27.956  1.00  0.00     0.167 HD
ATOM     47  C   UNL A   1      43.840  25.081  27.075  1.00  0.00     0.031 A 
ATOM     48  C   UNL A   1      46.203  31.588  28.179  1.00  0.00     0.031 A 
ATOM     49  C   UNL A   1      45.201  25.316  26.669  1.00  0.00     0.049 A 
ATOM     50  C   UNL A   1      47.085  30.509  27.608  1.00  0.00     0.074 A 
ATOM     51  C   UNL A   1      46.083  24.432  26.074  1.00  0.00     0.029 A 
ATOM     52  N   UNL A   1      45.876  26.518  26.819  1.00  0.00    -0.354 N 
ATOM     53  N   UNL A   1      46.784  29.264  27.323  1.00  0.00    -0.248 NA
ATOM     54  C   UNL A   1      48.476  30.877  27.311  1.00  0.00     0.031 C 
ATOM     55  C   UNL A   1      47.311  25.083  25.916  1.00  0.00     0.029 A 
ATOM     56  C   UNL A   1      47.172  26.392  26.350  1.00  0.00     0.049 A 
ATOM     57  H   UNL A   1      45.490  27.339  27.201  1.00  0.00     0.167 HD
ATOM     58  C   UNL A   1      47.941  28.710  26.784  1.00  0.00     0.074 A 
ATOM     59  C   UNL A   1      48.939  29.759  26.769  1.00  0.00     0.031 C 
ATOM     60  C   UNL A   1      48.155  27.447  26.339  1.00  0.00     0.031 A 
BRANCH  47  61
ATOM     61  C   UNL A   1      43.270  23.697  26.910  1.00  0.00    -0.014 A 
ATOM     62  C   UNL A   1      42.947  22.905  28.028  1.00  0.00     0.010 A 
ATOM     63  C   UNL A   1      43.011  23.197  25.621  1.00  0.00     0.010 A 
ATOM     64  C   UNL A   1      42.414  21.624  27.858  1.00  0.00     0.020 A 
ATOM     65  C   UNL A   1      42.449  21.928  25.449  1.00  0.00     0.020 A 
ATOM     66  C   UNL A   1      42.169  21.144  26.569  1.00  0.00     0.054 A 
BRANCH  66  67
ATOM     67  S   UNL A   1      41.451  19.490  26.382  1.00  0.00     0.124 S 
ATOM     68  O   UNL A   1      42.208  18.958  25.252  1.00  0.00    -0.237 OA
ATOM     69  O   UNL A   1      41.736  18.871  27.675  1.00  0.00    -0.237 OA
ATOM     70  O   UNL A   1      40.038  19.750  26.118  1.00  0.00    -0.744 OA
ENDBRANCH  66  67
ENDBRANCH  47  61
BRANCH  48  71
ATOM     71  C   UNL A   1      46.736  32.956  28.427  1.00  0.00    -0.014 A 
ATOM     72  C   UNL A   1      46.669  33.943  27.427  1.00  0.00     0.010 A 
ATOM     73  C   UNL A   1      47.312  33.282  29.669  1.00  0.00     0.010 A 
ATOM     74  C   UNL A   1      47.191  35.221  27.655  1.00  0.00     0.020 A 
ATOM     75  C   UNL A   1      47.807  34.567  29.912  1.00  0.00     0.020 A 
ATOM     76  C   UNL A   1      47.755  35.525  28.898  1.00  0.00     0.054 A 
BRANCH  76  77
ATOM     77  S   UNL A   1      48.385  37.201  29.185  1.00  0.00     0.124 S 
ATOM     78  O   UNL A   1      47.206  37.884  29.705  1.00  0.00    -0.237 OA
ATOM     79  O   UNL A   1      49.461  36.972  30.147  1.00  0.00    -0.237 OA
ATOM     80  O   UNL A   1      48.827  37.631  27.861  1.00  0.00    -0.744 OA
ENDBRANCH  76  77
ENDBRANCH  48  71
BRANCH  60  81
ATOM     81  C   UNL A   1      49.509  27.134  25.761  1.00  0.00    -0.014 A 
ATOM     82  C   UNL A   1      49.789  27.335  24.398  1.00  0.00     0.010 A 
ATOM     83  C   UNL A   1      50.536  26.685  26.612  1.00  0.00     0.010 A 
ATOM     84  C   UNL A   1      51.062  27.063  23.891  1.00  0.00     0.020 A 
ATOM     85  C   UNL A   1      51.819  26.442  26.115  1.00  0.00     0.020 A 
ATOM     86  C   UNL A   1      52.070  26.619  24.753  1.00  0.00     0.054 A 
BRANCH  86  87
ATOM     87  S   UNL A   1      53.726  26.318  24.078  1.00  0.00     0.124 S 
ATOM     88  O   UNL A   1      54.076  25.041  24.692  1.00  0.00    -0.237 OA
ATOM     89  O   UNL A   1      53.482  26.278  22.639  1.00  0.00    -0.237 OA
ATOM     90  O   UNL A   1      54.503  27.466  24.541  1.00  0.00    -0.744 OA
ENDBRANCH  86  87
ENDBRANCH  60  81
ENDBRANCH  34  35
ENDBRANCH  26  29
ENDBRANCH  24  25
ENDBRANCH  23  24
ENDBRANCH   1  23
TORSDOF 17
ENDMDL
