MODEL 1
REMARK VINA RESULT:     -12.0      0.000      0.000
REMARK SMILES O=C(NCCCCNC(=O)c1cccc(Nc2ccnc3ccc(F)cc23)c1)c1ccc(-c2c3nc(c(-c4ccc(S(=O)(=O)[O-])cc4)c4ccc([nH]4)c(-c4ccc(S(=O)(=O)[O-])cc4)c4nc(c(-c5ccc(S(=O)(=O)[O-])cc5)c5ccc2[nH]5)C=C4)C=C3)cc1
REMARK SMILES IDX 5 1 4 2 3 3 1 4 2 5 29 7 30 8 88 9 31 10 87 11 32 12 33 13
REMARK SMILES IDX 34 14 81 15 35 16 86 17 80 18 82 19 36 20 85 21 79 22 78 23
REMARK SMILES IDX 37 25 67 26 48 27 66 28 49 29 52 30 65 31 83 32 50 33 51 34
REMARK SMILES IDX 64 36 84 37 53 38 38 39 39 40 47 41 40 42 46 43 41 44 42 45
REMARK SMILES IDX 43 46 44 47 45 48 68 49 69 50 77 51 70 52 76 53 71 54 72 55
REMARK SMILES IDX 73 56 74 57 75 58 54 59 55 60 63 61 56 62 62 63 57 64 58 65
REMARK SMILES IDX 59 66 60 67 61 68 6 69 7 70 8 71 9 72 10 74 11 75 12 76
REMARK SMILES IDX 28 77 13 78 15 79 14 80 16 81 17 83 18 84 27 85 19 86 21 87
REMARK SMILES IDX 26 88 20 89 22 90 24 91 23 92 25 93
REMARK H PARENT 3 6 82 24 52 35 8 73 16 82
REMARK Flexibility Score: inf
ROOT
ATOM      1  C   UNL A   1      33.281  28.029  25.510  1.00  0.00     0.023 C 
ENDROOT
BRANCH   1   2
ATOM      2  C   UNL A   1      33.620  28.252  26.978  1.00  0.00     0.116 C 
BRANCH   2   3
ATOM      3  N   UNL A   1      33.453  29.631  27.421  1.00  0.00    -0.352 N 
ATOM      4  O   UNL A   1      34.013  31.584  28.401  1.00  0.00    -0.269 OA
ATOM      5  C   UNL A   1      34.363  30.468  28.025  1.00  0.00     0.251 C 
ATOM      6  H   UNL A   1      32.561  30.019  27.265  1.00  0.00     0.163 HD
BRANCH   5   7
ATOM      7  C   UNL A   1      35.748  30.002  28.253  1.00  0.00     0.039 A 
ATOM      8  C   UNL A   1      36.137  29.530  29.506  1.00  0.00     0.014 A 
ATOM      9  C   UNL A   1      36.679  30.072  27.212  1.00  0.00     0.014 A 
ATOM     10  C   UNL A   1      37.481  29.311  29.770  1.00  0.00     0.010 A 
ATOM     11  C   UNL A   1      38.019  29.744  27.453  1.00  0.00     0.010 A 
ATOM     12  C   UNL A   1      38.439  29.401  28.746  1.00  0.00    -0.014 A 
BRANCH  12  13
ATOM     13  C   UNL A   1      39.853  29.065  29.064  1.00  0.00     0.031 A 
ATOM     14  C   UNL A   1      40.448  27.727  28.715  1.00  0.00     0.074 A 
ATOM     15  C   UNL A   1      40.626  30.025  29.611  1.00  0.00     0.049 A 
ATOM     16  N   UNL A   1      41.686  27.320  28.851  1.00  0.00    -0.248 NA
ATOM     17  C   UNL A   1      39.546  26.712  28.148  1.00  0.00     0.031 C 
ATOM     18  C   UNL A   1      40.158  31.357  30.009  1.00  0.00     0.029 A 
ATOM     19  N   UNL A   1      41.968  30.050  29.892  1.00  0.00    -0.354 N 
ATOM     20  C   UNL A   1      41.712  26.007  28.395  1.00  0.00     0.074 A 
ATOM     21  C   UNL A   1      40.358  25.670  28.010  1.00  0.00     0.031 C 
ATOM     22  C   UNL A   1      41.203  32.088  30.418  1.00  0.00     0.029 A 
ATOM     23  C   UNL A   1      42.401  31.260  30.381  1.00  0.00     0.049 A 
ATOM     24  H   UNL A   1      42.562  29.278  29.757  1.00  0.00     0.167 HD
ATOM     25  C   UNL A   1      42.769  25.163  28.297  1.00  0.00     0.031 A 
ATOM     26  C   UNL A   1      43.625  31.663  30.772  1.00  0.00     0.031 A 
ATOM     27  C   UNL A   1      44.115  25.501  28.691  1.00  0.00     0.049 A 
ATOM     28  C   UNL A   1      44.772  30.701  30.670  1.00  0.00     0.074 A 
ATOM     29  C   UNL A   1      45.254  24.714  28.629  1.00  0.00     0.029 A 
ATOM     30  N   UNL A   1      44.506  26.724  29.216  1.00  0.00    -0.354 N 
ATOM     31  N   UNL A   1      44.774  29.470  30.219  1.00  0.00    -0.248 NA
ATOM     32  C   UNL A   1      46.081  31.185  31.125  1.00  0.00     0.031 C 
ATOM     33  C   UNL A   1      46.323  25.445  29.159  1.00  0.00     0.029 A 
ATOM     34  C   UNL A   1      45.864  26.708  29.497  1.00  0.00     0.049 A 
ATOM     35  H   UNL A   1      43.908  27.491  29.367  1.00  0.00     0.167 HD
ATOM     36  C   UNL A   1      46.088  29.032  30.330  1.00  0.00     0.074 A 
ATOM     37  C   UNL A   1      46.855  30.144  30.855  1.00  0.00     0.031 C 
ATOM     38  C   UNL A   1      46.610  27.818  30.032  1.00  0.00     0.031 A 
BRANCH  25  39
ATOM     39  C   UNL A   1      42.518  23.780  27.750  1.00  0.00    -0.014 A 
ATOM     40  C   UNL A   1      42.582  23.524  26.370  1.00  0.00     0.010 A 
ATOM     41  C   UNL A   1      42.281  22.708  28.632  1.00  0.00     0.010 A 
ATOM     42  C   UNL A   1      42.387  22.230  25.877  1.00  0.00     0.020 A 
ATOM     43  C   UNL A   1      42.110  21.407  28.146  1.00  0.00     0.020 A 
ATOM     44  C   UNL A   1      42.151  21.180  26.769  1.00  0.00     0.054 A 
BRANCH  44  45
ATOM     45  S   UNL A   1      41.935  19.505  26.103  1.00  0.00     0.124 S 
ATOM     46  O   UNL A   1      42.385  18.677  27.219  1.00  0.00    -0.237 OA
ATOM     47  O   UNL A   1      40.502  19.454  25.822  1.00  0.00    -0.237 OA
ATOM     48  O   UNL A   1      42.799  19.486  24.925  1.00  0.00    -0.744 OA
ENDBRANCH  44  45
ENDBRANCH  25  39
BRANCH  26  49
ATOM     49  C   UNL A   1      43.807  33.031  31.328  1.00  0.00    -0.014 A 
ATOM     50  C   UNL A   1      43.704  33.273  32.708  1.00  0.00     0.010 A 
ATOM     51  C   UNL A   1      44.101  34.103  30.465  1.00  0.00     0.010 A 
ATOM     52  C   UNL A   1      43.868  34.568  33.210  1.00  0.00     0.020 A 
ATOM     53  C   UNL A   1      44.301  35.390  30.966  1.00  0.00     0.020 A 
ATOM     54  C   UNL A   1      44.165  35.618  32.335  1.00  0.00     0.054 A 
BRANCH  54  55
ATOM     55  S   UNL A   1      44.412  37.283  33.009  1.00  0.00     0.124 S 
ATOM     56  O   UNL A   1      45.802  37.229  33.446  1.00  0.00    -0.237 OA
ATOM     57  O   UNL A   1      44.142  38.135  31.854  1.00  0.00    -0.237 OA
ATOM     58  O   UNL A   1      43.419  37.367  34.079  1.00  0.00    -0.744 OA
ENDBRANCH  54  55
ENDBRANCH  26  49
BRANCH  38  59
ATOM     59  C   UNL A   1      48.089  27.642  30.253  1.00  0.00    -0.014 A 
ATOM     60  C   UNL A   1      48.592  27.189  31.487  1.00  0.00     0.010 A 
ATOM     61  C   UNL A   1      48.987  27.925  29.208  1.00  0.00     0.010 A 
ATOM     62  C   UNL A   1      49.968  27.069  31.688  1.00  0.00     0.020 A 
ATOM     63  C   UNL A   1      50.364  27.779  29.397  1.00  0.00     0.020 A 
ATOM     64  C   UNL A   1      50.846  27.372  30.642  1.00  0.00     0.054 A 
BRANCH  64  65
ATOM     65  S   UNL A   1      52.630  27.199  30.922  1.00  0.00     0.124 S 
ATOM     66  O   UNL A   1      52.756  25.770  31.198  1.00  0.00    -0.237 OA
ATOM     67  O   UNL A   1      53.199  27.647  29.654  1.00  0.00    -0.237 OA
ATOM     68  O   UNL A   1      52.889  28.078  32.060  1.00  0.00    -0.744 OA
ENDBRANCH  64  65
ENDBRANCH  38  59
ENDBRANCH  12  13
ENDBRANCH   5   7
ENDBRANCH   2   3
ENDBRANCH   1   2
BRANCH   1  69
ATOM     69  C   UNL A   1      33.317  29.270  24.623  1.00  0.00     0.023 C 
BRANCH  69  70
ATOM     70  C   UNL A   1      33.256  28.998  23.124  1.00  0.00     0.116 C 
BRANCH  70  71
ATOM     71  N   UNL A   1      31.984  29.349  22.523  1.00  0.00    -0.352 N 
ATOM     72  C   UNL A   1      30.839  28.616  22.345  1.00  0.00     0.251 C 
ATOM     73  H   UNL A   1      31.934  30.272  22.183  1.00  0.00     0.163 HD
ATOM     74  O   UNL A   1      29.897  29.111  21.730  1.00  0.00    -0.269 OA
BRANCH  72  75
ATOM     75  C   UNL A   1      30.714  27.233  22.854  1.00  0.00     0.041 A 
ATOM     76  C   UNL A   1      30.049  27.042  24.070  1.00  0.00     0.014 A 
ATOM     77  C   UNL A   1      31.359  26.154  22.240  1.00  0.00     0.039 A 
ATOM     78  C   UNL A   1      29.982  25.772  24.640  1.00  0.00     0.003 A 
ATOM     79  C   UNL A   1      31.288  24.871  22.800  1.00  0.00     0.039 A 
ATOM     80  C   UNL A   1      30.598  24.694  24.005  1.00  0.00     0.026 A 
BRANCH  79  81
ATOM     81  N   UNL A   1      32.127  23.832  22.311  1.00  0.00    -0.355 N 
ATOM     82  H   UNL A   1      31.946  23.404  21.444  1.00  0.00     0.167 HD
BRANCH  81  83
ATOM     83  C   UNL A   1      33.236  23.428  23.108  1.00  0.00     0.050 A 
ATOM     84  C   UNL A   1      34.209  24.382  23.420  1.00  0.00     0.047 A 
ATOM     85  C   UNL A   1      33.338  22.129  23.649  1.00  0.00     0.027 A 
ATOM     86  C   UNL A   1      35.169  24.060  24.350  1.00  0.00     0.114 A 
ATOM     87  C   UNL A   1      34.374  21.909  24.586  1.00  0.00     0.072 A 
ATOM     88  C   UNL A   1      32.472  21.062  23.315  1.00  0.00     0.051 A 
ATOM     89  N   UNL A   1      35.256  22.855  24.943  1.00  0.00    -0.256 NA
ATOM     90  C   UNL A   1      34.498  20.658  25.171  1.00  0.00     0.032 A 
ATOM     91  C   UNL A   1      32.655  19.811  23.890  1.00  0.00     0.124 A 
ATOM     92  C   UNL A   1      33.657  19.600  24.822  1.00  0.00     0.041 A 
ATOM     93  F   UNL A   1      31.861  18.793  23.535  1.00  0.00    -0.207 F 
ENDBRANCH  81  83
ENDBRANCH  79  81
ENDBRANCH  72  75
ENDBRANCH  70  71
ENDBRANCH  69  70
ENDBRANCH   1  69
TORSDOF 16
ENDMDL
MODEL 2
REMARK VINA RESULT:     -11.6      0.739      8.140
REMARK SMILES O=C(NCCCCNC(=O)c1cccc(Nc2ccnc3ccc(F)cc23)c1)c1ccc(-c2c3nc(c(-c4ccc(S(=O)(=O)[O-])cc4)c4ccc([nH]4)c(-c4ccc(S(=O)(=O)[O-])cc4)c4nc(c(-c5ccc(S(=O)(=O)[O-])cc5)c5ccc2[nH]5)C=C4)C=C3)cc1
REMARK SMILES IDX 5 1 4 2 3 3 1 4 2 5 29 7 30 8 88 9 31 10 87 11 32 12 33 13
REMARK SMILES IDX 34 14 81 15 35 16 86 17 80 18 82 19 36 20 85 21 79 22 78 23
REMARK SMILES IDX 37 25 67 26 48 27 66 28 49 29 52 30 65 31 83 32 50 33 51 34
REMARK SMILES IDX 64 36 84 37 53 38 38 39 39 40 47 41 40 42 46 43 41 44 42 45
REMARK SMILES IDX 43 46 44 47 45 48 68 49 69 50 77 51 70 52 76 53 71 54 72 55
REMARK SMILES IDX 73 56 74 57 75 58 54 59 55 60 63 61 56 62 62 63 57 64 58 65
REMARK SMILES IDX 59 66 60 67 61 68 6 69 7 70 8 71 9 72 10 74 11 75 12 76
REMARK SMILES IDX 28 77 13 78 15 79 14 80 16 81 17 83 18 84 27 85 19 86 21 87
REMARK SMILES IDX 26 88 20 89 22 90 24 91 23 92 25 93
REMARK H PARENT 3 6 82 24 52 35 8 73 16 82
REMARK Flexibility Score: inf
ROOT
ATOM      1  C   UNL A   1      33.746  27.651  24.997  1.00  0.00     0.023 C 
ENDROOT
BRANCH   1   2
ATOM      2  C   UNL A   1      34.134  27.946  26.440  1.00  0.00     0.116 C 
BRANCH   2   3
ATOM      3  N   UNL A   1      33.604  29.203  26.950  1.00  0.00    -0.352 N 
ATOM      4  O   UNL A   1      33.583  31.130  28.126  1.00  0.00    -0.269 OA
ATOM      5  C   UNL A   1      34.223  30.161  27.722  1.00  0.00     0.251 C 
ATOM      6  H   UNL A   1      32.668  29.396  26.708  1.00  0.00     0.163 HD
BRANCH   5   7
ATOM      7  C   UNL A   1      35.644  29.995  28.094  1.00  0.00     0.039 A 
ATOM      8  C   UNL A   1      36.653  30.278  27.174  1.00  0.00     0.014 A 
ATOM      9  C   UNL A   1      35.972  29.516  29.367  1.00  0.00     0.014 A 
ATOM     10  C   UNL A   1      37.960  29.905  27.453  1.00  0.00     0.010 A 
ATOM     11  C   UNL A   1      37.308  29.244  29.685  1.00  0.00     0.010 A 
ATOM     12  C   UNL A   1      38.310  29.397  28.716  1.00  0.00    -0.014 A 
BRANCH  12  13
ATOM     13  C   UNL A   1      39.741  29.101  28.992  1.00  0.00     0.031 A 
ATOM     14  C   UNL A   1      40.635  30.095  29.684  1.00  0.00     0.074 A 
ATOM     15  C   UNL A   1      40.210  27.878  28.673  1.00  0.00     0.049 A 
ATOM     16  N   UNL A   1      41.879  29.947  30.070  1.00  0.00    -0.248 NA
ATOM     17  C   UNL A   1      40.074  31.422  29.980  1.00  0.00     0.031 C 
ATOM     18  C   UNL A   1      39.442  26.836  27.983  1.00  0.00     0.029 A 
ATOM     19  N   UNL A   1      41.423  27.287  28.915  1.00  0.00    -0.354 N 
ATOM     20  C   UNL A   1      42.251  31.158  30.644  1.00  0.00     0.074 A 
ATOM     21  C   UNL A   1      41.112  32.043  30.527  1.00  0.00     0.031 C 
ATOM     22  C   UNL A   1      40.175  25.717  27.919  1.00  0.00     0.029 A 
ATOM     23  C   UNL A   1      41.487  25.979  28.495  1.00  0.00     0.049 A 
ATOM     24  H   UNL A   1      42.173  27.752  29.349  1.00  0.00     0.167 HD
ATOM     25  C   UNL A   1      43.429  31.495  31.225  1.00  0.00     0.031 A 
ATOM     26  C   UNL A   1      42.494  25.086  28.551  1.00  0.00     0.031 A 
ATOM     27  C   UNL A   1      44.563  30.612  31.331  1.00  0.00     0.049 A 
ATOM     28  C   UNL A   1      43.791  25.495  29.182  1.00  0.00     0.074 A 
ATOM     29  C   UNL A   1      45.800  30.862  31.903  1.00  0.00     0.029 A 
ATOM     30  N   UNL A   1      44.601  29.307  30.860  1.00  0.00    -0.354 N 
ATOM     31  N   UNL A   1      44.112  26.641  29.734  1.00  0.00    -0.248 NA
ATOM     32  C   UNL A   1      44.861  24.490  29.202  1.00  0.00     0.031 C 
ATOM     33  C   UNL A   1      46.600  29.727  31.737  1.00  0.00     0.029 A 
ATOM     34  C   UNL A   1      45.844  28.747  31.114  1.00  0.00     0.049 A 
ATOM     35  H   UNL A   1      43.856  28.847  30.410  1.00  0.00     0.167 HD
ATOM     36  C   UNL A   1      45.422  26.491  30.174  1.00  0.00     0.074 A 
ATOM     37  C   UNL A   1      45.817  25.134  29.857  1.00  0.00     0.031 C 
ATOM     38  C   UNL A   1      46.227  27.399  30.779  1.00  0.00     0.031 A 
BRANCH  25  39
ATOM     39  C   UNL A   1      43.562  32.890  31.786  1.00  0.00    -0.014 A 
ATOM     40  C   UNL A   1      44.051  33.945  30.996  1.00  0.00     0.010 A 
ATOM     41  C   UNL A   1      43.131  33.164  33.097  1.00  0.00     0.010 A 
ATOM     42  C   UNL A   1      44.134  35.241  31.513  1.00  0.00     0.020 A 
ATOM     43  C   UNL A   1      43.187  34.464  33.611  1.00  0.00     0.020 A 
ATOM     44  C   UNL A   1      43.701  35.492  32.819  1.00  0.00     0.054 A 
BRANCH  44  45
ATOM     45  S   UNL A   1      43.789  37.191  33.452  1.00  0.00     0.124 S 
ATOM     46  O   UNL A   1      42.603  37.256  34.303  1.00  0.00    -0.237 OA
ATOM     47  O   UNL A   1      45.068  37.206  34.156  1.00  0.00    -0.237 OA
ATOM     48  O   UNL A   1      43.734  38.014  32.246  1.00  0.00    -0.744 OA
ENDBRANCH  44  45
ENDBRANCH  25  39
BRANCH  26  49
ATOM     49  C   UNL A   1      42.312  23.734  27.957  1.00  0.00    -0.014 A 
ATOM     50  C   UNL A   1      41.856  22.656  28.733  1.00  0.00     0.010 A 
ATOM     51  C   UNL A   1      42.587  23.528  26.592  1.00  0.00     0.010 A 
ATOM     52  C   UNL A   1      41.702  21.390  28.159  1.00  0.00     0.020 A 
ATOM     53  C   UNL A   1      42.401  22.274  26.008  1.00  0.00     0.020 A 
ATOM     54  C   UNL A   1      41.976  21.208  26.800  1.00  0.00     0.054 A 
BRANCH  54  55
ATOM     55  S   UNL A   1      41.734  19.568  26.065  1.00  0.00     0.124 S 
ATOM     56  O   UNL A   1      42.106  18.686  27.166  1.00  0.00    -0.237 OA
ATOM     57  O   UNL A   1      40.317  19.583  25.715  1.00  0.00    -0.237 OA
ATOM     58  O   UNL A   1      42.648  19.568  24.924  1.00  0.00    -0.744 OA
ENDBRANCH  54  55
ENDBRANCH  26  49
BRANCH  38  59
ATOM     59  C   UNL A   1      47.610  26.937  31.151  1.00  0.00    -0.014 A 
ATOM     60  C   UNL A   1      48.683  27.053  30.248  1.00  0.00     0.010 A 
ATOM     61  C   UNL A   1      47.842  26.389  32.425  1.00  0.00     0.010 A 
ATOM     62  C   UNL A   1      49.952  26.584  30.595  1.00  0.00     0.020 A 
ATOM     63  C   UNL A   1      49.117  25.944  32.786  1.00  0.00     0.020 A 
ATOM     64  C   UNL A   1      50.159  26.026  31.860  1.00  0.00     0.054 A 
BRANCH  64  65
ATOM     65  S   UNL A   1      51.817  25.432  32.293  1.00  0.00     0.124 S 
ATOM     66  O   UNL A   1      51.637  23.983  32.261  1.00  0.00    -0.237 OA
ATOM     67  O   UNL A   1      52.645  25.986  31.224  1.00  0.00    -0.237 OA
ATOM     68  O   UNL A   1      52.054  26.002  33.616  1.00  0.00    -0.744 OA
ENDBRANCH  64  65
ENDBRANCH  38  59
ENDBRANCH  12  13
ENDBRANCH   5   7
ENDBRANCH   2   3
ENDBRANCH   1   2
BRANCH   1  69
ATOM     69  C   UNL A   1      33.951  28.794  24.006  1.00  0.00     0.023 C 
BRANCH  69  70
ATOM     70  C   UNL A   1      33.497  28.506  22.581  1.00  0.00     0.116 C 
BRANCH  70  71
ATOM     71  N   UNL A   1      32.166  29.000  22.286  1.00  0.00    -0.352 N 
ATOM     72  C   UNL A   1      30.934  28.414  22.432  1.00  0.00     0.251 C 
ATOM     73  H   UNL A   1      32.141  29.912  21.917  1.00  0.00     0.163 HD
ATOM     74  O   UNL A   1      29.935  29.008  22.036  1.00  0.00    -0.269 OA
BRANCH  72  75
ATOM     75  C   UNL A   1      30.779  27.071  23.033  1.00  0.00     0.041 A 
ATOM     76  C   UNL A   1      30.247  26.992  24.325  1.00  0.00     0.014 A 
ATOM     77  C   UNL A   1      31.277  25.918  22.417  1.00  0.00     0.039 A 
ATOM     78  C   UNL A   1      30.163  25.762  24.974  1.00  0.00     0.003 A 
ATOM     79  C   UNL A   1      31.187  24.675  23.057  1.00  0.00     0.039 A 
ATOM     80  C   UNL A   1      30.630  24.611  24.340  1.00  0.00     0.026 A 
BRANCH  79  81
ATOM     81  N   UNL A   1      31.895  23.555  22.541  1.00  0.00    -0.355 N 
ATOM     82  H   UNL A   1      31.550  23.053  21.768  1.00  0.00     0.167 HD
BRANCH  81  83
ATOM     83  C   UNL A   1      33.115  23.177  23.171  1.00  0.00     0.050 A 
ATOM     84  C   UNL A   1      34.100  24.153  23.342  1.00  0.00     0.047 A 
ATOM     85  C   UNL A   1      33.322  21.882  23.691  1.00  0.00     0.027 A 
ATOM     86  C   UNL A   1      35.191  23.855  24.125  1.00  0.00     0.114 A 
ATOM     87  C   UNL A   1      34.486  21.687  24.470  1.00  0.00     0.072 A 
ATOM     88  C   UNL A   1      32.442  20.795  23.483  1.00  0.00     0.051 A 
ATOM     89  N   UNL A   1      35.388  22.654  24.699  1.00  0.00    -0.256 NA
ATOM     90  C   UNL A   1      34.720  20.440  25.030  1.00  0.00     0.032 A 
ATOM     91  C   UNL A   1      32.733  19.550  24.024  1.00  0.00     0.124 A 
ATOM     92  C   UNL A   1      33.862  19.363  24.804  1.00  0.00     0.041 A 
ATOM     93  F   UNL A   1      31.920  18.513  23.785  1.00  0.00    -0.207 F 
ENDBRANCH  81  83
ENDBRANCH  79  81
ENDBRANCH  72  75
ENDBRANCH  70  71
ENDBRANCH  69  70
ENDBRANCH   1  69
TORSDOF 16
ENDMDL
MODEL 3
REMARK VINA RESULT:     -11.5      3.046      9.216
REMARK SMILES O=C(NCCCCNC(=O)c1cccc(Nc2ccnc3ccc(F)cc23)c1)c1ccc(-c2c3nc(c(-c4ccc(S(=O)(=O)[O-])cc4)c4ccc([nH]4)c(-c4ccc(S(=O)(=O)[O-])cc4)c4nc(c(-c5ccc(S(=O)(=O)[O-])cc5)c5ccc2[nH]5)C=C4)C=C3)cc1
REMARK SMILES IDX 5 1 4 2 3 3 1 4 2 5 29 7 30 8 88 9 31 10 87 11 32 12 33 13
REMARK SMILES IDX 34 14 81 15 35 16 86 17 80 18 82 19 36 20 85 21 79 22 78 23
REMARK SMILES IDX 37 25 67 26 48 27 66 28 49 29 52 30 65 31 83 32 50 33 51 34
REMARK SMILES IDX 64 36 84 37 53 38 38 39 39 40 47 41 40 42 46 43 41 44 42 45
REMARK SMILES IDX 43 46 44 47 45 48 68 49 69 50 77 51 70 52 76 53 71 54 72 55
REMARK SMILES IDX 73 56 74 57 75 58 54 59 55 60 63 61 56 62 62 63 57 64 58 65
REMARK SMILES IDX 59 66 60 67 61 68 6 69 7 70 8 71 9 72 10 74 11 75 12 76
REMARK SMILES IDX 28 77 13 78 15 79 14 80 16 81 17 83 18 84 27 85 19 86 21 87
REMARK SMILES IDX 26 88 20 89 22 90 24 91 23 92 25 93
REMARK H PARENT 3 6 82 24 52 35 8 73 16 82
REMARK Flexibility Score: inf
ROOT
ATOM      1  C   UNL A   1      35.402  23.177  25.377  1.00  0.00     0.023 C 
ENDROOT
BRANCH   1   2
ATOM      2  C   UNL A   1      36.788  23.805  25.303  1.00  0.00     0.116 C 
BRANCH   2   3
ATOM      3  N   UNL A   1      37.879  22.851  25.459  1.00  0.00    -0.352 N 
ATOM      4  O   UNL A   1      39.923  22.107  26.058  1.00  0.00    -0.269 OA
ATOM      5  C   UNL A   1      39.089  23.008  26.097  1.00  0.00     0.251 C 
ATOM      6  H   UNL A   1      37.728  21.967  25.052  1.00  0.00     0.163 HD
BRANCH   5   7
ATOM      7  C   UNL A   1      39.392  24.279  26.790  1.00  0.00     0.039 A 
ATOM      8  C   UNL A   1      40.149  25.265  26.159  1.00  0.00     0.014 A 
ATOM      9  C   UNL A   1      38.944  24.472  28.101  1.00  0.00     0.014 A 
ATOM     10  C   UNL A   1      40.616  26.346  26.893  1.00  0.00     0.010 A 
ATOM     11  C   UNL A   1      39.327  25.620  28.805  1.00  0.00     0.010 A 
ATOM     12  C   UNL A   1      40.201  26.548  28.221  1.00  0.00    -0.014 A 
BRANCH  12  13
ATOM     13  C   UNL A   1      40.658  27.773  28.930  1.00  0.00     0.031 A 
ATOM     14  C   UNL A   1      39.756  28.964  29.113  1.00  0.00     0.074 A 
ATOM     15  C   UNL A   1      41.888  27.766  29.481  1.00  0.00     0.049 A 
ATOM     16  N   UNL A   1      39.984  30.068  29.783  1.00  0.00    -0.248 NA
ATOM     17  C   UNL A   1      38.437  28.923  28.464  1.00  0.00     0.031 C 
ATOM     18  C   UNL A   1      42.860  26.674  29.356  1.00  0.00     0.029 A 
ATOM     19  N   UNL A   1      42.521  28.680  30.283  1.00  0.00    -0.354 N 
ATOM     20  C   UNL A   1      38.845  30.852  29.631  1.00  0.00     0.074 A 
ATOM     21  C   UNL A   1      37.940  30.114  28.776  1.00  0.00     0.031 C 
ATOM     22  C   UNL A   1      43.933  26.950  30.109  1.00  0.00     0.029 A 
ATOM     23  C   UNL A   1      43.761  28.266  30.710  1.00  0.00     0.049 A 
ATOM     24  H   UNL A   1      42.127  29.546  30.529  1.00  0.00     0.167 HD
ATOM     25  C   UNL A   1      38.577  32.070  30.163  1.00  0.00     0.031 A 
ATOM     26  C   UNL A   1      44.672  28.878  31.490  1.00  0.00     0.031 A 
ATOM     27  C   UNL A   1      39.486  32.805  31.006  1.00  0.00     0.049 A 
ATOM     28  C   UNL A   1      44.354  30.234  32.049  1.00  0.00     0.074 A 
ATOM     29  C   UNL A   1      39.304  34.046  31.595  1.00  0.00     0.029 A 
ATOM     30  N   UNL A   1      40.747  32.368  31.385  1.00  0.00    -0.354 N 
ATOM     31  N   UNL A   1      43.263  30.947  31.904  1.00  0.00    -0.248 NA
ATOM     32  C   UNL A   1      45.388  30.864  32.878  1.00  0.00     0.031 C 
ATOM     33  C   UNL A   1      40.471  34.379  32.290  1.00  0.00     0.029 A 
ATOM     34  C   UNL A   1      41.359  33.321  32.186  1.00  0.00     0.049 A 
ATOM     35  H   UNL A   1      41.149  31.508  31.124  1.00  0.00     0.167 HD
ATOM     36  C   UNL A   1      43.477  32.111  32.633  1.00  0.00     0.074 A 
ATOM     37  C   UNL A   1      44.785  31.986  33.244  1.00  0.00     0.031 C 
ATOM     38  C   UNL A   1      42.667  33.188  32.775  1.00  0.00     0.031 A 
BRANCH  25  39
ATOM     39  C   UNL A   1      37.243  32.699  29.842  1.00  0.00    -0.014 A 
ATOM     40  C   UNL A   1      36.174  32.634  30.753  1.00  0.00     0.010 A 
ATOM     41  C   UNL A   1      37.077  33.422  28.646  1.00  0.00     0.010 A 
ATOM     42  C   UNL A   1      34.956  33.255  30.464  1.00  0.00     0.020 A 
ATOM     43  C   UNL A   1      35.868  34.067  28.363  1.00  0.00     0.020 A 
ATOM     44  C   UNL A   1      34.810  33.967  29.269  1.00  0.00     0.054 A 
BRANCH  44  45
ATOM     45  S   UNL A   1      33.227  34.791  28.935  1.00  0.00     0.124 S 
ATOM     46  O   UNL A   1      32.587  34.755  30.248  1.00  0.00    -0.237 OA
ATOM     47  O   UNL A   1      33.645  36.114  28.477  1.00  0.00    -0.237 OA
ATOM     48  O   UNL A   1      32.605  33.949  27.916  1.00  0.00    -0.744 OA
ENDBRANCH  44  45
ENDBRANCH  25  39
BRANCH  26  49
ATOM     49  C   UNL A   1      45.981  28.220  31.749  1.00  0.00    -0.014 A 
ATOM     50  C   UNL A   1      47.078  28.425  30.896  1.00  0.00     0.010 A 
ATOM     51  C   UNL A   1      46.134  27.388  32.874  1.00  0.00     0.010 A 
ATOM     52  C   UNL A   1      48.297  27.788  31.151  1.00  0.00     0.020 A 
ATOM     53  C   UNL A   1      47.359  26.780  33.151  1.00  0.00     0.020 A 
ATOM     54  C   UNL A   1      48.429  26.970  32.277  1.00  0.00     0.054 A 
BRANCH  54  55
ATOM     55  S   UNL A   1      50.028  26.183  32.612  1.00  0.00     0.124 S 
ATOM     56  O   UNL A   1      49.716  24.771  32.420  1.00  0.00    -0.237 OA
ATOM     57  O   UNL A   1      50.895  26.785  31.602  1.00  0.00    -0.237 OA
ATOM     58  O   UNL A   1      50.322  26.581  33.987  1.00  0.00    -0.744 OA
ENDBRANCH  54  55
ENDBRANCH  26  49
BRANCH  38  59
ATOM     59  C   UNL A   1      43.174  34.308  33.645  1.00  0.00    -0.014 A 
ATOM     60  C   UNL A   1      42.967  34.299  35.037  1.00  0.00     0.010 A 
ATOM     61  C   UNL A   1      43.876  35.379  33.062  1.00  0.00     0.010 A 
ATOM     62  C   UNL A   1      43.409  35.364  35.823  1.00  0.00     0.020 A 
ATOM     63  C   UNL A   1      44.345  36.433  33.851  1.00  0.00     0.020 A 
ATOM     64  C   UNL A   1      44.089  36.428  35.224  1.00  0.00     0.054 A 
BRANCH  64  65
ATOM     65  S   UNL A   1      44.663  37.796  36.266  1.00  0.00     0.124 S 
ATOM     66  O   UNL A   1      44.542  38.937  35.363  1.00  0.00    -0.237 OA
ATOM     67  O   UNL A   1      43.717  37.772  37.378  1.00  0.00    -0.237 OA
ATOM     68  O   UNL A   1      46.031  37.419  36.611  1.00  0.00    -0.744 OA
ENDBRANCH  64  65
ENDBRANCH  38  59
ENDBRANCH  12  13
ENDBRANCH   5   7
ENDBRANCH   2   3
ENDBRANCH   1   2
BRANCH   1  69
ATOM     69  C   UNL A   1      34.827  23.001  26.780  1.00  0.00     0.023 C 
BRANCH  69  70
ATOM     70  C   UNL A   1      33.819  21.867  26.930  1.00  0.00     0.116 C 
BRANCH  70  71
ATOM     71  N   UNL A   1      32.522  22.304  27.408  1.00  0.00    -0.352 N 
ATOM     72  C   UNL A   1      31.578  23.118  26.835  1.00  0.00     0.251 C 
ATOM     73  H   UNL A   1      32.277  21.959  28.296  1.00  0.00     0.163 HD
ATOM     74  O   UNL A   1      30.571  23.412  27.474  1.00  0.00    -0.269 OA
BRANCH  72  75
ATOM     75  C   UNL A   1      31.752  23.671  25.474  1.00  0.00     0.041 A 
ATOM     76  C   UNL A   1      31.597  22.799  24.390  1.00  0.00     0.014 A 
ATOM     77  C   UNL A   1      32.202  24.977  25.254  1.00  0.00     0.039 A 
ATOM     78  C   UNL A   1      31.838  23.246  23.093  1.00  0.00     0.003 A 
ATOM     79  C   UNL A   1      32.436  25.439  23.952  1.00  0.00     0.039 A 
ATOM     80  C   UNL A   1      32.254  24.560  22.877  1.00  0.00     0.026 A 
BRANCH  79  81
ATOM     81  N   UNL A   1      33.110  26.673  23.743  1.00  0.00    -0.355 N 
ATOM     82  H   UNL A   1      34.050  26.691  23.453  1.00  0.00     0.167 HD
BRANCH  81  83
ATOM     83  C   UNL A   1      32.391  27.882  23.963  1.00  0.00     0.050 A 
ATOM     84  C   UNL A   1      31.360  28.210  23.077  1.00  0.00     0.047 A 
ATOM     85  C   UNL A   1      32.634  28.708  25.081  1.00  0.00     0.027 A 
ATOM     86  C   UNL A   1      30.531  29.260  23.393  1.00  0.00     0.114 A 
ATOM     87  C   UNL A   1      31.723  29.768  25.300  1.00  0.00     0.072 A 
ATOM     88  C   UNL A   1      33.712  28.529  25.977  1.00  0.00     0.051 A 
ATOM     89  N   UNL A   1      30.686  30.026  24.489  1.00  0.00    -0.256 NA
ATOM     90  C   UNL A   1      31.899  30.589  26.404  1.00  0.00     0.032 A 
ATOM     91  C   UNL A   1      33.881  29.400  27.046  1.00  0.00     0.124 A 
ATOM     92  C   UNL A   1      32.979  30.426  27.273  1.00  0.00     0.041 A 
ATOM     93  F   UNL A   1      34.931  29.254  27.865  1.00  0.00    -0.207 F 
ENDBRANCH  81  83
ENDBRANCH  79  81
ENDBRANCH  72  75
ENDBRANCH  70  71
ENDBRANCH  69  70
ENDBRANCH   1  69
TORSDOF 16
ENDMDL
