MODEL 1
REMARK VINA RESULT:     -11.3      0.000      0.000
REMARK SMILES CC(C)c1cc2c(cc1Cl)C=C(C(=O)NCCCCNC(=O)c1ccc(-c3c4nc(c(-c5ccc(S(=O)(=O)[O-])cc5)c5ccc([nH]5)c(-c5ccc(S(=O)(=O)[O-])cc5)c5nc(c(-c6ccc(S(=O)(=O)[O-])cc6)c6ccc3[nH]6)C=C5)C=C4)cc1)[C@@H](C(F)(F)F)O2
REMARK SMILES IDX 18 1 17 2 16 3 15 4 13 5 14 6 12 8 4 9 5 10 9 11 6 12 8 13
REMARK SMILES IDX 10 14 7 15 88 16 11 17 83 18 2 19 1 20 3 21 84 22 85 23
REMARK SMILES IDX 86 24 87 25 19 26 20 27 21 28 22 30 23 31 24 32 82 33 25 34
REMARK SMILES IDX 81 35 26 36 27 37 28 38 75 39 29 40 80 41 74 42 76 43 30 44
REMARK SMILES IDX 79 45 73 46 72 47 31 49 61 50 42 51 60 52 43 53 46 54 59 55
REMARK SMILES IDX 77 56 44 57 45 58 58 60 78 61 47 62 32 63 33 64 41 65 34 66
REMARK SMILES IDX 40 67 35 68 36 69 37 70 38 71 39 72 62 73 63 74 71 75 64 76
REMARK SMILES IDX 70 77 65 78 66 79 67 80 68 81 69 82 48 83 49 84 57 85 50 86
REMARK SMILES IDX 56 87 51 88 52 89 53 90 54 91 55 92
REMARK H PARENT 15 7 20 29 76 48 46 59
REMARK Flexibility Score: inf
ROOT
ATOM      1  C   UNL A   1      32.305  28.380  26.465  1.00  0.00     0.023 C 
ENDROOT
BRANCH   1   2
ATOM      2  C   UNL A   1      31.669  29.453  25.576  1.00  0.00     0.023 C 
BRANCH   2   3
ATOM      3  C   UNL A   1      31.421  29.011  24.135  1.00  0.00     0.116 C 
BRANCH   3   4
ATOM      4  N   UNL A   1      30.160  28.308  23.985  1.00  0.00    -0.352 N 
ATOM      5  C   UNL A   1      29.754  27.019  23.895  1.00  0.00     0.251 C 
ATOM      6  O   UNL A   1      28.535  26.856  23.779  1.00  0.00    -0.270 OA
ATOM      7  H   UNL A   1      29.400  28.932  23.937  1.00  0.00     0.163 HD
BRANCH   5   8
ATOM      8  C   UNL A   1      30.652  25.828  23.925  1.00  0.00     0.067 C 
ATOM      9  C   UNL A   1      33.474  21.890  25.404  1.00  0.00    -0.023 A 
ATOM     10  C   UNL A   1      32.920  22.316  24.184  1.00  0.00     0.052 A 
ATOM     11  C   UNL A   1      33.162  22.637  26.559  1.00  0.00     0.045 A 
ATOM     12  C   UNL A   1      32.127  23.459  24.114  1.00  0.00     0.128 A 
ATOM     13  C   UNL A   1      32.346  23.775  26.484  1.00  0.00     0.032 A 
ATOM     14  Cl  UNL A   1      33.736  22.191  28.129  1.00  0.00    -0.084 Cl
ATOM     15  C   UNL A   1      31.827  24.192  25.258  1.00  0.00     0.019 A 
ATOM     16  O   UNL A   1      31.629  23.786  22.884  1.00  0.00    -0.475 OA
ATOM     17  C   UNL A   1      30.942  25.345  25.149  1.00  0.00     0.025 C 
ATOM     18  C   UNL A   1      31.258  25.185  22.709  1.00  0.00     0.314 C 
BRANCH   9  19
ATOM     19  C   UNL A   1      34.331  20.631  25.447  1.00  0.00     0.014 C 
ATOM     20  C   UNL A   1      33.645  19.500  24.677  1.00  0.00     0.012 C 
ATOM     21  C   UNL A   1      35.756  20.849  24.922  1.00  0.00     0.012 C 
ENDBRANCH   9  19
BRANCH  18  22
ATOM     22  C   UNL A   1      32.469  25.969  22.168  1.00  0.00     0.429 C 
ATOM     23  F   UNL A   1      32.055  27.079  21.504  1.00  0.00    -0.167 F 
ATOM     24  F   UNL A   1      33.295  26.395  23.151  1.00  0.00    -0.167 F 
ATOM     25  F   UNL A   1      33.220  25.243  21.309  1.00  0.00    -0.167 F 
ENDBRANCH  18  22
ENDBRANCH   5   8
ENDBRANCH   3   4
ENDBRANCH   2   3
ENDBRANCH   1   2
BRANCH   1  26
ATOM     26  C   UNL A   1      33.600  28.788  27.165  1.00  0.00     0.116 C 
BRANCH  26  27
ATOM     27  N   UNL A   1      33.589  30.137  27.715  1.00  0.00    -0.352 N 
ATOM     28  C   UNL A   1      34.628  30.796  28.334  1.00  0.00     0.251 C 
ATOM     29  H   UNL A   1      32.743  30.634  27.636  1.00  0.00     0.163 HD
ATOM     30  O   UNL A   1      34.470  31.914  28.814  1.00  0.00    -0.269 OA
BRANCH  28  31
ATOM     31  C   UNL A   1      35.922  30.096  28.460  1.00  0.00     0.039 A 
ATOM     32  C   UNL A   1      36.268  29.487  29.667  1.00  0.00     0.014 A 
ATOM     33  C   UNL A   1      36.837  30.166  27.407  1.00  0.00     0.014 A 
ATOM     34  C   UNL A   1      37.587  29.109  29.884  1.00  0.00     0.010 A 
ATOM     35  C   UNL A   1      38.144  29.718  27.605  1.00  0.00     0.010 A 
ATOM     36  C   UNL A   1      38.544  29.244  28.863  1.00  0.00    -0.014 A 
BRANCH  36  37
ATOM     37  C   UNL A   1      39.964  28.921  29.153  1.00  0.00     0.031 A 
ATOM     38  C   UNL A   1      40.543  27.590  28.754  1.00  0.00     0.074 A 
ATOM     39  C   UNL A   1      40.754  29.864  29.701  1.00  0.00     0.049 A 
ATOM     40  N   UNL A   1      41.773  27.159  28.885  1.00  0.00    -0.248 NA
ATOM     41  C   UNL A   1      39.634  26.617  28.124  1.00  0.00     0.031 C 
ATOM     42  C   UNL A   1      40.309  31.203  30.094  1.00  0.00     0.029 A 
ATOM     43  N   UNL A   1      42.096  29.859  29.982  1.00  0.00    -0.354 N 
ATOM     44  C   UNL A   1      41.780  25.866  28.375  1.00  0.00     0.074 A 
ATOM     45  C   UNL A   1      40.431  25.570  27.950  1.00  0.00     0.031 C 
ATOM     46  C   UNL A   1      41.372  31.913  30.497  1.00  0.00     0.029 A 
ATOM     47  C   UNL A   1      42.560  31.064  30.453  1.00  0.00     0.049 A 
ATOM     48  H   UNL A   1      42.670  29.070  29.859  1.00  0.00     0.167 HD
ATOM     49  C   UNL A   1      42.821  25.006  28.265  1.00  0.00     0.031 A 
ATOM     50  C   UNL A   1      43.800  31.449  30.814  1.00  0.00     0.031 A 
ATOM     51  C   UNL A   1      44.167  25.310  28.674  1.00  0.00     0.049 A 
ATOM     52  C   UNL A   1      44.928  30.467  30.721  1.00  0.00     0.074 A 
ATOM     53  C   UNL A   1      45.289  24.502  28.597  1.00  0.00     0.029 A 
ATOM     54  N   UNL A   1      44.577  26.513  29.229  1.00  0.00    -0.354 N 
ATOM     55  N   UNL A   1      44.908  29.239  30.264  1.00  0.00    -0.248 NA
ATOM     56  C   UNL A   1      46.242  30.913  31.206  1.00  0.00     0.031 C 
ATOM     57  C   UNL A   1      46.367  25.201  29.147  1.00  0.00     0.029 A 
ATOM     58  C   UNL A   1      45.929  26.461  29.519  1.00  0.00     0.049 A 
ATOM     59  H   UNL A   1      43.992  27.289  29.392  1.00  0.00     0.167 HD
ATOM     60  C   UNL A   1      46.204  28.760  30.409  1.00  0.00     0.074 A 
ATOM     61  C   UNL A   1      46.989  29.839  30.977  1.00  0.00     0.031 C 
ATOM     62  C   UNL A   1      46.694  27.534  30.104  1.00  0.00     0.031 A 
BRANCH  49  63
ATOM     63  C   UNL A   1      42.556  23.641  27.690  1.00  0.00    -0.014 A 
ATOM     64  C   UNL A   1      42.256  22.569  28.551  1.00  0.00     0.010 A 
ATOM     65  C   UNL A   1      42.690  23.396  26.312  1.00  0.00     0.010 A 
ATOM     66  C   UNL A   1      42.108  21.274  28.048  1.00  0.00     0.020 A 
ATOM     67  C   UNL A   1      42.522  22.105  25.803  1.00  0.00     0.020 A 
ATOM     68  C   UNL A   1      42.250  21.049  26.677  1.00  0.00     0.054 A 
BRANCH  68  69
ATOM     69  S   UNL A   1      42.043  19.364  26.034  1.00  0.00     0.124 S 
ATOM     70  O   UNL A   1      40.605  19.302  25.792  1.00  0.00    -0.237 OA
ATOM     71  O   UNL A   1      42.886  19.367  24.841  1.00  0.00    -0.237 OA
ATOM     72  O   UNL A   1      42.532  18.524  27.126  1.00  0.00    -0.744 OA
ENDBRANCH  68  69
ENDBRANCH  49  63
BRANCH  50  73
ATOM     73  C   UNL A   1      44.006  32.846  31.275  1.00  0.00    -0.014 A 
ATOM     74  C   UNL A   1      44.391  33.844  30.360  1.00  0.00     0.010 A 
ATOM     75  C   UNL A   1      43.945  33.156  32.644  1.00  0.00     0.010 A 
ATOM     76  C   UNL A   1      44.778  35.107  30.812  1.00  0.00     0.020 A 
ATOM     77  C   UNL A   1      44.309  34.427  33.097  1.00  0.00     0.020 A 
ATOM     78  C   UNL A   1      44.757  35.382  32.181  1.00  0.00     0.054 A 
BRANCH  78  79
ATOM     79  S   UNL A   1      45.342  36.999  32.760  1.00  0.00     0.124 S 
ATOM     80  O   UNL A   1      44.191  37.851  32.471  1.00  0.00    -0.237 OA
ATOM     81  O   UNL A   1      45.606  36.760  34.177  1.00  0.00    -0.237 OA
ATOM     82  O   UNL A   1      46.526  37.244  31.942  1.00  0.00    -0.744 OA
ENDBRANCH  78  79
ENDBRANCH  50  73
BRANCH  62  83
ATOM     83  C   UNL A   1      48.145  27.264  30.390  1.00  0.00    -0.014 A 
ATOM     84  C   UNL A   1      48.530  26.774  31.652  1.00  0.00     0.010 A 
ATOM     85  C   UNL A   1      49.133  27.615  29.455  1.00  0.00     0.010 A 
ATOM     86  C   UNL A   1      49.882  26.666  31.984  1.00  0.00     0.020 A 
ATOM     87  C   UNL A   1      50.487  27.490  29.778  1.00  0.00     0.020 A 
ATOM     88  C   UNL A   1      50.852  27.039  31.049  1.00  0.00     0.054 A 
BRANCH  88  89
ATOM     89  S   UNL A   1      52.604  26.921  31.505  1.00  0.00     0.124 S 
ATOM     90  O   UNL A   1      52.771  25.485  31.709  1.00  0.00    -0.237 OA
ATOM     91  O   UNL A   1      53.283  27.473  30.334  1.00  0.00    -0.237 OA
ATOM     92  O   UNL A   1      52.697  27.740  32.712  1.00  0.00    -0.744 OA
ENDBRANCH  88  89
ENDBRANCH  62  83
ENDBRANCH  36  37
ENDBRANCH  28  31
ENDBRANCH  26  27
ENDBRANCH   1  26
TORSDOF 16
ENDMDL
MODEL 2
REMARK VINA RESULT:     -11.3      1.587      2.179
REMARK SMILES CC(C)c1cc2c(cc1Cl)C=C(C(=O)NCCCCNC(=O)c1ccc(-c3c4nc(c(-c5ccc(S(=O)(=O)[O-])cc5)c5ccc([nH]5)c(-c5ccc(S(=O)(=O)[O-])cc5)c5nc(c(-c6ccc(S(=O)(=O)[O-])cc6)c6ccc3[nH]6)C=C5)C=C4)cc1)[C@@H](C(F)(F)F)O2
REMARK SMILES IDX 18 1 17 2 16 3 15 4 13 5 14 6 12 8 4 9 5 10 9 11 6 12 8 13
REMARK SMILES IDX 10 14 7 15 88 16 11 17 83 18 2 19 1 20 3 21 84 22 85 23
REMARK SMILES IDX 86 24 87 25 19 26 20 27 21 28 22 30 23 31 24 32 82 33 25 34
REMARK SMILES IDX 81 35 26 36 27 37 28 38 75 39 29 40 80 41 74 42 76 43 30 44
REMARK SMILES IDX 79 45 73 46 72 47 31 49 61 50 42 51 60 52 43 53 46 54 59 55
REMARK SMILES IDX 77 56 44 57 45 58 58 60 78 61 47 62 32 63 33 64 41 65 34 66
REMARK SMILES IDX 40 67 35 68 36 69 37 70 38 71 39 72 62 73 63 74 71 75 64 76
REMARK SMILES IDX 70 77 65 78 66 79 67 80 68 81 69 82 48 83 49 84 57 85 50 86
REMARK SMILES IDX 56 87 51 88 52 89 53 90 54 91 55 92
REMARK H PARENT 15 7 20 29 76 48 46 59
REMARK Flexibility Score: inf
ROOT
ATOM      1  C   UNL A   1      32.889  28.282  26.230  1.00  0.00     0.023 C 
ENDROOT
BRANCH   1   2
ATOM      2  C   UNL A   1      33.782  28.286  24.986  1.00  0.00     0.023 C 
BRANCH   2   3
ATOM      3  C   UNL A   1      33.815  26.960  24.230  1.00  0.00     0.116 C 
BRANCH   3   4
ATOM      4  N   UNL A   1      32.515  26.604  23.690  1.00  0.00    -0.352 N 
ATOM      5  C   UNL A   1      31.771  25.478  23.571  1.00  0.00     0.251 C 
ATOM      6  O   UNL A   1      30.670  25.627  23.030  1.00  0.00    -0.270 OA
ATOM      7  H   UNL A   1      32.053  27.386  23.311  1.00  0.00     0.163 HD
BRANCH   5   8
ATOM      8  C   UNL A   1      32.182  24.120  24.033  1.00  0.00     0.067 C 
ATOM      9  C   UNL A   1      33.242  19.173  24.285  1.00  0.00    -0.023 A 
ATOM     10  C   UNL A   1      33.561  20.301  25.062  1.00  0.00     0.052 A 
ATOM     11  C   UNL A   1      32.516  19.384  23.095  1.00  0.00     0.045 A 
ATOM     12  C   UNL A   1      33.140  21.575  24.688  1.00  0.00     0.128 A 
ATOM     13  C   UNL A   1      32.113  20.673  22.714  1.00  0.00     0.032 A 
ATOM     14  Cl  UNL A   1      32.104  18.090  22.023  1.00  0.00    -0.084 Cl
ATOM     15  C   UNL A   1      32.422  21.773  23.512  1.00  0.00     0.019 A 
ATOM     16  O   UNL A   1      33.507  22.607  25.504  1.00  0.00    -0.475 OA
ATOM     17  C   UNL A   1      32.055  23.131  23.127  1.00  0.00     0.025 C 
ATOM     18  C   UNL A   1      32.678  23.802  25.416  1.00  0.00     0.314 C 
BRANCH   9  19
ATOM     19  C   UNL A   1      33.725  17.795  24.719  1.00  0.00     0.014 C 
ATOM     20  C   UNL A   1      32.573  17.006  25.347  1.00  0.00     0.012 C 
ATOM     21  C   UNL A   1      34.368  16.991  23.581  1.00  0.00     0.012 C 
ENDBRANCH   9  19
BRANCH  18  22
ATOM     22  C   UNL A   1      31.535  23.706  26.445  1.00  0.00     0.429 C 
ATOM     23  F   UNL A   1      30.459  23.081  25.900  1.00  0.00    -0.167 F 
ATOM     24  F   UNL A   1      31.880  22.994  27.542  1.00  0.00    -0.167 F 
ATOM     25  F   UNL A   1      31.118  24.918  26.878  1.00  0.00    -0.167 F 
ENDBRANCH  18  22
ENDBRANCH   5   8
ENDBRANCH   3   4
ENDBRANCH   2   3
ENDBRANCH   1   2
BRANCH   1  26
ATOM     26  C   UNL A   1      33.584  28.645  27.541  1.00  0.00     0.116 C 
BRANCH  26  27
ATOM     27  N   UNL A   1      33.656  30.076  27.809  1.00  0.00    -0.352 N 
ATOM     28  C   UNL A   1      34.761  30.798  28.204  1.00  0.00     0.251 C 
ATOM     29  H   UNL A   1      32.820  30.584  27.695  1.00  0.00     0.163 HD
ATOM     30  O   UNL A   1      34.673  31.995  28.461  1.00  0.00    -0.269 OA
BRANCH  28  31
ATOM     31  C   UNL A   1      36.040  30.080  28.371  1.00  0.00     0.039 A 
ATOM     32  C   UNL A   1      36.370  29.527  29.609  1.00  0.00     0.014 A 
ATOM     33  C   UNL A   1      36.960  30.080  27.320  1.00  0.00     0.014 A 
ATOM     34  C   UNL A   1      37.681  29.135  29.850  1.00  0.00     0.010 A 
ATOM     35  C   UNL A   1      38.257  29.618  27.546  1.00  0.00     0.010 A 
ATOM     36  C   UNL A   1      38.644  29.201  28.829  1.00  0.00    -0.014 A 
BRANCH  36  37
ATOM     37  C   UNL A   1      40.056  28.866  29.141  1.00  0.00     0.031 A 
ATOM     38  C   UNL A   1      40.635  27.535  28.738  1.00  0.00     0.074 A 
ATOM     39  C   UNL A   1      40.841  29.799  29.713  1.00  0.00     0.049 A 
ATOM     40  N   UNL A   1      41.860  27.095  28.886  1.00  0.00    -0.248 NA
ATOM     41  C   UNL A   1      39.732  26.575  28.081  1.00  0.00     0.031 C 
ATOM     42  C   UNL A   1      40.398  31.135  30.112  1.00  0.00     0.029 A 
ATOM     43  N   UNL A   1      42.178  29.782  30.019  1.00  0.00    -0.354 N 
ATOM     44  C   UNL A   1      41.868  25.808  28.363  1.00  0.00     0.074 A 
ATOM     45  C   UNL A   1      40.525  25.525  27.910  1.00  0.00     0.031 C 
ATOM     46  C   UNL A   1      41.458  31.835  30.542  1.00  0.00     0.029 A 
ATOM     47  C   UNL A   1      42.640  30.979  30.511  1.00  0.00     0.049 A 
ATOM     48  H   UNL A   1      42.750  28.991  29.897  1.00  0.00     0.167 HD
ATOM     49  C   UNL A   1      42.906  24.943  28.263  1.00  0.00     0.031 A 
ATOM     50  C   UNL A   1      43.876  31.352  30.898  1.00  0.00     0.031 A 
ATOM     51  C   UNL A   1      44.246  25.235  28.700  1.00  0.00     0.049 A 
ATOM     52  C   UNL A   1      45.000  30.365  30.816  1.00  0.00     0.074 A 
ATOM     53  C   UNL A   1      45.364  24.421  28.635  1.00  0.00     0.029 A 
ATOM     54  N   UNL A   1      44.652  26.429  29.275  1.00  0.00    -0.354 N 
ATOM     55  N   UNL A   1      44.981  29.142  30.345  1.00  0.00    -0.248 NA
ATOM     56  C   UNL A   1      46.307  30.797  31.329  1.00  0.00     0.031 C 
ATOM     57  C   UNL A   1      46.437  25.107  29.211  1.00  0.00     0.029 A 
ATOM     58  C   UNL A   1      45.999  26.366  29.589  1.00  0.00     0.049 A 
ATOM     59  H   UNL A   1      44.070  27.206  29.435  1.00  0.00     0.167 HD
ATOM     60  C   UNL A   1      46.272  28.653  30.508  1.00  0.00     0.074 A 
ATOM     61  C   UNL A   1      47.052  29.721  31.102  1.00  0.00     0.031 C 
ATOM     62  C   UNL A   1      46.760  27.428  30.199  1.00  0.00     0.031 A 
BRANCH  49  63
ATOM     63  C   UNL A   1      42.643  23.586  27.668  1.00  0.00    -0.014 A 
ATOM     64  C   UNL A   1      42.226  22.531  28.501  1.00  0.00     0.010 A 
ATOM     65  C   UNL A   1      42.893  23.329  26.308  1.00  0.00     0.010 A 
ATOM     66  C   UNL A   1      42.077  21.239  27.988  1.00  0.00     0.020 A 
ATOM     67  C   UNL A   1      42.723  22.042  25.789  1.00  0.00     0.020 A 
ATOM     68  C   UNL A   1      42.333  21.002  26.637  1.00  0.00     0.054 A 
BRANCH  68  69
ATOM     69  S   UNL A   1      42.123  19.323  25.980  1.00  0.00     0.124 S 
ATOM     70  O   UNL A   1      40.679  19.250  25.777  1.00  0.00    -0.237 OA
ATOM     71  O   UNL A   1      42.932  19.346  24.764  1.00  0.00    -0.237 OA
ATOM     72  O   UNL A   1      42.650  18.475  27.049  1.00  0.00    -0.744 OA
ENDBRANCH  68  69
ENDBRANCH  49  63
BRANCH  50  73
ATOM     73  C   UNL A   1      44.082  32.743  31.378  1.00  0.00    -0.014 A 
ATOM     74  C   UNL A   1      43.874  33.063  32.733  1.00  0.00     0.010 A 
ATOM     75  C   UNL A   1      44.360  33.773  30.464  1.00  0.00     0.010 A 
ATOM     76  C   UNL A   1      43.871  34.395  33.153  1.00  0.00     0.020 A 
ATOM     77  C   UNL A   1      44.383  35.106  30.887  1.00  0.00     0.020 A 
ATOM     78  C   UNL A   1      44.102  35.409  32.221  1.00  0.00     0.054 A 
BRANCH  78  79
ATOM     79  S   UNL A   1      44.013  37.137  32.766  1.00  0.00     0.124 S 
ATOM     80  O   UNL A   1      42.871  37.103  33.675  1.00  0.00    -0.237 OA
ATOM     81  O   UNL A   1      45.314  37.345  33.398  1.00  0.00    -0.237 OA
ATOM     82  O   UNL A   1      43.805  37.874  31.523  1.00  0.00    -0.744 OA
ENDBRANCH  78  79
ENDBRANCH  50  73
BRANCH  62  83
ATOM     83  C   UNL A   1      48.203  27.146  30.509  1.00  0.00    -0.014 A 
ATOM     84  C   UNL A   1      48.552  26.549  31.734  1.00  0.00     0.010 A 
ATOM     85  C   UNL A   1      49.217  27.587  29.642  1.00  0.00     0.010 A 
ATOM     86  C   UNL A   1      49.894  26.424  32.101  1.00  0.00     0.020 A 
ATOM     87  C   UNL A   1      50.562  27.445  29.998  1.00  0.00     0.020 A 
ATOM     88  C   UNL A   1      50.890  26.886  31.235  1.00  0.00     0.054 A 
BRANCH  88  89
ATOM     89  S   UNL A   1      52.628  26.743  31.738  1.00  0.00     0.124 S 
ATOM     90  O   UNL A   1      52.565  25.706  32.763  1.00  0.00    -0.237 OA
ATOM     91  O   UNL A   1      53.295  26.361  30.495  1.00  0.00    -0.237 OA
ATOM     92  O   UNL A   1      52.952  28.083  32.223  1.00  0.00    -0.744 OA
ENDBRANCH  88  89
ENDBRANCH  62  83
ENDBRANCH  36  37
ENDBRANCH  28  31
ENDBRANCH  26  27
ENDBRANCH   1  26
TORSDOF 16
ENDMDL
MODEL 3
REMARK VINA RESULT:     -11.2      5.247      9.822
REMARK SMILES CC(C)c1cc2c(cc1Cl)C=C(C(=O)NCCCCNC(=O)c1ccc(-c3c4nc(c(-c5ccc(S(=O)(=O)[O-])cc5)c5ccc([nH]5)c(-c5ccc(S(=O)(=O)[O-])cc5)c5nc(c(-c6ccc(S(=O)(=O)[O-])cc6)c6ccc3[nH]6)C=C5)C=C4)cc1)[C@@H](C(F)(F)F)O2
REMARK SMILES IDX 18 1 17 2 16 3 15 4 13 5 14 6 12 8 4 9 5 10 9 11 6 12 8 13
REMARK SMILES IDX 10 14 7 15 88 16 11 17 83 18 2 19 1 20 3 21 84 22 85 23
REMARK SMILES IDX 86 24 87 25 19 26 20 27 21 28 22 30 23 31 24 32 82 33 25 34
REMARK SMILES IDX 81 35 26 36 27 37 28 38 75 39 29 40 80 41 74 42 76 43 30 44
REMARK SMILES IDX 79 45 73 46 72 47 31 49 61 50 42 51 60 52 43 53 46 54 59 55
REMARK SMILES IDX 77 56 44 57 45 58 58 60 78 61 47 62 32 63 33 64 41 65 34 66
REMARK SMILES IDX 40 67 35 68 36 69 37 70 38 71 39 72 62 73 63 74 71 75 64 76
REMARK SMILES IDX 70 77 65 78 66 79 67 80 68 81 69 82 48 83 49 84 57 85 50 86
REMARK SMILES IDX 56 87 51 88 52 89 53 90 54 91 55 92
REMARK H PARENT 15 7 20 29 76 48 46 59
REMARK Flexibility Score: inf
ROOT
ATOM      1  C   UNL A   1      37.781  23.544  26.072  1.00  0.00     0.023 C 
ENDROOT
BRANCH   1   2
ATOM      2  C   UNL A   1      38.246  22.118  25.758  1.00  0.00     0.023 C 
BRANCH   2   3
ATOM      3  C   UNL A   1      37.424  21.411  24.683  1.00  0.00     0.116 C 
BRANCH   3   4
ATOM      4  N   UNL A   1      36.178  20.879  25.205  1.00  0.00    -0.352 N 
ATOM      5  C   UNL A   1      34.891  21.290  25.294  1.00  0.00     0.251 C 
ATOM      6  O   UNL A   1      34.116  20.490  25.829  1.00  0.00    -0.270 OA
ATOM      7  H   UNL A   1      36.301  19.984  25.596  1.00  0.00     0.163 HD
BRANCH   5   8
ATOM      8  C   UNL A   1      34.368  22.600  24.806  1.00  0.00     0.067 C 
ATOM      9  C   UNL A   1      32.902  27.437  24.460  1.00  0.00    -0.023 A 
ATOM     10  C   UNL A   1      33.206  26.420  23.537  1.00  0.00     0.052 A 
ATOM     11  C   UNL A   1      33.092  27.155  25.828  1.00  0.00     0.045 A 
ATOM     12  C   UNL A   1      33.638  25.166  23.965  1.00  0.00     0.128 A 
ATOM     13  C   UNL A   1      33.547  25.897  26.250  1.00  0.00     0.032 A 
ATOM     14  Cl  UNL A   1      32.806  28.334  27.061  1.00  0.00    -0.084 Cl
ATOM     15  C   UNL A   1      33.819  24.897  25.318  1.00  0.00     0.019 A 
ATOM     16  O   UNL A   1      33.915  24.247  22.992  1.00  0.00    -0.475 OA
ATOM     17  C   UNL A   1      34.333  23.591  25.718  1.00  0.00     0.025 C 
ATOM     18  C   UNL A   1      33.862  22.853  23.413  1.00  0.00     0.314 C 
BRANCH   9  19
ATOM     19  C   UNL A   1      32.439  28.799  23.958  1.00  0.00     0.014 C 
ATOM     20  C   UNL A   1      32.870  28.998  22.503  1.00  0.00     0.012 C 
ATOM     21  C   UNL A   1      30.928  29.018  24.104  1.00  0.00     0.012 C 
ENDBRANCH   9  19
BRANCH  18  22
ATOM     22  C   UNL A   1      32.438  22.308  23.194  1.00  0.00     0.429 C 
ATOM     23  F   UNL A   1      31.748  22.304  24.363  1.00  0.00    -0.167 F 
ATOM     24  F   UNL A   1      31.722  23.057  22.325  1.00  0.00    -0.167 F 
ATOM     25  F   UNL A   1      32.431  21.041  22.719  1.00  0.00    -0.167 F 
ENDBRANCH  18  22
ENDBRANCH   5   8
ENDBRANCH   3   4
ENDBRANCH   2   3
ENDBRANCH   1   2
BRANCH   1  26
ATOM     26  C   UNL A   1      38.764  24.395  26.873  1.00  0.00     0.116 C 
BRANCH  26  27
ATOM     27  N   UNL A   1      39.851  24.962  26.085  1.00  0.00    -0.352 N 
ATOM     28  C   UNL A   1      40.515  26.149  26.309  1.00  0.00     0.251 C 
ATOM     29  H   UNL A   1      40.144  24.439  25.305  1.00  0.00     0.163 HD
ATOM     30  O   UNL A   1      41.374  26.548  25.529  1.00  0.00    -0.269 OA
BRANCH  28  31
ATOM     31  C   UNL A   1      40.120  26.959  27.478  1.00  0.00     0.039 A 
ATOM     32  C   UNL A   1      40.407  28.325  27.506  1.00  0.00     0.014 A 
ATOM     33  C   UNL A   1      39.581  26.319  28.596  1.00  0.00     0.014 A 
ATOM     34  C   UNL A   1      40.322  29.012  28.710  1.00  0.00     0.010 A 
ATOM     35  C   UNL A   1      39.429  27.032  29.786  1.00  0.00     0.010 A 
ATOM     36  C   UNL A   1      39.856  28.366  29.869  1.00  0.00    -0.014 A 
BRANCH  36  37
ATOM     37  C   UNL A   1      39.866  29.097  31.161  1.00  0.00     0.031 A 
ATOM     38  C   UNL A   1      41.017  28.945  32.119  1.00  0.00     0.074 A 
ATOM     39  C   UNL A   1      38.874  29.968  31.429  1.00  0.00     0.049 A 
ATOM     40  N   UNL A   1      41.213  29.544  33.267  1.00  0.00    -0.248 NA
ATOM     41  C   UNL A   1      42.088  28.005  31.747  1.00  0.00     0.031 C 
ATOM     42  C   UNL A   1      37.727  30.225  30.557  1.00  0.00     0.029 A 
ATOM     43  N   UNL A   1      38.691  30.823  32.486  1.00  0.00    -0.354 N 
ATOM     44  C   UNL A   1      42.411  29.043  33.760  1.00  0.00     0.074 A 
ATOM     45  C   UNL A   1      42.893  28.075  32.799  1.00  0.00     0.031 C 
ATOM     46  C   UNL A   1      36.999  31.224  31.077  1.00  0.00     0.029 A 
ATOM     47  C   UNL A   1      37.590  31.632  32.349  1.00  0.00     0.049 A 
ATOM     48  H   UNL A   1      39.291  30.853  33.266  1.00  0.00     0.167 HD
ATOM     49  C   UNL A   1      43.056  29.367  34.905  1.00  0.00     0.031 A 
ATOM     50  C   UNL A   1      37.101  32.597  33.154  1.00  0.00     0.031 A 
ATOM     51  C   UNL A   1      42.583  30.343  35.851  1.00  0.00     0.049 A 
ATOM     52  C   UNL A   1      37.810  32.910  34.437  1.00  0.00     0.074 A 
ATOM     53  C   UNL A   1      43.172  30.741  37.039  1.00  0.00     0.029 A 
ATOM     54  N   UNL A   1      41.415  31.079  35.716  1.00  0.00    -0.354 N 
ATOM     55  N   UNL A   1      38.927  32.404  34.898  1.00  0.00    -0.248 NA
ATOM     56  C   UNL A   1      37.189  33.911  35.316  1.00  0.00     0.031 C 
ATOM     57  C   UNL A   1      42.337  31.685  37.645  1.00  0.00     0.029 A 
ATOM     58  C   UNL A   1      41.254  31.912  36.810  1.00  0.00     0.049 A 
ATOM     59  H   UNL A   1      40.792  31.017  34.956  1.00  0.00     0.167 HD
ATOM     60  C   UNL A   1      39.144  33.019  36.125  1.00  0.00     0.074 A 
ATOM     61  C   UNL A   1      38.052  33.952  36.324  1.00  0.00     0.031 C 
ATOM     62  C   UNL A   1      40.153  32.821  37.007  1.00  0.00     0.031 A 
BRANCH  49  63
ATOM     63  C   UNL A   1      44.344  28.655  35.220  1.00  0.00    -0.014 A 
ATOM     64  C   UNL A   1      44.317  27.473  35.984  1.00  0.00     0.010 A 
ATOM     65  C   UNL A   1      45.585  29.198  34.841  1.00  0.00     0.010 A 
ATOM     66  C   UNL A   1      45.507  26.853  36.375  1.00  0.00     0.020 A 
ATOM     67  C   UNL A   1      46.776  28.568  35.213  1.00  0.00     0.020 A 
ATOM     68  C   UNL A   1      46.729  27.409  35.993  1.00  0.00     0.054 A 
BRANCH  68  69
ATOM     69  S   UNL A   1      48.268  26.587  36.496  1.00  0.00     0.124 S 
ATOM     70  O   UNL A   1      47.797  25.261  36.882  1.00  0.00    -0.237 OA
ATOM     71  O   UNL A   1      49.077  26.643  35.281  1.00  0.00    -0.237 OA
ATOM     72  O   UNL A   1      48.753  27.425  37.593  1.00  0.00    -0.744 OA
ENDBRANCH  68  69
ENDBRANCH  49  63
BRANCH  50  73
ATOM     73  C   UNL A   1      35.882  33.331  32.728  1.00  0.00    -0.014 A 
ATOM     74  C   UNL A   1      35.985  34.427  31.850  1.00  0.00     0.010 A 
ATOM     75  C   UNL A   1      34.634  33.021  33.295  1.00  0.00     0.010 A 
ATOM     76  C   UNL A   1      34.879  35.241  31.601  1.00  0.00     0.020 A 
ATOM     77  C   UNL A   1      33.519  33.820  33.029  1.00  0.00     0.020 A 
ATOM     78  C   UNL A   1      33.658  34.945  32.212  1.00  0.00     0.054 A 
BRANCH  78  79
ATOM     79  S   UNL A   1      32.251  36.059  31.946  1.00  0.00     0.124 S 
ATOM     80  O   UNL A   1      32.677  37.252  32.672  1.00  0.00    -0.237 OA
ATOM     81  O   UNL A   1      32.212  36.189  30.491  1.00  0.00    -0.237 OA
ATOM     82  O   UNL A   1      31.128  35.334  32.532  1.00  0.00    -0.744 OA
ENDBRANCH  78  79
ENDBRANCH  50  73
BRANCH  62  83
ATOM     83  C   UNL A   1      40.133  33.606  38.288  1.00  0.00    -0.014 A 
ATOM     84  C   UNL A   1      39.322  33.181  39.357  1.00  0.00     0.010 A 
ATOM     85  C   UNL A   1      40.818  34.829  38.385  1.00  0.00     0.010 A 
ATOM     86  C   UNL A   1      39.174  33.981  40.492  1.00  0.00     0.020 A 
ATOM     87  C   UNL A   1      40.688  35.622  39.529  1.00  0.00     0.020 A 
ATOM     88  C   UNL A   1      39.847  35.204  40.564  1.00  0.00     0.054 A 
BRANCH  88  89
ATOM     89  S   UNL A   1      39.623  36.247  42.032  1.00  0.00     0.124 S 
ATOM     90  O   UNL A   1      39.337  37.550  41.440  1.00  0.00    -0.237 OA
ATOM     91  O   UNL A   1      38.502  35.607  42.717  1.00  0.00    -0.237 OA
ATOM     92  O   UNL A   1      40.906  36.141  42.723  1.00  0.00    -0.744 OA
ENDBRANCH  88  89
ENDBRANCH  62  83
ENDBRANCH  36  37
ENDBRANCH  28  31
ENDBRANCH  26  27
ENDBRANCH   1  26
TORSDOF 16
ENDMDL
