MODEL 1
REMARK VINA RESULT:     -12.7      0.000      0.000
REMARK SMILES COc1cc2c(CC(=O)NCCCCNC(=O)c3ccc(-c4c5nc(c(-c6ccc(S(=O)(=O)[O-])cc6)c6ccc([nH]6)c(-c6ccc(S(=O)(=O)[O-])cc6)c6nc(c(-c7ccc(S(=O)(=O)[O-])cc7)c7ccc4[nH]7)C=C6)C=C5)cc3)c(C)n(C(=O)c3ccc(Cl)cc3)c2cc1Cl
REMARK SMILES IDX 12 1 11 2 10 3 8 4 9 5 7 7 6 8 3 9 4 10 92 11 5 12 91 13
REMARK SMILES IDX 93 14 90 15 78 16 80 17 79 18 2 19 1 20 81 21 82 22 83 23
REMARK SMILES IDX 84 24 89 25 85 26 88 27 86 28 87 29 13 30 14 31 15 32 16 33
REMARK SMILES IDX 17 35 18 36 19 37 77 38 20 39 76 40 21 41 22 42 23 43 70 44
REMARK SMILES IDX 24 45 75 46 69 47 71 48 25 49 74 50 68 51 67 52 26 54 56 55
REMARK SMILES IDX 37 56 55 57 38 58 41 59 54 60 72 61 39 62 40 63 53 65 73 66
REMARK SMILES IDX 42 67 27 68 28 69 36 70 29 71 35 72 30 73 31 74 32 75 33 76
REMARK SMILES IDX 34 77 57 78 58 79 66 80 59 81 65 82 60 83 61 84 62 85 63 86
REMARK SMILES IDX 64 87 43 88 44 89 52 90 45 91 51 92 46 93 47 94 48 95 49 96
REMARK SMILES IDX 50 97
REMARK H PARENT 10 6 15 34 71 53 41 64
REMARK Flexibility Score: inf
ROOT
ATOM      1  C   UNL A   1      40.741  20.796  26.458  1.00  0.00     0.023 C 
ENDROOT
BRANCH   1   2
ATOM      2  C   UNL A   1      39.319  21.128  26.019  1.00  0.00     0.116 C 
BRANCH   2   3
ATOM      3  N   UNL A   1      38.889  22.431  26.483  1.00  0.00    -0.356 N 
ATOM      4  C   UNL A   1      37.932  23.244  25.948  1.00  0.00     0.224 C 
ATOM      5  O   UNL A   1      37.673  24.306  26.520  1.00  0.00    -0.275 OA
ATOM      6  H   UNL A   1      39.346  22.773  27.286  1.00  0.00     0.163 HD
BRANCH   4   7
ATOM      7  C   UNL A   1      37.157  22.800  24.716  1.00  0.00     0.138 C 
BRANCH   7   8
ATOM      8  C   UNL A   1      35.709  22.499  24.984  1.00  0.00    -0.009 A 
ATOM      9  C   UNL A   1      34.740  18.797  24.687  1.00  0.00     0.138 A 
ATOM     10  C   UNL A   1      35.595  19.911  24.726  1.00  0.00     0.058 A 
ATOM     11  C   UNL A   1      33.373  18.995  24.867  1.00  0.00     0.085 A 
ATOM     12  C   UNL A   1      35.102  21.214  24.962  1.00  0.00     0.008 A 
ATOM     13  C   UNL A   1      32.864  20.285  25.088  1.00  0.00     0.051 A 
ATOM     14  Cl  UNL A   1      32.195  17.729  24.911  1.00  0.00    -0.080 Cl
ATOM     15  C   UNL A   1      33.737  21.386  25.198  1.00  0.00     0.058 A 
ATOM     16  C   UNL A   1      34.701  23.423  25.240  1.00  0.00     0.028 A 
ATOM     17  N   UNL A   1      33.531  22.723  25.573  1.00  0.00    -0.280 N 
ATOM     18  C   UNL A   1      34.814  24.916  25.243  1.00  0.00     0.065 C 
BRANCH   9  19
ATOM     19  O   UNL A   1      35.418  17.621  24.514  1.00  0.00    -0.495 OA
ATOM     20  C   UNL A   1      34.912  16.466  25.166  1.00  0.00     0.278 C 
ENDBRANCH   9  19
BRANCH  17  21
ATOM     21  C   UNL A   1      32.363  23.269  26.182  1.00  0.00     0.262 C 
ATOM     22  O   UNL A   1      32.093  22.951  27.342  1.00  0.00    -0.268 OA
BRANCH  21  23
ATOM     23  C   UNL A   1      31.440  24.222  25.542  1.00  0.00     0.040 A 
ATOM     24  C   UNL A   1      30.876  23.959  24.287  1.00  0.00     0.015 A 
ATOM     25  C   UNL A   1      31.192  25.431  26.200  1.00  0.00     0.015 A 
ATOM     26  C   UNL A   1      30.125  24.955  23.652  1.00  0.00     0.021 A 
ATOM     27  C   UNL A   1      30.435  26.416  25.566  1.00  0.00     0.021 A 
ATOM     28  C   UNL A   1      29.920  26.182  24.289  1.00  0.00     0.041 A 
ATOM     29  Cl  UNL A   1      29.050  27.434  23.493  1.00  0.00    -0.084 Cl
ENDBRANCH  21  23
ENDBRANCH  17  21
ENDBRANCH   7   8
ENDBRANCH   4   7
ENDBRANCH   2   3
ENDBRANCH   1   2
BRANCH   1  30
ATOM     30  C   UNL A   1      41.201  19.376  26.101  1.00  0.00     0.023 C 
BRANCH  30  31
ATOM     31  C   UNL A   1      42.698  19.121  26.299  1.00  0.00     0.116 C 
BRANCH  31  32
ATOM     32  N   UNL A   1      43.487  19.369  25.109  1.00  0.00    -0.352 N 
ATOM     33  C   UNL A   1      44.193  20.436  24.629  1.00  0.00     0.251 C 
ATOM     34  H   UNL A   1      43.525  18.589  24.509  1.00  0.00     0.163 HD
ATOM     35  O   UNL A   1      44.855  20.228  23.609  1.00  0.00    -0.269 OA
BRANCH  33  36
ATOM     36  C   UNL A   1      44.181  21.805  25.215  1.00  0.00     0.039 A 
ATOM     37  C   UNL A   1      44.910  22.209  26.333  1.00  0.00     0.014 A 
ATOM     38  C   UNL A   1      43.296  22.726  24.623  1.00  0.00     0.014 A 
ATOM     39  C   UNL A   1      44.697  23.458  26.902  1.00  0.00     0.010 A 
ATOM     40  C   UNL A   1      43.088  23.985  25.181  1.00  0.00     0.010 A 
ATOM     41  C   UNL A   1      43.751  24.326  26.356  1.00  0.00    -0.014 A 
BRANCH  41  42
ATOM     42  C   UNL A   1      43.492  25.561  27.088  1.00  0.00     0.031 A 
ATOM     43  C   UNL A   1      44.485  26.660  26.921  1.00  0.00     0.074 A 
ATOM     44  C   UNL A   1      42.397  25.740  27.850  1.00  0.00     0.049 A 
ATOM     45  N   UNL A   1      45.217  27.237  27.820  1.00  0.00    -0.248 NA
ATOM     46  C   UNL A   1      44.732  27.130  25.550  1.00  0.00     0.031 C 
ATOM     47  C   UNL A   1      41.187  24.913  27.909  1.00  0.00     0.029 A 
ATOM     48  N   UNL A   1      42.102  26.786  28.671  1.00  0.00    -0.354 N 
ATOM     49  C   UNL A   1      45.909  28.252  27.161  1.00  0.00     0.074 A 
ATOM     50  C   UNL A   1      45.650  28.074  25.754  1.00  0.00     0.031 C 
ATOM     51  C   UNL A   1      40.207  25.610  28.525  1.00  0.00     0.029 A 
ATOM     52  C   UNL A   1      40.770  26.843  29.046  1.00  0.00     0.049 A 
ATOM     53  H   UNL A   1      42.773  27.441  28.970  1.00  0.00     0.167 HD
ATOM     54  C   UNL A   1      46.529  29.278  27.811  1.00  0.00     0.031 A 
ATOM     55  C   UNL A   1      40.155  27.875  29.669  1.00  0.00     0.031 A 
ATOM     56  C   UNL A   1      46.757  28.994  29.199  1.00  0.00     0.049 A 
ATOM     57  C   UNL A   1      41.198  28.679  30.346  1.00  0.00     0.074 A 
ATOM     58  C   UNL A   1      47.533  28.092  29.897  1.00  0.00     0.029 A 
ATOM     59  N   UNL A   1      45.870  29.516  30.106  1.00  0.00    -0.354 N 
ATOM     60  N   UNL A   1      41.925  28.247  31.339  1.00  0.00    -0.248 NA
ATOM     61  C   UNL A   1      41.689  29.883  29.694  1.00  0.00     0.031 C 
ATOM     62  C   UNL A   1      46.789  27.790  31.073  1.00  0.00     0.029 A 
ATOM     63  C   UNL A   1      45.611  28.543  31.039  1.00  0.00     0.049 A 
ATOM     64  H   UNL A   1      45.487  30.423  30.092  1.00  0.00     0.167 HD
ATOM     65  C   UNL A   1      43.151  28.876  31.187  1.00  0.00     0.074 A 
ATOM     66  C   UNL A   1      42.901  29.963  30.246  1.00  0.00     0.031 C 
ATOM     67  C   UNL A   1      44.306  28.300  31.630  1.00  0.00     0.031 A 
BRANCH  54  68
ATOM     68  C   UNL A   1      46.674  30.665  27.235  1.00  0.00    -0.014 A 
ATOM     69  C   UNL A   1      45.564  31.504  27.004  1.00  0.00     0.010 A 
ATOM     70  C   UNL A   1      47.951  31.259  27.141  1.00  0.00     0.010 A 
ATOM     71  C   UNL A   1      45.707  32.852  26.668  1.00  0.00     0.020 A 
ATOM     72  C   UNL A   1      48.105  32.625  26.850  1.00  0.00     0.020 A 
ATOM     73  C   UNL A   1      46.979  33.410  26.609  1.00  0.00     0.054 A 
BRANCH  73  74
ATOM     74  S   UNL A   1      47.110  35.193  26.319  1.00  0.00     0.124 S 
ATOM     75  O   UNL A   1      47.653  35.665  27.589  1.00  0.00    -0.237 OA
ATOM     76  O   UNL A   1      48.022  35.259  25.180  1.00  0.00    -0.237 OA
ATOM     77  O   UNL A   1      45.735  35.596  26.036  1.00  0.00    -0.744 OA
ENDBRANCH  73  74
ENDBRANCH  54  68
BRANCH  55  78
ATOM     78  C   UNL A   1      38.839  28.443  29.289  1.00  0.00    -0.014 A 
ATOM     79  C   UNL A   1      38.680  29.043  28.022  1.00  0.00     0.010 A 
ATOM     80  C   UNL A   1      37.855  28.680  30.264  1.00  0.00     0.010 A 
ATOM     81  C   UNL A   1      37.620  29.912  27.759  1.00  0.00     0.020 A 
ATOM     82  C   UNL A   1      36.786  29.554  30.006  1.00  0.00     0.020 A 
ATOM     83  C   UNL A   1      36.699  30.192  28.766  1.00  0.00     0.054 A 
BRANCH  83  84
ATOM     84  S   UNL A   1      35.452  31.472  28.452  1.00  0.00     0.124 S 
ATOM     85  O   UNL A   1      34.482  30.753  27.630  1.00  0.00    -0.237 OA
ATOM     86  O   UNL A   1      35.003  31.810  29.800  1.00  0.00    -0.237 OA
ATOM     87  O   UNL A   1      36.198  32.522  27.765  1.00  0.00    -0.744 OA
ENDBRANCH  83  84
ENDBRANCH  55  78
BRANCH  67  88
ATOM     88  C   UNL A   1      44.218  27.119  32.574  1.00  0.00    -0.014 A 
ATOM     89  C   UNL A   1      44.224  27.378  33.958  1.00  0.00     0.010 A 
ATOM     90  C   UNL A   1      44.336  25.781  32.145  1.00  0.00     0.010 A 
ATOM     91  C   UNL A   1      44.387  26.344  34.884  1.00  0.00     0.020 A 
ATOM     92  C   UNL A   1      44.477  24.736  33.071  1.00  0.00     0.020 A 
ATOM     93  C   UNL A   1      44.531  25.029  34.435  1.00  0.00     0.054 A 
BRANCH  93  94
ATOM     94  S   UNL A   1      44.833  23.726  35.661  1.00  0.00     0.124 S 
ATOM     95  O   UNL A   1      43.850  22.713  35.282  1.00  0.00    -0.237 OA
ATOM     96  O   UNL A   1      46.226  23.365  35.411  1.00  0.00    -0.237 OA
ATOM     97  O   UNL A   1      44.582  24.379  36.944  1.00  0.00    -0.744 OA
ENDBRANCH  93  94
ENDBRANCH  67  88
ENDBRANCH  41  42
ENDBRANCH  33  36
ENDBRANCH  31  32
ENDBRANCH  30  31
ENDBRANCH   1  30
TORSDOF 18
ENDMDL
MODEL 2
REMARK VINA RESULT:     -12.7      2.493      3.302
REMARK SMILES COc1cc2c(CC(=O)NCCCCNC(=O)c3ccc(-c4c5nc(c(-c6ccc(S(=O)(=O)[O-])cc6)c6ccc([nH]6)c(-c6ccc(S(=O)(=O)[O-])cc6)c6nc(c(-c7ccc(S(=O)(=O)[O-])cc7)c7ccc4[nH]7)C=C6)C=C5)cc3)c(C)n(C(=O)c3ccc(Cl)cc3)c2cc1Cl
REMARK SMILES IDX 12 1 11 2 10 3 8 4 9 5 7 7 6 8 3 9 4 10 92 11 5 12 91 13
REMARK SMILES IDX 93 14 90 15 78 16 80 17 79 18 2 19 1 20 81 21 82 22 83 23
REMARK SMILES IDX 84 24 89 25 85 26 88 27 86 28 87 29 13 30 14 31 15 32 16 33
REMARK SMILES IDX 17 35 18 36 19 37 77 38 20 39 76 40 21 41 22 42 23 43 70 44
REMARK SMILES IDX 24 45 75 46 69 47 71 48 25 49 74 50 68 51 67 52 26 54 56 55
REMARK SMILES IDX 37 56 55 57 38 58 41 59 54 60 72 61 39 62 40 63 53 65 73 66
REMARK SMILES IDX 42 67 27 68 28 69 36 70 29 71 35 72 30 73 31 74 32 75 33 76
REMARK SMILES IDX 34 77 57 78 58 79 66 80 59 81 65 82 60 83 61 84 62 85 63 86
REMARK SMILES IDX 64 87 43 88 44 89 52 90 45 91 51 92 46 93 47 94 48 95 49 96
REMARK SMILES IDX 50 97
REMARK H PARENT 10 6 15 34 71 53 41 64
REMARK Flexibility Score: inf
ROOT
ATOM      1  C   UNL A   1      39.708  23.748  27.612  1.00  0.00     0.023 C 
ENDROOT
BRANCH   1   2
ATOM      2  C   UNL A   1      38.539  24.361  26.846  1.00  0.00     0.116 C 
BRANCH   2   3
ATOM      3  N   UNL A   1      38.318  23.714  25.570  1.00  0.00    -0.356 N 
ATOM      4  C   UNL A   1      37.332  22.832  25.231  1.00  0.00     0.224 C 
ATOM      5  O   UNL A   1      37.282  22.422  24.070  1.00  0.00    -0.275 OA
ATOM      6  H   UNL A   1      38.959  23.937  24.857  1.00  0.00     0.163 HD
BRANCH   4   7
ATOM      7  C   UNL A   1      36.282  22.433  26.257  1.00  0.00     0.138 C 
BRANCH   7   8
ATOM      8  C   UNL A   1      34.906  22.247  25.679  1.00  0.00    -0.009 A 
ATOM      9  C   UNL A   1      34.207  18.756  24.247  1.00  0.00     0.138 A 
ATOM     10  C   UNL A   1      34.923  19.755  24.927  1.00  0.00     0.058 A 
ATOM     11  C   UNL A   1      32.952  19.065  23.729  1.00  0.00     0.085 A 
ATOM     12  C   UNL A   1      34.390  21.051  25.110  1.00  0.00     0.008 A 
ATOM     13  C   UNL A   1      32.413  20.352  23.890  1.00  0.00     0.051 A 
ATOM     14  Cl  UNL A   1      31.916  17.937  22.926  1.00  0.00    -0.080 Cl
ATOM     15  C   UNL A   1      33.107  21.326  24.636  1.00  0.00     0.058 A 
ATOM     16  C   UNL A   1      33.922  23.221  25.544  1.00  0.00     0.028 A 
ATOM     17  N   UNL A   1      32.746  22.605  25.090  1.00  0.00    -0.280 N 
ATOM     18  C   UNL A   1      34.030  24.676  25.881  1.00  0.00     0.065 C 
BRANCH   9  19
ATOM     19  O   UNL A   1      34.865  17.556  24.234  1.00  0.00    -0.495 OA
ATOM     20  C   UNL A   1      34.368  16.523  25.072  1.00  0.00     0.278 C 
ENDBRANCH   9  19
BRANCH  17  21
ATOM     21  C   UNL A   1      31.437  23.170  25.099  1.00  0.00     0.262 C 
ATOM     22  O   UNL A   1      30.562  22.634  25.783  1.00  0.00    -0.268 OA
BRANCH  21  23
ATOM     23  C   UNL A   1      31.032  24.381  24.364  1.00  0.00     0.040 A 
ATOM     24  C   UNL A   1      31.503  24.640  23.071  1.00  0.00     0.015 A 
ATOM     25  C   UNL A   1      30.209  25.299  25.025  1.00  0.00     0.015 A 
ATOM     26  C   UNL A   1      31.212  25.871  22.471  1.00  0.00     0.021 A 
ATOM     27  C   UNL A   1      29.914  26.519  24.417  1.00  0.00     0.021 A 
ATOM     28  C   UNL A   1      30.431  26.808  23.152  1.00  0.00     0.041 A 
ATOM     29  Cl  UNL A   1      30.117  28.345  22.449  1.00  0.00    -0.084 Cl
ENDBRANCH  21  23
ENDBRANCH  17  21
ENDBRANCH   7   8
ENDBRANCH   4   7
ENDBRANCH   2   3
ENDBRANCH   1   2
BRANCH   1  30
ATOM     30  C   UNL A   1      40.067  22.319  27.183  1.00  0.00     0.023 C 
BRANCH  30  31
ATOM     31  C   UNL A   1      41.564  22.000  27.216  1.00  0.00     0.116 C 
BRANCH  31  32
ATOM     32  N   UNL A   1      42.260  22.371  25.999  1.00  0.00    -0.352 N 
ATOM     33  C   UNL A   1      42.833  23.521  25.532  1.00  0.00     0.251 C 
ATOM     34  H   UNL A   1      42.338  21.624  25.363  1.00  0.00     0.163 HD
ATOM     35  O   UNL A   1      43.455  23.419  24.471  1.00  0.00    -0.269 OA
BRANCH  33  36
ATOM     36  C   UNL A   1      42.724  24.858  26.179  1.00  0.00     0.039 A 
ATOM     37  C   UNL A   1      43.295  25.210  27.401  1.00  0.00     0.014 A 
ATOM     38  C   UNL A   1      41.908  25.800  25.524  1.00  0.00     0.014 A 
ATOM     39  C   UNL A   1      42.991  26.426  27.999  1.00  0.00     0.010 A 
ATOM     40  C   UNL A   1      41.610  27.025  26.112  1.00  0.00     0.010 A 
ATOM     41  C   UNL A   1      42.109  27.311  27.380  1.00  0.00    -0.014 A 
BRANCH  41  42
ATOM     42  C   UNL A   1      41.738  28.505  28.132  1.00  0.00     0.031 A 
ATOM     43  C   UNL A   1      42.724  29.623  28.145  1.00  0.00     0.074 A 
ATOM     44  C   UNL A   1      40.553  28.632  28.758  1.00  0.00     0.049 A 
ATOM     45  N   UNL A   1      43.327  30.162  29.156  1.00  0.00    -0.248 NA
ATOM     46  C   UNL A   1      43.132  30.165  26.841  1.00  0.00     0.031 C 
ATOM     47  C   UNL A   1      39.360  27.789  28.624  1.00  0.00     0.029 A 
ATOM     48  N   UNL A   1      40.138  29.631  29.585  1.00  0.00    -0.354 N 
ATOM     49  C   UNL A   1      44.077  31.218  28.640  1.00  0.00     0.074 A 
ATOM     50  C   UNL A   1      44.000  31.108  27.204  1.00  0.00     0.031 C 
ATOM     51  C   UNL A   1      38.298  28.441  29.145  1.00  0.00     0.029 A 
ATOM     52  C   UNL A   1      38.769  29.653  29.792  1.00  0.00     0.049 A 
ATOM     53  H   UNL A   1      40.755  30.279  29.997  1.00  0.00     0.167 HD
ATOM     54  C   UNL A   1      44.592  32.217  29.412  1.00  0.00     0.031 A 
ATOM     55  C   UNL A   1      38.062  30.644  30.382  1.00  0.00     0.031 A 
ATOM     56  C   UNL A   1      44.649  31.866  30.802  1.00  0.00     0.049 A 
ATOM     57  C   UNL A   1      38.998  31.426  31.223  1.00  0.00     0.074 A 
ATOM     58  C   UNL A   1      45.348  30.939  31.547  1.00  0.00     0.029 A 
ATOM     59  N   UNL A   1      43.646  32.330  31.615  1.00  0.00    -0.354 N 
ATOM     60  N   UNL A   1      39.602  30.953  32.278  1.00  0.00    -0.248 NA
ATOM     61  C   UNL A   1      39.544  32.667  30.697  1.00  0.00     0.031 C 
ATOM     62  C   UNL A   1      44.469  30.569  32.605  1.00  0.00     0.029 A 
ATOM     63  C   UNL A   1      43.291  31.309  32.459  1.00  0.00     0.049 A 
ATOM     64  H   UNL A   1      43.252  33.233  31.596  1.00  0.00     0.167 HD
ATOM     65  C   UNL A   1      40.825  31.604  32.312  1.00  0.00     0.074 A 
ATOM     66  C   UNL A   1      40.675  32.734  31.401  1.00  0.00     0.031 C 
ATOM     67  C   UNL A   1      41.926  31.020  32.869  1.00  0.00     0.031 A 
BRANCH  54  68
ATOM     68  C   UNL A   1      44.782  33.633  28.927  1.00  0.00    -0.014 A 
ATOM     69  C   UNL A   1      43.703  34.435  28.502  1.00  0.00     0.010 A 
ATOM     70  C   UNL A   1      46.020  34.283  29.118  1.00  0.00     0.010 A 
ATOM     71  C   UNL A   1      43.844  35.801  28.250  1.00  0.00     0.020 A 
ATOM     72  C   UNL A   1      46.163  35.665  28.914  1.00  0.00     0.020 A 
ATOM     73  C   UNL A   1      45.072  36.414  28.474  1.00  0.00     0.054 A 
BRANCH  73  74
ATOM     74  S   UNL A   1      45.171  38.211  28.280  1.00  0.00     0.124 S 
ATOM     75  O   UNL A   1      45.768  38.337  26.953  1.00  0.00    -0.237 OA
ATOM     76  O   UNL A   1      43.772  38.616  28.383  1.00  0.00    -0.237 OA
ATOM     77  O   UNL A   1      46.022  38.629  29.392  1.00  0.00    -0.744 OA
ENDBRANCH  73  74
ENDBRANCH  54  68
BRANCH  55  78
ATOM     78  C   UNL A   1      36.794  31.215  29.867  1.00  0.00    -0.014 A 
ATOM     79  C   UNL A   1      36.727  31.671  28.533  1.00  0.00     0.010 A 
ATOM     80  C   UNL A   1      35.773  31.601  30.752  1.00  0.00     0.010 A 
ATOM     81  C   UNL A   1      35.721  32.544  28.115  1.00  0.00     0.020 A 
ATOM     82  C   UNL A   1      34.759  32.481  30.338  1.00  0.00     0.020 A 
ATOM     83  C   UNL A   1      34.764  32.974  29.031  1.00  0.00     0.054 A 
BRANCH  83  84
ATOM     84  S   UNL A   1      33.593  34.256  28.505  1.00  0.00     0.124 S 
ATOM     85  O   UNL A   1      32.769  33.534  27.538  1.00  0.00    -0.237 OA
ATOM     86  O   UNL A   1      32.928  34.606  29.757  1.00  0.00    -0.237 OA
ATOM     87  O   UNL A   1      34.448  35.298  27.944  1.00  0.00    -0.744 OA
ENDBRANCH  83  84
ENDBRANCH  55  78
BRANCH  67  88
ATOM     88  C   UNL A   1      41.743  29.792  33.735  1.00  0.00    -0.014 A 
ATOM     89  C   UNL A   1      41.570  29.980  35.119  1.00  0.00     0.010 A 
ATOM     90  C   UNL A   1      41.938  28.479  33.260  1.00  0.00     0.010 A 
ATOM     91  C   UNL A   1      41.635  28.903  36.007  1.00  0.00     0.020 A 
ATOM     92  C   UNL A   1      41.981  27.390  34.144  1.00  0.00     0.020 A 
ATOM     93  C   UNL A   1      41.858  27.615  35.516  1.00  0.00     0.054 A 
BRANCH  93  94
ATOM     94  S   UNL A   1      42.028  26.255  36.706  1.00  0.00     0.124 S 
ATOM     95  O   UNL A   1      42.983  26.803  37.666  1.00  0.00    -0.237 OA
ATOM     96  O   UNL A   1      40.666  26.092  37.208  1.00  0.00    -0.237 OA
ATOM     97  O   UNL A   1      42.530  25.141  35.904  1.00  0.00    -0.744 OA
ENDBRANCH  93  94
ENDBRANCH  67  88
ENDBRANCH  41  42
ENDBRANCH  33  36
ENDBRANCH  31  32
ENDBRANCH  30  31
ENDBRANCH   1  30
TORSDOF 18
ENDMDL
MODEL 3
REMARK VINA RESULT:     -12.4      2.740      9.207
REMARK SMILES COc1cc2c(CC(=O)NCCCCNC(=O)c3ccc(-c4c5nc(c(-c6ccc(S(=O)(=O)[O-])cc6)c6ccc([nH]6)c(-c6ccc(S(=O)(=O)[O-])cc6)c6nc(c(-c7ccc(S(=O)(=O)[O-])cc7)c7ccc4[nH]7)C=C6)C=C5)cc3)c(C)n(C(=O)c3ccc(Cl)cc3)c2cc1Cl
REMARK SMILES IDX 12 1 11 2 10 3 8 4 9 5 7 7 6 8 3 9 4 10 92 11 5 12 91 13
REMARK SMILES IDX 93 14 90 15 78 16 80 17 79 18 2 19 1 20 81 21 82 22 83 23
REMARK SMILES IDX 84 24 89 25 85 26 88 27 86 28 87 29 13 30 14 31 15 32 16 33
REMARK SMILES IDX 17 35 18 36 19 37 77 38 20 39 76 40 21 41 22 42 23 43 70 44
REMARK SMILES IDX 24 45 75 46 69 47 71 48 25 49 74 50 68 51 67 52 26 54 56 55
REMARK SMILES IDX 37 56 55 57 38 58 41 59 54 60 72 61 39 62 40 63 53 65 73 66
REMARK SMILES IDX 42 67 27 68 28 69 36 70 29 71 35 72 30 73 31 74 32 75 33 76
REMARK SMILES IDX 34 77 57 78 58 79 66 80 59 81 65 82 60 83 61 84 62 85 63 86
REMARK SMILES IDX 64 87 43 88 44 89 52 90 45 91 51 92 46 93 47 94 48 95 49 96
REMARK SMILES IDX 50 97
REMARK H PARENT 10 6 15 34 71 53 41 64
REMARK Flexibility Score: inf
ROOT
ATOM      1  C   UNL A   1      32.608  29.149  27.230  1.00  0.00     0.023 C 
ENDROOT
BRANCH   1   2
ATOM      2  C   UNL A   1      33.685  28.118  26.909  1.00  0.00     0.116 C 
BRANCH   2   3
ATOM      3  N   UNL A   1      33.754  27.815  25.495  1.00  0.00    -0.356 N 
ATOM      4  C   UNL A   1      33.451  26.641  24.867  1.00  0.00     0.224 C 
ATOM      5  O   UNL A   1      33.528  26.593  23.638  1.00  0.00    -0.275 OA
ATOM      6  H   UNL A   1      34.059  28.549  24.913  1.00  0.00     0.163 HD
BRANCH   4   7
ATOM      7  C   UNL A   1      32.957  25.451  25.676  1.00  0.00     0.138 C 
BRANCH   7   8
ATOM      8  C   UNL A   1      33.266  24.119  25.050  1.00  0.00    -0.009 A 
ATOM      9  C   UNL A   1      36.781  22.762  25.779  1.00  0.00     0.138 A 
ATOM     10  C   UNL A   1      35.682  23.630  25.887  1.00  0.00     0.058 A 
ATOM     11  C   UNL A   1      36.681  21.655  24.941  1.00  0.00     0.085 A 
ATOM     12  C   UNL A   1      34.481  23.392  25.183  1.00  0.00     0.008 A 
ATOM     13  C   UNL A   1      35.499  21.411  24.222  1.00  0.00     0.051 A 
ATOM     14  Cl  UNL A   1      37.913  20.457  24.744  1.00  0.00    -0.080 Cl
ATOM     15  C   UNL A   1      34.377  22.247  24.393  1.00  0.00     0.058 A 
ATOM     16  C   UNL A   1      32.449  23.396  24.187  1.00  0.00     0.028 A 
ATOM     17  N   UNL A   1      33.049  22.150  23.947  1.00  0.00    -0.280 N 
ATOM     18  C   UNL A   1      31.116  23.804  23.640  1.00  0.00     0.065 C 
BRANCH   9  19
ATOM     19  O   UNL A   1      37.822  23.129  26.589  1.00  0.00    -0.495 OA
ATOM     20  C   UNL A   1      38.331  24.447  26.451  1.00  0.00     0.278 C 
ENDBRANCH   9  19
BRANCH  17  21
ATOM     21  C   UNL A   1      32.423  21.007  23.369  1.00  0.00     0.262 C 
ATOM     22  O   UNL A   1      31.692  21.162  22.389  1.00  0.00    -0.268 OA
BRANCH  21  23
ATOM     23  C   UNL A   1      32.594  19.620  23.835  1.00  0.00     0.040 A 
ATOM     24  C   UNL A   1      32.664  18.551  22.933  1.00  0.00     0.015 A 
ATOM     25  C   UNL A   1      32.622  19.396  25.216  1.00  0.00     0.015 A 
ATOM     26  C   UNL A   1      32.677  17.241  23.425  1.00  0.00     0.021 A 
ATOM     27  C   UNL A   1      32.644  18.088  25.699  1.00  0.00     0.021 A 
ATOM     28  C   UNL A   1      32.653  17.016  24.803  1.00  0.00     0.041 A 
ATOM     29  Cl  UNL A   1      32.609  15.411  25.417  1.00  0.00    -0.084 Cl
ENDBRANCH  21  23
ENDBRANCH  17  21
ENDBRANCH   7   8
ENDBRANCH   4   7
ENDBRANCH   2   3
ENDBRANCH   1   2
BRANCH   1  30
ATOM     30  C   UNL A   1      33.034  30.605  27.000  1.00  0.00     0.023 C 
BRANCH  30  31
ATOM     31  C   UNL A   1      34.401  30.970  27.585  1.00  0.00     0.116 C 
BRANCH  31  32
ATOM     32  N   UNL A   1      34.317  31.722  28.822  1.00  0.00    -0.352 N 
ATOM     33  C   UNL A   1      35.146  31.909  29.892  1.00  0.00     0.251 C 
ATOM     34  H   UNL A   1      33.468  32.212  28.911  1.00  0.00     0.163 HD
ATOM     35  O   UNL A   1      34.771  32.738  30.724  1.00  0.00    -0.269 OA
BRANCH  33  36
ATOM     36  C   UNL A   1      36.415  31.168  30.133  1.00  0.00     0.039 A 
ATOM     37  C   UNL A   1      37.696  31.706  30.019  1.00  0.00     0.014 A 
ATOM     38  C   UNL A   1      36.288  29.795  30.420  1.00  0.00     0.014 A 
ATOM     39  C   UNL A   1      38.816  30.888  30.096  1.00  0.00     0.010 A 
ATOM     40  C   UNL A   1      37.407  28.972  30.511  1.00  0.00     0.010 A 
ATOM     41  C   UNL A   1      38.670  29.515  30.292  1.00  0.00    -0.014 A 
BRANCH  41  42
ATOM     42  C   UNL A   1      39.883  28.708  30.228  1.00  0.00     0.031 A 
ATOM     43  C   UNL A   1      40.630  28.518  31.503  1.00  0.00     0.074 A 
ATOM     44  C   UNL A   1      40.308  28.119  29.094  1.00  0.00     0.049 A 
ATOM     45  N   UNL A   1      41.845  28.860  31.792  1.00  0.00    -0.248 NA
ATOM     46  C   UNL A   1      39.891  27.919  32.624  1.00  0.00     0.031 C 
ATOM     47  C   UNL A   1      39.578  27.945  27.833  1.00  0.00     0.029 A 
ATOM     48  N   UNL A   1      41.473  27.450  28.875  1.00  0.00    -0.354 N 
ATOM     49  C   UNL A   1      42.086  28.383  33.080  1.00  0.00     0.074 A 
ATOM     50  C   UNL A   1      40.819  27.906  33.579  1.00  0.00     0.031 C 
ATOM     51  C   UNL A   1      40.213  27.020  27.080  1.00  0.00     0.029 A 
ATOM     52  C   UNL A   1      41.466  26.675  27.728  1.00  0.00     0.049 A 
ATOM     53  H   UNL A   1      42.250  27.511  29.478  1.00  0.00     0.167 HD
ATOM     54  C   UNL A   1      43.335  28.260  33.611  1.00  0.00     0.031 A 
ATOM     55  C   UNL A   1      42.390  25.750  27.378  1.00  0.00     0.031 A 
ATOM     56  C   UNL A   1      44.313  29.037  32.905  1.00  0.00     0.049 A 
ATOM     57  C   UNL A   1      43.640  26.062  28.109  1.00  0.00     0.074 A 
ATOM     58  C   UNL A   1      44.536  30.384  32.711  1.00  0.00     0.029 A 
ATOM     59  N   UNL A   1      45.099  28.385  31.989  1.00  0.00    -0.354 N 
ATOM     60  N   UNL A   1      44.349  27.139  27.917  1.00  0.00    -0.248 NA
ATOM     61  C   UNL A   1      43.942  25.326  29.326  1.00  0.00     0.031 C 
ATOM     62  C   UNL A   1      45.096  30.487  31.406  1.00  0.00     0.029 A 
ATOM     63  C   UNL A   1      45.206  29.194  30.885  1.00  0.00     0.049 A 
ATOM     64  H   UNL A   1      45.511  27.498  32.101  1.00  0.00     0.167 HD
ATOM     65  C   UNL A   1      44.897  27.433  29.156  1.00  0.00     0.074 A 
ATOM     66  C   UNL A   1      44.721  26.216  29.942  1.00  0.00     0.031 C 
ATOM     67  C   UNL A   1      45.202  28.715  29.513  1.00  0.00     0.031 A 
BRANCH  54  68
ATOM     68  C   UNL A   1      43.716  27.198  34.613  1.00  0.00    -0.014 A 
ATOM     69  C   UNL A   1      43.392  25.838  34.429  1.00  0.00     0.010 A 
ATOM     70  C   UNL A   1      44.626  27.501  35.648  1.00  0.00     0.010 A 
ATOM     71  C   UNL A   1      43.916  24.831  35.242  1.00  0.00     0.020 A 
ATOM     72  C   UNL A   1      45.195  26.491  36.442  1.00  0.00     0.020 A 
ATOM     73  C   UNL A   1      44.830  25.162  36.235  1.00  0.00     0.054 A 
BRANCH  73  74
ATOM     74  S   UNL A   1      45.597  23.811  37.166  1.00  0.00     0.124 S 
ATOM     75  O   UNL A   1      45.117  22.638  36.443  1.00  0.00    -0.237 OA
ATOM     76  O   UNL A   1      47.021  24.102  37.023  1.00  0.00    -0.237 OA
ATOM     77  O   UNL A   1      45.062  23.979  38.515  1.00  0.00    -0.744 OA
ENDBRANCH  73  74
ENDBRANCH  54  68
BRANCH  55  78
ATOM     78  C   UNL A   1      42.089  24.391  26.866  1.00  0.00    -0.014 A 
ATOM     79  C   UNL A   1      41.439  23.460  27.704  1.00  0.00     0.010 A 
ATOM     80  C   UNL A   1      42.712  23.912  25.701  1.00  0.00     0.010 A 
ATOM     81  C   UNL A   1      41.473  22.092  27.432  1.00  0.00     0.020 A 
ATOM     82  C   UNL A   1      42.751  22.536  25.422  1.00  0.00     0.020 A 
ATOM     83  C   UNL A   1      42.162  21.634  26.311  1.00  0.00     0.054 A 
BRANCH  83  84
ATOM     84  S   UNL A   1      42.352  19.842  26.097  1.00  0.00     0.124 S 
ATOM     85  O   UNL A   1      43.530  19.763  25.238  1.00  0.00    -0.237 OA
ATOM     86  O   UNL A   1      42.545  19.381  27.470  1.00  0.00    -0.237 OA
ATOM     87  O   UNL A   1      41.095  19.432  25.476  1.00  0.00    -0.744 OA
ENDBRANCH  83  84
ENDBRANCH  55  78
BRANCH  67  88
ATOM     88  C   UNL A   1      45.241  29.783  28.440  1.00  0.00    -0.014 A 
ATOM     89  C   UNL A   1      46.497  30.294  28.063  1.00  0.00     0.010 A 
ATOM     90  C   UNL A   1      44.084  30.426  27.953  1.00  0.00     0.010 A 
ATOM     91  C   UNL A   1      46.600  31.437  27.265  1.00  0.00     0.020 A 
ATOM     92  C   UNL A   1      44.181  31.560  27.132  1.00  0.00     0.020 A 
ATOM     93  C   UNL A   1      45.441  32.074  26.818  1.00  0.00     0.054 A 
BRANCH  93  94
ATOM     94  S   UNL A   1      45.612  33.606  25.860  1.00  0.00     0.124 S 
ATOM     95  O   UNL A   1      44.892  33.284  24.631  1.00  0.00    -0.237 OA
ATOM     96  O   UNL A   1      44.967  34.597  26.718  1.00  0.00    -0.237 OA
ATOM     97  O   UNL A   1      47.056  33.769  25.704  1.00  0.00    -0.744 OA
ENDBRANCH  93  94
ENDBRANCH  67  88
ENDBRANCH  41  42
ENDBRANCH  33  36
ENDBRANCH  31  32
ENDBRANCH  30  31
ENDBRANCH   1  30
TORSDOF 18
ENDMDL
