MODEL 1
REMARK VINA RESULT:     -11.7      0.000      0.000
REMARK SMILES O=C(COc1nc(-c2cccnc2)nc2c1CCCC2)NCCCCNC(=O)c1ccc(-c2c3nc(c(-c4ccc(S(=O)(=O)[O-])cc4)c4ccc([nH]4)c(-c4ccc(S(=O)(=O)[O-])cc4)c4nc(c(-c5ccc(S(=O)(=O)[O-])cc5)c5ccc2[nH]5)C=C4)C=C3)cc1
REMARK SMILES IDX 23 1 22 2 21 3 1 4 2 5 3 7 4 8 5 9 6 10 16 11 7 12 15 13
REMARK SMILES IDX 17 14 14 15 20 16 18 17 19 18 8 19 9 20 13 21 10 22 12 23
REMARK SMILES IDX 11 24 24 25 25 26 26 27 27 28 28 30 29 31 30 32 88 33 31 34
REMARK SMILES IDX 87 35 32 36 33 37 34 38 81 39 35 40 86 41 80 42 82 43 36 44
REMARK SMILES IDX 85 45 79 46 78 47 37 49 67 50 48 51 66 52 49 53 52 54 65 55
REMARK SMILES IDX 83 56 50 57 51 58 64 60 84 61 53 62 38 63 39 64 47 65 40 66
REMARK SMILES IDX 46 67 41 68 42 69 43 70 44 71 45 72 68 73 69 74 77 75 70 76
REMARK SMILES IDX 76 77 71 78 72 79 73 80 74 81 75 82 54 83 55 84 63 85 56 86
REMARK SMILES IDX 62 87 57 88 58 89 59 90 60 91 61 92
REMARK H PARENT 21 6 26 29 82 48 52 59
REMARK Flexibility Score: inf
ROOT
ATOM      1  C   UNL A   1      31.898  27.748  25.073  1.00  0.00     0.023 C 
ENDROOT
BRANCH   1   2
ATOM      2  C   UNL A   1      30.944  26.780  25.769  1.00  0.00     0.116 C 
BRANCH   2   3
ATOM      3  N   UNL A   1      30.954  25.458  25.185  1.00  0.00    -0.353 N 
ATOM      4  O   UNL A   1      31.471  24.334  27.124  1.00  0.00    -0.271 OA
ATOM      5  C   UNL A   1      31.161  24.319  25.935  1.00  0.00     0.258 C 
ATOM      6  H   UNL A   1      30.808  25.367  24.216  1.00  0.00     0.163 HD
BRANCH   5   7
ATOM      7  C   UNL A   1      31.061  23.010  25.141  1.00  0.00     0.331 C 
BRANCH   7   8
ATOM      8  O   UNL A   1      31.970  22.822  24.060  1.00  0.00    -0.467 OA
BRANCH   8   9
ATOM      9  C   UNL A   1      33.006  22.002  24.445  1.00  0.00     0.220 A 
ATOM     10  N   UNL A   1      32.762  20.684  24.404  1.00  0.00    -0.193 NA
ATOM     11  C   UNL A   1      34.229  22.564  24.760  1.00  0.00     0.036 A 
ATOM     12  C   UNL A   1      33.781  19.890  24.763  1.00  0.00     0.164 A 
ATOM     13  C   UNL A   1      35.224  21.653  25.080  1.00  0.00     0.051 A 
ATOM     14  C   UNL A   1      34.476  24.041  24.702  1.00  0.00     0.043 C 
ATOM     15  N   UNL A   1      35.003  20.322  25.124  1.00  0.00    -0.232 NA
ATOM     16  C   UNL A   1      36.613  22.104  25.446  1.00  0.00     0.057 C 
ATOM     17  C   UNL A   1      35.773  24.459  25.399  1.00  0.00     0.005 C 
ATOM     18  C   UNL A   1      36.917  23.533  25.002  1.00  0.00     0.007 C 
BRANCH  12  19
ATOM     19  C   UNL A   1      33.557  18.451  24.740  1.00  0.00     0.038 A 
ATOM     20  C   UNL A   1      34.153  17.618  23.784  1.00  0.00     0.015 A 
ATOM     21  C   UNL A   1      32.738  17.829  25.680  1.00  0.00     0.123 A 
ATOM     22  C   UNL A   1      33.923  16.243  23.809  1.00  0.00     0.021 A 
ATOM     23  N   UNL A   1      32.480  16.496  25.724  1.00  0.00    -0.264 NA
ATOM     24  C   UNL A   1      33.083  15.737  24.787  1.00  0.00     0.111 A 
ENDBRANCH  12  19
ENDBRANCH   8   9
ENDBRANCH   7   8
ENDBRANCH   5   7
ENDBRANCH   2   3
ENDBRANCH   1   2
BRANCH   1  25
ATOM     25  C   UNL A   1      33.387  27.473  25.300  1.00  0.00     0.023 C 
BRANCH  25  26
ATOM     26  C   UNL A   1      33.956  27.945  26.635  1.00  0.00     0.116 C 
BRANCH  26  27
ATOM     27  N   UNL A   1      33.623  29.327  26.942  1.00  0.00    -0.352 N 
ATOM     28  C   UNL A   1      34.362  30.279  27.601  1.00  0.00     0.251 C 
ATOM     29  H   UNL A   1      32.737  29.624  26.632  1.00  0.00     0.163 HD
ATOM     30  O   UNL A   1      33.855  31.366  27.868  1.00  0.00    -0.269 OA
BRANCH  28  31
ATOM     31  C   UNL A   1      35.755  29.993  28.019  1.00  0.00     0.039 A 
ATOM     32  C   UNL A   1      35.992  29.608  29.342  1.00  0.00     0.014 A 
ATOM     33  C   UNL A   1      36.820  30.106  27.123  1.00  0.00     0.014 A 
ATOM     34  C   UNL A   1      37.286  29.269  29.746  1.00  0.00     0.010 A 
ATOM     35  C   UNL A   1      38.100  29.707  27.510  1.00  0.00     0.010 A 
ATOM     36  C   UNL A   1      38.346  29.282  28.824  1.00  0.00    -0.014 A 
BRANCH  36  37
ATOM     37  C   UNL A   1      39.712  28.850  29.217  1.00  0.00     0.031 A 
ATOM     38  C   UNL A   1      40.608  29.775  29.994  1.00  0.00     0.074 A 
ATOM     39  C   UNL A   1      40.166  27.638  28.837  1.00  0.00     0.049 A 
ATOM     40  N   UNL A   1      41.841  29.589  30.387  1.00  0.00    -0.248 NA
ATOM     41  C   UNL A   1      40.050  31.086  30.361  1.00  0.00     0.031 C 
ATOM     42  C   UNL A   1      39.406  26.654  28.064  1.00  0.00     0.029 A 
ATOM     43  N   UNL A   1      41.376  27.028  29.053  1.00  0.00    -0.354 N 
ATOM     44  C   UNL A   1      42.210  30.758  31.044  1.00  0.00     0.074 A 
ATOM     45  C   UNL A   1      41.087  31.666  30.949  1.00  0.00     0.031 C 
ATOM     46  C   UNL A   1      40.154  25.551  27.901  1.00  0.00     0.029 A 
ATOM     47  C   UNL A   1      41.459  25.762  28.522  1.00  0.00     0.049 A 
ATOM     48  H   UNL A   1      42.116  27.455  29.543  1.00  0.00     0.167 HD
ATOM     49  C   UNL A   1      43.368  31.043  31.685  1.00  0.00     0.031 A 
ATOM     50  C   UNL A   1      42.468  24.869  28.533  1.00  0.00     0.031 A 
ATOM     51  C   UNL A   1      44.484  30.142  31.782  1.00  0.00     0.049 A 
ATOM     52  C   UNL A   1      43.758  25.221  29.219  1.00  0.00     0.074 A 
ATOM     53  C   UNL A   1      45.688  30.331  32.439  1.00  0.00     0.029 A 
ATOM     54  N   UNL A   1      44.536  28.880  31.208  1.00  0.00    -0.354 N 
ATOM     55  N   UNL A   1      44.074  26.320  29.861  1.00  0.00    -0.248 NA
ATOM     56  C   UNL A   1      44.826  24.212  29.185  1.00  0.00     0.031 C 
ATOM     57  C   UNL A   1      46.485  29.201  32.224  1.00  0.00     0.029 A 
ATOM     58  C   UNL A   1      45.758  28.287  31.476  1.00  0.00     0.049 A 
ATOM     59  H   UNL A   1      43.811  28.467  30.687  1.00  0.00     0.167 HD
ATOM     60  C   UNL A   1      45.372  26.128  30.323  1.00  0.00     0.074 A 
ATOM     61  C   UNL A   1      45.776  24.803  29.898  1.00  0.00     0.031 C 
ATOM     62  C   UNL A   1      46.154  26.974  31.037  1.00  0.00     0.031 A 
BRANCH  49  63
ATOM     63  C   UNL A   1      43.480  32.396  32.335  1.00  0.00    -0.014 A 
ATOM     64  C   UNL A   1      43.206  32.563  33.705  1.00  0.00     0.010 A 
ATOM     65  C   UNL A   1      43.888  33.510  31.578  1.00  0.00     0.010 A 
ATOM     66  C   UNL A   1      43.293  33.825  34.296  1.00  0.00     0.020 A 
ATOM     67  C   UNL A   1      44.000  34.770  32.172  1.00  0.00     0.020 A 
ATOM     68  C   UNL A   1      43.684  34.923  33.523  1.00  0.00     0.054 A 
BRANCH  68  69
ATOM     69  S   UNL A   1      43.792  36.549  34.318  1.00  0.00     0.124 S 
ATOM     70  O   UNL A   1      44.495  36.230  35.558  1.00  0.00    -0.237 OA
ATOM     71  O   UNL A   1      44.554  37.331  33.349  1.00  0.00    -0.237 OA
ATOM     72  O   UNL A   1      42.397  36.951  34.480  1.00  0.00    -0.744 OA
ENDBRANCH  68  69
ENDBRANCH  49  63
BRANCH  50  73
ATOM     73  C   UNL A   1      42.279  23.539  27.892  1.00  0.00    -0.014 A 
ATOM     74  C   UNL A   1      42.721  23.322  26.575  1.00  0.00     0.010 A 
ATOM     75  C   UNL A   1      41.701  22.475  28.606  1.00  0.00     0.010 A 
ATOM     76  C   UNL A   1      42.591  22.063  25.985  1.00  0.00     0.020 A 
ATOM     77  C   UNL A   1      41.589  21.208  28.026  1.00  0.00     0.020 A 
ATOM     78  C   UNL A   1      42.032  21.011  26.717  1.00  0.00     0.054 A 
BRANCH  78  79
ATOM     79  S   UNL A   1      41.950  19.365  25.956  1.00  0.00     0.124 S 
ATOM     80  O   UNL A   1      40.527  19.240  25.654  1.00  0.00    -0.237 OA
ATOM     81  O   UNL A   1      42.833  19.509  24.801  1.00  0.00    -0.237 OA
ATOM     82  O   UNL A   1      42.449  18.478  27.005  1.00  0.00    -0.744 OA
ENDBRANCH  78  79
ENDBRANCH  50  73
BRANCH  62  83
ATOM     83  C   UNL A   1      47.530  26.496  31.416  1.00  0.00    -0.014 A 
ATOM     84  C   UNL A   1      47.746  25.795  32.615  1.00  0.00     0.010 A 
ATOM     85  C   UNL A   1      48.603  26.682  30.524  1.00  0.00     0.010 A 
ATOM     86  C   UNL A   1      49.017  25.302  32.925  1.00  0.00     0.020 A 
ATOM     87  C   UNL A   1      49.869  26.171  30.821  1.00  0.00     0.020 A 
ATOM     88  C   UNL A   1      50.069  25.491  32.024  1.00  0.00     0.054 A 
BRANCH  88  89
ATOM     89  S   UNL A   1      51.693  24.787  32.423  1.00  0.00     0.124 S 
ATOM     90  O   UNL A   1      51.884  25.223  33.803  1.00  0.00    -0.237 OA
ATOM     91  O   UNL A   1      51.474  23.354  32.240  1.00  0.00    -0.237 OA
ATOM     92  O   UNL A   1      52.588  25.403  31.446  1.00  0.00    -0.744 OA
ENDBRANCH  88  89
ENDBRANCH  62  83
ENDBRANCH  36  37
ENDBRANCH  28  31
ENDBRANCH  26  27
ENDBRANCH  25  26
ENDBRANCH   1  25
TORSDOF 17
ENDMDL
MODEL 2
REMARK VINA RESULT:     -11.1      4.032      9.943
REMARK SMILES O=C(COc1nc(-c2cccnc2)nc2c1CCCC2)NCCCCNC(=O)c1ccc(-c2c3nc(c(-c4ccc(S(=O)(=O)[O-])cc4)c4ccc([nH]4)c(-c4ccc(S(=O)(=O)[O-])cc4)c4nc(c(-c5ccc(S(=O)(=O)[O-])cc5)c5ccc2[nH]5)C=C4)C=C3)cc1
REMARK SMILES IDX 23 1 22 2 21 3 1 4 2 5 3 7 4 8 5 9 6 10 16 11 7 12 15 13
REMARK SMILES IDX 17 14 14 15 20 16 18 17 19 18 8 19 9 20 13 21 10 22 12 23
REMARK SMILES IDX 11 24 24 25 25 26 26 27 27 28 28 30 29 31 30 32 88 33 31 34
REMARK SMILES IDX 87 35 32 36 33 37 34 38 81 39 35 40 86 41 80 42 82 43 36 44
REMARK SMILES IDX 85 45 79 46 78 47 37 49 67 50 48 51 66 52 49 53 52 54 65 55
REMARK SMILES IDX 83 56 50 57 51 58 64 60 84 61 53 62 38 63 39 64 47 65 40 66
REMARK SMILES IDX 46 67 41 68 42 69 43 70 44 71 45 72 68 73 69 74 77 75 70 76
REMARK SMILES IDX 76 77 71 78 72 79 73 80 74 81 75 82 54 83 55 84 63 85 56 86
REMARK SMILES IDX 62 87 57 88 58 89 59 90 60 91 61 92
REMARK H PARENT 21 6 26 29 82 48 52 59
REMARK Flexibility Score: inf
ROOT
ATOM      1  C   UNL A   1      40.796  22.200  27.842  1.00  0.00     0.023 C 
ENDROOT
BRANCH   1   2
ATOM      2  C   UNL A   1      40.120  21.841  26.521  1.00  0.00     0.116 C 
BRANCH   2   3
ATOM      3  N   UNL A   1      38.731  22.240  26.469  1.00  0.00    -0.353 N 
ATOM      4  O   UNL A   1      38.082  20.673  24.915  1.00  0.00    -0.271 OA
ATOM      5  C   UNL A   1      37.798  21.573  25.703  1.00  0.00     0.258 C 
ATOM      6  H   UNL A   1      38.441  23.016  27.000  1.00  0.00     0.163 HD
BRANCH   5   7
ATOM      7  C   UNL A   1      36.366  22.105  25.841  1.00  0.00     0.331 C 
BRANCH   7   8
ATOM      8  O   UNL A   1      35.755  22.665  24.682  1.00  0.00    -0.467 OA
BRANCH   8   9
ATOM      9  C   UNL A   1      34.599  21.982  24.375  1.00  0.00     0.220 A 
ATOM     10  N   UNL A   1      34.611  20.663  24.617  1.00  0.00    -0.193 NA
ATOM     11  C   UNL A   1      33.498  22.688  23.931  1.00  0.00     0.036 A 
ATOM     12  C   UNL A   1      33.477  20.008  24.334  1.00  0.00     0.164 A 
ATOM     13  C   UNL A   1      32.367  21.920  23.704  1.00  0.00     0.051 A 
ATOM     14  C   UNL A   1      33.509  24.178  23.764  1.00  0.00     0.043 C 
ATOM     15  N   UNL A   1      32.355  20.580  23.863  1.00  0.00    -0.232 NA
ATOM     16  C   UNL A   1      31.082  22.539  23.218  1.00  0.00     0.057 C 
ATOM     17  C   UNL A   1      32.316  24.699  22.960  1.00  0.00     0.005 C 
ATOM     18  C   UNL A   1      31.023  24.049  23.437  1.00  0.00     0.007 C 
BRANCH  12  19
ATOM     19  C   UNL A   1      33.449  18.571  24.574  1.00  0.00     0.038 A 
ATOM     20  C   UNL A   1      34.242  17.676  23.843  1.00  0.00     0.015 A 
ATOM     21  C   UNL A   1      32.630  18.015  25.554  1.00  0.00     0.123 A 
ATOM     22  C   UNL A   1      34.195  16.310  24.118  1.00  0.00     0.021 A 
ATOM     23  N   UNL A   1      32.548  16.689  25.838  1.00  0.00    -0.264 NA
ATOM     24  C   UNL A   1      33.337  15.870  25.111  1.00  0.00     0.111 A 
ENDBRANCH  12  19
ENDBRANCH   8   9
ENDBRANCH   7   8
ENDBRANCH   5   7
ENDBRANCH   2   3
ENDBRANCH   1   2
BRANCH   1  25
ATOM     25  C   UNL A   1      42.324  22.098  27.842  1.00  0.00     0.023 C 
BRANCH  25  26
ATOM     26  C   UNL A   1      43.079  23.414  27.685  1.00  0.00     0.116 C 
BRANCH  26  27
ATOM     27  N   UNL A   1      42.877  24.039  26.388  1.00  0.00    -0.352 N 
ATOM     28  C   UNL A   1      42.356  25.273  26.082  1.00  0.00     0.251 C 
ATOM     29  H   UNL A   1      43.156  23.498  25.614  1.00  0.00     0.163 HD
ATOM     30  O   UNL A   1      42.156  25.575  24.908  1.00  0.00    -0.269 OA
BRANCH  28  31
ATOM     31  C   UNL A   1      42.003  26.227  27.159  1.00  0.00     0.039 A 
ATOM     32  C   UNL A   1      40.930  25.922  28.000  1.00  0.00     0.014 A 
ATOM     33  C   UNL A   1      42.716  27.415  27.338  1.00  0.00     0.014 A 
ATOM     34  C   UNL A   1      40.616  26.772  29.064  1.00  0.00     0.010 A 
ATOM     35  C   UNL A   1      42.443  28.230  28.437  1.00  0.00     0.010 A 
ATOM     36  C   UNL A   1      41.393  27.916  29.313  1.00  0.00    -0.014 A 
BRANCH  36  37
ATOM     37  C   UNL A   1      41.123  28.789  30.485  1.00  0.00     0.031 A 
ATOM     38  C   UNL A   1      41.960  28.671  31.729  1.00  0.00     0.074 A 
ATOM     39  C   UNL A   1      40.096  29.662  30.447  1.00  0.00     0.049 A 
ATOM     40  N   UNL A   1      41.846  29.316  32.862  1.00  0.00    -0.248 NA
ATOM     41  C   UNL A   1      43.054  27.688  31.703  1.00  0.00     0.031 C 
ATOM     42  C   UNL A   1      39.196  29.860  29.308  1.00  0.00     0.029 A 
ATOM     43  N   UNL A   1      39.638  30.547  31.390  1.00  0.00    -0.354 N 
ATOM     44  C   UNL A   1      42.849  28.816  33.684  1.00  0.00     0.074 A 
ATOM     45  C   UNL A   1      43.527  27.777  32.938  1.00  0.00     0.031 C 
ATOM     46  C   UNL A   1      38.318  30.831  29.608  1.00  0.00     0.029 A 
ATOM     47  C   UNL A   1      38.565  31.296  30.970  1.00  0.00     0.049 A 
ATOM     48  H   UNL A   1      40.040  30.638  32.284  1.00  0.00     0.167 HD
ATOM     49  C   UNL A   1      43.191  29.199  34.937  1.00  0.00     0.031 A 
ATOM     50  C   UNL A   1      37.858  32.251  31.605  1.00  0.00     0.031 A 
ATOM     51  C   UNL A   1      42.521  30.233  35.680  1.00  0.00     0.049 A 
ATOM     52  C   UNL A   1      38.230  32.635  33.009  1.00  0.00     0.074 A 
ATOM     53  C   UNL A   1      42.815  30.713  36.945  1.00  0.00     0.029 A 
ATOM     54  N   UNL A   1      41.422  30.948  35.227  1.00  0.00    -0.354 N 
ATOM     55  N   UNL A   1      39.202  32.172  33.758  1.00  0.00    -0.248 NA
ATOM     56  C   UNL A   1      37.413  33.673  33.654  1.00  0.00     0.031 C 
ATOM     57  C   UNL A   1      41.867  31.687  37.274  1.00  0.00     0.029 A 
ATOM     58  C   UNL A   1      41.012  31.850  36.194  1.00  0.00     0.049 A 
ATOM     59  H   UNL A   1      40.996  30.832  34.347  1.00  0.00     0.167 HD
ATOM     60  C   UNL A   1      39.125  32.874  34.956  1.00  0.00     0.074 A 
ATOM     61  C   UNL A   1      38.020  33.801  34.827  1.00  0.00     0.031 C 
ATOM     62  C   UNL A   1      39.903  32.759  36.060  1.00  0.00     0.031 A 
BRANCH  49  63
ATOM     63  C   UNL A   1      44.349  28.489  35.584  1.00  0.00    -0.014 A 
ATOM     64  C   UNL A   1      45.658  28.993  35.470  1.00  0.00     0.010 A 
ATOM     65  C   UNL A   1      44.129  27.319  36.334  1.00  0.00     0.010 A 
ATOM     66  C   UNL A   1      46.731  28.317  36.056  1.00  0.00     0.020 A 
ATOM     67  C   UNL A   1      45.197  26.654  36.943  1.00  0.00     0.020 A 
ATOM     68  C   UNL A   1      46.494  27.147  36.784  1.00  0.00     0.054 A 
BRANCH  68  69
ATOM     69  S   UNL A   1      47.905  26.293  37.537  1.00  0.00     0.124 S 
ATOM     70  O   UNL A   1      49.027  26.848  36.784  1.00  0.00    -0.237 OA
ATOM     71  O   UNL A   1      47.822  26.705  38.935  1.00  0.00    -0.237 OA
ATOM     72  O   UNL A   1      47.629  24.879  37.289  1.00  0.00    -0.744 OA
ENDBRANCH  68  69
ENDBRANCH  49  63
BRANCH  50  73
ATOM     73  C   UNL A   1      36.739  32.931  30.897  1.00  0.00    -0.014 A 
ATOM     74  C   UNL A   1      35.412  32.727  31.314  1.00  0.00     0.010 A 
ATOM     75  C   UNL A   1      36.995  33.816  29.835  1.00  0.00     0.010 A 
ATOM     76  C   UNL A   1      34.361  33.399  30.685  1.00  0.00     0.020 A 
ATOM     77  C   UNL A   1      35.948  34.507  29.217  1.00  0.00     0.020 A 
ATOM     78  C   UNL A   1      34.637  34.291  29.644  1.00  0.00     0.054 A 
BRANCH  78  79
ATOM     79  S   UNL A   1      33.263  35.213  28.899  1.00  0.00     0.124 S 
ATOM     80  O   UNL A   1      33.963  36.265  28.170  1.00  0.00    -0.237 OA
ATOM     81  O   UNL A   1      32.612  34.196  28.075  1.00  0.00    -0.237 OA
ATOM     82  O   UNL A   1      32.485  35.659  30.052  1.00  0.00    -0.744 OA
ENDBRANCH  78  79
ENDBRANCH  50  73
BRANCH  62  83
ATOM     83  C   UNL A   1      39.597  33.664  37.222  1.00  0.00    -0.014 A 
ATOM     84  C   UNL A   1      38.913  33.182  38.352  1.00  0.00     0.010 A 
ATOM     85  C   UNL A   1      40.068  34.990  37.217  1.00  0.00     0.010 A 
ATOM     86  C   UNL A   1      38.690  34.016  39.451  1.00  0.00     0.020 A 
ATOM     87  C   UNL A   1      39.866  35.820  38.323  1.00  0.00     0.020 A 
ATOM     88  C   UNL A   1      39.171  35.329  39.431  1.00  0.00     0.054 A 
BRANCH  88  89
ATOM     89  S   UNL A   1      38.923  36.370  40.896  1.00  0.00     0.124 S 
ATOM     90  O   UNL A   1      37.838  35.675  41.583  1.00  0.00    -0.237 OA
ATOM     91  O   UNL A   1      40.226  36.310  41.555  1.00  0.00    -0.237 OA
ATOM     92  O   UNL A   1      38.573  37.675  40.339  1.00  0.00    -0.744 OA
ENDBRANCH  88  89
ENDBRANCH  62  83
ENDBRANCH  36  37
ENDBRANCH  28  31
ENDBRANCH  26  27
ENDBRANCH  25  26
ENDBRANCH   1  25
TORSDOF 17
ENDMDL
MODEL 3
REMARK VINA RESULT:     -11.0      4.015      5.945
REMARK SMILES O=C(COc1nc(-c2cccnc2)nc2c1CCCC2)NCCCCNC(=O)c1ccc(-c2c3nc(c(-c4ccc(S(=O)(=O)[O-])cc4)c4ccc([nH]4)c(-c4ccc(S(=O)(=O)[O-])cc4)c4nc(c(-c5ccc(S(=O)(=O)[O-])cc5)c5ccc2[nH]5)C=C4)C=C3)cc1
REMARK SMILES IDX 23 1 22 2 21 3 1 4 2 5 3 7 4 8 5 9 6 10 16 11 7 12 15 13
REMARK SMILES IDX 17 14 14 15 20 16 18 17 19 18 8 19 9 20 13 21 10 22 12 23
REMARK SMILES IDX 11 24 24 25 25 26 26 27 27 28 28 30 29 31 30 32 88 33 31 34
REMARK SMILES IDX 87 35 32 36 33 37 34 38 81 39 35 40 86 41 80 42 82 43 36 44
REMARK SMILES IDX 85 45 79 46 78 47 37 49 67 50 48 51 66 52 49 53 52 54 65 55
REMARK SMILES IDX 83 56 50 57 51 58 64 60 84 61 53 62 38 63 39 64 47 65 40 66
REMARK SMILES IDX 46 67 41 68 42 69 43 70 44 71 45 72 68 73 69 74 77 75 70 76
REMARK SMILES IDX 76 77 71 78 72 79 73 80 74 81 75 82 54 83 55 84 63 85 56 86
REMARK SMILES IDX 62 87 57 88 58 89 59 90 60 91 61 92
REMARK H PARENT 21 6 26 29 82 48 52 59
REMARK Flexibility Score: inf
ROOT
ATOM      1  C   UNL A   1      35.477  32.506  27.997  1.00  0.00     0.023 C 
ENDROOT
BRANCH   1   2
ATOM      2  C   UNL A   1      34.051  31.965  28.066  1.00  0.00     0.116 C 
BRANCH   2   3
ATOM      3  N   UNL A   1      33.972  30.542  27.820  1.00  0.00    -0.353 N 
ATOM      4  O   UNL A   1      32.052  30.615  26.556  1.00  0.00    -0.271 OA
ATOM      5  C   UNL A   1      32.997  29.982  27.022  1.00  0.00     0.258 C 
ATOM      6  H   UNL A   1      34.640  29.952  28.238  1.00  0.00     0.163 HD
BRANCH   5   7
ATOM      7  C   UNL A   1      33.130  28.466  26.827  1.00  0.00     0.331 C 
BRANCH   7   8
ATOM      8  O   UNL A   1      33.849  28.008  25.686  1.00  0.00    -0.467 OA
BRANCH   8   9
ATOM      9  C   UNL A   1      32.991  27.411  24.790  1.00  0.00     0.220 A 
ATOM     10  N   UNL A   1      31.995  28.179  24.324  1.00  0.00    -0.193 NA
ATOM     11  C   UNL A   1      33.249  26.120  24.369  1.00  0.00     0.036 A 
ATOM     12  C   UNL A   1      31.175  27.597  23.439  1.00  0.00     0.164 A 
ATOM     13  C   UNL A   1      32.362  25.628  23.424  1.00  0.00     0.051 A 
ATOM     14  C   UNL A   1      34.430  25.335  24.853  1.00  0.00     0.043 C 
ATOM     15  N   UNL A   1      31.302  26.338  22.983  1.00  0.00    -0.232 NA
ATOM     16  C   UNL A   1      32.504  24.237  22.863  1.00  0.00     0.057 C 
ATOM     17  C   UNL A   1      34.335  23.844  24.521  1.00  0.00     0.005 C 
ATOM     18  C   UNL A   1      33.895  23.644  23.075  1.00  0.00     0.007 C 
BRANCH  12  19
ATOM     19  C   UNL A   1      30.074  28.394  22.913  1.00  0.00     0.038 A 
ATOM     20  C   UNL A   1      28.746  28.187  23.311  1.00  0.00     0.015 A 
ATOM     21  C   UNL A   1      30.293  29.411  21.987  1.00  0.00     0.123 A 
ATOM     22  C   UNL A   1      27.725  28.984  22.793  1.00  0.00     0.021 A 
ATOM     23  N   UNL A   1      29.321  30.196  21.452  1.00  0.00    -0.264 NA
ATOM     24  C   UNL A   1      28.061  29.962  21.872  1.00  0.00     0.111 A 
ENDBRANCH  12  19
ENDBRANCH   8   9
ENDBRANCH   7   8
ENDBRANCH   5   7
ENDBRANCH   2   3
ENDBRANCH   1   2
BRANCH   1  25
ATOM     25  C   UNL A   1      35.842  33.523  29.082  1.00  0.00     0.023 C 
BRANCH  25  26
ATOM     26  C   UNL A   1      36.676  32.989  30.243  1.00  0.00     0.116 C 
BRANCH  26  27
ATOM     27  N   UNL A   1      36.123  31.783  30.838  1.00  0.00    -0.352 N 
ATOM     28  C   UNL A   1      36.641  30.511  30.881  1.00  0.00     0.251 C 
ATOM     29  H   UNL A   1      35.248  31.895  31.275  1.00  0.00     0.163 HD
ATOM     30  O   UNL A   1      35.961  29.592  31.332  1.00  0.00    -0.269 OA
BRANCH  28  31
ATOM     31  C   UNL A   1      37.999  30.235  30.359  1.00  0.00     0.039 A 
ATOM     32  C   UNL A   1      39.042  30.044  31.269  1.00  0.00     0.014 A 
ATOM     33  C   UNL A   1      38.250  30.171  28.986  1.00  0.00     0.014 A 
ATOM     34  C   UNL A   1      40.320  29.718  30.806  1.00  0.00     0.010 A 
ATOM     35  C   UNL A   1      39.509  29.784  28.526  1.00  0.00     0.010 A 
ATOM     36  C   UNL A   1      40.556  29.550  29.431  1.00  0.00    -0.014 A 
BRANCH  36  37
ATOM     37  C   UNL A   1      41.888  29.128  28.926  1.00  0.00     0.031 A 
ATOM     38  C   UNL A   1      43.026  30.110  28.869  1.00  0.00     0.074 A 
ATOM     39  C   UNL A   1      42.066  27.869  28.477  1.00  0.00     0.049 A 
ATOM     40  N   UNL A   1      44.243  29.936  28.421  1.00  0.00    -0.248 NA
ATOM     41  C   UNL A   1      42.755  31.470  29.362  1.00  0.00     0.031 C 
ATOM     42  C   UNL A   1      41.039  26.825  28.459  1.00  0.00     0.029 A 
ATOM     43  N   UNL A   1      43.174  27.254  27.952  1.00  0.00    -0.354 N 
ATOM     44  C   UNL A   1      44.881  31.161  28.574  1.00  0.00     0.074 A 
ATOM     45  C   UNL A   1      43.902  32.084  29.107  1.00  0.00     0.031 C 
ATOM     46  C   UNL A   1      41.576  25.690  27.982  1.00  0.00     0.029 A 
ATOM     47  C   UNL A   1      42.970  25.935  27.624  1.00  0.00     0.049 A 
ATOM     48  H   UNL A   1      44.035  27.713  27.823  1.00  0.00     0.167 HD
ATOM     49  C   UNL A   1      46.170  31.486  28.315  1.00  0.00     0.031 A 
ATOM     50  C   UNL A   1      43.808  25.021  27.096  1.00  0.00     0.031 A 
ATOM     51  C   UNL A   1      47.146  30.571  27.788  1.00  0.00     0.049 A 
ATOM     52  C   UNL A   1      45.225  25.413  26.782  1.00  0.00     0.074 A 
ATOM     53  C   UNL A   1      48.486  30.799  27.522  1.00  0.00     0.029 A 
ATOM     54  N   UNL A   1      46.891  29.251  27.445  1.00  0.00    -0.354 N 
ATOM     55  N   UNL A   1      45.818  26.568  26.964  1.00  0.00    -0.248 NA
ATOM     56  C   UNL A   1      46.087  24.377  26.195  1.00  0.00     0.031 C 
ATOM     57  C   UNL A   1      49.030  29.631  26.978  1.00  0.00     0.029 A 
ATOM     58  C   UNL A   1      48.041  28.659  26.951  1.00  0.00     0.049 A 
ATOM     59  H   UNL A   1      46.021  28.801  27.540  1.00  0.00     0.167 HD
ATOM     60  C   UNL A   1      47.127  26.394  26.530  1.00  0.00     0.074 A 
ATOM     61  C   UNL A   1      47.243  25.019  26.089  1.00  0.00     0.031 C 
ATOM     62  C   UNL A   1      48.141  27.293  26.503  1.00  0.00     0.031 A 
BRANCH  49  63
ATOM     63  C   UNL A   1      46.597  32.900  28.604  1.00  0.00    -0.014 A 
ATOM     64  C   UNL A   1      46.592  33.876  27.590  1.00  0.00     0.010 A 
ATOM     65  C   UNL A   1      46.983  33.268  29.906  1.00  0.00     0.010 A 
ATOM     66  C   UNL A   1      47.008  35.181  27.861  1.00  0.00     0.020 A 
ATOM     67  C   UNL A   1      47.377  34.579  30.187  1.00  0.00     0.020 A 
ATOM     68  C   UNL A   1      47.405  35.523  29.158  1.00  0.00     0.054 A 
BRANCH  68  69
ATOM     69  S   UNL A   1      47.936  37.226  29.481  1.00  0.00     0.124 S 
ATOM     70  O   UNL A   1      49.380  37.132  29.282  1.00  0.00    -0.237 OA
ATOM     71  O   UNL A   1      47.211  37.988  28.467  1.00  0.00    -0.237 OA
ATOM     72  O   UNL A   1      47.513  37.467  30.859  1.00  0.00    -0.744 OA
ENDBRANCH  68  69
ENDBRANCH  49  63
BRANCH  50  73
ATOM     73  C   UNL A   1      43.327  23.633  26.859  1.00  0.00    -0.014 A 
ATOM     74  C   UNL A   1      43.419  23.063  25.577  1.00  0.00     0.010 A 
ATOM     75  C   UNL A   1      42.820  22.859  27.918  1.00  0.00     0.010 A 
ATOM     76  C   UNL A   1      43.014  21.744  25.358  1.00  0.00     0.020 A 
ATOM     77  C   UNL A   1      42.434  21.532  27.708  1.00  0.00     0.020 A 
ATOM     78  C   UNL A   1      42.530  20.984  26.428  1.00  0.00     0.054 A 
BRANCH  78  79
ATOM     79  S   UNL A   1      42.089  19.249  26.135  1.00  0.00     0.124 S 
ATOM     80  O   UNL A   1      40.646  19.332  25.932  1.00  0.00    -0.237 OA
ATOM     81  O   UNL A   1      42.878  18.919  24.950  1.00  0.00    -0.237 OA
ATOM     82  O   UNL A   1      42.512  18.576  27.361  1.00  0.00    -0.744 OA
ENDBRANCH  78  79
ENDBRANCH  50  73
BRANCH  62  83
ATOM     83  C   UNL A   1      49.473  26.824  25.986  1.00  0.00    -0.014 A 
ATOM     84  C   UNL A   1      49.874  27.097  24.666  1.00  0.00     0.010 A 
ATOM     85  C   UNL A   1      50.367  26.170  26.855  1.00  0.00     0.010 A 
ATOM     86  C   UNL A   1      51.140  26.710  24.218  1.00  0.00     0.020 A 
ATOM     87  C   UNL A   1      51.642  25.801  26.416  1.00  0.00     0.020 A 
ATOM     88  C   UNL A   1      52.017  26.067  25.097  1.00  0.00     0.054 A 
BRANCH  88  89
ATOM     89  S   UNL A   1      53.677  25.631  24.508  1.00  0.00     0.124 S 
ATOM     90  O   UNL A   1      53.712  24.189  24.737  1.00  0.00    -0.237 OA
ATOM     91  O   UNL A   1      53.637  26.044  23.107  1.00  0.00    -0.237 OA
ATOM     92  O   UNL A   1      54.565  26.419  25.358  1.00  0.00    -0.744 OA
ENDBRANCH  88  89
ENDBRANCH  62  83
ENDBRANCH  36  37
ENDBRANCH  28  31
ENDBRANCH  26  27
ENDBRANCH  25  26
ENDBRANCH   1  25
TORSDOF 17
ENDMDL
