MODEL 1
REMARK VINA RESULT:     -13.1      0.000      0.000
REMARK SMILES Cc1cc(=O)n2nc(C)c(C(=O)NCCCCNC(=O)c3ccc(-c4c5nc(c(-c6ccc(S(=O)(=O)[O-])cc6)c6ccc([nH]6)c(-c6ccc(S(=O)(=O)[O-])cc6)c6nc(c(-c7ccc(S(=O)(=O)[O-])cc7)c7ccc4[nH]7)C=C6)C=C5)cc3)c2[nH]1
REMARK SMILES IDX 17 1 16 2 15 3 14 4 13 5 11 6 12 7 10 9 1 10 2 11 3 12 82 13
REMARK SMILES IDX 4 14 81 15 5 17 6 18 7 19 8 20 9 21 18 22 19 23 20 25 21 26
REMARK SMILES IDX 22 27 80 28 23 29 79 30 24 31 25 32 26 33 73 34 27 35 78 36
REMARK SMILES IDX 72 37 74 38 28 39 77 40 71 41 70 42 29 44 59 45 40 46 58 47
REMARK SMILES IDX 41 48 44 49 57 50 75 51 42 52 43 53 56 55 76 56 45 57 30 58
REMARK SMILES IDX 31 59 39 60 32 61 38 62 33 63 34 64 35 65 36 66 37 67 60 68
REMARK SMILES IDX 61 69 69 70 62 71 68 72 63 73 64 74 65 75 66 76 67 77 46 78
REMARK SMILES IDX 47 79 55 80 48 81 54 82 49 83 50 84 51 85 52 86 53 87
REMARK H PARENT 13 8 82 16 18 24 74 43 44 54
REMARK Flexibility Score: inf
ROOT
ATOM      1  C   UNL A   1      39.889  21.777  26.822  1.00  0.00     0.116 C 
ENDROOT
BRANCH   1   2
ATOM      2  C   UNL A   1      38.791  21.623  25.773  1.00  0.00     0.023 C 
BRANCH   2   3
ATOM      3  C   UNL A   1      37.748  22.751  25.764  1.00  0.00     0.023 C 
BRANCH   3   4
ATOM      4  C   UNL A   1      36.385  22.376  25.173  1.00  0.00     0.116 C 
BRANCH   4   5
ATOM      5  N   UNL A   1      35.455  21.933  26.181  1.00  0.00    -0.352 N 
ATOM      6  C   UNL A   1      34.292  21.214  26.166  1.00  0.00     0.256 C 
ATOM      7  O   UNL A   1      33.837  20.990  27.298  1.00  0.00    -0.269 OA
ATOM      8  H   UNL A   1      35.717  22.211  27.088  1.00  0.00     0.163 HD
BRANCH   6   9
ATOM      9  C   UNL A   1      33.576  20.724  24.983  1.00  0.00     0.105 A 
ATOM     10  C   UNL A   1      35.144  15.978  25.205  1.00  0.00     0.064 C 
ATOM     11  C   UNL A   1      34.337  17.072  24.565  1.00  0.00     0.019 A 
ATOM     12  C   UNL A   1      33.602  16.828  23.463  1.00  0.00     0.095 A 
ATOM     13  N   UNL A   1      34.384  18.332  25.134  1.00  0.00    -0.343 N 
ATOM     14  C   UNL A   1      32.804  17.923  22.845  1.00  0.00     0.274 A 
ATOM     15  C   UNL A   1      33.697  19.386  24.617  1.00  0.00     0.150 A 
ATOM     16  H   UNL A   1      34.933  18.471  25.939  1.00  0.00     0.168 HD
ATOM     17  O   UNL A   1      32.088  17.763  21.871  1.00  0.00    -0.267 OA
ATOM     18  N   UNL A   1      32.935  19.161  23.500  1.00  0.00    -0.179 N 
ATOM     19  N   UNL A   1      32.293  20.273  23.101  1.00  0.00    -0.168 NA
ATOM     20  C   UNL A   1      32.675  21.221  23.973  1.00  0.00     0.075 A 
ATOM     21  C   UNL A   1      32.076  22.555  23.711  1.00  0.00     0.070 C 
ENDBRANCH   6   9
ENDBRANCH   4   5
ENDBRANCH   3   4
ENDBRANCH   2   3
ENDBRANCH   1   2
BRANCH   1  22
ATOM     22  N   UNL A   1      41.234  21.845  26.249  1.00  0.00    -0.352 N 
ATOM     23  C   UNL A   1      41.969  22.989  25.982  1.00  0.00     0.251 C 
ATOM     24  H   UNL A   1      41.663  20.986  26.031  1.00  0.00     0.163 HD
ATOM     25  O   UNL A   1      42.858  22.987  25.140  1.00  0.00    -0.269 OA
BRANCH  23  26
ATOM     26  C   UNL A   1      41.665  24.201  26.762  1.00  0.00     0.039 A 
ATOM     27  C   UNL A   1      42.220  24.440  28.021  1.00  0.00     0.014 A 
ATOM     28  C   UNL A   1      40.837  25.141  26.151  1.00  0.00     0.014 A 
ATOM     29  C   UNL A   1      41.991  25.678  28.621  1.00  0.00     0.010 A 
ATOM     30  C   UNL A   1      40.760  26.410  26.658  1.00  0.00     0.010 A 
ATOM     31  C   UNL A   1      41.276  26.666  27.920  1.00  0.00    -0.014 A 
BRANCH  31  32
ATOM     32  C   UNL A   1      41.135  28.019  28.439  1.00  0.00     0.031 A 
ATOM     33  C   UNL A   1      42.187  28.964  27.986  1.00  0.00     0.074 A 
ATOM     34  C   UNL A   1      40.054  28.445  29.128  1.00  0.00     0.049 A 
ATOM     35  N   UNL A   1      43.211  29.353  28.667  1.00  0.00    -0.248 NA
ATOM     36  C   UNL A   1      42.211  29.391  26.579  1.00  0.00     0.031 C 
ATOM     37  C   UNL A   1      38.804  27.735  29.430  1.00  0.00     0.029 A 
ATOM     38  N   UNL A   1      39.822  29.676  29.650  1.00  0.00    -0.354 N 
ATOM     39  C   UNL A   1      43.878  30.273  27.869  1.00  0.00     0.074 A 
ATOM     40  C   UNL A   1      43.342  30.103  26.542  1.00  0.00     0.031 C 
ATOM     41  C   UNL A   1      37.877  28.611  29.885  1.00  0.00     0.029 A 
ATOM     42  C   UNL A   1      38.519  29.897  30.083  1.00  0.00     0.049 A 
ATOM     43  H   UNL A   1      40.525  30.362  29.718  1.00  0.00     0.167 HD
ATOM     44  C   UNL A   1      44.630  31.265  28.428  1.00  0.00     0.031 A 
ATOM     45  C   UNL A   1      38.016  31.049  30.596  1.00  0.00     0.031 A 
ATOM     46  C   UNL A   1      44.841  31.028  29.837  1.00  0.00     0.049 A 
ATOM     47  C   UNL A   1      39.178  31.799  31.137  1.00  0.00     0.074 A 
ATOM     48  C   UNL A   1      45.427  30.020  30.578  1.00  0.00     0.029 A 
ATOM     49  N   UNL A   1      44.020  31.708  30.711  1.00  0.00    -0.354 N 
ATOM     50  N   UNL A   1      39.891  31.365  32.141  1.00  0.00    -0.248 NA
ATOM     51  C   UNL A   1      39.840  32.757  30.266  1.00  0.00     0.031 C 
ATOM     52  C   UNL A   1      44.561  29.841  31.699  1.00  0.00     0.029 A 
ATOM     53  C   UNL A   1      43.551  30.803  31.629  1.00  0.00     0.049 A 
ATOM     54  H   UNL A   1      43.809  32.669  30.681  1.00  0.00     0.167 HD
ATOM     55  C   UNL A   1      41.205  31.638  31.785  1.00  0.00     0.074 A 
ATOM     56  C   UNL A   1      41.104  32.573  30.663  1.00  0.00     0.031 C 
ATOM     57  C   UNL A   1      42.241  30.872  32.244  1.00  0.00     0.031 A 
BRANCH  44  58
ATOM     58  C   UNL A   1      44.806  32.639  27.827  1.00  0.00    -0.014 A 
ATOM     59  C   UNL A   1      46.105  33.031  27.434  1.00  0.00     0.010 A 
ATOM     60  C   UNL A   1      43.829  33.651  27.898  1.00  0.00     0.010 A 
ATOM     61  C   UNL A   1      46.430  34.378  27.236  1.00  0.00     0.020 A 
ATOM     62  C   UNL A   1      44.134  34.994  27.662  1.00  0.00     0.020 A 
ATOM     63  C   UNL A   1      45.443  35.353  27.374  1.00  0.00     0.054 A 
BRANCH  63  64
ATOM     64  S   UNL A   1      45.906  37.097  27.252  1.00  0.00     0.124 S 
ATOM     65  O   UNL A   1      44.603  37.745  27.138  1.00  0.00    -0.237 OA
ATOM     66  O   UNL A   1      46.616  37.314  28.509  1.00  0.00    -0.237 OA
ATOM     67  O   UNL A   1      46.739  37.145  26.053  1.00  0.00    -0.744 OA
ENDBRANCH  63  64
ENDBRANCH  44  58
BRANCH  45  68
ATOM     68  C   UNL A   1      36.697  31.681  30.328  1.00  0.00    -0.014 A 
ATOM     69  C   UNL A   1      36.173  32.665  31.189  1.00  0.00     0.010 A 
ATOM     70  C   UNL A   1      36.091  31.537  29.062  1.00  0.00     0.010 A 
ATOM     71  C   UNL A   1      35.136  33.521  30.773  1.00  0.00     0.020 A 
ATOM     72  C   UNL A   1      35.056  32.385  28.641  1.00  0.00     0.020 A 
ATOM     73  C   UNL A   1      34.601  33.392  29.489  1.00  0.00     0.054 A 
BRANCH  73  74
ATOM     74  S   UNL A   1      33.398  34.619  28.889  1.00  0.00     0.124 S 
ATOM     75  O   UNL A   1      32.665  34.958  30.105  1.00  0.00    -0.237 OA
ATOM     76  O   UNL A   1      34.256  35.671  28.353  1.00  0.00    -0.237 OA
ATOM     77  O   UNL A   1      32.627  33.883  27.888  1.00  0.00    -0.744 OA
ENDBRANCH  73  74
ENDBRANCH  45  68
BRANCH  57  78
ATOM     78  C   UNL A   1      41.964  29.851  33.329  1.00  0.00    -0.014 A 
ATOM     79  C   UNL A   1      41.547  28.528  33.072  1.00  0.00     0.010 A 
ATOM     80  C   UNL A   1      42.325  30.192  34.644  1.00  0.00     0.010 A 
ATOM     81  C   UNL A   1      41.490  27.579  34.106  1.00  0.00     0.020 A 
ATOM     82  C   UNL A   1      42.286  29.248  35.675  1.00  0.00     0.020 A 
ATOM     83  C   UNL A   1      41.865  27.945  35.403  1.00  0.00     0.054 A 
BRANCH  83  84
ATOM     84  S   UNL A   1      41.856  26.702  36.726  1.00  0.00     0.124 S 
ATOM     85  O   UNL A   1      43.058  27.034  37.485  1.00  0.00    -0.237 OA
ATOM     86  O   UNL A   1      40.589  26.963  37.408  1.00  0.00    -0.237 OA
ATOM     87  O   UNL A   1      41.911  25.428  36.010  1.00  0.00    -0.744 OA
ENDBRANCH  83  84
ENDBRANCH  57  78
ENDBRANCH  31  32
ENDBRANCH  23  26
ENDBRANCH   1  22
TORSDOF 14
ENDMDL
MODEL 2
REMARK VINA RESULT:     -12.4      4.396     10.392
REMARK SMILES Cc1cc(=O)n2nc(C)c(C(=O)NCCCCNC(=O)c3ccc(-c4c5nc(c(-c6ccc(S(=O)(=O)[O-])cc6)c6ccc([nH]6)c(-c6ccc(S(=O)(=O)[O-])cc6)c6nc(c(-c7ccc(S(=O)(=O)[O-])cc7)c7ccc4[nH]7)C=C6)C=C5)cc3)c2[nH]1
REMARK SMILES IDX 17 1 16 2 15 3 14 4 13 5 11 6 12 7 10 9 1 10 2 11 3 12 82 13
REMARK SMILES IDX 4 14 81 15 5 17 6 18 7 19 8 20 9 21 18 22 19 23 20 25 21 26
REMARK SMILES IDX 22 27 80 28 23 29 79 30 24 31 25 32 26 33 73 34 27 35 78 36
REMARK SMILES IDX 72 37 74 38 28 39 77 40 71 41 70 42 29 44 59 45 40 46 58 47
REMARK SMILES IDX 41 48 44 49 57 50 75 51 42 52 43 53 56 55 76 56 45 57 30 58
REMARK SMILES IDX 31 59 39 60 32 61 38 62 33 63 34 64 35 65 36 66 37 67 60 68
REMARK SMILES IDX 61 69 69 70 62 71 68 72 63 73 64 74 65 75 66 76 67 77 46 78
REMARK SMILES IDX 47 79 55 80 48 81 54 82 49 83 50 84 51 85 52 86 53 87
REMARK H PARENT 13 8 82 16 18 24 74 43 44 54
REMARK Flexibility Score: inf
ROOT
ATOM      1  C   UNL A   1      34.027  30.846  27.041  1.00  0.00     0.116 C 
ENDROOT
BRANCH   1   2
ATOM      2  C   UNL A   1      33.009  29.718  27.182  1.00  0.00     0.023 C 
BRANCH   2   3
ATOM      3  C   UNL A   1      33.596  28.304  27.064  1.00  0.00     0.023 C 
BRANCH   3   4
ATOM      4  C   UNL A   1      33.069  27.473  25.889  1.00  0.00     0.116 C 
BRANCH   4   5
ATOM      5  N   UNL A   1      33.169  28.174  24.634  1.00  0.00    -0.352 N 
ATOM      6  C   UNL A   1      32.283  28.515  23.650  1.00  0.00     0.256 C 
ATOM      7  O   UNL A   1      32.789  29.200  22.748  1.00  0.00    -0.269 OA
ATOM      8  H   UNL A   1      34.086  28.475  24.440  1.00  0.00     0.163 HD
BRANCH   6   9
ATOM      9  C   UNL A   1      30.864  28.148  23.578  1.00  0.00     0.105 A 
ATOM     10  C   UNL A   1      29.025  32.781  23.142  1.00  0.00     0.064 C 
ATOM     11  C   UNL A   1      28.843  31.291  23.216  1.00  0.00     0.019 A 
ATOM     12  C   UNL A   1      27.613  30.746  23.164  1.00  0.00     0.095 A 
ATOM     13  N   UNL A   1      29.973  30.504  23.351  1.00  0.00    -0.343 N 
ATOM     14  C   UNL A   1      27.452  29.267  23.234  1.00  0.00     0.274 A 
ATOM     15  C   UNL A   1      29.906  29.149  23.438  1.00  0.00     0.150 A 
ATOM     16  H   UNL A   1      30.856  30.940  23.385  1.00  0.00     0.168 HD
ATOM     17  O   UNL A   1      26.372  28.706  23.156  1.00  0.00    -0.267 OA
ATOM     18  N   UNL A   1      28.665  28.570  23.380  1.00  0.00    -0.179 N 
ATOM     19  N   UNL A   1      28.736  27.229  23.458  1.00  0.00    -0.168 NA
ATOM     20  C   UNL A   1      30.046  26.961  23.588  1.00  0.00     0.075 A 
ATOM     21  C   UNL A   1      30.355  25.513  23.696  1.00  0.00     0.070 C 
ENDBRANCH   6   9
ENDBRANCH   4   5
ENDBRANCH   3   4
ENDBRANCH   2   3
ENDBRANCH   1   2
BRANCH   1  22
ATOM     22  N   UNL A   1      33.969  31.821  28.132  1.00  0.00    -0.352 N 
ATOM     23  C   UNL A   1      34.796  31.878  29.242  1.00  0.00     0.251 C 
ATOM     24  H   UNL A   1      33.268  32.509  28.070  1.00  0.00     0.163 HD
ATOM     25  O   UNL A   1      34.428  32.421  30.276  1.00  0.00    -0.269 OA
BRANCH  23  26
ATOM     26  C   UNL A   1      36.141  31.289  29.131  1.00  0.00     0.039 A 
ATOM     27  C   UNL A   1      37.298  32.070  29.071  1.00  0.00     0.014 A 
ATOM     28  C   UNL A   1      36.214  29.898  29.153  1.00  0.00     0.014 A 
ATOM     29  C   UNL A   1      38.534  31.426  29.113  1.00  0.00     0.010 A 
ATOM     30  C   UNL A   1      37.417  29.284  29.372  1.00  0.00     0.010 A 
ATOM     31  C   UNL A   1      38.583  30.031  29.286  1.00  0.00    -0.014 A 
BRANCH  31  32
ATOM     32  C   UNL A   1      39.844  29.330  29.483  1.00  0.00     0.031 A 
ATOM     33  C   UNL A   1      40.144  28.990  30.896  1.00  0.00     0.074 A 
ATOM     34  C   UNL A   1      40.603  28.863  28.468  1.00  0.00     0.049 A 
ATOM     35  N   UNL A   1      40.954  29.617  31.680  1.00  0.00    -0.248 NA
ATOM     36  C   UNL A   1      39.342  27.959  31.572  1.00  0.00     0.031 C 
ATOM     37  C   UNL A   1      40.332  28.864  27.025  1.00  0.00     0.029 A 
ATOM     38  N   UNL A   1      41.785  28.199  28.540  1.00  0.00    -0.354 N 
ATOM     39  C   UNL A   1      40.960  28.911  32.875  1.00  0.00     0.074 A 
ATOM     40  C   UNL A   1      39.814  28.038  32.820  1.00  0.00     0.031 C 
ATOM     41  C   UNL A   1      41.207  28.047  26.392  1.00  0.00     0.029 A 
ATOM     42  C   UNL A   1      42.208  27.618  27.350  1.00  0.00     0.049 A 
ATOM     43  H   UNL A   1      42.305  28.133  29.374  1.00  0.00     0.167 HD
ATOM     44  C   UNL A   1      42.053  28.930  33.691  1.00  0.00     0.031 A 
ATOM     45  C   UNL A   1      43.322  26.864  27.163  1.00  0.00     0.031 A 
ATOM     46  C   UNL A   1      42.988  29.954  33.287  1.00  0.00     0.049 A 
ATOM     47  C   UNL A   1      44.263  27.244  28.247  1.00  0.00     0.074 A 
ATOM     48  C   UNL A   1      42.930  31.328  33.154  1.00  0.00     0.029 A 
ATOM     49  N   UNL A   1      44.062  29.549  32.524  1.00  0.00    -0.354 N 
ATOM     50  N   UNL A   1      44.780  28.440  28.345  1.00  0.00    -0.248 NA
ATOM     51  C   UNL A   1      44.236  26.472  29.479  1.00  0.00     0.031 C 
ATOM     52  C   UNL A   1      43.640  31.608  31.949  1.00  0.00     0.029 A 
ATOM     53  C   UNL A   1      44.166  30.410  31.462  1.00  0.00     0.049 A 
ATOM     54  H   UNL A   1      44.649  28.779  32.709  1.00  0.00     0.167 HD
ATOM     55  C   UNL A   1      44.732  28.736  29.700  1.00  0.00     0.074 A 
ATOM     56  C   UNL A   1      44.470  27.453  30.356  1.00  0.00     0.031 C 
ATOM     57  C   UNL A   1      44.631  30.025  30.144  1.00  0.00     0.031 A 
BRANCH  44  58
ATOM     58  C   UNL A   1      42.482  27.774  34.563  1.00  0.00    -0.014 A 
ATOM     59  C   UNL A   1      42.695  28.022  35.937  1.00  0.00     0.010 A 
ATOM     60  C   UNL A   1      42.958  26.550  34.055  1.00  0.00     0.010 A 
ATOM     61  C   UNL A   1      43.444  27.143  36.728  1.00  0.00     0.020 A 
ATOM     62  C   UNL A   1      43.671  25.646  34.847  1.00  0.00     0.020 A 
ATOM     63  C   UNL A   1      43.946  25.970  36.168  1.00  0.00     0.054 A 
BRANCH  63  64
ATOM     64  S   UNL A   1      45.026  24.913  37.162  1.00  0.00     0.124 S 
ATOM     65  O   UNL A   1      44.476  25.097  38.501  1.00  0.00    -0.237 OA
ATOM     66  O   UNL A   1      44.807  23.601  36.560  1.00  0.00    -0.237 OA
ATOM     67  O   UNL A   1      46.354  25.481  36.943  1.00  0.00    -0.744 OA
ENDBRANCH  63  64
ENDBRANCH  44  58
BRANCH  45  68
ATOM     68  C   UNL A   1      43.472  25.622  26.358  1.00  0.00    -0.014 A 
ATOM     69  C   UNL A   1      44.628  25.391  25.587  1.00  0.00     0.010 A 
ATOM     70  C   UNL A   1      42.614  24.526  26.586  1.00  0.00     0.010 A 
ATOM     71  C   UNL A   1      44.953  24.100  25.128  1.00  0.00     0.020 A 
ATOM     72  C   UNL A   1      42.929  23.238  26.131  1.00  0.00     0.020 A 
ATOM     73  C   UNL A   1      44.111  23.025  25.426  1.00  0.00     0.054 A 
BRANCH  73  74
ATOM     74  S   UNL A   1      44.628  21.334  24.996  1.00  0.00     0.124 S 
ATOM     75  O   UNL A   1      45.999  21.289  25.497  1.00  0.00    -0.237 OA
ATOM     76  O   UNL A   1      43.664  20.512  25.721  1.00  0.00    -0.237 OA
ATOM     77  O   UNL A   1      44.500  21.294  23.540  1.00  0.00    -0.744 OA
ENDBRANCH  73  74
ENDBRANCH  45  68
BRANCH  57  78
ATOM     78  C   UNL A   1      44.796  31.153  29.145  1.00  0.00    -0.014 A 
ATOM     79  C   UNL A   1      45.998  31.866  28.959  1.00  0.00     0.010 A 
ATOM     80  C   UNL A   1      43.748  31.365  28.232  1.00  0.00     0.010 A 
ATOM     81  C   UNL A   1      46.142  32.768  27.891  1.00  0.00     0.020 A 
ATOM     82  C   UNL A   1      43.890  32.249  27.159  1.00  0.00     0.020 A 
ATOM     83  C   UNL A   1      45.085  32.950  26.994  1.00  0.00     0.054 A 
BRANCH  83  84
ATOM     84  S   UNL A   1      45.294  34.065  25.575  1.00  0.00     0.124 S 
ATOM     85  O   UNL A   1      44.623  35.282  26.026  1.00  0.00    -0.237 OA
ATOM     86  O   UNL A   1      46.747  34.159  25.447  1.00  0.00    -0.237 OA
ATOM     87  O   UNL A   1      44.628  33.364  24.479  1.00  0.00    -0.744 OA
ENDBRANCH  83  84
ENDBRANCH  57  78
ENDBRANCH  31  32
ENDBRANCH  23  26
ENDBRANCH   1  22
TORSDOF 14
ENDMDL
MODEL 3
REMARK VINA RESULT:     -12.2      3.765      9.930
REMARK SMILES Cc1cc(=O)n2nc(C)c(C(=O)NCCCCNC(=O)c3ccc(-c4c5nc(c(-c6ccc(S(=O)(=O)[O-])cc6)c6ccc([nH]6)c(-c6ccc(S(=O)(=O)[O-])cc6)c6nc(c(-c7ccc(S(=O)(=O)[O-])cc7)c7ccc4[nH]7)C=C6)C=C5)cc3)c2[nH]1
REMARK SMILES IDX 17 1 16 2 15 3 14 4 13 5 11 6 12 7 10 9 1 10 2 11 3 12 82 13
REMARK SMILES IDX 4 14 81 15 5 17 6 18 7 19 8 20 9 21 18 22 19 23 20 25 21 26
REMARK SMILES IDX 22 27 80 28 23 29 79 30 24 31 25 32 26 33 73 34 27 35 78 36
REMARK SMILES IDX 72 37 74 38 28 39 77 40 71 41 70 42 29 44 59 45 40 46 58 47
REMARK SMILES IDX 41 48 44 49 57 50 75 51 42 52 43 53 56 55 76 56 45 57 30 58
REMARK SMILES IDX 31 59 39 60 32 61 38 62 33 63 34 64 35 65 36 66 37 67 60 68
REMARK SMILES IDX 61 69 69 70 62 71 68 72 63 73 64 74 65 75 66 76 67 77 46 78
REMARK SMILES IDX 47 79 55 80 48 81 54 82 49 83 50 84 51 85 52 86 53 87
REMARK H PARENT 13 8 82 16 18 24 74 43 44 54
REMARK Flexibility Score: inf
ROOT
ATOM      1  C   UNL A   1      35.004  32.913  28.381  1.00  0.00     0.116 C 
ENDROOT
BRANCH   1   2
ATOM      2  C   UNL A   1      33.748  32.449  27.649  1.00  0.00     0.023 C 
BRANCH   2   3
ATOM      3  C   UNL A   1      33.560  30.925  27.598  1.00  0.00     0.023 C 
BRANCH   3   4
ATOM      4  C   UNL A   1      32.455  30.434  26.656  1.00  0.00     0.116 C 
BRANCH   4   5
ATOM      5  N   UNL A   1      31.902  29.170  27.073  1.00  0.00    -0.352 N 
ATOM      6  C   UNL A   1      31.648  27.980  26.450  1.00  0.00     0.256 C 
ATOM      7  O   UNL A   1      31.222  27.103  27.217  1.00  0.00    -0.269 OA
ATOM      8  H   UNL A   1      31.649  29.162  28.024  1.00  0.00     0.163 HD
BRANCH   6   9
ATOM      9  C   UNL A   1      31.822  27.678  25.024  1.00  0.00     0.105 A 
ATOM     10  C   UNL A   1      35.225  24.048  25.546  1.00  0.00     0.064 C 
ATOM     11  C   UNL A   1      34.341  24.914  24.694  1.00  0.00     0.019 A 
ATOM     12  C   UNL A   1      34.347  24.794  23.354  1.00  0.00     0.095 A 
ATOM     13  N   UNL A   1      33.535  25.843  25.329  1.00  0.00    -0.343 N 
ATOM     14  C   UNL A   1      33.461  25.658  22.525  1.00  0.00     0.274 A 
ATOM     15  C   UNL A   1      32.711  26.677  24.641  1.00  0.00     0.150 A 
ATOM     16  H   UNL A   1      33.558  25.901  26.312  1.00  0.00     0.168 HD
ATOM     17  O   UNL A   1      33.389  25.576  21.311  1.00  0.00    -0.267 OA
ATOM     18  N   UNL A   1      32.694  26.569  23.275  1.00  0.00    -0.179 N 
ATOM     19  N   UNL A   1      31.829  27.433  22.716  1.00  0.00    -0.168 NA
ATOM     20  C   UNL A   1      31.306  28.112  23.750  1.00  0.00     0.075 A 
ATOM     21  C   UNL A   1      30.311  29.140  23.352  1.00  0.00     0.070 C 
ENDBRANCH   6   9
ENDBRANCH   4   5
ENDBRANCH   3   4
ENDBRANCH   2   3
ENDBRANCH   1   2
BRANCH   1  22
ATOM     22  N   UNL A   1      34.808  33.081  29.821  1.00  0.00    -0.352 N 
ATOM     23  C   UNL A   1      35.282  32.255  30.829  1.00  0.00     0.251 C 
ATOM     24  H   UNL A   1      34.284  33.864  30.106  1.00  0.00     0.163 HD
ATOM     25  O   UNL A   1      34.735  32.216  31.923  1.00  0.00    -0.269 OA
BRANCH  23  26
ATOM     26  C   UNL A   1      36.480  31.446  30.549  1.00  0.00     0.039 A 
ATOM     27  C   UNL A   1      37.754  32.007  30.436  1.00  0.00     0.014 A 
ATOM     28  C   UNL A   1      36.293  30.067  30.465  1.00  0.00     0.014 A 
ATOM     29  C   UNL A   1      38.847  31.150  30.316  1.00  0.00     0.010 A 
ATOM     30  C   UNL A   1      37.374  29.230  30.525  1.00  0.00     0.010 A 
ATOM     31  C   UNL A   1      38.648  29.760  30.384  1.00  0.00    -0.014 A 
BRANCH  31  32
ATOM     32  C   UNL A   1      39.767  28.829  30.410  1.00  0.00     0.031 A 
ATOM     33  C   UNL A   1      40.294  28.540  31.767  1.00  0.00     0.074 A 
ATOM     34  C   UNL A   1      40.189  28.139  29.328  1.00  0.00     0.049 A 
ATOM     35  N   UNL A   1      41.357  29.042  32.299  1.00  0.00    -0.248 NA
ATOM     36  C   UNL A   1      39.477  27.751  32.702  1.00  0.00     0.031 C 
ATOM     37  C   UNL A   1      39.620  28.089  27.976  1.00  0.00     0.029 A 
ATOM     38  N   UNL A   1      41.213  27.251  29.244  1.00  0.00    -0.354 N 
ATOM     39  C   UNL A   1      41.486  28.441  33.545  1.00  0.00     0.074 A 
ATOM     40  C   UNL A   1      40.212  27.823  33.816  1.00  0.00     0.031 C 
ATOM     41  C   UNL A   1      40.169  27.064  27.283  1.00  0.00     0.029 A 
ATOM     42  C   UNL A   1      41.254  26.509  28.070  1.00  0.00     0.049 A 
ATOM     43  H   UNL A   1      41.878  27.142  29.962  1.00  0.00     0.167 HD
ATOM     44  C   UNL A   1      42.712  28.293  34.123  1.00  0.00     0.031 A 
ATOM     45  C   UNL A   1      42.140  25.528  27.758  1.00  0.00     0.031 A 
ATOM     46  C   UNL A   1      43.714  29.068  33.428  1.00  0.00     0.049 A 
ATOM     47  C   UNL A   1      43.346  25.784  28.586  1.00  0.00     0.074 A 
ATOM     48  C   UNL A   1      43.888  30.410  33.151  1.00  0.00     0.029 A 
ATOM     49  N   UNL A   1      44.504  28.392  32.523  1.00  0.00    -0.354 N 
ATOM     50  N   UNL A   1      44.087  26.850  28.442  1.00  0.00    -0.248 NA
ATOM     51  C   UNL A   1      43.439  25.128  29.880  1.00  0.00     0.031 C 
ATOM     52  C   UNL A   1      44.363  30.446  31.806  1.00  0.00     0.029 A 
ATOM     53  C   UNL A   1      44.537  29.131  31.368  1.00  0.00     0.049 A 
ATOM     54  H   UNL A   1      44.961  27.534  32.678  1.00  0.00     0.167 HD
ATOM     55  C   UNL A   1      44.388  27.250  29.736  1.00  0.00     0.074 A 
ATOM     56  C   UNL A   1      44.036  26.102  30.575  1.00  0.00     0.031 C 
ATOM     57  C   UNL A   1      44.628  28.561  30.039  1.00  0.00     0.031 A 
BRANCH  44  58
ATOM     58  C   UNL A   1      43.094  27.142  35.023  1.00  0.00    -0.014 A 
ATOM     59  C   UNL A   1      43.703  27.440  36.262  1.00  0.00     0.010 A 
ATOM     60  C   UNL A   1      43.148  25.802  34.593  1.00  0.00     0.010 A 
ATOM     61  C   UNL A   1      44.425  26.472  36.971  1.00  0.00     0.020 A 
ATOM     62  C   UNL A   1      43.830  24.819  35.314  1.00  0.00     0.020 A 
ATOM     63  C   UNL A   1      44.500  25.171  36.477  1.00  0.00     0.054 A 
BRANCH  63  64
ATOM     64  S   UNL A   1      45.548  23.967  37.328  1.00  0.00     0.124 S 
ATOM     65  O   UNL A   1      45.206  22.730  36.634  1.00  0.00    -0.237 OA
ATOM     66  O   UNL A   1      46.886  24.491  37.072  1.00  0.00    -0.237 OA
ATOM     67  O   UNL A   1      45.104  24.052  38.717  1.00  0.00    -0.744 OA
ENDBRANCH  63  64
ENDBRANCH  44  58
BRANCH  45  68
ATOM     68  C   UNL A   1      41.878  24.226  27.089  1.00  0.00    -0.014 A 
ATOM     69  C   UNL A   1      42.839  23.636  26.244  1.00  0.00     0.010 A 
ATOM     70  C   UNL A   1      40.807  23.415  27.520  1.00  0.00     0.010 A 
ATOM     71  C   UNL A   1      42.773  22.270  25.906  1.00  0.00     0.020 A 
ATOM     72  C   UNL A   1      40.734  22.055  27.186  1.00  0.00     0.020 A 
ATOM     73  C   UNL A   1      41.732  21.481  26.402  1.00  0.00     0.054 A 
BRANCH  73  74
ATOM     74  S   UNL A   1      41.756  19.683  26.121  1.00  0.00     0.124 S 
ATOM     75  O   UNL A   1      42.696  19.552  25.012  1.00  0.00    -0.237 OA
ATOM     76  O   UNL A   1      42.217  19.166  27.405  1.00  0.00    -0.237 OA
ATOM     77  O   UNL A   1      40.366  19.368  25.794  1.00  0.00    -0.744 OA
ENDBRANCH  73  74
ENDBRANCH  45  68
BRANCH  57  78
ATOM     78  C   UNL A   1      44.783  29.553  28.902  1.00  0.00    -0.014 A 
ATOM     79  C   UNL A   1      43.701  30.062  28.155  1.00  0.00     0.010 A 
ATOM     80  C   UNL A   1      46.052  30.128  28.716  1.00  0.00     0.010 A 
ATOM     81  C   UNL A   1      43.890  31.116  27.244  1.00  0.00     0.020 A 
ATOM     82  C   UNL A   1      46.243  31.187  27.824  1.00  0.00     0.020 A 
ATOM     83  C   UNL A   1      45.162  31.675  27.088  1.00  0.00     0.054 A 
BRANCH  83  84
ATOM     84  S   UNL A   1      45.393  33.081  25.962  1.00  0.00     0.124 S 
ATOM     85  O   UNL A   1      46.847  33.214  25.913  1.00  0.00    -0.237 OA
ATOM     86  O   UNL A   1      44.763  32.614  24.728  1.00  0.00    -0.237 OA
ATOM     87  O   UNL A   1      44.695  34.180  26.626  1.00  0.00    -0.744 OA
ENDBRANCH  83  84
ENDBRANCH  57  78
ENDBRANCH  31  32
ENDBRANCH  23  26
ENDBRANCH   1  22
TORSDOF 14
ENDMDL
