MODEL 1
REMARK VINA RESULT:     -10.1      0.000      0.000
REMARK SMILES Cc1cc(C(=O)N2CCO[C@H](C)C2)sc1/C=C/C(=O)NCCCCNC(=O)c1ccc(-c2c3nc(c(-c4ccc(S(=O)(=O)[O-])cc4)c4ccc([nH]4)c(-c4ccc(S(=O)(=O)[O-])cc4)c4nc(c(-c5ccc(S(=O)(=O)[O-])cc5)c5ccc2[nH]5)C=C4)C=C3)cc1
REMARK SMILES IDX 22 1 21 2 20 3 18 4 19 5 17 7 16 8 15 9 1 10 2 11 3 12 4 13
REMARK SMILES IDX 14 14 5 15 6 16 7 17 8 18 13 19 9 20 11 21 10 22 12 23 23 24
REMARK SMILES IDX 24 25 25 26 26 27 27 29 28 30 29 31 87 32 30 33 86 34 31 35
REMARK SMILES IDX 32 36 33 37 80 38 34 39 85 40 79 41 81 42 35 43 84 44 78 45
REMARK SMILES IDX 77 46 36 48 66 49 47 50 65 51 48 52 51 53 64 54 82 55 49 56
REMARK SMILES IDX 50 57 63 59 83 60 52 61 37 62 38 63 46 64 39 65 45 66 40 67
REMARK SMILES IDX 41 68 42 69 43 70 44 71 67 72 68 73 76 74 69 75 75 76 70 77
REMARK SMILES IDX 71 78 72 79 73 80 74 81 53 82 54 83 62 84 55 85 61 86 56 87
REMARK SMILES IDX 57 88 58 89 59 90 60 91
REMARK H PARENT 20 6 25 28 81 47 51 58
REMARK Flexibility Score: inf
ROOT
ATOM      1  C   UNL A   1      34.579  33.208  28.201  1.00  0.00     0.023 C 
ENDROOT
BRANCH   1   2
ATOM      2  C   UNL A   1      34.093  31.780  28.444  1.00  0.00     0.116 C 
BRANCH   2   3
ATOM      3  N   UNL A   1      35.210  30.879  28.655  1.00  0.00    -0.353 N 
ATOM      4  C   UNL A   1      35.582  29.775  27.954  1.00  0.00     0.244 C 
ATOM      5  O   UNL A   1      36.622  29.184  28.230  1.00  0.00    -0.270 OA
ATOM      6  H   UNL A   1      35.786  31.100  29.422  1.00  0.00     0.163 HD
BRANCH   4   7
ATOM      7  C   UNL A   1      34.786  29.332  26.791  1.00  0.00     0.072 C 
ATOM      8  C   UNL A   1      33.741  28.495  26.879  1.00  0.00     0.025 C 
BRANCH   8   9
ATOM      9  C   UNL A   1      33.000  28.077  25.735  1.00  0.00     0.031 A 
ATOM     10  C   UNL A   1      31.411  30.078  25.416  1.00  0.00     0.046 C 
ATOM     11  C   UNL A   1      31.944  28.716  25.096  1.00  0.00    -0.032 A 
ATOM     12  C   UNL A   1      31.423  27.915  24.022  1.00  0.00     0.029 A 
ATOM     13  C   UNL A   1      32.099  26.723  23.841  1.00  0.00     0.093 A 
ATOM     14  S   UNL A   1      33.368  26.591  24.966  1.00  0.00    -0.130 S 
BRANCH  13  15
ATOM     15  C   UNL A   1      31.927  25.791  22.729  1.00  0.00     0.264 C 
ATOM     16  O   UNL A   1      31.652  26.209  21.602  1.00  0.00    -0.268 OA
BRANCH  15  17
ATOM     17  N   UNL A   1      32.166  24.432  22.908  1.00  0.00    -0.333 N 
ATOM     18  C   UNL A   1      33.222  23.791  22.132  1.00  0.00     0.148 C 
ATOM     19  C   UNL A   1      31.445  23.507  23.791  1.00  0.00     0.151 C 
ATOM     20  C   UNL A   1      34.168  23.062  23.093  1.00  0.00     0.182 C 
ATOM     21  C   UNL A   1      32.436  22.739  24.688  1.00  0.00     0.134 C 
ATOM     22  O   UNL A   1      33.452  22.098  23.885  1.00  0.00    -0.375 OA
ATOM     23  C   UNL A   1      31.729  21.655  25.489  1.00  0.00     0.040 C 
ENDBRANCH  15  17
ENDBRANCH  13  15
ENDBRANCH   8   9
ENDBRANCH   4   7
ENDBRANCH   2   3
ENDBRANCH   1   2
BRANCH   1  24
ATOM     24  C   UNL A   1      33.462  34.251  28.130  1.00  0.00     0.023 C 
BRANCH  24  25
ATOM     25  C   UNL A   1      33.699  35.504  28.969  1.00  0.00     0.116 C 
BRANCH  25  26
ATOM     26  N   UNL A   1      32.844  35.579  30.143  1.00  0.00    -0.352 N 
ATOM     27  C   UNL A   1      33.067  35.055  31.397  1.00  0.00     0.251 C 
ATOM     28  H   UNL A   1      31.997  36.068  30.026  1.00  0.00     0.163 HD
ATOM     29  O   UNL A   1      32.203  35.115  32.254  1.00  0.00    -0.269 OA
BRANCH  27  30
ATOM     30  C   UNL A   1      34.353  34.375  31.665  1.00  0.00     0.039 A 
ATOM     31  C   UNL A   1      35.523  35.138  31.691  1.00  0.00     0.014 A 
ATOM     32  C   UNL A   1      34.393  33.004  31.936  1.00  0.00     0.014 A 
ATOM     33  C   UNL A   1      36.727  34.537  32.061  1.00  0.00     0.010 A 
ATOM     34  C   UNL A   1      35.582  32.423  32.364  1.00  0.00     0.010 A 
ATOM     35  C   UNL A   1      36.758  33.184  32.436  1.00  0.00    -0.014 A 
BRANCH  35  36
ATOM     36  C   UNL A   1      38.007  32.548  32.921  1.00  0.00     0.031 A 
ATOM     37  C   UNL A   1      38.502  32.823  34.313  1.00  0.00     0.074 A 
ATOM     38  C   UNL A   1      38.735  31.785  32.081  1.00  0.00     0.049 A 
ATOM     39  N   UNL A   1      39.606  32.422  34.888  1.00  0.00    -0.248 NA
ATOM     40  C   UNL A   1      37.658  33.681  35.160  1.00  0.00     0.031 C 
ATOM     41  C   UNL A   1      38.385  31.482  30.690  1.00  0.00     0.029 A 
ATOM     42  N   UNL A   1      39.929  31.135  32.270  1.00  0.00    -0.354 N 
ATOM     43  C   UNL A   1      39.601  32.995  36.154  1.00  0.00     0.074 A 
ATOM     44  C   UNL A   1      38.404  33.804  36.248  1.00  0.00     0.031 C 
ATOM     45  C   UNL A   1      39.332  30.688  30.161  1.00  0.00     0.029 A 
ATOM     46  C   UNL A   1      40.370  30.455  31.159  1.00  0.00     0.049 A 
ATOM     47  H   UNL A   1      40.422  31.153  33.122  1.00  0.00     0.167 HD
ATOM     48  C   UNL A   1      40.502  32.850  37.155  1.00  0.00     0.031 A 
ATOM     49  C   UNL A   1      41.487  29.728  30.965  1.00  0.00     0.031 A 
ATOM     50  C   UNL A   1      41.680  32.030  37.066  1.00  0.00     0.049 A 
ATOM     51  C   UNL A   1      42.464  29.566  32.096  1.00  0.00     0.074 A 
ATOM     52  C   UNL A   1      42.626  31.773  38.044  1.00  0.00     0.029 A 
ATOM     53  N   UNL A   1      42.074  31.332  35.934  1.00  0.00    -0.354 N 
ATOM     54  N   UNL A   1      42.411  30.069  33.306  1.00  0.00    -0.248 NA
ATOM     55  C   UNL A   1      43.644  28.727  31.840  1.00  0.00     0.031 C 
ATOM     56  C   UNL A   1      43.610  30.946  37.491  1.00  0.00     0.029 A 
ATOM     57  C   UNL A   1      43.254  30.653  36.185  1.00  0.00     0.049 A 
ATOM     58  H   UNL A   1      41.586  31.321  35.079  1.00  0.00     0.167 HD
ATOM     59  C   UNL A   1      43.535  29.585  33.964  1.00  0.00     0.074 A 
ATOM     60  C   UNL A   1      44.245  28.744  33.021  1.00  0.00     0.031 C 
ATOM     61  C   UNL A   1      43.942  29.814  35.238  1.00  0.00     0.031 A 
BRANCH  48  62
ATOM     62  C   UNL A   1      40.242  33.598  38.434  1.00  0.00    -0.014 A 
ATOM     63  C   UNL A   1      40.920  34.797  38.722  1.00  0.00     0.010 A 
ATOM     64  C   UNL A   1      39.293  33.111  39.350  1.00  0.00     0.010 A 
ATOM     65  C   UNL A   1      40.685  35.471  39.923  1.00  0.00     0.020 A 
ATOM     66  C   UNL A   1      39.037  33.797  40.541  1.00  0.00     0.020 A 
ATOM     67  C   UNL A   1      39.751  34.963  40.828  1.00  0.00     0.054 A 
BRANCH  67  68
ATOM     68  S   UNL A   1      39.457  35.863  42.375  1.00  0.00     0.124 S 
ATOM     69  O   UNL A   1      40.624  35.483  43.168  1.00  0.00    -0.237 OA
ATOM     70  O   UNL A   1      39.422  37.255  41.937  1.00  0.00    -0.237 OA
ATOM     71  O   UNL A   1      38.182  35.330  42.849  1.00  0.00    -0.744 OA
ENDBRANCH  67  68
ENDBRANCH  48  62
BRANCH  49  72
ATOM     72  C   UNL A   1      41.726  29.076  29.650  1.00  0.00    -0.014 A 
ATOM     73  C   UNL A   1      41.178  27.812  29.374  1.00  0.00     0.010 A 
ATOM     74  C   UNL A   1      42.485  29.724  28.659  1.00  0.00     0.010 A 
ATOM     75  C   UNL A   1      41.397  27.199  28.138  1.00  0.00     0.020 A 
ATOM     76  C   UNL A   1      42.687  29.125  27.412  1.00  0.00     0.020 A 
ATOM     77  C   UNL A   1      42.150  27.860  27.164  1.00  0.00     0.054 A 
BRANCH  77  78
ATOM     78  S   UNL A   1      42.373  27.073  25.544  1.00  0.00     0.124 S 
ATOM     79  O   UNL A   1      42.356  28.222  24.644  1.00  0.00    -0.237 OA
ATOM     80  O   UNL A   1      43.663  26.403  25.691  1.00  0.00    -0.237 OA
ATOM     81  O   UNL A   1      41.224  26.177  25.440  1.00  0.00    -0.744 OA
ENDBRANCH  77  78
ENDBRANCH  49  72
BRANCH  61  82
ATOM     82  C   UNL A   1      45.191  29.117  35.703  1.00  0.00    -0.014 A 
ATOM     83  C   UNL A   1      45.143  27.816  36.231  1.00  0.00     0.010 A 
ATOM     84  C   UNL A   1      46.435  29.753  35.547  1.00  0.00     0.010 A 
ATOM     85  C   UNL A   1      46.319  27.169  36.617  1.00  0.00     0.020 A 
ATOM     86  C   UNL A   1      47.616  29.101  35.910  1.00  0.00     0.020 A 
ATOM     87  C   UNL A   1      47.549  27.816  36.453  1.00  0.00     0.054 A 
BRANCH  87  88
ATOM     88  S   UNL A   1      49.069  26.935  36.907  1.00  0.00     0.124 S 
ATOM     89  O   UNL A   1      49.869  27.066  35.693  1.00  0.00    -0.237 OA
ATOM     90  O   UNL A   1      49.549  27.693  38.061  1.00  0.00    -0.237 OA
ATOM     91  O   UNL A   1      48.608  25.582  37.208  1.00  0.00    -0.744 OA
ENDBRANCH  87  88
ENDBRANCH  61  82
ENDBRANCH  35  36
ENDBRANCH  27  30
ENDBRANCH  25  26
ENDBRANCH  24  25
ENDBRANCH   1  24
TORSDOF 17
ENDMDL
MODEL 2
REMARK VINA RESULT:     -10.0      6.042      8.571
REMARK SMILES Cc1cc(C(=O)N2CCO[C@H](C)C2)sc1/C=C/C(=O)NCCCCNC(=O)c1ccc(-c2c3nc(c(-c4ccc(S(=O)(=O)[O-])cc4)c4ccc([nH]4)c(-c4ccc(S(=O)(=O)[O-])cc4)c4nc(c(-c5ccc(S(=O)(=O)[O-])cc5)c5ccc2[nH]5)C=C4)C=C3)cc1
REMARK SMILES IDX 22 1 21 2 20 3 18 4 19 5 17 7 16 8 15 9 1 10 2 11 3 12 4 13
REMARK SMILES IDX 14 14 5 15 6 16 7 17 8 18 13 19 9 20 11 21 10 22 12 23 23 24
REMARK SMILES IDX 24 25 25 26 26 27 27 29 28 30 29 31 87 32 30 33 86 34 31 35
REMARK SMILES IDX 32 36 33 37 80 38 34 39 85 40 79 41 81 42 35 43 84 44 78 45
REMARK SMILES IDX 77 46 36 48 66 49 47 50 65 51 48 52 51 53 64 54 82 55 49 56
REMARK SMILES IDX 50 57 63 59 83 60 52 61 37 62 38 63 46 64 39 65 45 66 40 67
REMARK SMILES IDX 41 68 42 69 43 70 44 71 67 72 68 73 76 74 69 75 75 76 70 77
REMARK SMILES IDX 71 78 72 79 73 80 74 81 53 82 54 83 62 84 55 85 61 86 56 87
REMARK SMILES IDX 57 88 58 89 59 90 60 91
REMARK H PARENT 20 6 25 28 81 47 51 58
REMARK Flexibility Score: inf
ROOT
ATOM      1  C   UNL A   1      35.517  34.196  29.943  1.00  0.00     0.023 C 
ENDROOT
BRANCH   1   2
ATOM      2  C   UNL A   1      35.026  33.261  28.839  1.00  0.00     0.116 C 
BRANCH   2   3
ATOM      3  N   UNL A   1      33.755  33.711  28.304  1.00  0.00    -0.353 N 
ATOM      4  C   UNL A   1      32.863  33.057  27.513  1.00  0.00     0.244 C 
ATOM      5  O   UNL A   1      31.785  33.572  27.233  1.00  0.00    -0.270 OA
ATOM      6  H   UNL A   1      33.499  34.629  28.551  1.00  0.00     0.163 HD
BRANCH   4   7
ATOM      7  C   UNL A   1      33.143  31.678  27.062  1.00  0.00     0.072 C 
ATOM      8  C   UNL A   1      32.614  30.586  27.635  1.00  0.00     0.025 C 
BRANCH   8   9
ATOM      9  C   UNL A   1      32.913  29.267  27.185  1.00  0.00     0.031 A 
ATOM     10  C   UNL A   1      35.486  29.288  27.266  1.00  0.00     0.046 C 
ATOM     11  C   UNL A   1      34.152  28.678  26.964  1.00  0.00    -0.032 A 
ATOM     12  C   UNL A   1      34.012  27.350  26.433  1.00  0.00     0.029 A 
ATOM     13  C   UNL A   1      32.698  26.944  26.295  1.00  0.00     0.093 A 
ATOM     14  S   UNL A   1      31.646  28.171  26.824  1.00  0.00    -0.130 S 
BRANCH  13  15
ATOM     15  C   UNL A   1      32.239  25.598  25.960  1.00  0.00     0.264 C 
ATOM     16  O   UNL A   1      31.416  25.023  26.678  1.00  0.00    -0.268 OA
BRANCH  15  17
ATOM     17  N   UNL A   1      32.652  24.989  24.780  1.00  0.00    -0.333 N 
ATOM     18  C   UNL A   1      32.146  25.495  23.508  1.00  0.00     0.148 C 
ATOM     19  C   UNL A   1      33.545  23.833  24.636  1.00  0.00     0.151 C 
ATOM     20  C   UNL A   1      33.335  25.801  22.590  1.00  0.00     0.182 C 
ATOM     21  C   UNL A   1      34.684  24.154  23.648  1.00  0.00     0.134 C 
ATOM     22  O   UNL A   1      34.146  24.629  22.394  1.00  0.00    -0.375 OA
ATOM     23  C   UNL A   1      35.522  22.919  23.352  1.00  0.00     0.040 C 
ENDBRANCH  15  17
ENDBRANCH  13  15
ENDBRANCH   8   9
ENDBRANCH   4   7
ENDBRANCH   2   3
ENDBRANCH   1   2
BRANCH   1  24
ATOM     24  C   UNL A   1      36.955  33.933  30.399  1.00  0.00     0.023 C 
BRANCH  24  25
ATOM     25  C   UNL A   1      37.083  33.113  31.679  1.00  0.00     0.116 C 
BRANCH  25  26
ATOM     26  N   UNL A   1      36.281  31.900  31.667  1.00  0.00    -0.352 N 
ATOM     27  C   UNL A   1      36.628  30.651  31.201  1.00  0.00     0.251 C 
ATOM     28  H   UNL A   1      35.373  31.982  32.039  1.00  0.00     0.163 HD
ATOM     29  O   UNL A   1      35.805  29.754  31.166  1.00  0.00    -0.269 OA
BRANCH  27  30
ATOM     30  C   UNL A   1      38.003  30.436  30.699  1.00  0.00     0.039 A 
ATOM     31  C   UNL A   1      38.999  30.072  31.607  1.00  0.00     0.014 A 
ATOM     32  C   UNL A   1      38.290  30.547  29.336  1.00  0.00     0.014 A 
ATOM     33  C   UNL A   1      40.273  29.747  31.136  1.00  0.00     0.010 A 
ATOM     34  C   UNL A   1      39.541  30.165  28.864  1.00  0.00     0.010 A 
ATOM     35  C   UNL A   1      40.542  29.755  29.758  1.00  0.00    -0.014 A 
BRANCH  35  36
ATOM     36  C   UNL A   1      41.859  29.326  29.228  1.00  0.00     0.031 A 
ATOM     37  C   UNL A   1      42.979  30.319  29.095  1.00  0.00     0.074 A 
ATOM     38  C   UNL A   1      42.022  28.059  28.794  1.00  0.00     0.049 A 
ATOM     39  N   UNL A   1      44.171  30.153  28.585  1.00  0.00    -0.248 NA
ATOM     40  C   UNL A   1      42.714  31.686  29.574  1.00  0.00     0.031 C 
ATOM     41  C   UNL A   1      40.996  27.013  28.827  1.00  0.00     0.029 A 
ATOM     42  N   UNL A   1      43.108  27.440  28.230  1.00  0.00    -0.354 N 
ATOM     43  C   UNL A   1      44.791  31.394  28.660  1.00  0.00     0.074 A 
ATOM     44  C   UNL A   1      43.828  32.314  29.228  1.00  0.00     0.031 C 
ATOM     45  C   UNL A   1      41.510  25.878  28.325  1.00  0.00     0.029 A 
ATOM     46  C   UNL A   1      42.885  26.122  27.905  1.00  0.00     0.049 A 
ATOM     47  H   UNL A   1      43.966  27.896  28.073  1.00  0.00     0.167 HD
ATOM     48  C   UNL A   1      46.053  31.735  28.306  1.00  0.00     0.031 A 
ATOM     49  C   UNL A   1      43.696  25.215  27.329  1.00  0.00     0.031 A 
ATOM     50  C   UNL A   1      47.014  30.815  27.760  1.00  0.00     0.049 A 
ATOM     51  C   UNL A   1      45.098  25.611  26.960  1.00  0.00     0.074 A 
ATOM     52  C   UNL A   1      48.335  31.051  27.420  1.00  0.00     0.029 A 
ATOM     53  N   UNL A   1      46.759  29.481  27.476  1.00  0.00    -0.354 N 
ATOM     54  N   UNL A   1      45.685  26.777  27.094  1.00  0.00    -0.248 NA
ATOM     55  C   UNL A   1      45.952  24.568  26.374  1.00  0.00     0.031 C 
ATOM     56  C   UNL A   1      48.868  29.867  26.899  1.00  0.00     0.029 A 
ATOM     57  C   UNL A   1      47.894  28.884  26.955  1.00  0.00     0.049 A 
ATOM     58  H   UNL A   1      45.898  29.028  27.624  1.00  0.00     0.167 HD
ATOM     59  C   UNL A   1      46.985  26.599  26.636  1.00  0.00     0.074 A 
ATOM     60  C   UNL A   1      47.101  25.213  26.228  1.00  0.00     0.031 C 
ATOM     61  C   UNL A   1      47.994  27.502  26.562  1.00  0.00     0.031 A 
BRANCH  48  62
ATOM     62  C   UNL A   1      46.462  33.170  28.499  1.00  0.00    -0.014 A 
ATOM     63  C   UNL A   1      46.249  34.126  27.489  1.00  0.00     0.010 A 
ATOM     64  C   UNL A   1      47.045  33.575  29.713  1.00  0.00     0.010 A 
ATOM     65  C   UNL A   1      46.652  35.450  27.672  1.00  0.00     0.020 A 
ATOM     66  C   UNL A   1      47.426  34.905  29.910  1.00  0.00     0.020 A 
ATOM     67  C   UNL A   1      47.245  35.830  28.879  1.00  0.00     0.054 A 
BRANCH  67  68
ATOM     68  S   UNL A   1      47.750  37.559  29.096  1.00  0.00     0.124 S 
ATOM     69  O   UNL A   1      46.524  38.167  29.608  1.00  0.00    -0.237 OA
ATOM     70  O   UNL A   1      48.847  37.457  30.054  1.00  0.00    -0.237 OA
ATOM     71  O   UNL A   1      48.139  37.977  27.752  1.00  0.00    -0.744 OA
ENDBRANCH  67  68
ENDBRANCH  48  62
BRANCH  49  72
ATOM     72  C   UNL A   1      43.207  23.830  27.092  1.00  0.00    -0.014 A 
ATOM     73  C   UNL A   1      42.840  23.419  25.799  1.00  0.00     0.010 A 
ATOM     74  C   UNL A   1      43.125  22.910  28.152  1.00  0.00     0.010 A 
ATOM     75  C   UNL A   1      42.385  22.117  25.572  1.00  0.00     0.020 A 
ATOM     76  C   UNL A   1      42.692  21.600  27.926  1.00  0.00     0.020 A 
ATOM     77  C   UNL A   1      42.315  21.216  26.637  1.00  0.00     0.054 A 
BRANCH  77  78
ATOM     78  S   UNL A   1      41.777  19.513  26.311  1.00  0.00     0.124 S 
ATOM     79  O   UNL A   1      42.219  18.820  27.517  1.00  0.00    -0.237 OA
ATOM     80  O   UNL A   1      40.332  19.660  26.159  1.00  0.00    -0.237 OA
ATOM     81  O   UNL A   1      42.491  19.160  25.086  1.00  0.00    -0.744 OA
ENDBRANCH  77  78
ENDBRANCH  49  72
BRANCH  61  82
ATOM     82  C   UNL A   1      49.324  27.016  26.058  1.00  0.00    -0.014 A 
ATOM     83  C   UNL A   1      49.703  27.194  24.716  1.00  0.00     0.010 A 
ATOM     84  C   UNL A   1      50.232  26.432  26.959  1.00  0.00     0.010 A 
ATOM     85  C   UNL A   1      50.961  26.775  24.278  1.00  0.00     0.020 A 
ATOM     86  C   UNL A   1      51.500  26.033  26.530  1.00  0.00     0.020 A 
ATOM     87  C   UNL A   1      51.852  26.197  25.188  1.00  0.00     0.054 A 
BRANCH  87  88
ATOM     88  S   UNL A   1      53.503  25.713  24.611  1.00  0.00     0.124 S 
ATOM     89  O   UNL A   1      53.336  25.736  23.161  1.00  0.00    -0.237 OA
ATOM     90  O   UNL A   1      54.358  26.762  25.162  1.00  0.00    -0.237 OA
ATOM     91  O   UNL A   1      53.699  24.388  25.195  1.00  0.00    -0.744 OA
ENDBRANCH  87  88
ENDBRANCH  61  82
ENDBRANCH  35  36
ENDBRANCH  27  30
ENDBRANCH  25  26
ENDBRANCH  24  25
ENDBRANCH   1  24
TORSDOF 17
ENDMDL
MODEL 3
REMARK VINA RESULT:      -9.9      6.009     10.455
REMARK SMILES Cc1cc(C(=O)N2CCO[C@H](C)C2)sc1/C=C/C(=O)NCCCCNC(=O)c1ccc(-c2c3nc(c(-c4ccc(S(=O)(=O)[O-])cc4)c4ccc([nH]4)c(-c4ccc(S(=O)(=O)[O-])cc4)c4nc(c(-c5ccc(S(=O)(=O)[O-])cc5)c5ccc2[nH]5)C=C4)C=C3)cc1
REMARK SMILES IDX 22 1 21 2 20 3 18 4 19 5 17 7 16 8 15 9 1 10 2 11 3 12 4 13
REMARK SMILES IDX 14 14 5 15 6 16 7 17 8 18 13 19 9 20 11 21 10 22 12 23 23 24
REMARK SMILES IDX 24 25 25 26 26 27 27 29 28 30 29 31 87 32 30 33 86 34 31 35
REMARK SMILES IDX 32 36 33 37 80 38 34 39 85 40 79 41 81 42 35 43 84 44 78 45
REMARK SMILES IDX 77 46 36 48 66 49 47 50 65 51 48 52 51 53 64 54 82 55 49 56
REMARK SMILES IDX 50 57 63 59 83 60 52 61 37 62 38 63 46 64 39 65 45 66 40 67
REMARK SMILES IDX 41 68 42 69 43 70 44 71 67 72 68 73 76 74 69 75 75 76 70 77
REMARK SMILES IDX 71 78 72 79 73 80 74 81 53 82 54 83 62 84 55 85 61 86 56 87
REMARK SMILES IDX 57 88 58 89 59 90 60 91
REMARK H PARENT 20 6 25 28 81 47 51 58
REMARK Flexibility Score: inf
ROOT
ATOM      1  C   UNL A   1      34.831  31.534  29.091  1.00  0.00     0.023 C 
ENDROOT
BRANCH   1   2
ATOM      2  C   UNL A   1      34.481  31.087  27.672  1.00  0.00     0.116 C 
BRANCH   2   3
ATOM      3  N   UNL A   1      33.289  31.761  27.193  1.00  0.00    -0.353 N 
ATOM      4  C   UNL A   1      32.145  31.242  26.675  1.00  0.00     0.244 C 
ATOM      5  O   UNL A   1      31.196  31.973  26.406  1.00  0.00    -0.270 OA
ATOM      6  H   UNL A   1      33.313  32.744  27.253  1.00  0.00     0.163 HD
BRANCH   4   7
ATOM      7  C   UNL A   1      31.996  29.780  26.521  1.00  0.00     0.072 C 
ATOM      8  C   UNL A   1      31.506  29.194  25.418  1.00  0.00     0.025 C 
BRANCH   8   9
ATOM      9  C   UNL A   1      31.364  27.780  25.304  1.00  0.00     0.031 A 
ATOM     10  C   UNL A   1      30.458  27.566  22.904  1.00  0.00     0.046 C 
ATOM     11  C   UNL A   1      30.866  27.034  24.243  1.00  0.00    -0.032 A 
ATOM     12  C   UNL A   1      30.821  25.634  24.565  1.00  0.00     0.029 A 
ATOM     13  C   UNL A   1      31.309  25.339  25.824  1.00  0.00     0.093 A 
ATOM     14  S   UNL A   1      31.830  26.760  26.600  1.00  0.00    -0.130 S 
BRANCH  13  15
ATOM     15  C   UNL A   1      31.563  24.005  26.362  1.00  0.00     0.264 C 
ATOM     16  O   UNL A   1      30.955  23.610  27.361  1.00  0.00    -0.268 OA
BRANCH  15  17
ATOM     17  N   UNL A   1      32.421  23.132  25.701  1.00  0.00    -0.333 N 
ATOM     18  C   UNL A   1      33.776  23.573  25.390  1.00  0.00     0.148 C 
ATOM     19  C   UNL A   1      32.124  21.776  25.225  1.00  0.00     0.151 C 
ATOM     20  C   UNL A   1      34.770  22.543  25.939  1.00  0.00     0.182 C 
ATOM     21  C   UNL A   1      33.186  20.782  25.736  1.00  0.00     0.134 C 
ATOM     22  O   UNL A   1      34.512  21.238  25.390  1.00  0.00    -0.375 OA
ATOM     23  C   UNL A   1      32.995  19.405  25.118  1.00  0.00     0.040 C 
ENDBRANCH  15  17
ENDBRANCH  13  15
ENDBRANCH   8   9
ENDBRANCH   4   7
ENDBRANCH   2   3
ENDBRANCH   1   2
BRANCH   1  24
ATOM     24  C   UNL A   1      35.901  32.626  29.162  1.00  0.00     0.023 C 
BRANCH  24  25
ATOM     25  C   UNL A   1      36.698  32.660  30.463  1.00  0.00     0.116 C 
BRANCH  25  26
ATOM     26  N   UNL A   1      36.393  31.552  31.353  1.00  0.00    -0.352 N 
ATOM     27  C   UNL A   1      37.141  30.422  31.600  1.00  0.00     0.251 C 
ATOM     28  H   UNL A   1      35.541  31.618  31.843  1.00  0.00     0.163 HD
ATOM     29  O   UNL A   1      36.700  29.529  32.301  1.00  0.00    -0.269 OA
BRANCH  27  30
ATOM     30  C   UNL A   1      38.468  30.294  30.958  1.00  0.00     0.039 A 
ATOM     31  C   UNL A   1      39.607  30.285  31.766  1.00  0.00     0.014 A 
ATOM     32  C   UNL A   1      38.579  30.138  29.573  1.00  0.00     0.014 A 
ATOM     33  C   UNL A   1      40.856  30.044  31.191  1.00  0.00     0.010 A 
ATOM     34  C   UNL A   1      39.815  29.837  29.012  1.00  0.00     0.010 A 
ATOM     35  C   UNL A   1      40.964  29.782  29.816  1.00  0.00    -0.014 A 
BRANCH  35  36
ATOM     36  C   UNL A   1      42.267  29.433  29.199  1.00  0.00     0.031 A 
ATOM     37  C   UNL A   1      42.504  28.046  28.671  1.00  0.00     0.074 A 
ATOM     38  C   UNL A   1      43.262  30.343  29.184  1.00  0.00     0.049 A 
ATOM     39  N   UNL A   1      43.596  27.531  28.169  1.00  0.00    -0.248 NA
ATOM     40  C   UNL A   1      41.372  27.107  28.741  1.00  0.00     0.031 C 
ATOM     41  C   UNL A   1      43.171  31.708  29.709  1.00  0.00     0.029 A 
ATOM     42  N   UNL A   1      44.550  30.251  28.722  1.00  0.00    -0.354 N 
ATOM     43  C   UNL A   1      43.292  26.206  27.884  1.00  0.00     0.074 A 
ATOM     44  C   UNL A   1      41.926  25.984  28.307  1.00  0.00     0.031 C 
ATOM     45  C   UNL A   1      44.346  32.332  29.518  1.00  0.00     0.029 A 
ATOM     46  C   UNL A   1      45.281  31.404  28.892  1.00  0.00     0.049 A 
ATOM     47  H   UNL A   1      44.917  29.438  28.306  1.00  0.00     0.167 HD
ATOM     48  C   UNL A   1      44.073  25.262  27.307  1.00  0.00     0.031 A 
ATOM     49  C   UNL A   1      46.562  31.681  28.582  1.00  0.00     0.031 A 
ATOM     50  C   UNL A   1      45.425  25.489  26.869  1.00  0.00     0.049 A 
ATOM     51  C   UNL A   1      47.405  30.623  27.927  1.00  0.00     0.074 A 
ATOM     52  C   UNL A   1      46.280  24.614  26.224  1.00  0.00     0.029 A 
ATOM     53  N   UNL A   1      46.117  26.681  27.031  1.00  0.00    -0.354 N 
ATOM     54  N   UNL A   1      47.080  29.392  27.612  1.00  0.00    -0.248 NA
ATOM     55  C   UNL A   1      48.782  30.995  27.573  1.00  0.00     0.031 C 
ATOM     56  C   UNL A   1      47.502  25.265  26.026  1.00  0.00     0.029 A 
ATOM     57  C   UNL A   1      47.393  26.559  26.508  1.00  0.00     0.049 A 
ATOM     58  H   UNL A   1      45.754  27.491  27.455  1.00  0.00     0.167 HD
ATOM     59  C   UNL A   1      48.203  28.851  26.997  1.00  0.00     0.074 A 
ATOM     60  C   UNL A   1      49.213  29.891  26.978  1.00  0.00     0.031 C 
ATOM     61  C   UNL A   1      48.382  27.606  26.490  1.00  0.00     0.031 A 
BRANCH  48  62
ATOM     62  C   UNL A   1      43.479  23.892  27.117  1.00  0.00    -0.014 A 
ATOM     63  C   UNL A   1      43.462  22.959  28.170  1.00  0.00     0.010 A 
ATOM     64  C   UNL A   1      42.908  23.541  25.881  1.00  0.00     0.010 A 
ATOM     65  C   UNL A   1      42.926  21.684  27.975  1.00  0.00     0.020 A 
ATOM     66  C   UNL A   1      42.348  22.276  25.691  1.00  0.00     0.020 A 
ATOM     67  C   UNL A   1      42.379  21.347  26.734  1.00  0.00     0.054 A 
BRANCH  67  68
ATOM     68  S   UNL A   1      41.679  19.689  26.511  1.00  0.00     0.124 S 
ATOM     69  O   UNL A   1      42.216  18.980  27.671  1.00  0.00    -0.237 OA
ATOM     70  O   UNL A   1      40.241  19.939  26.538  1.00  0.00    -0.237 OA
ATOM     71  O   UNL A   1      42.210  19.261  25.219  1.00  0.00    -0.744 OA
ENDBRANCH  67  68
ENDBRANCH  48  62
BRANCH  49  72
ATOM     72  C   UNL A   1      47.117  33.031  28.866  1.00  0.00    -0.014 A 
ATOM     73  C   UNL A   1      47.670  33.321  30.126  1.00  0.00     0.010 A 
ATOM     74  C   UNL A   1      47.115  34.027  27.874  1.00  0.00     0.010 A 
ATOM     75  C   UNL A   1      48.196  34.587  30.394  1.00  0.00     0.020 A 
ATOM     76  C   UNL A   1      47.662  35.289  28.130  1.00  0.00     0.020 A 
ATOM     77  C   UNL A   1      48.190  35.563  29.394  1.00  0.00     0.054 A 
BRANCH  77  78
ATOM     78  S   UNL A   1      48.931  37.183  29.743  1.00  0.00     0.124 S 
ATOM     79  O   UNL A   1      48.851  37.244  31.199  1.00  0.00    -0.237 OA
ATOM     80  O   UNL A   1      50.274  37.044  29.188  1.00  0.00    -0.237 OA
ATOM     81  O   UNL A   1      48.063  38.115  29.026  1.00  0.00    -0.744 OA
ENDBRANCH  77  78
ENDBRANCH  49  72
BRANCH  61  82
ATOM     82  C   UNL A   1      49.702  27.306  25.836  1.00  0.00    -0.014 A 
ATOM     83  C   UNL A   1      50.773  26.770  26.572  1.00  0.00     0.010 A 
ATOM     84  C   UNL A   1      49.847  27.504  24.452  1.00  0.00     0.010 A 
ATOM     85  C   UNL A   1      51.976  26.457  25.936  1.00  0.00     0.020 A 
ATOM     86  C   UNL A   1      51.042  27.171  23.808  1.00  0.00     0.020 A 
ATOM     87  C   UNL A   1      52.103  26.659  24.558  1.00  0.00     0.054 A 
BRANCH  87  88
ATOM     88  S   UNL A   1      53.656  26.192  23.743  1.00  0.00     0.124 S 
ATOM     89  O   UNL A   1      53.994  24.947  24.427  1.00  0.00    -0.237 OA
ATOM     90  O   UNL A   1      53.257  26.052  22.344  1.00  0.00    -0.237 OA
ATOM     91  O   UNL A   1      54.545  27.318  24.021  1.00  0.00    -0.744 OA
ENDBRANCH  87  88
ENDBRANCH  61  82
ENDBRANCH  35  36
ENDBRANCH  27  30
ENDBRANCH  25  26
ENDBRANCH  24  25
ENDBRANCH   1  24
TORSDOF 17
ENDMDL
