MODEL 1
REMARK VINA RESULT:     -13.1      0.000      0.000
REMARK SMILES Cc1c(NC(=O)c2cccc(NC(=O)[C@H]3CC=CC[C@H]3C(=O)NCCCCNC(=O)c3ccc(-c4c5nc(c(-c6ccc(S(=O)(=O)[O-])cc6)c6ccc([nH]6)c(-c6ccc(S(=O)(=O)[O-])cc6)c6nc(c(-c7ccc(S(=O)(=O)[O-])cc7)c7ccc4[nH]7)C=C6)C=C5)cc3)c2)c(=O)n(-c2ccccc2)n1C
REMARK SMILES IDX 24 1 23 2 21 3 22 4 20 6 15 7 16 8 17 9 19 10 18 11 13 12
REMARK SMILES IDX 12 13 14 15 11 16 7 17 8 18 91 19 9 20 10 21 5 22 4 23 6 25
REMARK SMILES IDX 3 26 1 27 2 28 101 29 92 30 94 31 102 32 93 33 95 34 96 35
REMARK SMILES IDX 100 36 97 37 99 38 98 39 25 40 26 41 27 42 28 43 29 44 30 46
REMARK SMILES IDX 31 47 32 48 90 49 33 50 89 51 34 52 35 53 36 54 83 55 37 56
REMARK SMILES IDX 88 57 82 58 84 59 38 60 87 61 81 62 80 63 39 65 69 66 50 67
REMARK SMILES IDX 68 68 51 69 54 70 67 71 85 72 52 73 53 74 66 76 86 77 55 78
REMARK SMILES IDX 40 79 41 80 49 81 42 82 48 83 43 84 44 85 45 86 46 87 47 88
REMARK SMILES IDX 70 89 71 90 79 91 72 92 78 93 73 94 74 95 75 96 76 97 77 98
REMARK SMILES IDX 56 99 57 100 65 101 58 102 64 103 59 104 60 105 61 106
REMARK SMILES IDX 62 107 63 108
REMARK H PARENT 23 5 12 14 4 24 28 45 84 64 54 75
REMARK Flexibility Score: inf
ROOT
ATOM      1  C   UNL A   1      33.460  30.916  27.165  1.00  0.00     0.116 C 
ENDROOT
BRANCH   1   2
ATOM      2  N   UNL A   1      34.024  29.653  26.724  1.00  0.00    -0.356 N 
ATOM      3  C   UNL A   1      33.558  28.691  25.889  1.00  0.00     0.224 C 
ATOM      4  O   UNL A   1      34.213  27.644  25.831  1.00  0.00    -0.275 OA
ATOM      5  H   UNL A   1      34.912  29.458  27.103  1.00  0.00     0.163 HD
BRANCH   3   6
ATOM      6  C   UNL A   1      32.288  28.820  25.049  1.00  0.00     0.095 C 
ATOM      7  C   UNL A   1      32.525  29.079  23.551  1.00  0.00     0.095 C 
ATOM      8  C   UNL A   1      31.241  29.099  22.703  1.00  0.00     0.041 C 
ATOM      9  C   UNL A   1      30.145  28.202  23.183  1.00  0.00    -0.030 C 
ATOM     10  C   UNL A   1      31.174  27.840  25.439  1.00  0.00     0.041 C 
ATOM     11  C   UNL A   1      30.119  27.641  24.397  1.00  0.00    -0.030 C 
BRANCH   7  12
ATOM     12  C   UNL A   1      33.535  28.201  22.844  1.00  0.00     0.228 C 
ATOM     13  N   UNL A   1      33.398  26.854  22.692  1.00  0.00    -0.326 N 
ATOM     14  H   UNL A   1      34.117  26.480  22.134  1.00  0.00     0.169 HD
ATOM     15  O   UNL A   1      34.549  28.706  22.344  1.00  0.00    -0.274 OA
BRANCH  13  16
ATOM     16  C   UNL A   1      32.505  25.853  23.118  1.00  0.00     0.041 A 
ATOM     17  C   UNL A   1      31.849  24.440  24.991  1.00  0.00     0.042 A 
ATOM     18  C   UNL A   1      30.708  24.031  24.301  1.00  0.00     0.014 A 
ATOM     19  C   UNL A   1      32.798  25.254  24.356  1.00  0.00     0.040 A 
ATOM     20  C   UNL A   1      30.443  24.565  23.048  1.00  0.00     0.003 A 
ATOM     21  C   UNL A   1      31.306  25.513  22.493  1.00  0.00     0.026 A 
BRANCH  17  22
ATOM     22  C   UNL A   1      31.954  24.034  26.408  1.00  0.00     0.255 C 
ATOM     23  N   UNL A   1      32.554  22.860  26.813  1.00  0.00    -0.316 N 
ATOM     24  H   UNL A   1      32.485  22.702  27.783  1.00  0.00     0.170 HD
ATOM     25  O   UNL A   1      31.477  24.774  27.271  1.00  0.00    -0.269 OA
BRANCH  23  26
ATOM     26  C   UNL A   1      33.225  21.870  26.148  1.00  0.00     0.130 A 
ATOM     27  C   UNL A   1      35.608  22.684  26.510  1.00  0.00     0.069 C 
ATOM     28  C   UNL A   1      34.561  21.706  26.088  1.00  0.00     0.061 A 
ATOM     29  N   UNL A   1      34.905  20.442  25.607  1.00  0.00    -0.283 N 
ATOM     30  C   UNL A   1      32.673  20.739  25.317  1.00  0.00     0.295 A 
ATOM     31  N   UNL A   1      33.710  19.804  25.231  1.00  0.00    -0.216 N 
ATOM     32  C   UNL A   1      36.126  20.108  24.889  1.00  0.00     0.172 C 
ATOM     33  O   UNL A   1      31.562  20.702  24.827  1.00  0.00    -0.265 OA
BRANCH  31  34
ATOM     34  C   UNL A   1      33.580  18.417  25.007  1.00  0.00     0.067 A 
ATOM     35  C   UNL A   1      34.065  17.837  23.829  1.00  0.00     0.028 A 
ATOM     36  C   UNL A   1      32.914  17.595  25.928  1.00  0.00     0.028 A 
ATOM     37  C   UNL A   1      33.936  16.463  23.601  1.00  0.00     0.002 A 
ATOM     38  C   UNL A   1      32.766  16.224  25.693  1.00  0.00     0.002 A 
ATOM     39  C   UNL A   1      33.289  15.657  24.534  1.00  0.00     0.000 A 
ENDBRANCH  31  34
ENDBRANCH  23  26
ENDBRANCH  17  22
ENDBRANCH  13  16
ENDBRANCH   7  12
ENDBRANCH   3   6
ENDBRANCH   1   2
BRANCH   1  40
ATOM     40  C   UNL A   1      34.483  31.756  27.936  1.00  0.00     0.023 C 
BRANCH  40  41
ATOM     41  C   UNL A   1      34.300  33.271  27.932  1.00  0.00     0.023 C 
BRANCH  41  42
ATOM     42  C   UNL A   1      35.377  34.005  28.697  1.00  0.00     0.116 C 
BRANCH  42  43
ATOM     43  N   UNL A   1      34.867  34.683  29.889  1.00  0.00    -0.352 N 
ATOM     44  C   UNL A   1      35.031  34.281  31.201  1.00  0.00     0.251 C 
ATOM     45  H   UNL A   1      34.351  35.509  29.741  1.00  0.00     0.163 HD
ATOM     46  O   UNL A   1      34.309  34.699  32.097  1.00  0.00    -0.269 OA
BRANCH  44  47
ATOM     47  C   UNL A   1      36.122  33.334  31.473  1.00  0.00     0.039 A 
ATOM     48  C   UNL A   1      35.913  31.955  31.468  1.00  0.00     0.014 A 
ATOM     49  C   UNL A   1      37.400  33.877  31.591  1.00  0.00     0.014 A 
ATOM     50  C   UNL A   1      37.026  31.120  31.489  1.00  0.00     0.010 A 
ATOM     51  C   UNL A   1      38.488  33.061  31.441  1.00  0.00     0.010 A 
ATOM     52  C   UNL A   1      38.313  31.681  31.443  1.00  0.00    -0.014 A 
BRANCH  52  53
ATOM     53  C   UNL A   1      39.493  30.841  31.264  1.00  0.00     0.031 A 
ATOM     54  C   UNL A   1      40.223  30.526  32.524  1.00  0.00     0.074 A 
ATOM     55  C   UNL A   1      39.777  30.218  30.100  1.00  0.00     0.049 A 
ATOM     56  N   UNL A   1      41.386  30.959  32.884  1.00  0.00    -0.248 NA
ATOM     57  C   UNL A   1      39.523  29.769  33.577  1.00  0.00     0.031 C 
ATOM     58  C   UNL A   1      38.983  30.174  28.864  1.00  0.00     0.029 A 
ATOM     59  N   UNL A   1      40.806  29.381  29.810  1.00  0.00    -0.354 N 
ATOM     60  C   UNL A   1      41.669  30.344  34.099  1.00  0.00     0.074 A 
ATOM     61  C   UNL A   1      40.424  29.785  34.563  1.00  0.00     0.031 C 
ATOM     62  C   UNL A   1      39.421  29.168  28.076  1.00  0.00     0.029 A 
ATOM     63  C   UNL A   1      40.636  28.626  28.654  1.00  0.00     0.049 A 
ATOM     64  H   UNL A   1      41.609  29.312  30.376  1.00  0.00     0.167 HD
ATOM     65  C   UNL A   1      42.952  30.129  34.505  1.00  0.00     0.031 A 
ATOM     66  C   UNL A   1      41.429  27.617  28.212  1.00  0.00     0.031 A 
ATOM     67  C   UNL A   1      43.890  30.881  33.711  1.00  0.00     0.049 A 
ATOM     68  C   UNL A   1      42.744  27.790  28.878  1.00  0.00     0.074 A 
ATOM     69  C   UNL A   1      44.082  32.223  33.452  1.00  0.00     0.029 A 
ATOM     70  N   UNL A   1      44.532  30.205  32.698  1.00  0.00    -0.354 N 
ATOM     71  N   UNL A   1      43.519  28.818  28.666  1.00  0.00    -0.248 NA
ATOM     72  C   UNL A   1      42.968  27.088  30.132  1.00  0.00     0.031 C 
ATOM     73  C   UNL A   1      44.377  32.285  32.058  1.00  0.00     0.029 A 
ATOM     74  C   UNL A   1      44.445  30.979  31.568  1.00  0.00     0.049 A 
ATOM     75  H   UNL A   1      44.972  29.327  32.770  1.00  0.00     0.167 HD
ATOM     76  C   UNL A   1      44.004  29.160  29.920  1.00  0.00     0.074 A 
ATOM     77  C   UNL A   1      43.699  28.008  30.769  1.00  0.00     0.031 C 
ATOM     78  C   UNL A   1      44.351  30.448  30.222  1.00  0.00     0.031 A 
BRANCH  65  79
ATOM     79  C   UNL A   1      43.383  28.949  35.341  1.00  0.00    -0.014 A 
ATOM     80  C   UNL A   1      43.954  29.180  36.609  1.00  0.00     0.010 A 
ATOM     81  C   UNL A   1      43.491  27.642  34.822  1.00  0.00     0.010 A 
ATOM     82  C   UNL A   1      44.647  28.170  37.291  1.00  0.00     0.020 A 
ATOM     83  C   UNL A   1      44.140  26.617  35.512  1.00  0.00     0.020 A 
ATOM     84  C   UNL A   1      44.740  26.895  36.732  1.00  0.00     0.054 A 
BRANCH  84  85
ATOM     85  S   UNL A   1      45.700  25.620  37.584  1.00  0.00     0.124 S 
ATOM     86  O   UNL A   1      46.665  26.418  38.333  1.00  0.00    -0.237 OA
ATOM     87  O   UNL A   1      44.678  24.947  38.380  1.00  0.00    -0.237 OA
ATOM     88  O   UNL A   1      46.257  24.824  36.492  1.00  0.00    -0.744 OA
ENDBRANCH  84  85
ENDBRANCH  65  79
BRANCH  66  89
ATOM     89  C   UNL A   1      41.024  26.352  27.544  1.00  0.00    -0.014 A 
ATOM     90  C   UNL A   1      41.911  25.653  26.703  1.00  0.00     0.010 A 
ATOM     91  C   UNL A   1      39.861  25.675  27.971  1.00  0.00     0.010 A 
ATOM     92  C   UNL A   1      41.679  24.309  26.356  1.00  0.00     0.020 A 
ATOM     93  C   UNL A   1      39.622  24.338  27.627  1.00  0.00     0.020 A 
ATOM     94  C   UNL A   1      40.545  23.652  26.841  1.00  0.00     0.054 A 
BRANCH  94  95
ATOM     95  S   UNL A   1      40.345  21.867  26.546  1.00  0.00     0.124 S 
ATOM     96  O   UNL A   1      38.988  21.788  26.014  1.00  0.00    -0.237 OA
ATOM     97  O   UNL A   1      41.415  21.580  25.594  1.00  0.00    -0.237 OA
ATOM     98  O   UNL A   1      40.525  21.277  27.872  1.00  0.00    -0.744 OA
ENDBRANCH  94  95
ENDBRANCH  66  89
BRANCH  78  99
ATOM     99  C   UNL A   1      44.446  31.457  29.096  1.00  0.00    -0.014 A 
ATOM    100  C   UNL A   1      43.477  32.449  28.830  1.00  0.00     0.010 A 
ATOM    101  C   UNL A   1      45.650  31.497  28.373  1.00  0.00     0.010 A 
ATOM    102  C   UNL A   1      43.703  33.430  27.850  1.00  0.00     0.020 A 
ATOM    103  C   UNL A   1      45.888  32.480  27.411  1.00  0.00     0.020 A 
ATOM    104  C   UNL A   1      44.910  33.436  27.144  1.00  0.00     0.054 A 
BRANCH 104 105
ATOM    105  S   UNL A   1      45.219  34.720  25.897  1.00  0.00     0.124 S 
ATOM    106  O   UNL A   1      45.292  35.935  26.702  1.00  0.00    -0.237 OA
ATOM    107  O   UNL A   1      46.477  34.289  25.290  1.00  0.00    -0.237 OA
ATOM    108  O   UNL A   1      44.056  34.635  25.014  1.00  0.00    -0.744 OA
ENDBRANCH 104 105
ENDBRANCH  78  99
ENDBRANCH  52  53
ENDBRANCH  44  47
ENDBRANCH  42  43
ENDBRANCH  41  42
ENDBRANCH  40  41
ENDBRANCH   1  40
TORSDOF 19
ENDMDL
MODEL 2
REMARK VINA RESULT:     -12.5      2.194      3.827
REMARK SMILES Cc1c(NC(=O)c2cccc(NC(=O)[C@H]3CC=CC[C@H]3C(=O)NCCCCNC(=O)c3ccc(-c4c5nc(c(-c6ccc(S(=O)(=O)[O-])cc6)c6ccc([nH]6)c(-c6ccc(S(=O)(=O)[O-])cc6)c6nc(c(-c7ccc(S(=O)(=O)[O-])cc7)c7ccc4[nH]7)C=C6)C=C5)cc3)c2)c(=O)n(-c2ccccc2)n1C
REMARK SMILES IDX 24 1 23 2 21 3 22 4 20 6 15 7 16 8 17 9 19 10 18 11 13 12
REMARK SMILES IDX 12 13 14 15 11 16 7 17 8 18 91 19 9 20 10 21 5 22 4 23 6 25
REMARK SMILES IDX 3 26 1 27 2 28 101 29 92 30 94 31 102 32 93 33 95 34 96 35
REMARK SMILES IDX 100 36 97 37 99 38 98 39 25 40 26 41 27 42 28 43 29 44 30 46
REMARK SMILES IDX 31 47 32 48 90 49 33 50 89 51 34 52 35 53 36 54 83 55 37 56
REMARK SMILES IDX 88 57 82 58 84 59 38 60 87 61 81 62 80 63 39 65 69 66 50 67
REMARK SMILES IDX 68 68 51 69 54 70 67 71 85 72 52 73 53 74 66 76 86 77 55 78
REMARK SMILES IDX 40 79 41 80 49 81 42 82 48 83 43 84 44 85 45 86 46 87 47 88
REMARK SMILES IDX 70 89 71 90 79 91 72 92 78 93 73 94 74 95 75 96 76 97 77 98
REMARK SMILES IDX 56 99 57 100 65 101 58 102 64 103 59 104 60 105 61 106
REMARK SMILES IDX 62 107 63 108
REMARK H PARENT 23 5 12 14 4 24 28 45 84 64 54 75
REMARK Flexibility Score: inf
ROOT
ATOM      1  C   UNL A   1      34.089  28.786  26.876  1.00  0.00     0.116 C 
ENDROOT
BRANCH   1   2
ATOM      2  N   UNL A   1      32.865  28.085  27.224  1.00  0.00    -0.356 N 
ATOM      3  C   UNL A   1      31.861  27.577  26.466  1.00  0.00     0.224 C 
ATOM      4  O   UNL A   1      30.865  27.166  27.071  1.00  0.00    -0.275 OA
ATOM      5  H   UNL A   1      32.741  27.956  28.192  1.00  0.00     0.163 HD
BRANCH   3   6
ATOM      6  C   UNL A   1      31.887  27.502  24.940  1.00  0.00     0.095 C 
ATOM      7  C   UNL A   1      31.487  26.137  24.351  1.00  0.00     0.095 C 
ATOM      8  C   UNL A   1      31.414  26.110  22.814  1.00  0.00     0.041 C 
ATOM      9  C   UNL A   1      31.002  27.396  22.172  1.00  0.00    -0.030 C 
ATOM     10  C   UNL A   1      31.367  28.764  24.240  1.00  0.00     0.041 C 
ATOM     11  C   UNL A   1      30.978  28.572  22.808  1.00  0.00    -0.030 C 
BRANCH   7  12
ATOM     12  C   UNL A   1      30.229  25.489  24.887  1.00  0.00     0.228 C 
ATOM     13  N   UNL A   1      30.224  24.424  25.736  1.00  0.00    -0.326 N 
ATOM     14  H   UNL A   1      29.312  24.204  26.033  1.00  0.00     0.169 HD
ATOM     15  O   UNL A   1      29.120  25.941  24.573  1.00  0.00    -0.274 OA
BRANCH  13  16
ATOM     16  C   UNL A   1      31.173  23.552  26.302  1.00  0.00     0.041 A 
ATOM     17  C   UNL A   1      32.362  21.446  26.010  1.00  0.00     0.042 A 
ATOM     18  C   UNL A   1      33.196  21.750  27.085  1.00  0.00     0.014 A 
ATOM     19  C   UNL A   1      31.286  22.287  25.697  1.00  0.00     0.040 A 
ATOM     20  C   UNL A   1      33.050  22.967  27.735  1.00  0.00     0.003 A 
ATOM     21  C   UNL A   1      32.085  23.882  27.303  1.00  0.00     0.026 A 
BRANCH  17  22
ATOM     22  C   UNL A   1      32.718  20.258  25.204  1.00  0.00     0.255 C 
ATOM     23  N   UNL A   1      33.907  20.144  24.515  1.00  0.00    -0.316 N 
ATOM     24  H   UNL A   1      33.966  19.323  23.974  1.00  0.00     0.170 HD
ATOM     25  O   UNL A   1      31.911  19.329  25.136  1.00  0.00    -0.269 OA
BRANCH  23  26
ATOM     26  C   UNL A   1      35.021  20.933  24.428  1.00  0.00     0.130 A 
ATOM     27  C   UNL A   1      34.066  22.824  23.019  1.00  0.00     0.069 C 
ATOM     28  C   UNL A   1      35.095  22.158  23.873  1.00  0.00     0.061 A 
ATOM     29  N   UNL A   1      36.276  22.814  24.226  1.00  0.00    -0.283 N 
ATOM     30  C   UNL A   1      36.427  20.651  24.898  1.00  0.00     0.295 A 
ATOM     31  N   UNL A   1      37.052  21.900  24.959  1.00  0.00    -0.216 N 
ATOM     32  C   UNL A   1      36.959  23.824  23.430  1.00  0.00     0.172 C 
ATOM     33  O   UNL A   1      36.881  19.551  25.139  1.00  0.00    -0.265 OA
BRANCH  31  34
ATOM     34  C   UNL A   1      38.153  22.255  25.768  1.00  0.00     0.067 A 
ATOM     35  C   UNL A   1      39.157  21.323  26.055  1.00  0.00     0.028 A 
ATOM     36  C   UNL A   1      38.241  23.527  26.353  1.00  0.00     0.028 A 
ATOM     37  C   UNL A   1      40.248  21.669  26.859  1.00  0.00     0.002 A 
ATOM     38  C   UNL A   1      39.320  23.869  27.173  1.00  0.00     0.002 A 
ATOM     39  C   UNL A   1      40.331  22.942  27.415  1.00  0.00     0.000 A 
ENDBRANCH  31  34
ENDBRANCH  23  26
ENDBRANCH  17  22
ENDBRANCH  13  16
ENDBRANCH   7  12
ENDBRANCH   3   6
ENDBRANCH   1   2
BRANCH   1  40
ATOM     40  C   UNL A   1      34.221  30.108  27.637  1.00  0.00     0.023 C 
BRANCH  40  41
ATOM     41  C   UNL A   1      35.544  30.860  27.525  1.00  0.00     0.023 C 
BRANCH  41  42
ATOM     42  C   UNL A   1      35.525  32.211  28.201  1.00  0.00     0.116 C 
BRANCH  42  43
ATOM     43  N   UNL A   1      35.343  32.118  29.650  1.00  0.00    -0.352 N 
ATOM     44  C   UNL A   1      36.105  31.375  30.532  1.00  0.00     0.251 C 
ATOM     45  H   UNL A   1      34.600  32.637  30.037  1.00  0.00     0.163 HD
ATOM     46  O   UNL A   1      35.697  31.085  31.650  1.00  0.00    -0.269 OA
BRANCH  44  47
ATOM     47  C   UNL A   1      37.435  30.955  30.068  1.00  0.00     0.039 A 
ATOM     48  C   UNL A   1      38.505  31.848  30.010  1.00  0.00     0.014 A 
ATOM     49  C   UNL A   1      37.608  29.593  29.830  1.00  0.00     0.014 A 
ATOM     50  C   UNL A   1      39.782  31.333  29.799  1.00  0.00     0.010 A 
ATOM     51  C   UNL A   1      38.875  29.077  29.794  1.00  0.00     0.010 A 
ATOM     52  C   UNL A   1      39.963  29.941  29.724  1.00  0.00    -0.014 A 
BRANCH  52  53
ATOM     53  C   UNL A   1      41.300  29.358  29.703  1.00  0.00     0.031 A 
ATOM     54  C   UNL A   1      41.874  29.081  31.049  1.00  0.00     0.074 A 
ATOM     55  C   UNL A   1      41.881  28.902  28.572  1.00  0.00     0.049 A 
ATOM     56  N   UNL A   1      42.856  29.693  31.623  1.00  0.00    -0.248 NA
ATOM     57  C   UNL A   1      41.185  28.117  31.927  1.00  0.00     0.031 C 
ATOM     58  C   UNL A   1      41.313  28.814  27.219  1.00  0.00     0.029 A 
ATOM     59  N   UNL A   1      43.089  28.302  28.416  1.00  0.00    -0.354 N 
ATOM     60  C   UNL A   1      43.064  29.041  32.834  1.00  0.00     0.074 A 
ATOM     61  C   UNL A   1      41.900  28.219  33.050  1.00  0.00     0.031 C 
ATOM     62  C   UNL A   1      42.062  27.980  26.464  1.00  0.00     0.029 A 
ATOM     63  C   UNL A   1      43.256  27.630  27.209  1.00  0.00     0.049 A 
ATOM     64  H   UNL A   1      43.792  28.338  29.105  1.00  0.00     0.167 HD
ATOM     65  C   UNL A   1      44.285  29.039  33.439  1.00  0.00     0.031 A 
ATOM     66  C   UNL A   1      44.295  26.831  26.855  1.00  0.00     0.031 A 
ATOM     67  C   UNL A   1      45.165  30.020  32.856  1.00  0.00     0.049 A 
ATOM     68  C   UNL A   1      45.428  27.193  27.742  1.00  0.00     0.074 A 
ATOM     69  C   UNL A   1      45.122  31.392  32.705  1.00  0.00     0.029 A 
ATOM     70  N   UNL A   1      46.079  29.567  31.932  1.00  0.00    -0.354 N 
ATOM     71  N   UNL A   1      46.005  28.363  27.719  1.00  0.00    -0.248 NA
ATOM     72  C   UNL A   1      45.590  26.442  28.976  1.00  0.00     0.031 C 
ATOM     73  C   UNL A   1      45.611  31.627  31.387  1.00  0.00     0.029 A 
ATOM     74  C   UNL A   1      46.015  30.405  30.846  1.00  0.00     0.049 A 
ATOM     75  H   UNL A   1      46.669  28.786  32.031  1.00  0.00     0.167 HD
ATOM     76  C   UNL A   1      46.210  28.682  29.053  1.00  0.00     0.074 A 
ATOM     77  C   UNL A   1      46.014  27.425  29.776  1.00  0.00     0.031 C 
ATOM     78  C   UNL A   1      46.239  29.982  29.478  1.00  0.00     0.031 A 
BRANCH  65  79
ATOM     79  C   UNL A   1      44.809  27.895  34.272  1.00  0.00    -0.014 A 
ATOM     80  C   UNL A   1      45.085  26.663  33.646  1.00  0.00     0.010 A 
ATOM     81  C   UNL A   1      44.787  27.904  35.682  1.00  0.00     0.010 A 
ATOM     82  C   UNL A   1      45.273  25.492  34.394  1.00  0.00     0.020 A 
ATOM     83  C   UNL A   1      45.015  26.752  36.438  1.00  0.00     0.020 A 
ATOM     84  C   UNL A   1      45.228  25.545  35.787  1.00  0.00     0.054 A 
BRANCH  84  85
ATOM     85  S   UNL A   1      45.395  24.016  36.740  1.00  0.00     0.124 S 
ATOM     86  O   UNL A   1      44.650  23.066  35.920  1.00  0.00    -0.237 OA
ATOM     87  O   UNL A   1      46.843  23.830  36.771  1.00  0.00    -0.237 OA
ATOM     88  O   UNL A   1      44.786  24.347  38.027  1.00  0.00    -0.744 OA
ENDBRANCH  84  85
ENDBRANCH  65  79
BRANCH  66  89
ATOM     89  C   UNL A   1      44.260  25.574  26.062  1.00  0.00    -0.014 A 
ATOM     90  C   UNL A   1      45.349  25.189  25.256  1.00  0.00     0.010 A 
ATOM     91  C   UNL A   1      43.272  24.603  26.330  1.00  0.00     0.010 A 
ATOM     92  C   UNL A   1      45.478  23.866  24.791  1.00  0.00     0.020 A 
ATOM     93  C   UNL A   1      43.393  23.285  25.868  1.00  0.00     0.020 A 
ATOM     94  C   UNL A   1      44.508  22.916  25.122  1.00  0.00     0.054 A 
BRANCH  94  95
ATOM     95  S   UNL A   1      44.774  21.170  24.680  1.00  0.00     0.124 S 
ATOM     96  O   UNL A   1      44.736  21.208  23.221  1.00  0.00    -0.237 OA
ATOM     97  O   UNL A   1      46.080  20.887  25.270  1.00  0.00    -0.237 OA
ATOM     98  O   UNL A   1      43.650  20.480  25.311  1.00  0.00    -0.744 OA
ENDBRANCH  94  95
ENDBRANCH  66  89
BRANCH  78  99
ATOM     99  C   UNL A   1      46.304  31.084  28.440  1.00  0.00    -0.014 A 
ATOM    100  C   UNL A   1      45.190  31.568  27.721  1.00  0.00     0.010 A 
ATOM    101  C   UNL A   1      47.528  31.761  28.301  1.00  0.00     0.010 A 
ATOM    102  C   UNL A   1      45.311  32.682  26.872  1.00  0.00     0.020 A 
ATOM    103  C   UNL A   1      47.650  32.878  27.474  1.00  0.00     0.020 A 
ATOM    104  C   UNL A   1      46.545  33.328  26.753  1.00  0.00     0.054 A 
BRANCH 104 105
ATOM    105  S   UNL A   1      46.700  34.785  25.679  1.00  0.00     0.124 S 
ATOM    106  O   UNL A   1      45.615  34.591  24.721  1.00  0.00    -0.237 OA
ATOM    107  O   UNL A   1      46.526  35.898  26.611  1.00  0.00    -0.237 OA
ATOM    108  O   UNL A   1      48.045  34.664  25.119  1.00  0.00    -0.744 OA
ENDBRANCH 104 105
ENDBRANCH  78  99
ENDBRANCH  52  53
ENDBRANCH  44  47
ENDBRANCH  42  43
ENDBRANCH  41  42
ENDBRANCH  40  41
ENDBRANCH   1  40
TORSDOF 19
ENDMDL
MODEL 3
REMARK VINA RESULT:     -12.3      2.914      8.371
REMARK SMILES Cc1c(NC(=O)c2cccc(NC(=O)[C@H]3CC=CC[C@H]3C(=O)NCCCCNC(=O)c3ccc(-c4c5nc(c(-c6ccc(S(=O)(=O)[O-])cc6)c6ccc([nH]6)c(-c6ccc(S(=O)(=O)[O-])cc6)c6nc(c(-c7ccc(S(=O)(=O)[O-])cc7)c7ccc4[nH]7)C=C6)C=C5)cc3)c2)c(=O)n(-c2ccccc2)n1C
REMARK SMILES IDX 24 1 23 2 21 3 22 4 20 6 15 7 16 8 17 9 19 10 18 11 13 12
REMARK SMILES IDX 12 13 14 15 11 16 7 17 8 18 91 19 9 20 10 21 5 22 4 23 6 25
REMARK SMILES IDX 3 26 1 27 2 28 101 29 92 30 94 31 102 32 93 33 95 34 96 35
REMARK SMILES IDX 100 36 97 37 99 38 98 39 25 40 26 41 27 42 28 43 29 44 30 46
REMARK SMILES IDX 31 47 32 48 90 49 33 50 89 51 34 52 35 53 36 54 83 55 37 56
REMARK SMILES IDX 88 57 82 58 84 59 38 60 87 61 81 62 80 63 39 65 69 66 50 67
REMARK SMILES IDX 68 68 51 69 54 70 67 71 85 72 52 73 53 74 66 76 86 77 55 78
REMARK SMILES IDX 40 79 41 80 49 81 42 82 48 83 43 84 44 85 45 86 46 87 47 88
REMARK SMILES IDX 70 89 71 90 79 91 72 92 78 93 73 94 74 95 75 96 76 97 77 98
REMARK SMILES IDX 56 99 57 100 65 101 58 102 64 103 59 104 60 105 61 106
REMARK SMILES IDX 62 107 63 108
REMARK H PARENT 23 5 12 14 4 24 28 45 84 64 54 75
REMARK Flexibility Score: inf
ROOT
ATOM      1  C   UNL A   1      37.806  33.877  30.588  1.00  0.00     0.116 C 
ENDROOT
BRANCH   1   2
ATOM      2  N   UNL A   1      36.544  33.296  31.012  1.00  0.00    -0.356 N 
ATOM      3  C   UNL A   1      35.963  32.097  30.755  1.00  0.00     0.224 C 
ATOM      4  O   UNL A   1      34.798  31.954  31.142  1.00  0.00    -0.275 OA
ATOM      5  H   UNL A   1      36.010  33.883  31.596  1.00  0.00     0.163 HD
BRANCH   3   6
ATOM      6  C   UNL A   1      36.648  30.948  30.017  1.00  0.00     0.095 C 
ATOM      7  C   UNL A   1      35.867  30.394  28.813  1.00  0.00     0.095 C 
ATOM      8  C   UNL A   1      36.618  29.312  28.018  1.00  0.00     0.041 C 
ATOM      9  C   UNL A   1      38.106  29.456  27.992  1.00  0.00    -0.030 C 
ATOM     10  C   UNL A   1      38.166  31.111  29.873  1.00  0.00     0.041 C 
ATOM     11  C   UNL A   1      38.791  30.258  28.814  1.00  0.00    -0.030 C 
BRANCH   7  12
ATOM     12  C   UNL A   1      35.310  31.395  27.824  1.00  0.00     0.228 C 
ATOM     13  N   UNL A   1      34.155  31.212  27.125  1.00  0.00    -0.326 N 
ATOM     14  H   UNL A   1      33.922  32.011  26.598  1.00  0.00     0.169 HD
ATOM     15  O   UNL A   1      35.903  32.463  27.627  1.00  0.00    -0.274 OA
BRANCH  13  16
ATOM     16  C   UNL A   1      33.204  30.189  26.953  1.00  0.00     0.041 A 
ATOM     17  C   UNL A   1      31.502  29.286  25.462  1.00  0.00     0.042 A 
ATOM     18  C   UNL A   1      31.403  28.138  26.247  1.00  0.00     0.014 A 
ATOM     19  C   UNL A   1      32.311  30.352  25.879  1.00  0.00     0.040 A 
ATOM     20  C   UNL A   1      32.231  27.995  27.351  1.00  0.00     0.003 A 
ATOM     21  C   UNL A   1      33.164  28.989  27.660  1.00  0.00     0.026 A 
BRANCH  17  22
ATOM     22  C   UNL A   1      30.780  29.278  24.172  1.00  0.00     0.255 C 
ATOM     23  N   UNL A   1      30.894  28.258  23.252  1.00  0.00    -0.316 N 
ATOM     24  H   UNL A   1      30.403  28.430  22.415  1.00  0.00     0.170 HD
ATOM     25  O   UNL A   1      30.048  30.231  23.900  1.00  0.00    -0.269 OA
BRANCH  23  26
ATOM     26  C   UNL A   1      31.547  27.055  23.259  1.00  0.00     0.130 A 
ATOM     27  C   UNL A   1      33.654  27.733  22.003  1.00  0.00     0.069 C 
ATOM     28  C   UNL A   1      32.797  26.818  22.817  1.00  0.00     0.061 A 
ATOM     29  N   UNL A   1      33.273  25.580  23.252  1.00  0.00    -0.283 N 
ATOM     30  C   UNL A   1      31.058  25.709  23.732  1.00  0.00     0.295 A 
ATOM     31  N   UNL A   1      32.212  24.941  23.918  1.00  0.00    -0.216 N 
ATOM     32  C   UNL A   1      34.258  24.757  22.564  1.00  0.00     0.172 C 
ATOM     33  O   UNL A   1      29.894  25.396  23.884  1.00  0.00    -0.265 OA
BRANCH  31  34
ATOM     34  C   UNL A   1      32.361  23.833  24.778  1.00  0.00     0.067 A 
ATOM     35  C   UNL A   1      32.946  23.984  26.041  1.00  0.00     0.028 A 
ATOM     36  C   UNL A   1      31.982  22.545  24.371  1.00  0.00     0.028 A 
ATOM     37  C   UNL A   1      33.099  22.888  26.897  1.00  0.00     0.002 A 
ATOM     38  C   UNL A   1      32.152  21.445  25.217  1.00  0.00     0.002 A 
ATOM     39  C   UNL A   1      32.699  21.620  26.485  1.00  0.00     0.000 A 
ENDBRANCH  31  34
ENDBRANCH  23  26
ENDBRANCH  17  22
ENDBRANCH  13  16
ENDBRANCH   7  12
ENDBRANCH   3   6
ENDBRANCH   1   2
BRANCH   1  40
ATOM     40  C   UNL A   1      38.506  34.612  31.735  1.00  0.00     0.023 C 
BRANCH  40  41
ATOM     41  C   UNL A   1      38.393  34.010  33.133  1.00  0.00     0.023 C 
BRANCH  41  42
ATOM     42  C   UNL A   1      39.005  32.633  33.242  1.00  0.00     0.116 C 
BRANCH  42  43
ATOM     43  N   UNL A   1      38.668  31.960  34.498  1.00  0.00    -0.352 N 
ATOM     44  C   UNL A   1      38.844  30.621  34.789  1.00  0.00     0.251 C 
ATOM     45  H   UNL A   1      38.274  32.519  35.207  1.00  0.00     0.163 HD
ATOM     46  O   UNL A   1      38.243  30.078  35.708  1.00  0.00    -0.269 OA
BRANCH  44  47
ATOM     47  C   UNL A   1      39.794  29.878  33.950  1.00  0.00     0.039 A 
ATOM     48  C   UNL A   1      39.396  29.259  32.765  1.00  0.00     0.014 A 
ATOM     49  C   UNL A   1      41.136  29.948  34.321  1.00  0.00     0.014 A 
ATOM     50  C   UNL A   1      40.383  28.788  31.904  1.00  0.00     0.010 A 
ATOM     51  C   UNL A   1      42.100  29.640  33.399  1.00  0.00     0.010 A 
ATOM     52  C   UNL A   1      41.736  29.011  32.214  1.00  0.00    -0.014 A 
BRANCH  52  53
ATOM     53  C   UNL A   1      42.787  28.711  31.247  1.00  0.00     0.031 A 
ATOM     54  C   UNL A   1      43.004  29.771  30.223  1.00  0.00     0.074 A 
ATOM     55  C   UNL A   1      43.640  27.673  31.393  1.00  0.00     0.049 A 
ATOM     56  N   UNL A   1      42.726  29.710  28.963  1.00  0.00    -0.248 NA
ATOM     57  C   UNL A   1      43.437  31.108  30.669  1.00  0.00     0.031 C 
ATOM     58  C   UNL A   1      43.756  26.730  32.514  1.00  0.00     0.029 A 
ATOM     59  N   UNL A   1      44.681  27.309  30.601  1.00  0.00    -0.354 N 
ATOM     60  C   UNL A   1      43.164  30.910  28.412  1.00  0.00     0.074 A 
ATOM     61  C   UNL A   1      43.410  31.794  29.523  1.00  0.00     0.031 C 
ATOM     62  C   UNL A   1      44.942  26.088  32.449  1.00  0.00     0.029 A 
ATOM     63  C   UNL A   1      45.581  26.427  31.191  1.00  0.00     0.049 A 
ATOM     64  H   UNL A   1      44.792  27.644  29.682  1.00  0.00     0.167 HD
ATOM     65  C   UNL A   1      43.527  31.000  27.101  1.00  0.00     0.031 A 
ATOM     66  C   UNL A   1      46.773  26.017  30.688  1.00  0.00     0.031 A 
ATOM     67  C   UNL A   1      43.098  29.845  26.354  1.00  0.00     0.049 A 
ATOM     68  C   UNL A   1      46.722  26.260  29.225  1.00  0.00     0.074 A 
ATOM     69  C   UNL A   1      41.874  29.264  26.088  1.00  0.00     0.029 A 
ATOM     70  N   UNL A   1      44.038  28.867  26.123  1.00  0.00    -0.354 N 
ATOM     71  N   UNL A   1      45.896  25.637  28.429  1.00  0.00    -0.248 NA
ATOM     72  C   UNL A   1      47.226  27.531  28.730  1.00  0.00     0.031 C 
ATOM     73  C   UNL A   1      42.104  27.862  26.209  1.00  0.00     0.029 A 
ATOM     74  C   UNL A   1      43.466  27.662  26.443  1.00  0.00     0.049 A 
ATOM     75  H   UNL A   1      44.954  29.007  25.789  1.00  0.00     0.167 HD
ATOM     76  C   UNL A   1      45.435  26.616  27.561  1.00  0.00     0.074 A 
ATOM     77  C   UNL A   1      46.353  27.741  27.739  1.00  0.00     0.031 C 
ATOM     78  C   UNL A   1      44.195  26.534  26.991  1.00  0.00     0.031 A 
BRANCH  65  79
ATOM     79  C   UNL A   1      44.604  31.925  26.588  1.00  0.00    -0.014 A 
ATOM     80  C   UNL A   1      45.935  31.725  27.007  1.00  0.00     0.010 A 
ATOM     81  C   UNL A   1      44.319  33.137  25.926  1.00  0.00     0.010 A 
ATOM     82  C   UNL A   1      46.913  32.712  26.822  1.00  0.00     0.020 A 
ATOM     83  C   UNL A   1      45.295  34.109  25.698  1.00  0.00     0.020 A 
ATOM     84  C   UNL A   1      46.582  33.902  26.174  1.00  0.00     0.054 A 
BRANCH  84  85
ATOM     85  S   UNL A   1      47.831  35.201  26.008  1.00  0.00     0.124 S 
ATOM     86  O   UNL A   1      48.699  34.932  27.149  1.00  0.00    -0.237 OA
ATOM     87  O   UNL A   1      48.400  34.913  24.694  1.00  0.00    -0.237 OA
ATOM     88  O   UNL A   1      47.053  36.435  26.088  1.00  0.00    -0.744 OA
ENDBRANCH  84  85
ENDBRANCH  65  79
BRANCH  66  89
ATOM     89  C   UNL A   1      48.044  25.766  31.419  1.00  0.00    -0.014 A 
ATOM     90  C   UNL A   1      48.061  25.603  32.818  1.00  0.00     0.010 A 
ATOM     91  C   UNL A   1      49.202  25.391  30.706  1.00  0.00     0.010 A 
ATOM     92  C   UNL A   1      49.167  25.026  33.470  1.00  0.00     0.020 A 
ATOM     93  C   UNL A   1      50.308  24.819  31.348  1.00  0.00     0.020 A 
ATOM     94  C   UNL A   1      50.276  24.615  32.725  1.00  0.00     0.054 A 
BRANCH  94  95
ATOM     95  S   UNL A   1      51.620  23.701  33.544  1.00  0.00     0.124 S 
ATOM     96  O   UNL A   1      52.514  24.774  33.968  1.00  0.00    -0.237 OA
ATOM     97  O   UNL A   1      50.920  23.000  34.617  1.00  0.00    -0.237 OA
ATOM     98  O   UNL A   1      52.145  22.839  32.485  1.00  0.00    -0.744 OA
ENDBRANCH  94  95
ENDBRANCH  66  89
BRANCH  78  99
ATOM     99  C   UNL A   1      43.425  25.235  27.110  1.00  0.00    -0.014 A 
ATOM    100  C   UNL A   1      42.541  24.926  28.166  1.00  0.00     0.010 A 
ATOM    101  C   UNL A   1      43.487  24.352  26.017  1.00  0.00     0.010 A 
ATOM    102  C   UNL A   1      41.765  23.754  28.135  1.00  0.00     0.020 A 
ATOM    103  C   UNL A   1      42.706  23.196  25.972  1.00  0.00     0.020 A 
ATOM    104  C   UNL A   1      41.856  22.895  27.035  1.00  0.00     0.054 A 
BRANCH 104 105
ATOM    105  S   UNL A   1      40.834  21.394  26.976  1.00  0.00     0.124 S 
ATOM    106  O   UNL A   1      40.779  20.992  28.379  1.00  0.00    -0.237 OA
ATOM    107  O   UNL A   1      39.577  21.877  26.410  1.00  0.00    -0.237 OA
ATOM    108  O   UNL A   1      41.588  20.493  26.106  1.00  0.00    -0.744 OA
ENDBRANCH 104 105
ENDBRANCH  78  99
ENDBRANCH  52  53
ENDBRANCH  44  47
ENDBRANCH  42  43
ENDBRANCH  41  42
ENDBRANCH  40  41
ENDBRANCH   1  40
TORSDOF 19
ENDMDL
