MODEL 1
REMARK VINA RESULT:     -13.2      0.000      0.000
REMARK SMILES Cc1c(CC(=O)NCCCCNC(=O)c2ccc(-c3c4nc(c(-c5ccc(S(=O)(=O)[O-])cc5)c5ccc([nH]5)c(-c5ccc(S(=O)(=O)[O-])cc5)c5nc(c(-c6ccc(S(=O)(=O)[O-])cc6)c6ccc3[nH]6)C=C5)C=C4)cc2)c2ccccc2n1C(=O)c1ccc(Cl)cc1
REMARK SMILES IDX 9 1 8 2 7 3 5 4 6 5 4 7 3 8 1 9 2 10 81 11 75 12 80 13 76 14
REMARK SMILES IDX 79 15 77 16 78 17 82 18 83 19 84 20 85 21 90 22 86 23 89 24
REMARK SMILES IDX 87 25 88 26 10 27 11 28 12 29 13 30 14 32 15 33 16 34 74 35
REMARK SMILES IDX 17 36 73 37 18 38 19 39 20 40 67 41 21 42 72 43 66 44 68 45
REMARK SMILES IDX 22 46 71 47 65 48 64 49 23 51 53 52 34 53 52 54 35 55 38 56
REMARK SMILES IDX 51 57 69 58 36 59 37 60 50 62 70 63 39 64 24 65 25 66 33 67
REMARK SMILES IDX 26 68 32 69 27 70 28 71 29 72 30 73 31 74 54 75 55 76 63 77
REMARK SMILES IDX 56 78 62 79 57 80 58 81 59 82 60 83 61 84 40 85 41 86 49 87
REMARK SMILES IDX 42 88 48 89 43 90 44 91 45 92 46 93 47 94
REMARK H PARENT 7 6 12 31 68 50 38 61
REMARK Flexibility Score: inf
ROOT
ATOM      1  C   UNL A   1      38.174  23.435  26.128  1.00  0.00     0.023 C 
ENDROOT
BRANCH   1   2
ATOM      2  C   UNL A   1      36.965  23.568  25.207  1.00  0.00     0.116 C 
BRANCH   2   3
ATOM      3  N   UNL A   1      35.713  23.415  25.920  1.00  0.00    -0.356 N 
ATOM      4  C   UNL A   1      34.553  24.118  25.757  1.00  0.00     0.224 C 
ATOM      5  O   UNL A   1      33.575  23.803  26.440  1.00  0.00    -0.275 OA
ATOM      6  H   UNL A   1      35.696  22.715  26.611  1.00  0.00     0.163 HD
BRANCH   4   7
ATOM      7  C   UNL A   1      34.462  25.209  24.701  1.00  0.00     0.138 C 
BRANCH   7   8
ATOM      8  C   UNL A   1      33.232  26.064  24.826  1.00  0.00    -0.010 A 
ATOM      9  C   UNL A   1      31.545  24.683  23.411  1.00  0.00     0.065 C 
ATOM     10  C   UNL A   1      31.984  25.842  24.253  1.00  0.00     0.028 A 
ATOM     11  N   UNL A   1      31.148  26.929  24.562  1.00  0.00    -0.280 N 
ATOM     12  C   UNL A   1      33.135  27.252  25.602  1.00  0.00     0.004 A 
ATOM     13  C   UNL A   1      31.826  27.732  25.492  1.00  0.00     0.056 A 
ATOM     14  C   UNL A   1      34.061  27.943  26.416  1.00  0.00     0.010 A 
ATOM     15  C   UNL A   1      31.423  28.847  26.258  1.00  0.00     0.027 A 
ATOM     16  C   UNL A   1      33.672  29.087  27.112  1.00  0.00     0.001 A 
ATOM     17  C   UNL A   1      32.362  29.525  27.041  1.00  0.00     0.002 A 
BRANCH  11  18
ATOM     18  C   UNL A   1      29.836  27.141  24.036  1.00  0.00     0.262 C 
ATOM     19  O   UNL A   1      28.933  26.387  24.373  1.00  0.00    -0.268 OA
BRANCH  18  20
ATOM     20  C   UNL A   1      29.445  28.255  23.150  1.00  0.00     0.040 A 
ATOM     21  C   UNL A   1      30.382  28.966  22.391  1.00  0.00     0.015 A 
ATOM     22  C   UNL A   1      28.091  28.609  23.130  1.00  0.00     0.015 A 
ATOM     23  C   UNL A   1      29.968  30.097  21.679  1.00  0.00     0.021 A 
ATOM     24  C   UNL A   1      27.684  29.733  22.414  1.00  0.00     0.021 A 
ATOM     25  C   UNL A   1      28.625  30.484  21.708  1.00  0.00     0.041 A 
ATOM     26  Cl  UNL A   1      28.116  31.911  20.893  1.00  0.00    -0.084 Cl
ENDBRANCH  18  20
ENDBRANCH  11  18
ENDBRANCH   7   8
ENDBRANCH   4   7
ENDBRANCH   2   3
ENDBRANCH   1   2
BRANCH   1  27
ATOM     27  C   UNL A   1      38.817  22.042  26.133  1.00  0.00     0.023 C 
BRANCH  27  28
ATOM     28  C   UNL A   1      40.164  21.961  26.859  1.00  0.00     0.116 C 
BRANCH  28  29
ATOM     29  N   UNL A   1      41.304  22.111  25.976  1.00  0.00    -0.352 N 
ATOM     30  C   UNL A   1      42.220  23.101  25.751  1.00  0.00     0.251 C 
ATOM     31  H   UNL A   1      41.454  21.318  25.412  1.00  0.00     0.163 HD
ATOM     32  O   UNL A   1      43.144  22.813  24.985  1.00  0.00    -0.269 OA
BRANCH  30  33
ATOM     33  C   UNL A   1      42.156  24.476  26.320  1.00  0.00     0.039 A 
ATOM     34  C   UNL A   1      42.729  24.876  27.527  1.00  0.00     0.014 A 
ATOM     35  C   UNL A   1      41.390  25.415  25.602  1.00  0.00     0.014 A 
ATOM     36  C   UNL A   1      42.482  26.142  28.043  1.00  0.00     0.010 A 
ATOM     37  C   UNL A   1      41.148  26.689  26.109  1.00  0.00     0.010 A 
ATOM     38  C   UNL A   1      41.656  27.034  27.358  1.00  0.00    -0.014 A 
BRANCH  38  39
ATOM     39  C   UNL A   1      41.359  28.296  28.028  1.00  0.00     0.031 A 
ATOM     40  C   UNL A   1      42.389  29.370  27.930  1.00  0.00     0.074 A 
ATOM     41  C   UNL A   1      40.209  28.524  28.689  1.00  0.00     0.049 A 
ATOM     42  N   UNL A   1      43.053  29.948  28.880  1.00  0.00    -0.248 NA
ATOM     43  C   UNL A   1      42.762  29.814  26.580  1.00  0.00     0.031 C 
ATOM     44  C   UNL A   1      38.967  27.747  28.655  1.00  0.00     0.029 A 
ATOM     45  N   UNL A   1      39.889  29.590  29.475  1.00  0.00    -0.354 N 
ATOM     46  C   UNL A   1      43.835  30.929  28.268  1.00  0.00     0.074 A 
ATOM     47  C   UNL A   1      43.681  30.741  26.847  1.00  0.00     0.031 C 
ATOM     48  C   UNL A   1      37.969  28.486  29.190  1.00  0.00     0.029 A 
ATOM     49  C   UNL A   1      38.538  29.699  29.751  1.00  0.00     0.049 A 
ATOM     50  H   UNL A   1      40.560  30.226  29.816  1.00  0.00     0.167 HD
ATOM     51  C   UNL A   1      44.471  31.920  28.957  1.00  0.00     0.031 A 
ATOM     52  C   UNL A   1      37.920  30.754  30.331  1.00  0.00     0.031 A 
ATOM     53  C   UNL A   1      44.579  31.633  30.359  1.00  0.00     0.049 A 
ATOM     54  C   UNL A   1      38.941  31.527  31.075  1.00  0.00     0.074 A 
ATOM     55  C   UNL A   1      45.263  30.704  31.113  1.00  0.00     0.029 A 
ATOM     56  N   UNL A   1      43.655  32.200  31.200  1.00  0.00    -0.354 N 
ATOM     57  N   UNL A   1      39.575  31.083  32.123  1.00  0.00    -0.248 NA
ATOM     58  C   UNL A   1      39.526  32.698  30.443  1.00  0.00     0.031 C 
ATOM     59  C   UNL A   1      44.423  30.442  32.233  1.00  0.00     0.029 A 
ATOM     60  C   UNL A   1      43.284  31.242  32.109  1.00  0.00     0.049 A 
ATOM     61  H   UNL A   1      43.319  33.125  31.158  1.00  0.00     0.167 HD
ATOM     62  C   UNL A   1      40.833  31.662  32.056  1.00  0.00     0.074 A 
ATOM     63  C   UNL A   1      40.700  32.736  31.077  1.00  0.00     0.031 C 
ATOM     64  C   UNL A   1      41.930  31.058  32.603  1.00  0.00     0.031 A 
BRANCH  51  65
ATOM     65  C   UNL A   1      44.793  33.278  28.386  1.00  0.00    -0.014 A 
ATOM     66  C   UNL A   1      43.795  34.165  27.934  1.00  0.00     0.010 A 
ATOM     67  C   UNL A   1      46.099  33.799  28.506  1.00  0.00     0.010 A 
ATOM     68  C   UNL A   1      44.077  35.489  27.591  1.00  0.00     0.020 A 
ATOM     69  C   UNL A   1      46.387  35.141  28.206  1.00  0.00     0.020 A 
ATOM     70  C   UNL A   1      45.371  35.976  27.744  1.00  0.00     0.054 A 
BRANCH  70  71
ATOM     71  S   UNL A   1      45.663  37.735  27.429  1.00  0.00     0.124 S 
ATOM     72  O   UNL A   1      45.939  38.240  28.772  1.00  0.00    -0.237 OA
ATOM     73  O   UNL A   1      46.807  37.705  26.522  1.00  0.00    -0.237 OA
ATOM     74  O   UNL A   1      44.410  38.192  26.834  1.00  0.00    -0.744 OA
ENDBRANCH  70  71
ENDBRANCH  51  65
BRANCH  52  75
ATOM     75  C   UNL A   1      36.640  31.352  29.884  1.00  0.00    -0.014 A 
ATOM     76  C   UNL A   1      36.486  31.731  28.533  1.00  0.00     0.010 A 
ATOM     77  C   UNL A   1      35.701  31.824  30.818  1.00  0.00     0.010 A 
ATOM     78  C   UNL A   1      35.471  32.604  28.136  1.00  0.00     0.020 A 
ATOM     79  C   UNL A   1      34.680  32.703  30.425  1.00  0.00     0.020 A 
ATOM     80  C   UNL A   1      34.593  33.113  29.092  1.00  0.00     0.054 A 
BRANCH  80  81
ATOM     81  S   UNL A   1      33.405  34.380  28.569  1.00  0.00     0.124 S 
ATOM     82  O   UNL A   1      34.279  35.390  27.979  1.00  0.00    -0.237 OA
ATOM     83  O   UNL A   1      32.562  33.650  27.624  1.00  0.00    -0.237 OA
ATOM     84  O   UNL A   1      32.747  34.771  29.813  1.00  0.00    -0.744 OA
ENDBRANCH  80  81
ENDBRANCH  52  75
BRANCH  64  85
ATOM     85  C   UNL A   1      41.727  29.903  33.563  1.00  0.00    -0.014 A 
ATOM     86  C   UNL A   1      41.969  30.133  34.931  1.00  0.00     0.010 A 
ATOM     87  C   UNL A   1      41.509  28.578  33.138  1.00  0.00     0.010 A 
ATOM     88  C   UNL A   1      42.035  29.072  35.841  1.00  0.00     0.020 A 
ATOM     89  C   UNL A   1      41.547  27.511  34.050  1.00  0.00     0.020 A 
ATOM     90  C   UNL A   1      41.839  27.765  35.393  1.00  0.00     0.054 A 
BRANCH  90  91
ATOM     91  S   UNL A   1      42.013  26.408  36.586  1.00  0.00     0.124 S 
ATOM     92  O   UNL A   1      42.643  25.364  35.779  1.00  0.00    -0.237 OA
ATOM     93  O   UNL A   1      42.863  26.993  37.620  1.00  0.00    -0.237 OA
ATOM     94  O   UNL A   1      40.642  26.121  37.003  1.00  0.00    -0.744 OA
ENDBRANCH  90  91
ENDBRANCH  64  85
ENDBRANCH  38  39
ENDBRANCH  30  33
ENDBRANCH  28  29
ENDBRANCH  27  28
ENDBRANCH   1  27
TORSDOF 17
ENDMDL
MODEL 2
REMARK VINA RESULT:     -12.9      3.009      4.511
REMARK SMILES Cc1c(CC(=O)NCCCCNC(=O)c2ccc(-c3c4nc(c(-c5ccc(S(=O)(=O)[O-])cc5)c5ccc([nH]5)c(-c5ccc(S(=O)(=O)[O-])cc5)c5nc(c(-c6ccc(S(=O)(=O)[O-])cc6)c6ccc3[nH]6)C=C5)C=C4)cc2)c2ccccc2n1C(=O)c1ccc(Cl)cc1
REMARK SMILES IDX 9 1 8 2 7 3 5 4 6 5 4 7 3 8 1 9 2 10 81 11 75 12 80 13 76 14
REMARK SMILES IDX 79 15 77 16 78 17 82 18 83 19 84 20 85 21 90 22 86 23 89 24
REMARK SMILES IDX 87 25 88 26 10 27 11 28 12 29 13 30 14 32 15 33 16 34 74 35
REMARK SMILES IDX 17 36 73 37 18 38 19 39 20 40 67 41 21 42 72 43 66 44 68 45
REMARK SMILES IDX 22 46 71 47 65 48 64 49 23 51 53 52 34 53 52 54 35 55 38 56
REMARK SMILES IDX 51 57 69 58 36 59 37 60 50 62 70 63 39 64 24 65 25 66 33 67
REMARK SMILES IDX 26 68 32 69 27 70 28 71 29 72 30 73 31 74 54 75 55 76 63 77
REMARK SMILES IDX 56 78 62 79 57 80 58 81 59 82 60 83 61 84 40 85 41 86 49 87
REMARK SMILES IDX 42 88 48 89 43 90 44 91 45 92 46 93 47 94
REMARK H PARENT 7 6 12 31 68 50 38 61
REMARK Flexibility Score: inf
ROOT
ATOM      1  C   UNL A   1      39.841  22.992  27.354  1.00  0.00     0.023 C 
ENDROOT
BRANCH   1   2
ATOM      2  C   UNL A   1      38.899  24.133  26.986  1.00  0.00     0.116 C 
BRANCH   2   3
ATOM      3  N   UNL A   1      38.371  23.999  25.644  1.00  0.00    -0.356 N 
ATOM      4  C   UNL A   1      37.121  23.606  25.260  1.00  0.00     0.224 C 
ATOM      5  O   UNL A   1      36.852  23.598  24.055  1.00  0.00    -0.275 OA
ATOM      6  H   UNL A   1      38.993  24.221  24.915  1.00  0.00     0.163 HD
BRANCH   4   7
ATOM      7  C   UNL A   1      36.072  23.262  26.306  1.00  0.00     0.138 C 
BRANCH   7   8
ATOM      8  C   UNL A   1      34.794  22.726  25.722  1.00  0.00    -0.010 A 
ATOM      9  C   UNL A   1      35.555  20.343  25.017  1.00  0.00     0.065 C 
ATOM     10  C   UNL A   1      34.583  21.475  25.151  1.00  0.00     0.028 A 
ATOM     11  N   UNL A   1      33.266  21.421  24.662  1.00  0.00    -0.280 N 
ATOM     12  C   UNL A   1      33.552  23.419  25.692  1.00  0.00     0.004 A 
ATOM     13  C   UNL A   1      32.603  22.575  25.106  1.00  0.00     0.056 A 
ATOM     14  C   UNL A   1      33.157  24.698  26.146  1.00  0.00     0.010 A 
ATOM     15  C   UNL A   1      31.250  22.975  25.052  1.00  0.00     0.027 A 
ATOM     16  C   UNL A   1      31.831  25.111  26.021  1.00  0.00     0.001 A 
ATOM     17  C   UNL A   1      30.888  24.252  25.490  1.00  0.00     0.002 A 
BRANCH  11  18
ATOM     18  C   UNL A   1      32.715  20.357  23.882  1.00  0.00     0.262 C 
ATOM     19  O   UNL A   1      32.238  20.613  22.784  1.00  0.00    -0.268 OA
BRANCH  18  20
ATOM     20  C   UNL A   1      32.727  18.931  24.261  1.00  0.00     0.040 A 
ATOM     21  C   UNL A   1      32.440  18.504  25.562  1.00  0.00     0.015 A 
ATOM     22  C   UNL A   1      33.086  18.011  23.268  1.00  0.00     0.015 A 
ATOM     23  C   UNL A   1      32.603  17.153  25.890  1.00  0.00     0.021 A 
ATOM     24  C   UNL A   1      33.240  16.666  23.600  1.00  0.00     0.021 A 
ATOM     25  C   UNL A   1      33.018  16.246  24.912  1.00  0.00     0.041 A 
ATOM     26  Cl  UNL A   1      33.288  14.597  25.319  1.00  0.00    -0.084 Cl
ENDBRANCH  18  20
ENDBRANCH  11  18
ENDBRANCH   7   8
ENDBRANCH   4   7
ENDBRANCH   2   3
ENDBRANCH   1   2
BRANCH   1  27
ATOM     27  C   UNL A   1      40.307  22.145  26.162  1.00  0.00     0.023 C 
BRANCH  27  28
ATOM     28  C   UNL A   1      41.747  21.632  26.265  1.00  0.00     0.116 C 
BRANCH  28  29
ATOM     29  N   UNL A   1      42.669  22.316  25.380  1.00  0.00    -0.352 N 
ATOM     30  C   UNL A   1      43.098  23.608  25.254  1.00  0.00     0.251 C 
ATOM     31  H   UNL A   1      43.080  21.713  24.720  1.00  0.00     0.163 HD
ATOM     32  O   UNL A   1      44.003  23.796  24.437  1.00  0.00    -0.269 OA
BRANCH  30  33
ATOM     33  C   UNL A   1      42.536  24.776  25.988  1.00  0.00     0.039 A 
ATOM     34  C   UNL A   1      41.708  25.753  25.437  1.00  0.00     0.014 A 
ATOM     35  C   UNL A   1      42.944  24.927  27.328  1.00  0.00     0.014 A 
ATOM     36  C   UNL A   1      41.363  26.884  26.166  1.00  0.00     0.010 A 
ATOM     37  C   UNL A   1      42.592  26.054  28.068  1.00  0.00     0.010 A 
ATOM     38  C   UNL A   1      41.840  27.057  27.466  1.00  0.00    -0.014 A 
BRANCH  38  39
ATOM     39  C   UNL A   1      41.523  28.326  28.115  1.00  0.00     0.031 A 
ATOM     40  C   UNL A   1      42.550  29.403  28.026  1.00  0.00     0.074 A 
ATOM     41  C   UNL A   1      40.358  28.556  28.748  1.00  0.00     0.049 A 
ATOM     42  N   UNL A   1      43.192  29.995  28.983  1.00  0.00    -0.248 NA
ATOM     43  C   UNL A   1      42.950  29.833  26.679  1.00  0.00     0.031 C 
ATOM     44  C   UNL A   1      39.121  27.773  28.697  1.00  0.00     0.029 A 
ATOM     45  N   UNL A   1      40.018  29.629  29.515  1.00  0.00    -0.354 N 
ATOM     46  C   UNL A   1      43.982  30.973  28.376  1.00  0.00     0.074 A 
ATOM     47  C   UNL A   1      43.859  30.767  26.954  1.00  0.00     0.031 C 
ATOM     48  C   UNL A   1      38.109  28.514  29.203  1.00  0.00     0.029 A 
ATOM     49  C   UNL A   1      38.660  29.736  29.761  1.00  0.00     0.049 A 
ATOM     50  H   UNL A   1      40.678  30.273  29.863  1.00  0.00     0.167 HD
ATOM     51  C   UNL A   1      44.598  31.974  29.066  1.00  0.00     0.031 A 
ATOM     52  C   UNL A   1      38.026  30.794  30.316  1.00  0.00     0.031 A 
ATOM     53  C   UNL A   1      44.678  31.705  30.473  1.00  0.00     0.049 A 
ATOM     54  C   UNL A   1      39.027  31.581  31.072  1.00  0.00     0.074 A 
ATOM     55  C   UNL A   1      45.350  30.788  31.253  1.00  0.00     0.029 A 
ATOM     56  N   UNL A   1      43.734  32.278  31.288  1.00  0.00    -0.354 N 
ATOM     57  N   UNL A   1      39.641  31.153  32.138  1.00  0.00    -0.248 NA
ATOM     58  C   UNL A   1      39.620  32.747  30.438  1.00  0.00     0.031 C 
ATOM     59  C   UNL A   1      44.488  30.535  32.358  1.00  0.00     0.029 A 
ATOM     60  C   UNL A   1      43.348  31.328  32.201  1.00  0.00     0.049 A 
ATOM     61  H   UNL A   1      43.395  33.200  31.228  1.00  0.00     0.167 HD
ATOM     62  C   UNL A   1      40.897  31.737  32.091  1.00  0.00     0.074 A 
ATOM     63  C   UNL A   1      40.780  32.798  31.097  1.00  0.00     0.031 C 
ATOM     64  C   UNL A   1      41.985  31.144  32.667  1.00  0.00     0.031 A 
BRANCH  51  65
ATOM     65  C   UNL A   1      44.927  33.328  28.485  1.00  0.00    -0.014 A 
ATOM     66  C   UNL A   1      43.936  34.202  27.995  1.00  0.00     0.010 A 
ATOM     67  C   UNL A   1      46.225  33.859  28.635  1.00  0.00     0.010 A 
ATOM     68  C   UNL A   1      44.218  35.523  27.642  1.00  0.00     0.020 A 
ATOM     69  C   UNL A   1      46.512  35.200  28.325  1.00  0.00     0.020 A 
ATOM     70  C   UNL A   1      45.503  36.021  27.824  1.00  0.00     0.054 A 
BRANCH  70  71
ATOM     71  S   UNL A   1      45.792  37.778  27.493  1.00  0.00     0.124 S 
ATOM     72  O   UNL A   1      44.430  38.306  27.460  1.00  0.00    -0.237 OA
ATOM     73  O   UNL A   1      46.596  38.185  28.643  1.00  0.00    -0.237 OA
ATOM     74  O   UNL A   1      46.495  37.777  26.214  1.00  0.00    -0.744 OA
ENDBRANCH  70  71
ENDBRANCH  51  65
BRANCH  52  75
ATOM     75  C   UNL A   1      36.752  31.381  29.834  1.00  0.00    -0.014 A 
ATOM     76  C   UNL A   1      36.677  31.891  28.521  1.00  0.00     0.010 A 
ATOM     77  C   UNL A   1      35.728  31.715  30.737  1.00  0.00     0.010 A 
ATOM     78  C   UNL A   1      35.651  32.756  28.137  1.00  0.00     0.020 A 
ATOM     79  C   UNL A   1      34.694  32.586  30.357  1.00  0.00     0.020 A 
ATOM     80  C   UNL A   1      34.683  33.127  29.069  1.00  0.00     0.054 A 
BRANCH  80  81
ATOM     81  S   UNL A   1      33.474  34.391  28.586  1.00  0.00     0.124 S 
ATOM     82  O   UNL A   1      32.863  34.731  29.867  1.00  0.00    -0.237 OA
ATOM     83  O   UNL A   1      34.321  35.428  28.000  1.00  0.00    -0.237 OA
ATOM     84  O   UNL A   1      32.604  33.694  27.642  1.00  0.00    -0.744 OA
ENDBRANCH  80  81
ENDBRANCH  52  75
BRANCH  64  85
ATOM     85  C   UNL A   1      41.767  29.999  33.637  1.00  0.00    -0.014 A 
ATOM     86  C   UNL A   1      41.807  30.286  35.015  1.00  0.00     0.010 A 
ATOM     87  C   UNL A   1      41.730  28.649  33.238  1.00  0.00     0.010 A 
ATOM     88  C   UNL A   1      41.852  29.260  35.965  1.00  0.00     0.020 A 
ATOM     89  C   UNL A   1      41.748  27.614  34.187  1.00  0.00     0.020 A 
ATOM     90  C   UNL A   1      41.838  27.929  35.545  1.00  0.00     0.054 A 
BRANCH  90  91
ATOM     91  S   UNL A   1      41.981  26.626  36.800  1.00  0.00     0.124 S 
ATOM     92  O   UNL A   1      40.692  26.711  37.484  1.00  0.00    -0.237 OA
ATOM     93  O   UNL A   1      42.181  25.422  35.997  1.00  0.00    -0.237 OA
ATOM     94  O   UNL A   1      43.133  27.030  37.605  1.00  0.00    -0.744 OA
ENDBRANCH  90  91
ENDBRANCH  64  85
ENDBRANCH  38  39
ENDBRANCH  30  33
ENDBRANCH  28  29
ENDBRANCH  27  28
ENDBRANCH   1  27
TORSDOF 17
ENDMDL
MODEL 3
REMARK VINA RESULT:     -12.4      2.250      3.549
REMARK SMILES Cc1c(CC(=O)NCCCCNC(=O)c2ccc(-c3c4nc(c(-c5ccc(S(=O)(=O)[O-])cc5)c5ccc([nH]5)c(-c5ccc(S(=O)(=O)[O-])cc5)c5nc(c(-c6ccc(S(=O)(=O)[O-])cc6)c6ccc3[nH]6)C=C5)C=C4)cc2)c2ccccc2n1C(=O)c1ccc(Cl)cc1
REMARK SMILES IDX 9 1 8 2 7 3 5 4 6 5 4 7 3 8 1 9 2 10 81 11 75 12 80 13 76 14
REMARK SMILES IDX 79 15 77 16 78 17 82 18 83 19 84 20 85 21 90 22 86 23 89 24
REMARK SMILES IDX 87 25 88 26 10 27 11 28 12 29 13 30 14 32 15 33 16 34 74 35
REMARK SMILES IDX 17 36 73 37 18 38 19 39 20 40 67 41 21 42 72 43 66 44 68 45
REMARK SMILES IDX 22 46 71 47 65 48 64 49 23 51 53 52 34 53 52 54 35 55 38 56
REMARK SMILES IDX 51 57 69 58 36 59 37 60 50 62 70 63 39 64 24 65 25 66 33 67
REMARK SMILES IDX 26 68 32 69 27 70 28 71 29 72 30 73 31 74 54 75 55 76 63 77
REMARK SMILES IDX 56 78 62 79 57 80 58 81 59 82 60 83 61 84 40 85 41 86 49 87
REMARK SMILES IDX 42 88 48 89 43 90 44 91 45 92 46 93 47 94
REMARK H PARENT 7 6 12 31 68 50 38 61
REMARK Flexibility Score: inf
ROOT
ATOM      1  C   UNL A   1      35.425  22.279  23.948  1.00  0.00     0.023 C 
ENDROOT
BRANCH   1   2
ATOM      2  C   UNL A   1      34.078  22.875  23.551  1.00  0.00     0.116 C 
BRANCH   2   3
ATOM      3  N   UNL A   1      34.219  23.997  22.646  1.00  0.00    -0.356 N 
ATOM      4  C   UNL A   1      33.335  25.010  22.406  1.00  0.00     0.224 C 
ATOM      5  O   UNL A   1      33.664  25.904  21.622  1.00  0.00    -0.275 OA
ATOM      6  H   UNL A   1      35.062  24.036  22.139  1.00  0.00     0.163 HD
BRANCH   4   7
ATOM      7  C   UNL A   1      32.010  25.061  23.153  1.00  0.00     0.138 C 
BRANCH   7   8
ATOM      8  C   UNL A   1      31.843  26.295  23.994  1.00  0.00    -0.010 A 
ATOM      9  C   UNL A   1      33.303  25.670  26.051  1.00  0.00     0.065 C 
ATOM     10  C   UNL A   1      32.387  26.544  25.250  1.00  0.00     0.028 A 
ATOM     11  N   UNL A   1      31.912  27.785  25.709  1.00  0.00    -0.280 N 
ATOM     12  C   UNL A   1      31.110  27.454  23.615  1.00  0.00     0.004 A 
ATOM     13  C   UNL A   1      31.224  28.392  24.647  1.00  0.00     0.056 A 
ATOM     14  C   UNL A   1      30.377  27.786  22.453  1.00  0.00     0.010 A 
ATOM     15  C   UNL A   1      30.680  29.684  24.480  1.00  0.00     0.027 A 
ATOM     16  C   UNL A   1      29.782  29.041  22.330  1.00  0.00     0.001 A 
ATOM     17  C   UNL A   1      29.943  29.982  23.330  1.00  0.00     0.002 A 
BRANCH  11  18
ATOM     18  C   UNL A   1      32.128  28.324  27.014  1.00  0.00     0.262 C 
ATOM     19  O   UNL A   1      31.519  27.847  27.962  1.00  0.00    -0.268 OA
BRANCH  18  20
ATOM     20  C   UNL A   1      33.093  29.391  27.344  1.00  0.00     0.040 A 
ATOM     21  C   UNL A   1      32.724  30.740  27.391  1.00  0.00     0.015 A 
ATOM     22  C   UNL A   1      34.420  29.004  27.566  1.00  0.00     0.015 A 
ATOM     23  C   UNL A   1      33.712  31.714  27.572  1.00  0.00     0.021 A 
ATOM     24  C   UNL A   1      35.399  29.978  27.752  1.00  0.00     0.021 A 
ATOM     25  C   UNL A   1      35.046  31.328  27.735  1.00  0.00     0.041 A 
ATOM     26  Cl  UNL A   1      36.279  32.518  27.890  1.00  0.00    -0.084 Cl
ENDBRANCH  18  20
ENDBRANCH  11  18
ENDBRANCH   7   8
ENDBRANCH   4   7
ENDBRANCH   2   3
ENDBRANCH   1   2
BRANCH   1  27
ATOM     27  C   UNL A   1      36.348  23.244  24.703  1.00  0.00     0.023 C 
BRANCH  27  28
ATOM     28  C   UNL A   1      36.732  22.790  26.114  1.00  0.00     0.116 C 
BRANCH  28  29
ATOM     29  N   UNL A   1      37.971  22.039  26.161  1.00  0.00    -0.352 N 
ATOM     30  C   UNL A   1      39.239  22.305  26.598  1.00  0.00     0.251 C 
ATOM     31  H   UNL A   1      37.878  21.129  25.796  1.00  0.00     0.163 HD
ATOM     32  O   UNL A   1      40.023  21.352  26.584  1.00  0.00    -0.269 OA
BRANCH  30  33
ATOM     33  C   UNL A   1      39.734  23.639  27.039  1.00  0.00     0.039 A 
ATOM     34  C   UNL A   1      40.759  23.855  27.959  1.00  0.00     0.014 A 
ATOM     35  C   UNL A   1      39.049  24.759  26.529  1.00  0.00     0.014 A 
ATOM     36  C   UNL A   1      41.041  25.135  28.419  1.00  0.00     0.010 A 
ATOM     37  C   UNL A   1      39.334  26.047  26.978  1.00  0.00     0.010 A 
ATOM     38  C   UNL A   1      40.300  26.227  27.963  1.00  0.00    -0.014 A 
BRANCH  38  39
ATOM     39  C   UNL A   1      40.587  27.516  28.584  1.00  0.00     0.031 A 
ATOM     40  C   UNL A   1      41.837  28.208  28.157  1.00  0.00     0.074 A 
ATOM     41  C   UNL A   1      39.770  28.096  29.484  1.00  0.00     0.049 A 
ATOM     42  N   UNL A   1      42.865  28.542  28.869  1.00  0.00    -0.248 NA
ATOM     43  C   UNL A   1      41.972  28.513  26.725  1.00  0.00     0.031 C 
ATOM     44  C   UNL A   1      38.384  27.754  29.812  1.00  0.00     0.029 A 
ATOM     45  N   UNL A   1      40.006  29.206  30.238  1.00  0.00    -0.354 N 
ATOM     46  C   UNL A   1      43.729  29.225  28.012  1.00  0.00     0.074 A 
ATOM     47  C   UNL A   1      43.169  29.100  26.688  1.00  0.00     0.031 C 
ATOM     48  C   UNL A   1      37.833  28.770  30.513  1.00  0.00     0.029 A 
ATOM     49  C   UNL A   1      38.870  29.738  30.823  1.00  0.00     0.049 A 
ATOM     50  H   UNL A   1      40.903  29.595  30.356  1.00  0.00     0.167 HD
ATOM     51  C   UNL A   1      44.791  29.961  28.446  1.00  0.00     0.031 A 
ATOM     52  C   UNL A   1      38.776  30.932  31.451  1.00  0.00     0.031 A 
ATOM     53  C   UNL A   1      45.159  29.652  29.798  1.00  0.00     0.049 A 
ATOM     54  C   UNL A   1      40.139  31.340  31.863  1.00  0.00     0.074 A 
ATOM     55  C   UNL A   1      45.692  28.551  30.435  1.00  0.00     0.029 A 
ATOM     56  N   UNL A   1      44.700  30.480  30.791  1.00  0.00    -0.354 N 
ATOM     57  N   UNL A   1      40.851  30.715  32.758  1.00  0.00    -0.248 NA
ATOM     58  C   UNL A   1      40.875  32.266  31.018  1.00  0.00     0.031 C 
ATOM     59  C   UNL A   1      45.126  28.566  31.742  1.00  0.00     0.029 A 
ATOM     60  C   UNL A   1      44.296  29.687  31.835  1.00  0.00     0.049 A 
ATOM     61  H   UNL A   1      44.666  31.464  30.759  1.00  0.00     0.167 HD
ATOM     62  C   UNL A   1      42.165  30.864  32.344  1.00  0.00     0.074 A 
ATOM     63  C   UNL A   1      42.124  31.927  31.345  1.00  0.00     0.031 C 
ATOM     64  C   UNL A   1      43.124  29.941  32.654  1.00  0.00     0.031 A 
BRANCH  51  65
ATOM     65  C   UNL A   1      45.360  31.148  27.709  1.00  0.00    -0.014 A 
ATOM     66  C   UNL A   1      44.670  32.372  27.600  1.00  0.00     0.010 A 
ATOM     67  C   UNL A   1      46.713  31.143  27.307  1.00  0.00     0.010 A 
ATOM     68  C   UNL A   1      45.274  33.524  27.091  1.00  0.00     0.020 A 
ATOM     69  C   UNL A   1      47.344  32.306  26.836  1.00  0.00     0.020 A 
ATOM     70  C   UNL A   1      46.615  33.489  26.726  1.00  0.00     0.054 A 
BRANCH  70  71
ATOM     71  S   UNL A   1      47.400  35.039  26.212  1.00  0.00     0.124 S 
ATOM     72  O   UNL A   1      48.071  34.641  24.977  1.00  0.00    -0.237 OA
ATOM     73  O   UNL A   1      46.255  35.929  26.046  1.00  0.00    -0.237 OA
ATOM     74  O   UNL A   1      48.283  35.365  27.328  1.00  0.00    -0.744 OA
ENDBRANCH  70  71
ENDBRANCH  51  65
BRANCH  52  75
ATOM     75  C   UNL A   1      37.673  31.908  31.281  1.00  0.00    -0.014 A 
ATOM     76  C   UNL A   1      37.948  33.289  31.376  1.00  0.00     0.010 A 
ATOM     77  C   UNL A   1      36.331  31.492  31.330  1.00  0.00     0.010 A 
ATOM     78  C   UNL A   1      36.926  34.219  31.580  1.00  0.00     0.020 A 
ATOM     79  C   UNL A   1      35.300  32.422  31.536  1.00  0.00     0.020 A 
ATOM     80  C   UNL A   1      35.610  33.776  31.694  1.00  0.00     0.054 A 
BRANCH  80  81
ATOM     81  S   UNL A   1      34.337  34.990  32.137  1.00  0.00     0.124 S 
ATOM     82  O   UNL A   1      33.386  34.173  32.885  1.00  0.00    -0.237 OA
ATOM     83  O   UNL A   1      35.091  35.960  32.930  1.00  0.00    -0.237 OA
ATOM     84  O   UNL A   1      33.862  35.481  30.845  1.00  0.00    -0.744 OA
ENDBRANCH  80  81
ENDBRANCH  52  75
BRANCH  64  85
ATOM     85  C   UNL A   1      42.826  28.908  33.723  1.00  0.00    -0.014 A 
ATOM     86  C   UNL A   1      43.326  29.137  35.019  1.00  0.00     0.010 A 
ATOM     87  C   UNL A   1      42.258  27.650  33.440  1.00  0.00     0.010 A 
ATOM     88  C   UNL A   1      43.299  28.132  35.991  1.00  0.00     0.020 A 
ATOM     89  C   UNL A   1      42.205  26.645  34.419  1.00  0.00     0.020 A 
ATOM     90  C   UNL A   1      42.753  26.886  35.681  1.00  0.00     0.054 A 
BRANCH  90  91
ATOM     91  S   UNL A   1      42.811  25.580  36.941  1.00  0.00     0.124 S 
ATOM     92  O   UNL A   1      43.231  26.316  38.132  1.00  0.00    -0.237 OA
ATOM     93  O   UNL A   1      41.435  25.091  36.964  1.00  0.00    -0.237 OA
ATOM     94  O   UNL A   1      43.796  24.630  36.426  1.00  0.00    -0.744 OA
ENDBRANCH  90  91
ENDBRANCH  64  85
ENDBRANCH  38  39
ENDBRANCH  30  33
ENDBRANCH  28  29
ENDBRANCH  27  28
ENDBRANCH   1  27
TORSDOF 17
ENDMDL
