MODEL 1
REMARK VINA RESULT:     -11.4      0.000      0.000
REMARK SMILES O=C(NCCCCNC(=O)c1cc(-c2cccc(Cl)c2)ccc1Cl)c1ccc(-c2c3nc(c(-c4ccc(S(=O)(=O)[O-])cc4)c4ccc([nH]4)c(-c4ccc(S(=O)(=O)[O-])cc4)c4nc(c(-c5ccc(S(=O)(=O)[O-])cc5)c5ccc2[nH]5)C=C4)C=C3)cc1
REMARK SMILES IDX 4 1 3 2 1 3 2 4 25 6 26 7 84 8 27 9 83 10 28 11 29 12 30 13
REMARK SMILES IDX 77 14 31 15 82 16 76 17 78 18 32 19 81 20 75 21 74 22 33 24
REMARK SMILES IDX 63 25 44 26 62 27 45 28 48 29 61 30 79 31 46 32 47 33 60 35
REMARK SMILES IDX 80 36 49 37 34 38 35 39 43 40 36 41 42 42 37 43 38 44 39 45
REMARK SMILES IDX 40 46 41 47 64 48 65 49 73 50 66 51 72 52 67 53 68 54 69 55
REMARK SMILES IDX 70 56 71 57 50 58 51 59 59 60 52 61 58 62 53 63 54 64 55 65
REMARK SMILES IDX 56 66 57 67 5 68 6 69 7 70 8 71 9 72 10 74 11 75 12 76 23 77
REMARK SMILES IDX 13 78 22 79 24 80 21 81 14 82 15 83 20 84 16 85 18 86 17 87
REMARK SMILES IDX 19 88
REMARK H PARENT 3 5 78 23 48 34 8 73
REMARK Flexibility Score: inf
ROOT
ATOM      1  C   UNL A   1      34.032  28.136  26.477  1.00  0.00     0.116 C 
ENDROOT
BRANCH   1   2
ATOM      2  N   UNL A   1      33.726  29.483  26.931  1.00  0.00    -0.352 N 
ATOM      3  O   UNL A   1      33.956  31.382  28.115  1.00  0.00    -0.269 OA
ATOM      4  C   UNL A   1      34.466  30.341  27.709  1.00  0.00     0.251 C 
ATOM      5  H   UNL A   1      32.855  29.834  26.637  1.00  0.00     0.163 HD
BRANCH   4   6
ATOM      6  C   UNL A   1      35.858  30.005  28.081  1.00  0.00     0.039 A 
ATOM      7  C   UNL A   1      36.909  30.158  27.173  1.00  0.00     0.014 A 
ATOM      8  C   UNL A   1      36.115  29.551  29.378  1.00  0.00     0.014 A 
ATOM      9  C   UNL A   1      38.192  29.740  27.517  1.00  0.00     0.010 A 
ATOM     10  C   UNL A   1      37.416  29.194  29.743  1.00  0.00     0.010 A 
ATOM     11  C   UNL A   1      38.459  29.256  28.806  1.00  0.00    -0.014 A 
BRANCH  11  12
ATOM     12  C   UNL A   1      39.833  28.848  29.190  1.00  0.00     0.031 A 
ATOM     13  C   UNL A   1      40.759  29.818  29.872  1.00  0.00     0.074 A 
ATOM     14  C   UNL A   1      40.262  27.607  28.890  1.00  0.00     0.049 A 
ATOM     15  N   UNL A   1      42.016  29.664  30.201  1.00  0.00    -0.248 NA
ATOM     16  C   UNL A   1      40.201  31.134  30.220  1.00  0.00     0.031 C 
ATOM     17  C   UNL A   1      39.458  26.574  28.233  1.00  0.00     0.029 A 
ATOM     18  N   UNL A   1      41.481  27.009  29.084  1.00  0.00    -0.354 N 
ATOM     19  C   UNL A   1      42.410  30.871  30.769  1.00  0.00     0.074 A 
ATOM     20  C   UNL A   1      41.262  31.751  30.722  1.00  0.00     0.031 C 
ATOM     21  C   UNL A   1      40.203  25.470  28.081  1.00  0.00     0.029 A 
ATOM     22  C   UNL A   1      41.551  25.734  28.576  1.00  0.00     0.049 A 
ATOM     23  H   UNL A   1      42.233  27.449  29.541  1.00  0.00     0.167 HD
ATOM     24  C   UNL A   1      43.618  31.214  31.277  1.00  0.00     0.031 A 
ATOM     25  C   UNL A   1      42.589  24.880  28.483  1.00  0.00     0.031 A 
ATOM     26  C   UNL A   1      44.759  30.336  31.311  1.00  0.00     0.049 A 
ATOM     27  C   UNL A   1      43.929  25.289  29.020  1.00  0.00     0.074 A 
ATOM     28  C   UNL A   1      46.017  30.579  31.836  1.00  0.00     0.029 A 
ATOM     29  N   UNL A   1      44.785  29.051  30.789  1.00  0.00    -0.354 N 
ATOM     30  N   UNL A   1      44.274  26.421  29.584  1.00  0.00    -0.248 NA
ATOM     31  C   UNL A   1      45.016  24.308  28.915  1.00  0.00     0.031 C 
ATOM     32  C   UNL A   1      46.818  29.459  31.586  1.00  0.00     0.029 A 
ATOM     33  C   UNL A   1      46.043  28.497  30.957  1.00  0.00     0.049 A 
ATOM     34  H   UNL A   1      44.022  28.599  30.363  1.00  0.00     0.167 HD
ATOM     35  C   UNL A   1      45.614  26.282  29.925  1.00  0.00     0.074 A 
ATOM     36  C   UNL A   1      46.016  24.954  29.505  1.00  0.00     0.031 C 
ATOM     37  C   UNL A   1      46.431  27.173  30.537  1.00  0.00     0.031 A 
BRANCH  24  38
ATOM     38  C   UNL A   1      43.776  32.620  31.795  1.00  0.00    -0.014 A 
ATOM     39  C   UNL A   1      43.511  32.943  33.138  1.00  0.00     0.010 A 
ATOM     40  C   UNL A   1      44.200  33.638  30.919  1.00  0.00     0.010 A 
ATOM     41  C   UNL A   1      43.603  34.267  33.580  1.00  0.00     0.020 A 
ATOM     42  C   UNL A   1      44.321  34.957  31.364  1.00  0.00     0.020 A 
ATOM     43  C   UNL A   1      43.994  35.267  32.686  1.00  0.00     0.054 A 
BRANCH  43  44
ATOM     44  S   UNL A   1      44.075  36.982  33.273  1.00  0.00     0.124 S 
ATOM     45  O   UNL A   1      45.324  36.979  34.032  1.00  0.00    -0.237 OA
ATOM     46  O   UNL A   1      44.100  37.749  32.030  1.00  0.00    -0.237 OA
ATOM     47  O   UNL A   1      42.861  37.133  34.072  1.00  0.00    -0.744 OA
ENDBRANCH  43  44
ENDBRANCH  24  38
BRANCH  25  48
ATOM     48  C   UNL A   1      42.375  23.560  27.833  1.00  0.00    -0.014 A 
ATOM     49  C   UNL A   1      42.677  23.375  26.474  1.00  0.00     0.010 A 
ATOM     50  C   UNL A   1      41.960  22.455  28.602  1.00  0.00     0.010 A 
ATOM     51  C   UNL A   1      42.580  22.105  25.897  1.00  0.00     0.020 A 
ATOM     52  C   UNL A   1      41.886  21.181  28.034  1.00  0.00     0.020 A 
ATOM     53  C   UNL A   1      42.196  21.015  26.683  1.00  0.00     0.054 A 
BRANCH  53  54
ATOM     54  S   UNL A   1      42.186  19.358  25.940  1.00  0.00     0.124 S 
ATOM     55  O   UNL A   1      42.763  18.546  27.005  1.00  0.00    -0.237 OA
ATOM     56  O   UNL A   1      40.766  19.141  25.675  1.00  0.00    -0.237 OA
ATOM     57  O   UNL A   1      43.017  19.514  24.748  1.00  0.00    -0.744 OA
ENDBRANCH  53  54
ENDBRANCH  25  48
BRANCH  37  58
ATOM     58  C   UNL A   1      47.841  26.739  30.834  1.00  0.00    -0.014 A 
ATOM     59  C   UNL A   1      48.880  26.958  29.914  1.00  0.00     0.010 A 
ATOM     60  C   UNL A   1      48.141  26.196  32.098  1.00  0.00     0.010 A 
ATOM     61  C   UNL A   1      50.198  26.636  30.251  1.00  0.00     0.020 A 
ATOM     62  C   UNL A   1      49.461  25.894  32.445  1.00  0.00     0.020 A 
ATOM     63  C   UNL A   1      50.480  26.113  31.518  1.00  0.00     0.054 A 
BRANCH  63  64
ATOM     64  S   UNL A   1      52.209  25.787  31.965  1.00  0.00     0.124 S 
ATOM     65  O   UNL A   1      52.349  26.540  33.207  1.00  0.00    -0.237 OA
ATOM     66  O   UNL A   1      52.236  24.333  32.104  1.00  0.00    -0.237 OA
ATOM     67  O   UNL A   1      52.965  26.311  30.829  1.00  0.00    -0.744 OA
ENDBRANCH  63  64
ENDBRANCH  37  58
ENDBRANCH  11  12
ENDBRANCH   4   6
ENDBRANCH   1   2
BRANCH   1  68
ATOM     68  C   UNL A   1      33.034  27.619  25.445  1.00  0.00     0.023 C 
BRANCH  68  69
ATOM     69  C   UNL A   1      33.331  27.987  23.990  1.00  0.00     0.023 C 
BRANCH  69  70
ATOM     70  C   UNL A   1      32.180  27.778  23.011  1.00  0.00     0.116 C 
BRANCH  70  71
ATOM     71  N   UNL A   1      32.558  27.003  21.841  1.00  0.00    -0.352 N 
ATOM     72  C   UNL A   1      32.904  25.677  21.766  1.00  0.00     0.252 C 
ATOM     73  H   UNL A   1      32.566  27.495  20.988  1.00  0.00     0.163 HD
ATOM     74  O   UNL A   1      33.228  25.171  20.695  1.00  0.00    -0.269 OA
BRANCH  72  75
ATOM     75  C   UNL A   1      32.967  24.861  22.991  1.00  0.00     0.059 A 
ATOM     76  C   UNL A   1      34.242  24.446  23.415  1.00  0.00     0.024 A 
ATOM     77  C   UNL A   1      31.827  24.456  23.691  1.00  0.00     0.053 A 
ATOM     78  C   UNL A   1      34.394  23.663  24.570  1.00  0.00    -0.017 A 
ATOM     79  C   UNL A   1      31.972  23.730  24.872  1.00  0.00     0.022 A 
ATOM     80  Cl  UNL A   1      30.221  24.760  23.136  1.00  0.00    -0.083 Cl
ATOM     81  C   UNL A   1      33.242  23.348  25.310  1.00  0.00     0.010 A 
BRANCH  78  82
ATOM     82  C   UNL A   1      35.703  23.130  24.974  1.00  0.00    -0.017 A 
ATOM     83  C   UNL A   1      36.634  23.968  25.617  1.00  0.00     0.009 A 
ATOM     84  C   UNL A   1      36.067  21.795  24.737  1.00  0.00     0.029 A 
ATOM     85  C   UNL A   1      37.891  23.498  26.002  1.00  0.00     0.002 A 
ATOM     86  C   UNL A   1      37.328  21.330  25.119  1.00  0.00     0.041 A 
ATOM     87  C   UNL A   1      38.241  22.175  25.749  1.00  0.00     0.020 A 
ATOM     88  Cl  UNL A   1      37.769  19.696  24.805  1.00  0.00    -0.084 Cl
ENDBRANCH  78  82
ENDBRANCH  72  75
ENDBRANCH  70  71
ENDBRANCH  69  70
ENDBRANCH  68  69
ENDBRANCH   1  68
TORSDOF 15
ENDMDL
MODEL 2
REMARK VINA RESULT:     -11.2      2.901      9.368
REMARK SMILES O=C(NCCCCNC(=O)c1cc(-c2cccc(Cl)c2)ccc1Cl)c1ccc(-c2c3nc(c(-c4ccc(S(=O)(=O)[O-])cc4)c4ccc([nH]4)c(-c4ccc(S(=O)(=O)[O-])cc4)c4nc(c(-c5ccc(S(=O)(=O)[O-])cc5)c5ccc2[nH]5)C=C4)C=C3)cc1
REMARK SMILES IDX 4 1 3 2 1 3 2 4 25 6 26 7 84 8 27 9 83 10 28 11 29 12 30 13
REMARK SMILES IDX 77 14 31 15 82 16 76 17 78 18 32 19 81 20 75 21 74 22 33 24
REMARK SMILES IDX 63 25 44 26 62 27 45 28 48 29 61 30 79 31 46 32 47 33 60 35
REMARK SMILES IDX 80 36 49 37 34 38 35 39 43 40 36 41 42 42 37 43 38 44 39 45
REMARK SMILES IDX 40 46 41 47 64 48 65 49 73 50 66 51 72 52 67 53 68 54 69 55
REMARK SMILES IDX 70 56 71 57 50 58 51 59 59 60 52 61 58 62 53 63 54 64 55 65
REMARK SMILES IDX 56 66 57 67 5 68 6 69 7 70 8 71 9 72 10 74 11 75 12 76 23 77
REMARK SMILES IDX 13 78 22 79 24 80 21 81 14 82 15 83 20 84 16 85 18 86 17 87
REMARK SMILES IDX 19 88
REMARK H PARENT 3 5 78 23 48 34 8 73
REMARK Flexibility Score: inf
ROOT
ATOM      1  C   UNL A   1      36.825  23.920  25.027  1.00  0.00     0.116 C 
ENDROOT
BRANCH   1   2
ATOM      2  N   UNL A   1      37.745  22.862  25.410  1.00  0.00    -0.352 N 
ATOM      3  O   UNL A   1      39.631  21.934  26.211  1.00  0.00    -0.269 OA
ATOM      4  C   UNL A   1      38.912  22.927  26.132  1.00  0.00     0.251 C 
ATOM      5  H   UNL A   1      37.495  21.961  25.103  1.00  0.00     0.163 HD
BRANCH   4   6
ATOM      6  C   UNL A   1      39.318  24.188  26.790  1.00  0.00     0.039 A 
ATOM      7  C   UNL A   1      40.092  25.140  26.121  1.00  0.00     0.014 A 
ATOM      8  C   UNL A   1      38.889  24.430  28.099  1.00  0.00     0.014 A 
ATOM      9  C   UNL A   1      40.543  26.271  26.798  1.00  0.00     0.010 A 
ATOM     10  C   UNL A   1      39.288  25.598  28.754  1.00  0.00     0.010 A 
ATOM     11  C   UNL A   1      40.144  26.513  28.120  1.00  0.00    -0.014 A 
BRANCH  11  12
ATOM     12  C   UNL A   1      40.587  27.737  28.832  1.00  0.00     0.031 A 
ATOM     13  C   UNL A   1      41.931  27.789  29.505  1.00  0.00     0.074 A 
ATOM     14  C   UNL A   1      39.757  28.796  28.904  1.00  0.00     0.049 A 
ATOM     15  N   UNL A   1      42.447  28.739  30.243  1.00  0.00    -0.248 NA
ATOM     16  C   UNL A   1      42.804  26.618  29.332  1.00  0.00     0.031 C 
ATOM     17  C   UNL A   1      38.430  28.868  28.291  1.00  0.00     0.029 A 
ATOM     18  N   UNL A   1      39.901  30.005  29.535  1.00  0.00    -0.354 N 
ATOM     19  C   UNL A   1      43.693  28.271  30.648  1.00  0.00     0.074 A 
ATOM     20  C   UNL A   1      43.845  26.945  30.086  1.00  0.00     0.031 C 
ATOM     21  C   UNL A   1      37.882  30.059  28.573  1.00  0.00     0.029 A 
ATOM     22  C   UNL A   1      38.792  30.810  29.432  1.00  0.00     0.049 A 
ATOM     23  H   UNL A   1      40.717  30.270  30.016  1.00  0.00     0.167 HD
ATOM     24  C   UNL A   1      44.619  28.888  31.419  1.00  0.00     0.031 A 
ATOM     25  C   UNL A   1      38.516  32.004  29.993  1.00  0.00     0.031 A 
ATOM     26  C   UNL A   1      44.456  30.203  31.981  1.00  0.00     0.049 A 
ATOM     27  C   UNL A   1      39.541  32.657  30.872  1.00  0.00     0.074 A 
ATOM     28  C   UNL A   1      45.352  30.929  32.748  1.00  0.00     0.029 A 
ATOM     29  N   UNL A   1      43.319  30.986  31.849  1.00  0.00    -0.354 N 
ATOM     30  N   UNL A   1      40.727  32.216  31.216  1.00  0.00    -0.248 NA
ATOM     31  C   UNL A   1      39.197  33.970  31.435  1.00  0.00     0.031 C 
ATOM     32  C   UNL A   1      44.736  32.128  33.122  1.00  0.00     0.029 A 
ATOM     33  C   UNL A   1      43.479  32.176  32.539  1.00  0.00     0.049 A 
ATOM     34  H   UNL A   1      42.516  30.733  31.339  1.00  0.00     0.167 HD
ATOM     35  C   UNL A   1      41.283  33.206  32.016  1.00  0.00     0.074 A 
ATOM     36  C   UNL A   1      40.304  34.271  32.104  1.00  0.00     0.031 C 
ATOM     37  C   UNL A   1      42.498  33.230  32.616  1.00  0.00     0.031 A 
BRANCH  24  38
ATOM     38  C   UNL A   1      45.876  28.120  31.737  1.00  0.00    -0.014 A 
ATOM     39  C   UNL A   1      47.008  28.187  30.905  1.00  0.00     0.010 A 
ATOM     40  C   UNL A   1      45.925  27.317  32.892  1.00  0.00     0.010 A 
ATOM     41  C   UNL A   1      48.140  27.415  31.186  1.00  0.00     0.020 A 
ATOM     42  C   UNL A   1      47.064  26.566  33.192  1.00  0.00     0.020 A 
ATOM     43  C   UNL A   1      48.155  26.599  32.321  1.00  0.00     0.054 A 
BRANCH  43  44
ATOM     44  S   UNL A   1      49.622  25.582  32.647  1.00  0.00     0.124 S 
ATOM     45  O   UNL A   1      49.968  25.118  31.306  1.00  0.00    -0.237 OA
ATOM     46  O   UNL A   1      50.554  26.539  33.238  1.00  0.00    -0.237 OA
ATOM     47  O   UNL A   1      49.132  24.549  33.557  1.00  0.00    -0.744 OA
ENDBRANCH  43  44
ENDBRANCH  24  38
BRANCH  25  48
ATOM     48  C   UNL A   1      37.193  32.630  29.733  1.00  0.00    -0.014 A 
ATOM     49  C   UNL A   1      36.123  32.434  30.620  1.00  0.00     0.010 A 
ATOM     50  C   UNL A   1      37.031  33.507  28.643  1.00  0.00     0.010 A 
ATOM     51  C   UNL A   1      34.917  33.114  30.431  1.00  0.00     0.020 A 
ATOM     52  C   UNL A   1      35.835  34.207  28.464  1.00  0.00     0.020 A 
ATOM     53  C   UNL A   1      34.784  34.004  29.360  1.00  0.00     0.054 A 
BRANCH  53  54
ATOM     54  S   UNL A   1      33.249  34.960  29.200  1.00  0.00     0.124 S 
ATOM     55  O   UNL A   1      33.742  36.246  28.721  1.00  0.00    -0.237 OA
ATOM     56  O   UNL A   1      32.487  34.172  28.233  1.00  0.00    -0.237 OA
ATOM     57  O   UNL A   1      32.704  34.961  30.556  1.00  0.00    -0.744 OA
ENDBRANCH  53  54
ENDBRANCH  25  48
BRANCH  37  58
ATOM     58  C   UNL A   1      42.869  34.463  33.395  1.00  0.00    -0.014 A 
ATOM     59  C   UNL A   1      42.694  34.527  34.788  1.00  0.00     0.010 A 
ATOM     60  C   UNL A   1      43.497  35.533  32.729  1.00  0.00     0.010 A 
ATOM     61  C   UNL A   1      43.136  35.644  35.502  1.00  0.00     0.020 A 
ATOM     62  C   UNL A   1      43.959  36.641  33.444  1.00  0.00     0.020 A 
ATOM     63  C   UNL A   1      43.773  36.691  34.826  1.00  0.00     0.054 A 
BRANCH  63  64
ATOM     64  S   UNL A   1      44.419  38.088  35.787  1.00  0.00     0.124 S 
ATOM     65  O   UNL A   1      45.852  37.815  35.797  1.00  0.00    -0.237 OA
ATOM     66  O   UNL A   1      44.004  39.243  34.993  1.00  0.00    -0.237 OA
ATOM     67  O   UNL A   1      43.750  37.958  37.081  1.00  0.00    -0.744 OA
ENDBRANCH  63  64
ENDBRANCH  37  58
ENDBRANCH  11  12
ENDBRANCH   4   6
ENDBRANCH   1   2
BRANCH   1  68
ATOM     68  C   UNL A   1      35.393  23.423  24.851  1.00  0.00     0.023 C 
BRANCH  68  69
ATOM     69  C   UNL A   1      34.758  22.775  26.083  1.00  0.00     0.023 C 
BRANCH  69  70
ATOM     70  C   UNL A   1      33.551  21.884  25.808  1.00  0.00     0.116 C 
BRANCH  70  71
ATOM     71  N   UNL A   1      32.404  22.201  26.643  1.00  0.00    -0.352 N 
ATOM     72  C   UNL A   1      31.622  23.329  26.633  1.00  0.00     0.252 C 
ATOM     73  H   UNL A   1      32.154  21.514  27.303  1.00  0.00     0.163 HD
ATOM     74  O   UNL A   1      30.696  23.460  27.428  1.00  0.00    -0.269 OA
BRANCH  72  75
ATOM     75  C   UNL A   1      31.937  24.437  25.713  1.00  0.00     0.059 A 
ATOM     76  C   UNL A   1      32.326  25.656  26.295  1.00  0.00     0.024 A 
ATOM     77  C   UNL A   1      31.811  24.328  24.326  1.00  0.00     0.053 A 
ATOM     78  C   UNL A   1      32.642  26.764  25.494  1.00  0.00    -0.017 A 
ATOM     79  C   UNL A   1      32.180  25.404  23.519  1.00  0.00     0.022 A 
ATOM     80  Cl  UNL A   1      31.160  22.934  23.543  1.00  0.00    -0.083 Cl
ATOM     81  C   UNL A   1      32.600  26.604  24.099  1.00  0.00     0.010 A 
BRANCH  78  82
ATOM     82  C   UNL A   1      32.949  28.077  26.080  1.00  0.00    -0.017 A 
ATOM     83  C   UNL A   1      34.159  28.271  26.774  1.00  0.00     0.009 A 
ATOM     84  C   UNL A   1      32.067  29.164  25.974  1.00  0.00     0.029 A 
ATOM     85  C   UNL A   1      34.477  29.499  27.354  1.00  0.00     0.002 A 
ATOM     86  C   UNL A   1      32.386  30.391  26.560  1.00  0.00     0.041 A 
ATOM     87  C   UNL A   1      33.585  30.563  27.249  1.00  0.00     0.020 A 
ATOM     88  Cl  UNL A   1      31.285  31.710  26.438  1.00  0.00    -0.084 Cl
ENDBRANCH  78  82
ENDBRANCH  72  75
ENDBRANCH  70  71
ENDBRANCH  69  70
ENDBRANCH  68  69
ENDBRANCH   1  68
TORSDOF 15
ENDMDL
MODEL 3
REMARK VINA RESULT:     -11.0      3.154      9.115
REMARK SMILES O=C(NCCCCNC(=O)c1cc(-c2cccc(Cl)c2)ccc1Cl)c1ccc(-c2c3nc(c(-c4ccc(S(=O)(=O)[O-])cc4)c4ccc([nH]4)c(-c4ccc(S(=O)(=O)[O-])cc4)c4nc(c(-c5ccc(S(=O)(=O)[O-])cc5)c5ccc2[nH]5)C=C4)C=C3)cc1
REMARK SMILES IDX 4 1 3 2 1 3 2 4 25 6 26 7 84 8 27 9 83 10 28 11 29 12 30 13
REMARK SMILES IDX 77 14 31 15 82 16 76 17 78 18 32 19 81 20 75 21 74 22 33 24
REMARK SMILES IDX 63 25 44 26 62 27 45 28 48 29 61 30 79 31 46 32 47 33 60 35
REMARK SMILES IDX 80 36 49 37 34 38 35 39 43 40 36 41 42 42 37 43 38 44 39 45
REMARK SMILES IDX 40 46 41 47 64 48 65 49 73 50 66 51 72 52 67 53 68 54 69 55
REMARK SMILES IDX 70 56 71 57 50 58 51 59 59 60 52 61 58 62 53 63 54 64 55 65
REMARK SMILES IDX 56 66 57 67 5 68 6 69 7 70 8 71 9 72 10 74 11 75 12 76 23 77
REMARK SMILES IDX 13 78 22 79 24 80 21 81 14 82 15 83 20 84 16 85 18 86 17 87
REMARK SMILES IDX 19 88
REMARK H PARENT 3 5 78 23 48 34 8 73
REMARK Flexibility Score: inf
ROOT
ATOM      1  C   UNL A   1      36.818  23.765  25.195  1.00  0.00     0.116 C 
ENDROOT
BRANCH   1   2
ATOM      2  N   UNL A   1      37.812  22.754  25.517  1.00  0.00    -0.352 N 
ATOM      3  O   UNL A   1      39.790  21.922  26.191  1.00  0.00    -0.269 OA
ATOM      4  C   UNL A   1      39.021  22.879  26.158  1.00  0.00     0.251 C 
ATOM      5  H   UNL A   1      37.584  21.840  25.232  1.00  0.00     0.163 HD
BRANCH   4   6
ATOM      6  C   UNL A   1      39.410  24.163  26.782  1.00  0.00     0.039 A 
ATOM      7  C   UNL A   1      40.175  25.105  26.089  1.00  0.00     0.014 A 
ATOM      8  C   UNL A   1      38.975  24.435  28.083  1.00  0.00     0.014 A 
ATOM      9  C   UNL A   1      40.610  26.260  26.735  1.00  0.00     0.010 A 
ATOM     10  C   UNL A   1      39.359  25.625  28.707  1.00  0.00     0.010 A 
ATOM     11  C   UNL A   1      40.205  26.532  28.050  1.00  0.00    -0.014 A 
BRANCH  11  12
ATOM     12  C   UNL A   1      40.633  27.781  28.729  1.00  0.00     0.031 A 
ATOM     13  C   UNL A   1      41.986  27.878  29.376  1.00  0.00     0.074 A 
ATOM     14  C   UNL A   1      39.780  28.821  28.795  1.00  0.00     0.049 A 
ATOM     15  N   UNL A   1      42.493  28.854  30.086  1.00  0.00    -0.248 NA
ATOM     16  C   UNL A   1      42.884  26.723  29.211  1.00  0.00     0.031 C 
ATOM     17  C   UNL A   1      38.440  28.851  28.204  1.00  0.00     0.029 A 
ATOM     18  N   UNL A   1      39.906  30.046  29.399  1.00  0.00    -0.354 N 
ATOM     19  C   UNL A   1      43.756  28.423  30.477  1.00  0.00     0.074 A 
ATOM     20  C   UNL A   1      43.930  27.089  29.940  1.00  0.00     0.031 C 
ATOM     21  C   UNL A   1      37.870  30.035  28.472  1.00  0.00     0.029 A 
ATOM     22  C   UNL A   1      38.777  30.824  29.300  1.00  0.00     0.049 A 
ATOM     23  H   UNL A   1      40.725  30.340  29.860  1.00  0.00     0.167 HD
ATOM     24  C   UNL A   1      44.682  29.077  31.219  1.00  0.00     0.031 A 
ATOM     25  C   UNL A   1      38.484  32.022  29.841  1.00  0.00     0.031 A 
ATOM     26  C   UNL A   1      44.498  30.399  31.758  1.00  0.00     0.049 A 
ATOM     27  C   UNL A   1      39.509  32.717  30.689  1.00  0.00     0.074 A 
ATOM     28  C   UNL A   1      45.390  31.161  32.494  1.00  0.00     0.029 A 
ATOM     29  N   UNL A   1      43.340  31.152  31.630  1.00  0.00    -0.354 N 
ATOM     30  N   UNL A   1      40.710  32.309  31.020  1.00  0.00    -0.248 NA
ATOM     31  C   UNL A   1      39.144  34.032  31.231  1.00  0.00     0.031 C 
ATOM     32  C   UNL A   1      44.753  32.353  32.854  1.00  0.00     0.029 A 
ATOM     33  C   UNL A   1      43.485  32.359  32.294  1.00  0.00     0.049 A 
ATOM     34  H   UNL A   1      42.535  30.871  31.140  1.00  0.00     0.167 HD
ATOM     35  C   UNL A   1      41.257  33.329  31.790  1.00  0.00     0.074 A 
ATOM     36  C   UNL A   1      40.255  34.373  31.874  1.00  0.00     0.031 C 
ATOM     37  C   UNL A   1      42.481  33.392  32.367  1.00  0.00     0.031 A 
BRANCH  24  38
ATOM     38  C   UNL A   1      45.962  28.344  31.530  1.00  0.00    -0.014 A 
ATOM     39  C   UNL A   1      46.050  27.444  32.607  1.00  0.00     0.010 A 
ATOM     40  C   UNL A   1      47.096  28.558  30.724  1.00  0.00     0.010 A 
ATOM     41  C   UNL A   1      47.265  26.824  32.914  1.00  0.00     0.020 A 
ATOM     42  C   UNL A   1      48.306  27.919  31.011  1.00  0.00     0.020 A 
ATOM     43  C   UNL A   1      48.389  27.077  32.121  1.00  0.00     0.054 A 
BRANCH  43  44
ATOM     44  S   UNL A   1      49.962  26.286  32.559  1.00  0.00     0.124 S 
ATOM     45  O   UNL A   1      49.569  24.884  32.676  1.00  0.00    -0.237 OA
ATOM     46  O   UNL A   1      50.812  26.604  31.414  1.00  0.00    -0.237 OA
ATOM     47  O   UNL A   1      50.340  26.935  33.812  1.00  0.00    -0.744 OA
ENDBRANCH  43  44
ENDBRANCH  24  38
BRANCH  25  48
ATOM     48  C   UNL A   1      37.142  32.612  29.592  1.00  0.00    -0.014 A 
ATOM     49  C   UNL A   1      36.137  32.539  30.570  1.00  0.00     0.010 A 
ATOM     50  C   UNL A   1      36.900  33.337  28.409  1.00  0.00     0.010 A 
ATOM     51  C   UNL A   1      34.916  33.192  30.376  1.00  0.00     0.020 A 
ATOM     52  C   UNL A   1      35.690  34.010  28.222  1.00  0.00     0.020 A 
ATOM     53  C   UNL A   1      34.705  33.932  29.208  1.00  0.00     0.054 A 
BRANCH  53  54
ATOM     54  S   UNL A   1      33.156  34.863  29.029  1.00  0.00     0.124 S 
ATOM     55  O   UNL A   1      33.634  36.156  28.551  1.00  0.00    -0.237 OA
ATOM     56  O   UNL A   1      32.418  34.061  28.057  1.00  0.00    -0.237 OA
ATOM     57  O   UNL A   1      32.598  34.860  30.379  1.00  0.00    -0.744 OA
ENDBRANCH  53  54
ENDBRANCH  25  48
BRANCH  37  58
ATOM     58  C   UNL A   1      42.837  34.649  33.114  1.00  0.00    -0.014 A 
ATOM     59  C   UNL A   1      42.656  34.748  34.504  1.00  0.00     0.010 A 
ATOM     60  C   UNL A   1      43.457  35.708  32.423  1.00  0.00     0.010 A 
ATOM     61  C   UNL A   1      43.085  35.888  35.191  1.00  0.00     0.020 A 
ATOM     62  C   UNL A   1      43.906  36.838  33.110  1.00  0.00     0.020 A 
ATOM     63  C   UNL A   1      43.714  36.923  34.489  1.00  0.00     0.054 A 
BRANCH  63  64
ATOM     64  S   UNL A   1      44.342  38.352  35.415  1.00  0.00     0.124 S 
ATOM     65  O   UNL A   1      43.792  39.471  34.657  1.00  0.00    -0.237 OA
ATOM     66  O   UNL A   1      43.769  38.151  36.744  1.00  0.00    -0.237 OA
ATOM     67  O   UNL A   1      45.794  38.201  35.341  1.00  0.00    -0.744 OA
ENDBRANCH  63  64
ENDBRANCH  37  58
ENDBRANCH  11  12
ENDBRANCH   4   6
ENDBRANCH   1   2
BRANCH   1  68
ATOM     68  C   UNL A   1      35.400  23.204  25.142  1.00  0.00     0.023 C 
BRANCH  68  69
ATOM     69  C   UNL A   1      34.506  23.542  26.337  1.00  0.00     0.023 C 
BRANCH  69  70
ATOM     70  C   UNL A   1      33.387  24.541  26.059  1.00  0.00     0.116 C 
BRANCH  70  71
ATOM     71  N   UNL A   1      32.108  24.136  26.618  1.00  0.00    -0.352 N 
ATOM     72  C   UNL A   1      31.290  23.105  26.230  1.00  0.00     0.252 C 
ATOM     73  H   UNL A   1      31.786  24.674  27.378  1.00  0.00     0.163 HD
ATOM     74  O   UNL A   1      30.216  22.907  26.792  1.00  0.00    -0.269 OA
BRANCH  72  75
ATOM     75  C   UNL A   1      31.657  22.266  25.075  1.00  0.00     0.059 A 
ATOM     76  C   UNL A   1      32.160  20.983  25.355  1.00  0.00     0.024 A 
ATOM     77  C   UNL A   1      31.574  22.717  23.755  1.00  0.00     0.053 A 
ATOM     78  C   UNL A   1      32.537  20.119  24.316  1.00  0.00    -0.017 A 
ATOM     79  C   UNL A   1      31.889  21.844  22.714  1.00  0.00     0.022 A 
ATOM     80  Cl  UNL A   1      31.149  24.336  23.335  1.00  0.00    -0.083 Cl
ATOM     81  C   UNL A   1      32.355  20.557  22.993  1.00  0.00     0.010 A 
BRANCH  78  82
ATOM     82  C   UNL A   1      33.163  18.816  24.585  1.00  0.00    -0.017 A 
ATOM     83  C   UNL A   1      34.553  18.659  24.427  1.00  0.00     0.009 A 
ATOM     84  C   UNL A   1      32.414  17.703  25.000  1.00  0.00     0.029 A 
ATOM     85  C   UNL A   1      35.178  17.433  24.661  1.00  0.00     0.002 A 
ATOM     86  C   UNL A   1      33.042  16.476  25.228  1.00  0.00     0.041 A 
ATOM     87  C   UNL A   1      34.419  16.336  25.060  1.00  0.00     0.020 A 
ATOM     88  Cl  UNL A   1      32.109  15.115  25.717  1.00  0.00    -0.084 Cl
ENDBRANCH  78  82
ENDBRANCH  72  75
ENDBRANCH  70  71
ENDBRANCH  69  70
ENDBRANCH  68  69
ENDBRANCH   1  68
TORSDOF 15
ENDMDL
