MODEL 1
REMARK VINA RESULT:     -12.7      0.000      0.000
REMARK SMILES Cc1ccccc1CCNS(=O)(=O)c1ccc(C(=O)NCCCCNC(=O)c2ccc(-c3c4nc(c(-c5ccc(S(=O)(=O)[O-])cc5)c5ccc([nH]5)c(-c5ccc(S(=O)(=O)[O-])cc5)c5nc(c(-c6ccc(S(=O)(=O)[O-])cc6)c6ccc3[nH]6)C=C5)C=C4)cc2)o1
REMARK SMILES IDX 21 1 20 2 18 3 19 4 17 6 14 7 15 8 88 9 16 10 11 11 12 12
REMARK SMILES IDX 13 13 10 14 9 16 8 17 7 18 1 19 2 20 3 21 4 22 6 23 5 24
REMARK SMILES IDX 22 25 23 26 24 27 25 28 26 29 27 31 28 32 29 33 87 34 30 35
REMARK SMILES IDX 86 36 31 37 32 38 33 39 80 40 34 41 85 42 79 43 81 44 35 45
REMARK SMILES IDX 84 46 78 47 77 48 36 50 66 51 47 52 65 53 48 54 51 55 64 56
REMARK SMILES IDX 82 57 49 58 50 59 63 61 83 62 52 63 37 64 38 65 46 66 39 67
REMARK SMILES IDX 45 68 40 69 41 70 42 71 43 72 44 73 67 74 68 75 76 76 69 77
REMARK SMILES IDX 75 78 70 79 71 80 72 81 73 82 74 83 53 84 54 85 62 86 55 87
REMARK SMILES IDX 61 88 56 89 57 90 58 91 59 92 60 93
REMARK H PARENT 20 5 10 15 25 30 81 49 51 60
REMARK Flexibility Score: inf
ROOT
ATOM      1  C   UNL A   1      36.379  22.835  25.843  1.00  0.00     0.116 C 
ENDROOT
BRANCH   1   2
ATOM      2  N   UNL A   1      35.400  22.074  26.605  1.00  0.00    -0.349 N 
ATOM      3  C   UNL A   1      34.170  21.558  26.276  1.00  0.00     0.287 C 
ATOM      4  O   UNL A   1      33.610  20.903  27.161  1.00  0.00    -0.266 OA
ATOM      5  H   UNL A   1      35.671  21.894  27.534  1.00  0.00     0.163 HD
BRANCH   3   6
ATOM      6  C   UNL A   1      33.566  21.763  24.971  1.00  0.00     0.193 A 
ATOM      7  C   UNL A   1      32.965  23.099  23.268  1.00  0.00     0.234 A 
ATOM      8  C   UNL A   1      32.582  21.805  22.946  1.00  0.00     0.065 A 
ATOM      9  O   UNL A   1      33.577  23.054  24.499  1.00  0.00    -0.438 OA
ATOM     10  C   UNL A   1      32.979  20.960  24.013  1.00  0.00     0.058 A 
BRANCH   7  11
ATOM     11  S   UNL A   1      32.803  24.630  22.362  1.00  0.00     0.273 S 
ATOM     12  O   UNL A   1      33.184  24.348  20.990  1.00  0.00    -0.204 OA
ATOM     13  O   UNL A   1      33.489  25.626  23.146  1.00  0.00    -0.204 OA
BRANCH  11  14
ATOM     14  N   UNL A   1      31.173  25.079  22.354  1.00  0.00    -0.208 NA
ATOM     15  H   UNL A   1      31.126  26.061  22.082  1.00  0.00     0.141 HD
BRANCH  14  16
ATOM     16  C   UNL A   1      30.422  24.933  23.626  1.00  0.00     0.104 C 
BRANCH  16  17
ATOM     17  C   UNL A   1      29.712  26.257  23.970  1.00  0.00     0.052 C 
BRANCH  17  18
ATOM     18  C   UNL A   1      30.566  27.186  24.817  1.00  0.00    -0.044 A 
ATOM     19  C   UNL A   1      30.417  29.176  23.190  1.00  0.00     0.044 C 
ATOM     20  C   UNL A   1      30.937  28.486  24.421  1.00  0.00    -0.048 A 
ATOM     21  C   UNL A   1      31.814  29.224  25.241  1.00  0.00     0.004 A 
ATOM     22  C   UNL A   1      32.323  28.690  26.424  1.00  0.00     0.000 A 
ATOM     23  C   UNL A   1      31.056  26.682  26.040  1.00  0.00     0.004 A 
ATOM     24  C   UNL A   1      31.938  27.419  26.828  1.00  0.00     0.000 A 
ENDBRANCH  17  18
ENDBRANCH  16  17
ENDBRANCH  14  16
ENDBRANCH  11  14
ENDBRANCH   7  11
ENDBRANCH   3   6
ENDBRANCH   1   2
BRANCH   1  25
ATOM     25  C   UNL A   1      37.469  21.937  25.244  1.00  0.00     0.023 C 
BRANCH  25  26
ATOM     26  C   UNL A   1      38.802  21.963  26.003  1.00  0.00     0.023 C 
BRANCH  26  27
ATOM     27  C   UNL A   1      39.134  23.317  26.624  1.00  0.00     0.116 C 
BRANCH  27  28
ATOM     28  N   UNL A   1      40.558  23.620  26.727  1.00  0.00    -0.352 N 
ATOM     29  C   UNL A   1      41.160  24.865  26.840  1.00  0.00     0.251 C 
ATOM     30  H   UNL A   1      41.166  22.846  26.717  1.00  0.00     0.163 HD
ATOM     31  O   UNL A   1      42.365  25.049  26.716  1.00  0.00    -0.269 OA
BRANCH  29  32
ATOM     32  C   UNL A   1      40.311  25.981  27.308  1.00  0.00     0.039 A 
ATOM     33  C   UNL A   1      40.406  27.176  26.583  1.00  0.00     0.014 A 
ATOM     34  C   UNL A   1      39.798  25.955  28.600  1.00  0.00     0.014 A 
ATOM     35  C   UNL A   1      40.247  28.378  27.253  1.00  0.00     0.010 A 
ATOM     36  C   UNL A   1      39.767  27.141  29.296  1.00  0.00     0.010 A 
ATOM     37  C   UNL A   1      40.059  28.337  28.634  1.00  0.00    -0.014 A 
BRANCH  37  38
ATOM     38  C   UNL A   1      40.204  29.509  29.475  1.00  0.00     0.031 A 
ATOM     39  C   UNL A   1      39.128  30.514  29.430  1.00  0.00     0.074 A 
ATOM     40  C   UNL A   1      41.297  29.655  30.258  1.00  0.00     0.049 A 
ATOM     41  N   UNL A   1      39.311  31.781  29.563  1.00  0.00    -0.248 NA
ATOM     42  C   UNL A   1      37.738  30.154  29.152  1.00  0.00     0.031 C 
ATOM     43  C   UNL A   1      41.541  30.711  31.235  1.00  0.00     0.029 A 
ATOM     44  N   UNL A   1      42.529  28.995  30.161  1.00  0.00    -0.354 N 
ATOM     45  C   UNL A   1      38.064  32.348  29.704  1.00  0.00     0.074 A 
ATOM     46  C   UNL A   1      37.121  31.324  29.331  1.00  0.00     0.031 C 
ATOM     47  C   UNL A   1      42.870  30.845  31.389  1.00  0.00     0.029 A 
ATOM     48  C   UNL A   1      43.507  29.967  30.418  1.00  0.00     0.049 A 
ATOM     49  H   UNL A   1      42.678  28.044  29.954  1.00  0.00     0.167 HD
ATOM     50  C   UNL A   1      37.941  33.563  30.303  1.00  0.00     0.031 A 
ATOM     51  C   UNL A   1      44.427  30.362  29.493  1.00  0.00     0.031 A 
ATOM     52  C   UNL A   1      39.247  34.106  30.659  1.00  0.00     0.049 A 
ATOM     53  C   UNL A   1      44.309  31.840  29.160  1.00  0.00     0.074 A 
ATOM     54  C   UNL A   1      39.971  34.097  31.838  1.00  0.00     0.029 A 
ATOM     55  N   UNL A   1      40.146  34.418  29.646  1.00  0.00    -0.354 N 
ATOM     56  N   UNL A   1      43.242  32.557  29.401  1.00  0.00    -0.248 NA
ATOM     57  C   UNL A   1      45.376  32.631  28.555  1.00  0.00     0.031 C 
ATOM     58  C   UNL A   1      41.336  34.320  31.517  1.00  0.00     0.029 A 
ATOM     59  C   UNL A   1      41.432  34.500  30.147  1.00  0.00     0.049 A 
ATOM     60  H   UNL A   1      39.902  34.560  28.703  1.00  0.00     0.167 HD
ATOM     61  C   UNL A   1      43.471  33.869  29.060  1.00  0.00     0.074 A 
ATOM     62  C   UNL A   1      44.821  33.858  28.522  1.00  0.00     0.031 C 
ATOM     63  C   UNL A   1      42.543  34.853  29.269  1.00  0.00     0.031 A 
BRANCH  50  64
ATOM     64  C   UNL A   1      36.623  34.034  30.866  1.00  0.00    -0.014 A 
ATOM     65  C   UNL A   1      35.506  34.147  30.016  1.00  0.00     0.010 A 
ATOM     66  C   UNL A   1      36.442  34.441  32.204  1.00  0.00     0.010 A 
ATOM     67  C   UNL A   1      34.302  34.718  30.447  1.00  0.00     0.020 A 
ATOM     68  C   UNL A   1      35.254  35.051  32.639  1.00  0.00     0.020 A 
ATOM     69  C   UNL A   1      34.190  35.189  31.751  1.00  0.00     0.054 A 
BRANCH  69  70
ATOM     70  S   UNL A   1      32.639  35.973  32.269  1.00  0.00     0.124 S 
ATOM     71  O   UNL A   1      32.183  36.614  31.038  1.00  0.00    -0.237 OA
ATOM     72  O   UNL A   1      31.847  34.831  32.714  1.00  0.00    -0.237 OA
ATOM     73  O   UNL A   1      33.051  36.894  33.325  1.00  0.00    -0.744 OA
ENDBRANCH  69  70
ENDBRANCH  50  64
BRANCH  51  74
ATOM     74  C   UNL A   1      44.927  29.278  28.599  1.00  0.00    -0.014 A 
ATOM     75  C   UNL A   1      44.316  29.161  27.331  1.00  0.00     0.010 A 
ATOM     76  C   UNL A   1      46.177  28.663  28.793  1.00  0.00     0.010 A 
ATOM     77  C   UNL A   1      44.991  28.580  26.251  1.00  0.00     0.020 A 
ATOM     78  C   UNL A   1      46.859  28.079  27.708  1.00  0.00     0.020 A 
ATOM     79  C   UNL A   1      46.285  28.100  26.432  1.00  0.00     0.054 A 
BRANCH  79  80
ATOM     80  S   UNL A   1      47.231  27.584  24.965  1.00  0.00     0.124 S 
ATOM     81  O   UNL A   1      46.445  28.139  23.866  1.00  0.00    -0.237 OA
ATOM     82  O   UNL A   1      48.523  28.234  25.191  1.00  0.00    -0.237 OA
ATOM     83  O   UNL A   1      47.230  26.129  25.060  1.00  0.00    -0.744 OA
ENDBRANCH  79  80
ENDBRANCH  51  74
BRANCH  63  84
ATOM     84  C   UNL A   1      42.579  36.284  28.760  1.00  0.00    -0.014 A 
ATOM     85  C   UNL A   1      43.118  37.372  29.458  1.00  0.00     0.010 A 
ATOM     86  C   UNL A   1      42.153  36.540  27.429  1.00  0.00     0.010 A 
ATOM     87  C   UNL A   1      43.198  38.648  28.873  1.00  0.00     0.020 A 
ATOM     88  C   UNL A   1      42.276  37.790  26.818  1.00  0.00     0.020 A 
ATOM     89  C   UNL A   1      42.782  38.848  27.556  1.00  0.00     0.054 A 
BRANCH  89  90
ATOM     90  S   UNL A   1      42.974  40.475  26.789  1.00  0.00     0.124 S 
ATOM     91  O   UNL A   1      41.593  40.815  26.457  1.00  0.00    -0.237 OA
ATOM     92  O   UNL A   1      43.576  41.267  27.858  1.00  0.00    -0.237 OA
ATOM     93  O   UNL A   1      43.849  40.217  25.648  1.00  0.00    -0.744 OA
ENDBRANCH  89  90
ENDBRANCH  63  84
ENDBRANCH  37  38
ENDBRANCH  29  32
ENDBRANCH  27  28
ENDBRANCH  26  27
ENDBRANCH  25  26
ENDBRANCH   1  25
TORSDOF 19
ENDMDL
MODEL 2
REMARK VINA RESULT:     -12.5      4.650     11.216
REMARK SMILES Cc1ccccc1CCNS(=O)(=O)c1ccc(C(=O)NCCCCNC(=O)c2ccc(-c3c4nc(c(-c5ccc(S(=O)(=O)[O-])cc5)c5ccc([nH]5)c(-c5ccc(S(=O)(=O)[O-])cc5)c5nc(c(-c6ccc(S(=O)(=O)[O-])cc6)c6ccc3[nH]6)C=C5)C=C4)cc2)o1
REMARK SMILES IDX 21 1 20 2 18 3 19 4 17 6 14 7 15 8 88 9 16 10 11 11 12 12
REMARK SMILES IDX 13 13 10 14 9 16 8 17 7 18 1 19 2 20 3 21 4 22 6 23 5 24
REMARK SMILES IDX 22 25 23 26 24 27 25 28 26 29 27 31 28 32 29 33 87 34 30 35
REMARK SMILES IDX 86 36 31 37 32 38 33 39 80 40 34 41 85 42 79 43 81 44 35 45
REMARK SMILES IDX 84 46 78 47 77 48 36 50 66 51 47 52 65 53 48 54 51 55 64 56
REMARK SMILES IDX 82 57 49 58 50 59 63 61 83 62 52 63 37 64 38 65 46 66 39 67
REMARK SMILES IDX 45 68 40 69 41 70 42 71 43 72 44 73 67 74 68 75 76 76 69 77
REMARK SMILES IDX 75 78 70 79 71 80 72 81 73 82 74 83 53 84 54 85 62 86 55 87
REMARK SMILES IDX 61 88 56 89 57 90 58 91 59 92 60 93
REMARK H PARENT 20 5 10 15 25 30 81 49 51 60
REMARK Flexibility Score: inf
ROOT
ATOM      1  C   UNL A   1      33.141  29.138  24.814  1.00  0.00     0.116 C 
ENDROOT
BRANCH   1   2
ATOM      2  N   UNL A   1      32.558  28.321  23.762  1.00  0.00    -0.349 N 
ATOM      3  C   UNL A   1      32.423  26.962  23.613  1.00  0.00     0.287 C 
ATOM      4  O   UNL A   1      31.817  26.591  22.602  1.00  0.00    -0.266 OA
ATOM      5  H   UNL A   1      32.189  28.841  23.012  1.00  0.00     0.163 HD
BRANCH   3   6
ATOM      6  C   UNL A   1      32.953  26.019  24.582  1.00  0.00     0.193 A 
ATOM      7  C   UNL A   1      32.684  24.314  26.019  1.00  0.00     0.234 A 
ATOM      8  C   UNL A   1      34.022  24.675  26.038  1.00  0.00     0.065 A 
ATOM      9  O   UNL A   1      32.048  25.131  25.114  1.00  0.00    -0.438 OA
ATOM     10  C   UNL A   1      34.195  25.739  25.118  1.00  0.00     0.058 A 
BRANCH   7  11
ATOM     11  S   UNL A   1      31.800  23.036  26.903  1.00  0.00     0.273 S 
ATOM     12  O   UNL A   1      30.647  23.671  27.515  1.00  0.00    -0.204 OA
ATOM     13  O   UNL A   1      32.790  22.347  27.692  1.00  0.00    -0.204 OA
BRANCH  11  14
ATOM     14  N   UNL A   1      31.224  21.910  25.782  1.00  0.00    -0.208 NA
ATOM     15  H   UNL A   1      30.393  21.475  26.184  1.00  0.00     0.141 HD
BRANCH  14  16
ATOM     16  C   UNL A   1      32.147  20.818  25.380  1.00  0.00     0.104 C 
BRANCH  16  17
ATOM     17  C   UNL A   1      32.703  21.095  23.970  1.00  0.00     0.052 C 
BRANCH  17  18
ATOM     18  C   UNL A   1      34.089  21.720  23.993  1.00  0.00    -0.044 A 
ATOM     19  C   UNL A   1      33.643  23.329  22.032  1.00  0.00     0.044 C 
ATOM     20  C   UNL A   1      34.528  22.684  23.064  1.00  0.00    -0.048 A 
ATOM     21  C   UNL A   1      35.866  23.123  23.118  1.00  0.00     0.004 A 
ATOM     22  C   UNL A   1      36.758  22.616  24.062  1.00  0.00     0.000 A 
ATOM     23  C   UNL A   1      34.996  21.255  24.968  1.00  0.00     0.004 A 
ATOM     24  C   UNL A   1      36.320  21.685  24.993  1.00  0.00     0.000 A 
ENDBRANCH  17  18
ENDBRANCH  16  17
ENDBRANCH  14  16
ENDBRANCH  11  14
ENDBRANCH   7  11
ENDBRANCH   3   6
ENDBRANCH   1   2
BRANCH   1  25
ATOM     25  C   UNL A   1      32.092  29.603  25.832  1.00  0.00     0.023 C 
BRANCH  25  26
ATOM     26  C   UNL A   1      32.663  30.383  27.023  1.00  0.00     0.023 C 
BRANCH  26  27
ATOM     27  C   UNL A   1      34.134  30.091  27.306  1.00  0.00     0.116 C 
BRANCH  27  28
ATOM     28  N   UNL A   1      34.834  31.116  28.075  1.00  0.00    -0.352 N 
ATOM     29  C   UNL A   1      35.961  30.966  28.870  1.00  0.00     0.251 C 
ATOM     30  H   UNL A   1      34.461  32.025  28.022  1.00  0.00     0.163 HD
ATOM     31  O   UNL A   1      36.365  31.827  29.642  1.00  0.00    -0.269 OA
BRANCH  29  32
ATOM     32  C   UNL A   1      36.799  29.773  28.627  1.00  0.00     0.039 A 
ATOM     33  C   UNL A   1      37.050  28.957  29.739  1.00  0.00     0.014 A 
ATOM     34  C   UNL A   1      37.601  29.719  27.493  1.00  0.00     0.014 A 
ATOM     35  C   UNL A   1      38.264  28.293  29.820  1.00  0.00     0.010 A 
ATOM     36  C   UNL A   1      38.854  29.169  27.624  1.00  0.00     0.010 A 
ATOM     37  C   UNL A   1      39.201  28.520  28.813  1.00  0.00    -0.014 A 
BRANCH  37  38
ATOM     38  C   UNL A   1      40.596  28.148  28.950  1.00  0.00     0.031 A 
ATOM     39  C   UNL A   1      40.971  26.771  28.589  1.00  0.00     0.074 A 
ATOM     40  C   UNL A   1      41.498  29.049  29.400  1.00  0.00     0.049 A 
ATOM     41  N   UNL A   1      41.898  26.093  29.171  1.00  0.00    -0.248 NA
ATOM     42  C   UNL A   1      40.256  26.014  27.562  1.00  0.00     0.031 C 
ATOM     43  C   UNL A   1      42.944  28.871  29.491  1.00  0.00     0.029 A 
ATOM     44  N   UNL A   1      41.263  30.243  30.094  1.00  0.00    -0.354 N 
ATOM     45  C   UNL A   1      42.106  24.968  28.405  1.00  0.00     0.074 A 
ATOM     46  C   UNL A   1      40.996  24.906  27.488  1.00  0.00     0.031 C 
ATOM     47  C   UNL A   1      43.412  29.692  30.447  1.00  0.00     0.029 A 
ATOM     48  C   UNL A   1      42.260  30.320  31.078  1.00  0.00     0.049 A 
ATOM     49  H   UNL A   1      40.545  30.895  29.927  1.00  0.00     0.167 HD
ATOM     50  C   UNL A   1      43.291  24.305  28.491  1.00  0.00     0.031 A 
ATOM     51  C   UNL A   1      41.992  30.296  32.415  1.00  0.00     0.031 A 
ATOM     52  C   UNL A   1      44.160  24.916  29.489  1.00  0.00     0.049 A 
ATOM     53  C   UNL A   1      42.637  29.109  33.109  1.00  0.00     0.074 A 
ATOM     54  C   UNL A   1      45.193  25.833  29.391  1.00  0.00     0.029 A 
ATOM     55  N   UNL A   1      43.770  24.902  30.823  1.00  0.00    -0.354 N 
ATOM     56  N   UNL A   1      43.051  28.037  32.484  1.00  0.00    -0.248 NA
ATOM     57  C   UNL A   1      42.887  29.036  34.545  1.00  0.00     0.031 C 
ATOM     58  C   UNL A   1      45.364  26.438  30.664  1.00  0.00     0.029 A 
ATOM     59  C   UNL A   1      44.460  25.861  31.540  1.00  0.00     0.049 A 
ATOM     60  H   UNL A   1      43.096  24.294  31.204  1.00  0.00     0.167 HD
ATOM     61  C   UNL A   1      43.655  27.179  33.372  1.00  0.00     0.074 A 
ATOM     62  C   UNL A   1      43.514  27.850  34.653  1.00  0.00     0.031 C 
ATOM     63  C   UNL A   1      44.239  26.007  32.976  1.00  0.00     0.031 A 
BRANCH  50  64
ATOM     64  C   UNL A   1      43.743  23.359  27.407  1.00  0.00    -0.014 A 
ATOM     65  C   UNL A   1      42.809  22.493  26.807  1.00  0.00     0.010 A 
ATOM     66  C   UNL A   1      45.083  23.230  26.988  1.00  0.00     0.010 A 
ATOM     67  C   UNL A   1      43.197  21.493  25.906  1.00  0.00     0.020 A 
ATOM     68  C   UNL A   1      45.492  22.207  26.116  1.00  0.00     0.020 A 
ATOM     69  C   UNL A   1      44.542  21.340  25.584  1.00  0.00     0.054 A 
BRANCH  69  70
ATOM     70  S   UNL A   1      45.026  20.004  24.457  1.00  0.00     0.124 S 
ATOM     71  O   UNL A   1      44.301  18.857  24.999  1.00  0.00    -0.237 OA
ATOM     72  O   UNL A   1      44.551  20.497  23.168  1.00  0.00    -0.237 OA
ATOM     73  O   UNL A   1      46.478  19.937  24.601  1.00  0.00    -0.744 OA
ENDBRANCH  69  70
ENDBRANCH  50  64
BRANCH  51  74
ATOM     74  C   UNL A   1      40.741  31.003  32.819  1.00  0.00    -0.014 A 
ATOM     75  C   UNL A   1      39.673  30.200  33.277  1.00  0.00     0.010 A 
ATOM     76  C   UNL A   1      40.721  32.374  33.128  1.00  0.00     0.010 A 
ATOM     77  C   UNL A   1      38.695  30.715  34.136  1.00  0.00     0.020 A 
ATOM     78  C   UNL A   1      39.741  32.895  33.994  1.00  0.00     0.020 A 
ATOM     79  C   UNL A   1      38.773  32.045  34.540  1.00  0.00     0.054 A 
BRANCH  79  80
ATOM     80  S   UNL A   1      37.645  32.619  35.849  1.00  0.00     0.124 S 
ATOM     81  O   UNL A   1      38.387  33.725  36.449  1.00  0.00    -0.237 OA
ATOM     82  O   UNL A   1      36.463  33.013  35.080  1.00  0.00    -0.237 OA
ATOM     83  O   UNL A   1      37.486  31.443  36.694  1.00  0.00    -0.744 OA
ENDBRANCH  79  80
ENDBRANCH  51  74
BRANCH  63  84
ATOM     84  C   UNL A   1      44.753  24.882  33.860  1.00  0.00    -0.014 A 
ATOM     85  C   UNL A   1      45.995  24.250  33.717  1.00  0.00     0.010 A 
ATOM     86  C   UNL A   1      43.988  24.513  34.999  1.00  0.00     0.010 A 
ATOM     87  C   UNL A   1      46.432  23.283  34.637  1.00  0.00     0.020 A 
ATOM     88  C   UNL A   1      44.434  23.593  35.950  1.00  0.00     0.020 A 
ATOM     89  C   UNL A   1      45.653  22.965  35.750  1.00  0.00     0.054 A 
BRANCH  89  90
ATOM     90  S   UNL A   1      46.271  21.784  36.974  1.00  0.00     0.124 S 
ATOM     91  O   UNL A   1      47.715  21.881  36.782  1.00  0.00    -0.237 OA
ATOM     92  O   UNL A   1      45.767  22.329  38.232  1.00  0.00    -0.237 OA
ATOM     93  O   UNL A   1      45.666  20.518  36.567  1.00  0.00    -0.744 OA
ENDBRANCH  89  90
ENDBRANCH  63  84
ENDBRANCH  37  38
ENDBRANCH  29  32
ENDBRANCH  27  28
ENDBRANCH  26  27
ENDBRANCH  25  26
ENDBRANCH   1  25
TORSDOF 19
ENDMDL
MODEL 3
REMARK VINA RESULT:     -12.4      4.071     11.193
REMARK SMILES Cc1ccccc1CCNS(=O)(=O)c1ccc(C(=O)NCCCCNC(=O)c2ccc(-c3c4nc(c(-c5ccc(S(=O)(=O)[O-])cc5)c5ccc([nH]5)c(-c5ccc(S(=O)(=O)[O-])cc5)c5nc(c(-c6ccc(S(=O)(=O)[O-])cc6)c6ccc3[nH]6)C=C5)C=C4)cc2)o1
REMARK SMILES IDX 21 1 20 2 18 3 19 4 17 6 14 7 15 8 88 9 16 10 11 11 12 12
REMARK SMILES IDX 13 13 10 14 9 16 8 17 7 18 1 19 2 20 3 21 4 22 6 23 5 24
REMARK SMILES IDX 22 25 23 26 24 27 25 28 26 29 27 31 28 32 29 33 87 34 30 35
REMARK SMILES IDX 86 36 31 37 32 38 33 39 80 40 34 41 85 42 79 43 81 44 35 45
REMARK SMILES IDX 84 46 78 47 77 48 36 50 66 51 47 52 65 53 48 54 51 55 64 56
REMARK SMILES IDX 82 57 49 58 50 59 63 61 83 62 52 63 37 64 38 65 46 66 39 67
REMARK SMILES IDX 45 68 40 69 41 70 42 71 43 72 44 73 67 74 68 75 76 76 69 77
REMARK SMILES IDX 75 78 70 79 71 80 72 81 73 82 74 83 53 84 54 85 62 86 55 87
REMARK SMILES IDX 61 88 56 89 57 90 58 91 59 92 60 93
REMARK H PARENT 20 5 10 15 25 30 81 49 51 60
REMARK Flexibility Score: inf
ROOT
ATOM      1  C   UNL A   1      33.287  28.927  24.363  1.00  0.00     0.116 C 
ENDROOT
BRANCH   1   2
ATOM      2  N   UNL A   1      33.288  28.182  23.114  1.00  0.00    -0.349 N 
ATOM      3  C   UNL A   1      33.371  26.839  22.838  1.00  0.00     0.287 C 
ATOM      4  O   UNL A   1      33.288  26.531  21.645  1.00  0.00    -0.266 OA
ATOM      5  H   UNL A   1      33.214  28.749  22.313  1.00  0.00     0.163 HD
BRANCH   3   6
ATOM      6  C   UNL A   1      33.542  25.842  23.880  1.00  0.00     0.193 A 
ATOM      7  C   UNL A   1      34.507  23.979  24.683  1.00  0.00     0.234 A 
ATOM      8  C   UNL A   1      33.618  24.440  25.641  1.00  0.00     0.065 A 
ATOM      9  O   UNL A   1      34.462  24.853  23.622  1.00  0.00    -0.438 OA
ATOM     10  C   UNL A   1      33.022  25.626  25.142  1.00  0.00     0.058 A 
BRANCH   7  11
ATOM     11  S   UNL A   1      35.602  22.566  24.681  1.00  0.00     0.273 S 
ATOM     12  O   UNL A   1      36.460  22.702  23.518  1.00  0.00    -0.204 OA
ATOM     13  O   UNL A   1      34.757  21.414  24.866  1.00  0.00    -0.204 OA
BRANCH  11  14
ATOM     14  N   UNL A   1      36.588  22.651  26.052  1.00  0.00    -0.208 NA
ATOM     15  H   UNL A   1      36.232  23.406  26.639  1.00  0.00     0.141 HD
BRANCH  14  16
ATOM     16  C   UNL A   1      38.035  22.902  25.834  1.00  0.00     0.104 C 
BRANCH  16  17
ATOM     17  C   UNL A   1      38.817  21.578  25.933  1.00  0.00     0.052 C 
BRANCH  17  18
ATOM     18  C   UNL A   1      40.127  21.718  26.690  1.00  0.00    -0.044 A 
ATOM     19  C   UNL A   1      41.042  19.415  25.986  1.00  0.00     0.044 C 
ATOM     20  C   UNL A   1      41.101  20.702  26.764  1.00  0.00    -0.048 A 
ATOM     21  C   UNL A   1      42.235  20.903  27.575  1.00  0.00     0.004 A 
ATOM     22  C   UNL A   1      42.405  22.078  28.307  1.00  0.00     0.000 A 
ATOM     23  C   UNL A   1      40.341  22.916  27.403  1.00  0.00     0.004 A 
ATOM     24  C   UNL A   1      41.459  23.089  28.216  1.00  0.00     0.000 A 
ENDBRANCH  17  18
ENDBRANCH  16  17
ENDBRANCH  14  16
ENDBRANCH  11  14
ENDBRANCH   7  11
ENDBRANCH   3   6
ENDBRANCH   1   2
BRANCH   1  25
ATOM     25  C   UNL A   1      31.876  29.068  24.950  1.00  0.00     0.023 C 
BRANCH  25  26
ATOM     26  C   UNL A   1      31.823  29.748  26.324  1.00  0.00     0.023 C 
BRANCH  26  27
ATOM     27  C   UNL A   1      33.137  29.682  27.098  1.00  0.00     0.116 C 
BRANCH  27  28
ATOM     28  N   UNL A   1      33.591  30.950  27.662  1.00  0.00    -0.352 N 
ATOM     29  C   UNL A   1      34.693  31.178  28.474  1.00  0.00     0.251 C 
ATOM     30  H   UNL A   1      33.049  31.741  27.437  1.00  0.00     0.163 HD
ATOM     31  O   UNL A   1      34.888  32.230  29.070  1.00  0.00    -0.269 OA
BRANCH  29  32
ATOM     32  C   UNL A   1      35.757  30.153  28.462  1.00  0.00     0.039 A 
ATOM     33  C   UNL A   1      36.005  29.507  29.681  1.00  0.00     0.014 A 
ATOM     34  C   UNL A   1      36.696  30.153  27.437  1.00  0.00     0.014 A 
ATOM     35  C   UNL A   1      37.298  29.101  29.971  1.00  0.00     0.010 A 
ATOM     36  C   UNL A   1      38.001  29.870  27.768  1.00  0.00     0.010 A 
ATOM     37  C   UNL A   1      38.302  29.412  29.054  1.00  0.00    -0.014 A 
BRANCH  37  38
ATOM     38  C   UNL A   1      39.711  29.333  29.386  1.00  0.00     0.031 A 
ATOM     39  C   UNL A   1      40.443  28.128  28.959  1.00  0.00     0.074 A 
ATOM     40  C   UNL A   1      40.307  30.337  30.068  1.00  0.00     0.049 A 
ATOM     41  N   UNL A   1      41.409  27.592  29.618  1.00  0.00    -0.248 NA
ATOM     42  C   UNL A   1      40.076  27.381  27.756  1.00  0.00     0.031 C 
ATOM     43  C   UNL A   1      41.727  30.461  30.382  1.00  0.00     0.029 A 
ATOM     44  N   UNL A   1      39.705  31.349  30.827  1.00  0.00    -0.354 N 
ATOM     45  C   UNL A   1      41.979  26.651  28.791  1.00  0.00     0.074 A 
ATOM     46  C   UNL A   1      41.055  26.476  27.699  1.00  0.00     0.031 C 
ATOM     47  C   UNL A   1      41.851  31.228  31.479  1.00  0.00     0.029 A 
ATOM     48  C   UNL A   1      40.507  31.504  31.967  1.00  0.00     0.049 A 
ATOM     49  H   UNL A   1      38.886  31.848  30.607  1.00  0.00     0.167 HD
ATOM     50  C   UNL A   1      43.261  26.252  29.008  1.00  0.00     0.031 A 
ATOM     51  C   UNL A   1      40.066  31.245  33.231  1.00  0.00     0.031 A 
ATOM     52  C   UNL A   1      43.815  26.894  30.194  1.00  0.00     0.049 A 
ATOM     53  C   UNL A   1      40.864  30.141  33.903  1.00  0.00     0.074 A 
ATOM     54  C   UNL A   1      44.610  28.016  30.362  1.00  0.00     0.029 A 
ATOM     55  N   UNL A   1      43.254  26.619  31.436  1.00  0.00    -0.354 N 
ATOM     56  N   UNL A   1      41.600  29.276  33.254  1.00  0.00    -0.248 NA
ATOM     57  C   UNL A   1      40.919  29.931  35.347  1.00  0.00     0.031 C 
ATOM     58  C   UNL A   1      44.454  28.467  31.699  1.00  0.00     0.029 A 
ATOM     59  C   UNL A   1      43.594  27.598  32.350  1.00  0.00     0.049 A 
ATOM     60  H   UNL A   1      42.693  25.835  31.636  1.00  0.00     0.167 HD
ATOM     61  C   UNL A   1      42.255  28.456  34.141  1.00  0.00     0.074 A 
ATOM     62  C   UNL A   1      41.783  28.903  35.440  1.00  0.00     0.031 C 
ATOM     63  C   UNL A   1      43.145  27.499  33.735  1.00  0.00     0.031 A 
BRANCH  50  64
ATOM     64  C   UNL A   1      44.070  25.578  27.928  1.00  0.00    -0.014 A 
ATOM     65  C   UNL A   1      43.821  25.891  26.578  1.00  0.00     0.010 A 
ATOM     66  C   UNL A   1      45.037  24.583  28.178  1.00  0.00     0.010 A 
ATOM     67  C   UNL A   1      44.433  25.191  25.530  1.00  0.00     0.020 A 
ATOM     68  C   UNL A   1      45.629  23.847  27.138  1.00  0.00     0.020 A 
ATOM     69  C   UNL A   1      45.317  24.155  25.817  1.00  0.00     0.054 A 
BRANCH  69  70
ATOM     70  S   UNL A   1      46.055  23.229  24.443  1.00  0.00     0.124 S 
ATOM     71  O   UNL A   1      47.092  24.142  23.968  1.00  0.00    -0.237 OA
ATOM     72  O   UNL A   1      46.535  22.020  25.105  1.00  0.00    -0.237 OA
ATOM     73  O   UNL A   1      44.941  23.032  23.519  1.00  0.00    -0.744 OA
ENDBRANCH  69  70
ENDBRANCH  50  64
BRANCH  51  74
ATOM     74  C   UNL A   1      38.641  31.607  33.487  1.00  0.00    -0.014 A 
ATOM     75  C   UNL A   1      38.399  32.853  34.107  1.00  0.00     0.010 A 
ATOM     76  C   UNL A   1      37.577  30.982  32.815  1.00  0.00     0.010 A 
ATOM     77  C   UNL A   1      37.183  33.524  33.937  1.00  0.00     0.020 A 
ATOM     78  C   UNL A   1      36.352  31.655  32.641  1.00  0.00     0.020 A 
ATOM     79  C   UNL A   1      36.189  32.947  33.151  1.00  0.00     0.054 A 
BRANCH  79  80
ATOM     80  S   UNL A   1      34.723  33.945  32.740  1.00  0.00     0.124 S 
ATOM     81  O   UNL A   1      35.013  34.396  31.382  1.00  0.00    -0.237 OA
ATOM     82  O   UNL A   1      33.645  32.960  32.847  1.00  0.00    -0.237 OA
ATOM     83  O   UNL A   1      34.731  34.987  33.759  1.00  0.00    -0.744 OA
ENDBRANCH  79  80
ENDBRANCH  51  74
BRANCH  63  84
ATOM     84  C   UNL A   1      43.776  26.403  34.577  1.00  0.00    -0.014 A 
ATOM     85  C   UNL A   1      43.066  25.440  35.306  1.00  0.00     0.010 A 
ATOM     86  C   UNL A   1      45.188  26.246  34.538  1.00  0.00     0.010 A 
ATOM     87  C   UNL A   1      43.728  24.401  35.983  1.00  0.00     0.020 A 
ATOM     88  C   UNL A   1      45.853  25.188  35.161  1.00  0.00     0.020 A 
ATOM     89  C   UNL A   1      45.115  24.279  35.902  1.00  0.00     0.054 A 
BRANCH  89  90
ATOM     90  S   UNL A   1      45.944  22.885  36.704  1.00  0.00     0.124 S 
ATOM     91  O   UNL A   1      45.551  23.065  38.099  1.00  0.00    -0.237 OA
ATOM     92  O   UNL A   1      45.356  21.729  36.032  1.00  0.00    -0.237 OA
ATOM     93  O   UNL A   1      47.358  23.111  36.415  1.00  0.00    -0.744 OA
ENDBRANCH  89  90
ENDBRANCH  63  84
ENDBRANCH  37  38
ENDBRANCH  29  32
ENDBRANCH  27  28
ENDBRANCH  26  27
ENDBRANCH  25  26
ENDBRANCH   1  25
TORSDOF 19
ENDMDL
