MODEL 1
REMARK VINA RESULT:     -12.4      0.000      0.000
REMARK SMILES Cc1ccc(C(=O)NCCCCNC(=O)c2ccc(-c3c4nc(c(-c5ccc(S(=O)(=O)[O-])cc5)c5ccc([nH]5)c(-c5ccc(S(=O)(=O)[O-])cc5)c5nc(c(-c6ccc(S(=O)(=O)[O-])cc6)c6ccc3[nH]6)C=C5)C=C4)cc2)c(Oc2cccc(F)c2C(N)=O)c1
REMARK SMILES IDX 10 1 9 2 8 3 6 4 7 5 5 7 1 8 2 9 3 10 88 11 4 12 76 13 77 14
REMARK SMILES IDX 78 15 79 16 84 17 80 18 82 19 81 20 83 21 85 22 86 23 87 24
REMARK SMILES IDX 11 27 12 28 13 29 14 30 15 32 16 33 17 34 75 35 18 36 74 37
REMARK SMILES IDX 19 38 20 39 21 40 68 41 22 42 73 43 67 44 69 45 23 46 72 47
REMARK SMILES IDX 66 48 65 49 24 51 54 52 35 53 53 54 36 55 39 56 52 57 70 58
REMARK SMILES IDX 37 59 38 60 51 62 71 63 40 64 25 65 26 66 34 67 27 68 33 69
REMARK SMILES IDX 28 70 29 71 30 72 31 73 32 74 55 75 56 76 64 77 57 78 63 79
REMARK SMILES IDX 58 80 59 81 60 82 61 83 62 84 41 85 42 86 50 87 43 88 49 89
REMARK SMILES IDX 44 90 45 91 46 92 47 93 48 94
REMARK H PARENT 8 6 86 25 86 26 13 31 69 50 39 61
REMARK Flexibility Score: inf
ROOT
ATOM      1  C   UNL A   1      33.872  27.059  25.750  1.00  0.00     0.023 C 
ENDROOT
BRANCH   1   2
ATOM      2  C   UNL A   1      33.050  25.921  25.141  1.00  0.00     0.116 C 
BRANCH   2   3
ATOM      3  N   UNL A   1      32.474  24.992  26.092  1.00  0.00    -0.352 N 
ATOM      4  C   UNL A   1      32.894  23.816  26.668  1.00  0.00     0.255 C 
ATOM      5  O   UNL A   1      32.141  23.352  27.533  1.00  0.00    -0.269 OA
ATOM      6  H   UNL A   1      31.578  25.264  26.394  1.00  0.00     0.163 HD
BRANCH   4   7
ATOM      7  C   UNL A   1      34.094  22.996  26.297  1.00  0.00     0.082 A 
ATOM      8  C   UNL A   1      37.852  21.140  25.135  1.00  0.00     0.044 C 
ATOM      9  C   UNL A   1      36.561  21.798  25.518  1.00  0.00    -0.047 A 
ATOM     10  C   UNL A   1      36.515  23.143  25.876  1.00  0.00     0.004 A 
ATOM     11  C   UNL A   1      35.364  21.078  25.481  1.00  0.00     0.051 A 
ATOM     12  C   UNL A   1      35.301  23.731  26.249  1.00  0.00     0.018 A 
ATOM     13  C   UNL A   1      34.149  21.650  25.908  1.00  0.00     0.140 A 
BRANCH  13  14
ATOM     14  O   UNL A   1      33.012  20.901  25.815  1.00  0.00    -0.456 OA
BRANCH  14  15
ATOM     15  C   UNL A   1      32.626  20.330  24.612  1.00  0.00     0.143 A 
ATOM     16  C   UNL A   1      32.619  18.927  24.701  1.00  0.00     0.048 A 
ATOM     17  C   UNL A   1      32.388  20.938  23.362  1.00  0.00     0.117 A 
ATOM     18  C   UNL A   1      32.375  18.137  23.581  1.00  0.00     0.007 A 
ATOM     19  C   UNL A   1      32.152  20.123  22.247  1.00  0.00     0.139 A 
ATOM     20  C   UNL A   1      32.150  18.734  22.348  1.00  0.00     0.040 A 
ATOM     21  F   UNL A   1      31.962  20.663  21.033  1.00  0.00    -0.206 F 
BRANCH  17  22
ATOM     22  C   UNL A   1      32.319  22.387  23.080  1.00  0.00     0.255 C 
ATOM     23  N   UNL A   1      31.104  23.006  23.146  1.00  0.00    -0.365 N 
ATOM     24  O   UNL A   1      33.329  23.027  22.812  1.00  0.00    -0.269 OA
ATOM     25  H   UNL A   1      30.297  22.484  23.362  1.00  0.00     0.159 HD
ATOM     26  H   UNL A   1      31.034  23.974  22.979  1.00  0.00     0.159 HD
ENDBRANCH  17  22
ENDBRANCH  14  15
ENDBRANCH  13  14
ENDBRANCH   4   7
ENDBRANCH   2   3
ENDBRANCH   1   2
BRANCH   1  27
ATOM     27  C   UNL A   1      33.348  28.472  25.535  1.00  0.00     0.023 C 
BRANCH  27  28
ATOM     28  C   UNL A   1      33.115  29.267  26.806  1.00  0.00     0.116 C 
BRANCH  28  29
ATOM     29  N   UNL A   1      33.631  30.631  26.803  1.00  0.00    -0.352 N 
ATOM     30  C   UNL A   1      34.554  31.183  27.673  1.00  0.00     0.251 C 
ATOM     31  H   UNL A   1      33.283  31.227  26.100  1.00  0.00     0.163 HD
ATOM     32  O   UNL A   1      34.527  32.333  27.982  1.00  0.00    -0.269 OA
BRANCH  30  33
ATOM     33  C   UNL A   1      35.711  30.312  28.057  1.00  0.00     0.039 A 
ATOM     34  C   UNL A   1      35.774  29.870  29.387  1.00  0.00     0.014 A 
ATOM     35  C   UNL A   1      36.799  30.130  27.209  1.00  0.00     0.014 A 
ATOM     36  C   UNL A   1      36.976  29.393  29.906  1.00  0.00     0.010 A 
ATOM     37  C   UNL A   1      38.013  29.773  27.752  1.00  0.00     0.010 A 
ATOM     38  C   UNL A   1      38.113  29.422  29.106  1.00  0.00    -0.014 A 
BRANCH  38  39
ATOM     39  C   UNL A   1      39.473  29.112  29.533  1.00  0.00     0.031 A 
ATOM     40  C   UNL A   1      40.050  27.784  29.199  1.00  0.00     0.074 A 
ATOM     41  C   UNL A   1      40.271  30.111  29.967  1.00  0.00     0.049 A 
ATOM     42  N   UNL A   1      41.197  27.356  29.607  1.00  0.00    -0.248 NA
ATOM     43  C   UNL A   1      39.324  26.788  28.405  1.00  0.00     0.031 C 
ATOM     44  C   UNL A   1      41.731  30.147  29.922  1.00  0.00     0.029 A 
ATOM     45  N   UNL A   1      39.934  31.210  30.762  1.00  0.00    -0.354 N 
ATOM     46  C   UNL A   1      41.499  26.241  28.860  1.00  0.00     0.074 A 
ATOM     47  C   UNL A   1      40.255  25.844  28.252  1.00  0.00     0.031 C 
ATOM     48  C   UNL A   1      42.169  30.995  30.865  1.00  0.00     0.029 A 
ATOM     49  C   UNL A   1      41.010  31.376  31.654  1.00  0.00     0.049 A 
ATOM     50  H   UNL A   1      39.115  31.754  30.710  1.00  0.00     0.167 HD
ATOM     51  C   UNL A   1      42.801  25.879  28.693  1.00  0.00     0.031 A 
ATOM     52  C   UNL A   1      40.914  31.225  33.010  1.00  0.00     0.031 A 
ATOM     53  C   UNL A   1      43.675  26.559  29.646  1.00  0.00     0.049 A 
ATOM     54  C   UNL A   1      41.868  30.194  33.571  1.00  0.00     0.074 A 
ATOM     55  C   UNL A   1      44.622  27.561  29.531  1.00  0.00     0.029 A 
ATOM     56  N   UNL A   1      43.443  26.389  31.008  1.00  0.00    -0.354 N 
ATOM     57  N   UNL A   1      42.480  29.295  32.851  1.00  0.00    -0.248 NA
ATOM     58  C   UNL A   1      42.165  30.063  34.996  1.00  0.00     0.031 C 
ATOM     59  C   UNL A   1      44.859  28.081  30.834  1.00  0.00     0.029 A 
ATOM     60  C   UNL A   1      44.096  27.360  31.737  1.00  0.00     0.049 A 
ATOM     61  H   UNL A   1      42.888  25.674  31.397  1.00  0.00     0.167 HD
ATOM     62  C   UNL A   1      43.215  28.478  33.666  1.00  0.00     0.074 A 
ATOM     63  C   UNL A   1      42.999  29.009  35.000  1.00  0.00     0.031 C 
ATOM     64  C   UNL A   1      43.929  27.420  33.183  1.00  0.00     0.031 A 
BRANCH  51  65
ATOM     65  C   UNL A   1      43.314  25.081  27.508  1.00  0.00    -0.014 A 
ATOM     66  C   UNL A   1      43.372  23.673  27.583  1.00  0.00     0.010 A 
ATOM     67  C   UNL A   1      43.883  25.657  26.351  1.00  0.00     0.010 A 
ATOM     68  C   UNL A   1      43.980  22.896  26.579  1.00  0.00     0.020 A 
ATOM     69  C   UNL A   1      44.462  24.894  25.328  1.00  0.00     0.020 A 
ATOM     70  C   UNL A   1      44.528  23.515  25.457  1.00  0.00     0.054 A 
BRANCH  70  71
ATOM     71  S   UNL A   1      45.353  22.522  24.185  1.00  0.00     0.124 S 
ATOM     72  O   UNL A   1      45.609  21.269  24.889  1.00  0.00    -0.237 OA
ATOM     73  O   UNL A   1      44.351  22.460  23.126  1.00  0.00    -0.237 OA
ATOM     74  O   UNL A   1      46.547  23.302  23.858  1.00  0.00    -0.744 OA
ENDBRANCH  70  71
ENDBRANCH  51  65
BRANCH  52  75
ATOM     75  C   UNL A   1      39.560  31.498  33.566  1.00  0.00    -0.014 A 
ATOM     76  C   UNL A   1      39.315  32.792  34.065  1.00  0.00     0.010 A 
ATOM     77  C   UNL A   1      38.474  30.693  33.174  1.00  0.00     0.010 A 
ATOM     78  C   UNL A   1      38.036  33.343  33.979  1.00  0.00     0.020 A 
ATOM     79  C   UNL A   1      37.192  31.249  33.083  1.00  0.00     0.020 A 
ATOM     80  C   UNL A   1      37.008  32.597  33.402  1.00  0.00     0.054 A 
BRANCH  80  81
ATOM     81  S   UNL A   1      35.530  33.493  32.839  1.00  0.00     0.124 S 
ATOM     82  O   UNL A   1      35.960  34.886  32.915  1.00  0.00    -0.237 OA
ATOM     83  O   UNL A   1      35.368  32.960  31.488  1.00  0.00    -0.237 OA
ATOM     84  O   UNL A   1      34.507  33.090  33.797  1.00  0.00    -0.744 OA
ENDBRANCH  80  81
ENDBRANCH  52  75
BRANCH  64  85
ATOM     85  C   UNL A   1      44.592  26.369  34.035  1.00  0.00    -0.014 A 
ATOM     86  C   UNL A   1      45.775  26.585  34.761  1.00  0.00     0.010 A 
ATOM     87  C   UNL A   1      43.934  25.132  34.229  1.00  0.00     0.010 A 
ATOM     88  C   UNL A   1      46.322  25.584  35.576  1.00  0.00     0.020 A 
ATOM     89  C   UNL A   1      44.448  24.144  35.072  1.00  0.00     0.020 A 
ATOM     90  C   UNL A   1      45.659  24.365  35.719  1.00  0.00     0.054 A 
BRANCH  90  91
ATOM     91  S   UNL A   1      46.345  23.092  36.809  1.00  0.00     0.124 S 
ATOM     92  O   UNL A   1      47.719  22.991  36.326  1.00  0.00    -0.237 OA
ATOM     93  O   UNL A   1      46.191  23.677  38.139  1.00  0.00    -0.237 OA
ATOM     94  O   UNL A   1      45.500  21.929  36.547  1.00  0.00    -0.744 OA
ENDBRANCH  90  91
ENDBRANCH  64  85
ENDBRANCH  38  39
ENDBRANCH  30  33
ENDBRANCH  28  29
ENDBRANCH  27  28
ENDBRANCH   1  27
TORSDOF 17
ENDMDL
MODEL 2
REMARK VINA RESULT:     -12.4      1.462      2.785
REMARK SMILES Cc1ccc(C(=O)NCCCCNC(=O)c2ccc(-c3c4nc(c(-c5ccc(S(=O)(=O)[O-])cc5)c5ccc([nH]5)c(-c5ccc(S(=O)(=O)[O-])cc5)c5nc(c(-c6ccc(S(=O)(=O)[O-])cc6)c6ccc3[nH]6)C=C5)C=C4)cc2)c(Oc2cccc(F)c2C(N)=O)c1
REMARK SMILES IDX 10 1 9 2 8 3 6 4 7 5 5 7 1 8 2 9 3 10 88 11 4 12 76 13 77 14
REMARK SMILES IDX 78 15 79 16 84 17 80 18 82 19 81 20 83 21 85 22 86 23 87 24
REMARK SMILES IDX 11 27 12 28 13 29 14 30 15 32 16 33 17 34 75 35 18 36 74 37
REMARK SMILES IDX 19 38 20 39 21 40 68 41 22 42 73 43 67 44 69 45 23 46 72 47
REMARK SMILES IDX 66 48 65 49 24 51 54 52 35 53 53 54 36 55 39 56 52 57 70 58
REMARK SMILES IDX 37 59 38 60 51 62 71 63 40 64 25 65 26 66 34 67 27 68 33 69
REMARK SMILES IDX 28 70 29 71 30 72 31 73 32 74 55 75 56 76 64 77 57 78 63 79
REMARK SMILES IDX 58 80 59 81 60 82 61 83 62 84 41 85 42 86 50 87 43 88 49 89
REMARK SMILES IDX 44 90 45 91 46 92 47 93 48 94
REMARK H PARENT 8 6 86 25 86 26 13 31 69 50 39 61
REMARK Flexibility Score: inf
ROOT
ATOM      1  C   UNL A   1      34.031  28.744  24.120  1.00  0.00     0.023 C 
ENDROOT
BRANCH   1   2
ATOM      2  C   UNL A   1      33.790  28.953  22.624  1.00  0.00     0.116 C 
BRANCH   2   3
ATOM      3  N   UNL A   1      33.687  27.742  21.836  1.00  0.00    -0.352 N 
ATOM      4  C   UNL A   1      32.940  26.591  21.929  1.00  0.00     0.255 C 
ATOM      5  O   UNL A   1      33.065  25.802  20.984  1.00  0.00    -0.269 OA
ATOM      6  H   UNL A   1      34.289  27.742  21.058  1.00  0.00     0.163 HD
BRANCH   4   7
ATOM      7  C   UNL A   1      32.084  26.149  23.079  1.00  0.00     0.082 A 
ATOM      8  C   UNL A   1      29.246  25.329  26.271  1.00  0.00     0.044 C 
ATOM      9  C   UNL A   1      30.220  25.637  25.175  1.00  0.00    -0.047 A 
ATOM     10  C   UNL A   1      29.878  26.480  24.121  1.00  0.00     0.004 A 
ATOM     11  C   UNL A   1      31.515  25.113  25.214  1.00  0.00     0.051 A 
ATOM     12  C   UNL A   1      30.799  26.737  23.098  1.00  0.00     0.018 A 
ATOM     13  C   UNL A   1      32.426  25.324  24.160  1.00  0.00     0.140 A 
BRANCH  13  14
ATOM     14  O   UNL A   1      33.684  24.811  24.277  1.00  0.00    -0.456 OA
BRANCH  14  15
ATOM     15  C   UNL A   1      33.889  23.504  24.695  1.00  0.00     0.143 A 
ATOM     16  C   UNL A   1      34.681  23.466  25.855  1.00  0.00     0.048 A 
ATOM     17  C   UNL A   1      33.537  22.293  24.065  1.00  0.00     0.117 A 
ATOM     18  C   UNL A   1      35.114  22.256  26.391  1.00  0.00     0.007 A 
ATOM     19  C   UNL A   1      33.991  21.087  24.618  1.00  0.00     0.139 A 
ATOM     20  C   UNL A   1      34.777  21.062  25.766  1.00  0.00     0.040 A 
ATOM     21  F   UNL A   1      33.711  19.915  24.025  1.00  0.00    -0.206 F 
BRANCH  17  22
ATOM     22  C   UNL A   1      32.686  22.130  22.868  1.00  0.00     0.255 C 
ATOM     23  N   UNL A   1      32.945  22.904  21.774  1.00  0.00    -0.365 N 
ATOM     24  O   UNL A   1      31.779  21.305  22.846  1.00  0.00    -0.269 OA
ATOM     25  H   UNL A   1      33.675  23.565  21.801  1.00  0.00     0.159 HD
ATOM     26  H   UNL A   1      32.403  22.803  20.959  1.00  0.00     0.159 HD
ENDBRANCH  17  22
ENDBRANCH  14  15
ENDBRANCH  13  14
ENDBRANCH   4   7
ENDBRANCH   2   3
ENDBRANCH   1   2
BRANCH   1  27
ATOM     27  C   UNL A   1      32.936  29.226  25.063  1.00  0.00     0.023 C 
BRANCH  27  28
ATOM     28  C   UNL A   1      33.391  29.498  26.484  1.00  0.00     0.116 C 
BRANCH  28  29
ATOM     29  N   UNL A   1      33.927  30.831  26.733  1.00  0.00    -0.352 N 
ATOM     30  C   UNL A   1      34.779  31.218  27.752  1.00  0.00     0.251 C 
ATOM     31  H   UNL A   1      33.651  31.536  26.104  1.00  0.00     0.163 HD
ATOM     32  O   UNL A   1      34.743  32.308  28.230  1.00  0.00    -0.269 OA
BRANCH  30  33
ATOM     33  C   UNL A   1      35.884  30.266  28.094  1.00  0.00     0.039 A 
ATOM     34  C   UNL A   1      35.904  29.739  29.395  1.00  0.00     0.014 A 
ATOM     35  C   UNL A   1      36.973  30.081  27.249  1.00  0.00     0.014 A 
ATOM     36  C   UNL A   1      37.073  29.168  29.896  1.00  0.00     0.010 A 
ATOM     37  C   UNL A   1      38.160  29.628  27.782  1.00  0.00     0.010 A 
ATOM     38  C   UNL A   1      38.221  29.189  29.113  1.00  0.00    -0.014 A 
BRANCH  38  39
ATOM     39  C   UNL A   1      39.557  28.782  29.535  1.00  0.00     0.031 A 
ATOM     40  C   UNL A   1      40.058  27.438  29.151  1.00  0.00     0.074 A 
ATOM     41  C   UNL A   1      40.409  29.715  30.014  1.00  0.00     0.049 A 
ATOM     42  N   UNL A   1      41.175  26.927  29.548  1.00  0.00    -0.248 NA
ATOM     43  C   UNL A   1      39.282  26.519  28.312  1.00  0.00     0.031 C 
ATOM     44  C   UNL A   1      41.869  29.667  29.979  1.00  0.00     0.029 A 
ATOM     45  N   UNL A   1      40.130  30.799  30.851  1.00  0.00    -0.354 N 
ATOM     46  C   UNL A   1      41.418  25.826  28.758  1.00  0.00     0.074 A 
ATOM     47  C   UNL A   1      40.158  25.528  28.127  1.00  0.00     0.031 C 
ATOM     48  C   UNL A   1      42.348  30.449  30.959  1.00  0.00     0.029 A 
ATOM     49  C   UNL A   1      41.206  30.865  31.755  1.00  0.00     0.049 A 
ATOM     50  H   UNL A   1      39.344  31.391  30.816  1.00  0.00     0.167 HD
ATOM     51  C   UNL A   1      42.698  25.395  28.585  1.00  0.00     0.031 A 
ATOM     52  C   UNL A   1      41.090  30.666  33.103  1.00  0.00     0.031 A 
ATOM     53  C   UNL A   1      43.602  25.985  29.569  1.00  0.00     0.049 A 
ATOM     54  C   UNL A   1      41.978  29.559  33.628  1.00  0.00     0.074 A 
ATOM     55  C   UNL A   1      44.606  26.933  29.501  1.00  0.00     0.029 A 
ATOM     56  N   UNL A   1      43.349  25.774  30.922  1.00  0.00    -0.354 N 
ATOM     57  N   UNL A   1      42.542  28.656  32.876  1.00  0.00    -0.248 NA
ATOM     58  C   UNL A   1      42.254  29.354  35.048  1.00  0.00     0.031 C 
ATOM     59  C   UNL A   1      44.863  27.386  30.825  1.00  0.00     0.029 A 
ATOM     60  C   UNL A   1      44.052  26.675  31.694  1.00  0.00     0.049 A 
ATOM     61  H   UNL A   1      42.750  25.078  31.278  1.00  0.00     0.167 HD
ATOM     62  C   UNL A   1      43.221  27.764  33.661  1.00  0.00     0.074 A 
ATOM     63  C   UNL A   1      43.025  28.253  35.015  1.00  0.00     0.031 C 
ATOM     64  C   UNL A   1      43.877  26.687  33.140  1.00  0.00     0.031 A 
BRANCH  51  65
ATOM     65  C   UNL A   1      43.173  24.617  27.371  1.00  0.00    -0.014 A 
ATOM     66  C   UNL A   1      42.927  23.230  27.288  1.00  0.00     0.010 A 
ATOM     67  C   UNL A   1      43.986  25.158  26.351  1.00  0.00     0.010 A 
ATOM     68  C   UNL A   1      43.478  22.435  26.265  1.00  0.00     0.020 A 
ATOM     69  C   UNL A   1      44.513  24.385  25.307  1.00  0.00     0.020 A 
ATOM     70  C   UNL A   1      44.274  23.018  25.282  1.00  0.00     0.054 A 
BRANCH  70  71
ATOM     71  S   UNL A   1      45.022  21.990  23.991  1.00  0.00     0.124 S 
ATOM     72  O   UNL A   1      46.361  22.562  23.877  1.00  0.00    -0.237 OA
ATOM     73  O   UNL A   1      44.954  20.651  24.568  1.00  0.00    -0.237 OA
ATOM     74  O   UNL A   1      44.158  22.206  22.831  1.00  0.00    -0.744 OA
ENDBRANCH  70  71
ENDBRANCH  51  65
BRANCH  52  75
ATOM     75  C   UNL A   1      39.750  30.995  33.661  1.00  0.00    -0.014 A 
ATOM     76  C   UNL A   1      39.517  32.332  34.038  1.00  0.00     0.010 A 
ATOM     77  C   UNL A   1      38.654  30.159  33.375  1.00  0.00     0.010 A 
ATOM     78  C   UNL A   1      38.237  32.876  33.929  1.00  0.00     0.020 A 
ATOM     79  C   UNL A   1      37.371  30.707  33.260  1.00  0.00     0.020 A 
ATOM     80  C   UNL A   1      37.195  32.080  33.451  1.00  0.00     0.054 A 
BRANCH  80  81
ATOM     81  S   UNL A   1      35.704  32.921  32.839  1.00  0.00     0.124 S 
ATOM     82  O   UNL A   1      36.249  34.148  32.266  1.00  0.00    -0.237 OA
ATOM     83  O   UNL A   1      35.203  31.947  31.871  1.00  0.00    -0.237 OA
ATOM     84  O   UNL A   1      34.893  33.085  34.040  1.00  0.00    -0.744 OA
ENDBRANCH  80  81
ENDBRANCH  52  75
BRANCH  64  85
ATOM     85  C   UNL A   1      44.470  25.565  33.953  1.00  0.00    -0.014 A 
ATOM     86  C   UNL A   1      43.764  24.860  34.941  1.00  0.00     0.010 A 
ATOM     87  C   UNL A   1      45.765  25.099  33.629  1.00  0.00     0.010 A 
ATOM     88  C   UNL A   1      44.352  23.792  35.634  1.00  0.00     0.020 A 
ATOM     89  C   UNL A   1      46.345  24.009  34.283  1.00  0.00     0.020 A 
ATOM     90  C   UNL A   1      45.644  23.379  35.307  1.00  0.00     0.054 A 
BRANCH  90  91
ATOM     91  S   UNL A   1      46.383  21.971  36.172  1.00  0.00     0.124 S 
ATOM     92  O   UNL A   1      46.148  22.320  37.570  1.00  0.00    -0.237 OA
ATOM     93  O   UNL A   1      45.612  20.834  35.673  1.00  0.00    -0.237 OA
ATOM     94  O   UNL A   1      47.779  22.003  35.743  1.00  0.00    -0.744 OA
ENDBRANCH  90  91
ENDBRANCH  64  85
ENDBRANCH  38  39
ENDBRANCH  30  33
ENDBRANCH  28  29
ENDBRANCH  27  28
ENDBRANCH   1  27
TORSDOF 17
ENDMDL
MODEL 3
REMARK VINA RESULT:     -12.4      3.974      9.897
REMARK SMILES Cc1ccc(C(=O)NCCCCNC(=O)c2ccc(-c3c4nc(c(-c5ccc(S(=O)(=O)[O-])cc5)c5ccc([nH]5)c(-c5ccc(S(=O)(=O)[O-])cc5)c5nc(c(-c6ccc(S(=O)(=O)[O-])cc6)c6ccc3[nH]6)C=C5)C=C4)cc2)c(Oc2cccc(F)c2C(N)=O)c1
REMARK SMILES IDX 10 1 9 2 8 3 6 4 7 5 5 7 1 8 2 9 3 10 88 11 4 12 76 13 77 14
REMARK SMILES IDX 78 15 79 16 84 17 80 18 82 19 81 20 83 21 85 22 86 23 87 24
REMARK SMILES IDX 11 27 12 28 13 29 14 30 15 32 16 33 17 34 75 35 18 36 74 37
REMARK SMILES IDX 19 38 20 39 21 40 68 41 22 42 73 43 67 44 69 45 23 46 72 47
REMARK SMILES IDX 66 48 65 49 24 51 54 52 35 53 53 54 36 55 39 56 52 57 70 58
REMARK SMILES IDX 37 59 38 60 51 62 71 63 40 64 25 65 26 66 34 67 27 68 33 69
REMARK SMILES IDX 28 70 29 71 30 72 31 73 32 74 55 75 56 76 64 77 57 78 63 79
REMARK SMILES IDX 58 80 59 81 60 82 61 83 62 84 41 85 42 86 50 87 43 88 49 89
REMARK SMILES IDX 44 90 45 91 46 92 47 93 48 94
REMARK H PARENT 8 6 86 25 86 26 13 31 69 50 39 61
REMARK Flexibility Score: inf
ROOT
ATOM      1  C   UNL A   1      35.145  23.071  26.913  1.00  0.00     0.023 C 
ENDROOT
BRANCH   1   2
ATOM      2  C   UNL A   1      34.139  22.221  27.693  1.00  0.00     0.116 C 
BRANCH   2   3
ATOM      3  N   UNL A   1      32.799  22.764  27.775  1.00  0.00    -0.352 N 
ATOM      4  C   UNL A   1      31.730  22.830  26.911  1.00  0.00     0.255 C 
ATOM      5  O   UNL A   1      30.691  23.300  27.390  1.00  0.00    -0.269 OA
ATOM      6  H   UNL A   1      32.610  23.182  28.645  1.00  0.00     0.163 HD
BRANCH   4   7
ATOM      7  C   UNL A   1      31.715  22.495  25.449  1.00  0.00     0.082 A 
ATOM      8  C   UNL A   1      32.001  21.044  21.359  1.00  0.00     0.044 C 
ATOM      9  C   UNL A   1      31.928  21.536  22.772  1.00  0.00    -0.047 A 
ATOM     10  C   UNL A   1      32.230  20.700  23.843  1.00  0.00     0.004 A 
ATOM     11  C   UNL A   1      31.591  22.865  23.040  1.00  0.00     0.051 A 
ATOM     12  C   UNL A   1      32.135  21.177  25.157  1.00  0.00     0.018 A 
ATOM     13  C   UNL A   1      31.440  23.334  24.360  1.00  0.00     0.140 A 
BRANCH  13  14
ATOM     14  O   UNL A   1      31.141  24.652  24.550  1.00  0.00    -0.456 OA
BRANCH  14  15
ATOM     15  C   UNL A   1      32.104  25.636  24.387  1.00  0.00     0.143 A 
ATOM     16  C   UNL A   1      32.936  25.718  25.516  1.00  0.00     0.048 A 
ATOM     17  C   UNL A   1      32.254  26.586  23.355  1.00  0.00     0.117 A 
ATOM     18  C   UNL A   1      33.903  26.714  25.627  1.00  0.00     0.007 A 
ATOM     19  C   UNL A   1      33.229  27.584  23.491  1.00  0.00     0.139 A 
ATOM     20  C   UNL A   1      34.045  27.656  24.616  1.00  0.00     0.040 A 
ATOM     21  F   UNL A   1      33.374  28.530  22.550  1.00  0.00    -0.206 F 
BRANCH  17  22
ATOM     22  C   UNL A   1      31.504  26.639  22.083  1.00  0.00     0.255 C 
ATOM     23  N   UNL A   1      31.894  25.820  21.062  1.00  0.00    -0.365 N 
ATOM     24  O   UNL A   1      30.540  27.385  21.948  1.00  0.00    -0.269 OA
ATOM     25  H   UNL A   1      32.670  25.224  21.178  1.00  0.00     0.159 HD
ATOM     26  H   UNL A   1      31.401  25.825  20.211  1.00  0.00     0.159 HD
ENDBRANCH  17  22
ENDBRANCH  14  15
ENDBRANCH  13  14
ENDBRANCH   4   7
ENDBRANCH   2   3
ENDBRANCH   1   2
BRANCH   1  27
ATOM     27  C   UNL A   1      35.685  22.475  25.619  1.00  0.00     0.023 C 
BRANCH  27  28
ATOM     28  C   UNL A   1      37.121  22.845  25.297  1.00  0.00     0.116 C 
BRANCH  28  29
ATOM     29  N   UNL A   1      38.140  22.191  26.109  1.00  0.00    -0.352 N 
ATOM     30  C   UNL A   1      39.372  22.698  26.479  1.00  0.00     0.251 C 
ATOM     31  H   UNL A   1      37.927  21.286  26.430  1.00  0.00     0.163 HD
ATOM     32  O   UNL A   1      40.326  22.001  26.634  1.00  0.00    -0.269 OA
BRANCH  30  33
ATOM     33  C   UNL A   1      39.408  24.144  26.871  1.00  0.00     0.039 A 
ATOM     34  C   UNL A   1      40.183  25.008  26.082  1.00  0.00     0.014 A 
ATOM     35  C   UNL A   1      38.891  24.583  28.085  1.00  0.00     0.014 A 
ATOM     36  C   UNL A   1      40.567  26.251  26.583  1.00  0.00     0.010 A 
ATOM     37  C   UNL A   1      39.368  25.756  28.626  1.00  0.00     0.010 A 
ATOM     38  C   UNL A   1      40.224  26.586  27.887  1.00  0.00    -0.014 A 
BRANCH  38  39
ATOM     39  C   UNL A   1      40.672  27.766  28.619  1.00  0.00     0.031 A 
ATOM     40  C   UNL A   1      39.791  28.960  28.674  1.00  0.00     0.074 A 
ATOM     41  C   UNL A   1      41.730  27.661  29.453  1.00  0.00     0.049 A 
ATOM     42  N   UNL A   1      40.118  30.093  29.199  1.00  0.00    -0.248 NA
ATOM     43  C   UNL A   1      38.456  28.981  28.067  1.00  0.00     0.031 C 
ATOM     44  C   UNL A   1      42.003  28.486  30.628  1.00  0.00     0.029 A 
ATOM     45  N   UNL A   1      42.909  26.933  29.274  1.00  0.00    -0.354 N 
ATOM     46  C   UNL A   1      38.961  30.828  29.322  1.00  0.00     0.074 A 
ATOM     47  C   UNL A   1      38.002  30.170  28.473  1.00  0.00     0.031 C 
ATOM     48  C   UNL A   1      43.321  28.452  30.879  1.00  0.00     0.029 A 
ATOM     49  C   UNL A   1      43.940  27.757  29.763  1.00  0.00     0.049 A 
ATOM     50  H   UNL A   1      43.000  26.033  28.885  1.00  0.00     0.167 HD
ATOM     51  C   UNL A   1      38.886  31.808  30.265  1.00  0.00     0.031 A 
ATOM     52  C   UNL A   1      44.942  28.274  28.991  1.00  0.00     0.031 A 
ATOM     53  C   UNL A   1      40.207  32.158  30.782  1.00  0.00     0.049 A 
ATOM     54  C   UNL A   1      45.027  29.785  29.043  1.00  0.00     0.074 A 
ATOM     55  C   UNL A   1      40.848  31.951  31.990  1.00  0.00     0.029 A 
ATOM     56  N   UNL A   1      41.177  32.610  29.892  1.00  0.00    -0.354 N 
ATOM     57  N   UNL A   1      44.072  30.555  29.484  1.00  0.00    -0.248 NA
ATOM     58  C   UNL A   1      46.174  30.544  28.553  1.00  0.00     0.031 C 
ATOM     59  C   UNL A   1      42.240  32.160  31.781  1.00  0.00     0.029 A 
ATOM     60  C   UNL A   1      42.430  32.542  30.463  1.00  0.00     0.049 A 
ATOM     61  H   UNL A   1      40.993  32.935  28.981  1.00  0.00     0.167 HD
ATOM     62  C   UNL A   1      44.435  31.866  29.336  1.00  0.00     0.074 A 
ATOM     63  C   UNL A   1      45.768  31.809  28.763  1.00  0.00     0.031 C 
ATOM     64  C   UNL A   1      43.607  32.894  29.680  1.00  0.00     0.031 A 
BRANCH  51  65
ATOM     65  C   UNL A   1      37.588  32.286  30.889  1.00  0.00    -0.014 A 
ATOM     66  C   UNL A   1      36.780  33.216  30.200  1.00  0.00     0.010 A 
ATOM     67  C   UNL A   1      37.177  31.973  32.203  1.00  0.00     0.010 A 
ATOM     68  C   UNL A   1      35.651  33.809  30.795  1.00  0.00     0.020 A 
ATOM     69  C   UNL A   1      36.036  32.530  32.796  1.00  0.00     0.020 A 
ATOM     70  C   UNL A   1      35.288  33.465  32.096  1.00  0.00     0.054 A 
BRANCH  70  71
ATOM     71  S   UNL A   1      33.863  34.261  32.881  1.00  0.00     0.124 S 
ATOM     72  O   UNL A   1      33.077  33.116  33.331  1.00  0.00    -0.237 OA
ATOM     73  O   UNL A   1      34.482  35.057  33.937  1.00  0.00    -0.237 OA
ATOM     74  O   UNL A   1      33.259  35.038  31.799  1.00  0.00    -0.744 OA
ENDBRANCH  70  71
ENDBRANCH  51  65
BRANCH  52  75
ATOM     75  C   UNL A   1      45.274  27.463  27.788  1.00  0.00    -0.014 A 
ATOM     76  C   UNL A   1      44.751  27.893  26.552  1.00  0.00     0.010 A 
ATOM     77  C   UNL A   1      46.411  26.633  27.802  1.00  0.00     0.010 A 
ATOM     78  C   UNL A   1      45.466  27.672  25.376  1.00  0.00     0.020 A 
ATOM     79  C   UNL A   1      47.131  26.416  26.621  1.00  0.00     0.020 A 
ATOM     80  C   UNL A   1      46.696  27.016  25.437  1.00  0.00     0.054 A 
BRANCH  80  81
ATOM     81  S   UNL A   1      47.819  27.197  24.019  1.00  0.00     0.124 S 
ATOM     82  O   UNL A   1      48.932  27.947  24.594  1.00  0.00    -0.237 OA
ATOM     83  O   UNL A   1      48.104  25.800  23.698  1.00  0.00    -0.237 OA
ATOM     84  O   UNL A   1      47.010  27.913  23.038  1.00  0.00    -0.744 OA
ENDBRANCH  80  81
ENDBRANCH  52  75
BRANCH  64  85
ATOM     85  C   UNL A   1      43.859  34.345  29.361  1.00  0.00    -0.014 A 
ATOM     86  C   UNL A   1      43.300  35.010  28.258  1.00  0.00     0.010 A 
ATOM     87  C   UNL A   1      44.593  35.129  30.282  1.00  0.00     0.010 A 
ATOM     88  C   UNL A   1      43.531  36.375  28.036  1.00  0.00     0.020 A 
ATOM     89  C   UNL A   1      44.795  36.499  30.093  1.00  0.00     0.020 A 
ATOM     90  C   UNL A   1      44.285  37.110  28.951  1.00  0.00     0.054 A 
BRANCH  90  91
ATOM     91  S   UNL A   1      44.544  38.882  28.686  1.00  0.00     0.124 S 
ATOM     92  O   UNL A   1      44.127  39.042  27.296  1.00  0.00    -0.237 OA
ATOM     93  O   UNL A   1      43.663  39.497  29.678  1.00  0.00    -0.237 OA
ATOM     94  O   UNL A   1      45.971  39.059  28.938  1.00  0.00    -0.744 OA
ENDBRANCH  90  91
ENDBRANCH  64  85
ENDBRANCH  38  39
ENDBRANCH  30  33
ENDBRANCH  28  29
ENDBRANCH  27  28
ENDBRANCH   1  27
TORSDOF 17
ENDMDL
