MODEL 1
REMARK VINA RESULT:     -11.0      0.000      0.000
REMARK SMILES CCc1ccc(C(=O)NC[C@@H](CC(C)C)C(=O)NCCCCNC(=O)c2ccc(-c3c4nc(c(-c5ccc(S(=O)(=O)[O-])cc5)c5ccc([nH]5)c(-c5ccc(S(=O)(=O)[O-])cc5)c5nc(c(-c6ccc(S(=O)(=O)[O-])cc6)c6ccc3[nH]6)C=C5)C=C4)cc2)s1
REMARK SMILES IDX 20 1 19 2 18 3 16 4 17 5 11 7 10 8 9 9 7 10 8 11 6 13 3 14
REMARK SMILES IDX 4 15 86 16 5 17 2 18 1 19 12 20 13 21 14 22 15 23 21 24
REMARK SMILES IDX 22 25 23 26 24 27 25 29 26 30 27 31 85 32 28 33 84 34 29 35
REMARK SMILES IDX 30 36 31 37 78 38 32 39 83 40 77 41 79 42 33 43 82 44 76 45
REMARK SMILES IDX 75 46 34 48 64 49 45 50 63 51 46 52 49 53 62 54 80 55 47 56
REMARK SMILES IDX 48 57 61 59 81 60 50 61 35 62 36 63 44 64 37 65 43 66 38 67
REMARK SMILES IDX 39 68 40 69 41 70 42 71 65 72 66 73 74 74 67 75 73 76 68 77
REMARK SMILES IDX 69 78 70 79 71 80 72 81 51 82 52 83 60 84 53 85 59 86 54 87
REMARK SMILES IDX 55 88 56 89 57 90 58 91
REMARK H PARENT 18 6 9 12 23 28 79 47 49 58
REMARK Flexibility Score: inf
ROOT
ATOM      1  C   UNL A   1      37.277  22.442  25.285  1.00  0.00     0.023 C 
ENDROOT
BRANCH   1   2
ATOM      2  C   UNL A   1      35.900  21.944  24.873  1.00  0.00     0.116 C 
BRANCH   2   3
ATOM      3  N   UNL A   1      35.363  22.625  23.711  1.00  0.00    -0.356 N 
ATOM      4  C   UNL A   1      34.083  22.788  23.284  1.00  0.00     0.224 C 
ATOM      5  O   UNL A   1      33.900  23.579  22.353  1.00  0.00    -0.275 OA
ATOM      6  H   UNL A   1      36.043  23.040  23.132  1.00  0.00     0.163 HD
BRANCH   4   7
ATOM      7  C   UNL A   1      32.890  22.060  23.900  1.00  0.00     0.098 C 
BRANCH   7   8
ATOM      8  C   UNL A   1      31.660  22.956  24.099  1.00  0.00     0.129 C 
BRANCH   8   9
ATOM      9  N   UNL A   1      31.150  22.938  25.459  1.00  0.00    -0.351 N 
ATOM     10  C   UNL A   1      30.798  23.961  26.310  1.00  0.00     0.261 C 
ATOM     11  O   UNL A   1      30.126  23.610  27.284  1.00  0.00    -0.268 OA
ATOM     12  H   UNL A   1      31.038  22.036  25.838  1.00  0.00     0.163 HD
BRANCH  10  13
ATOM     13  C   UNL A   1      31.206  25.343  26.074  1.00  0.00     0.092 A 
ATOM     14  C   UNL A   1      32.685  27.318  25.664  1.00  0.00     0.005 A 
ATOM     15  C   UNL A   1      31.348  27.605  25.475  1.00  0.00     0.016 A 
ATOM     16  S   UNL A   1      32.885  25.711  26.214  1.00  0.00    -0.135 S 
ATOM     17  C   UNL A   1      30.505  26.470  25.686  1.00  0.00     0.026 A 
BRANCH  14  18
ATOM     18  C   UNL A   1      33.849  28.254  25.468  1.00  0.00     0.043 C 
ATOM     19  C   UNL A   1      34.378  28.903  26.740  1.00  0.00     0.010 C 
ENDBRANCH  14  18
ENDBRANCH  10  13
ENDBRANCH   8   9
ENDBRANCH   7   8
BRANCH   7  20
ATOM     20  C   UNL A   1      32.590  20.671  23.276  1.00  0.00     0.018 C 
BRANCH  20  21
ATOM     21  C   UNL A   1      32.506  19.457  24.224  1.00  0.00    -0.017 C 
ATOM     22  C   UNL A   1      33.316  18.263  23.702  1.00  0.00     0.007 C 
ATOM     23  C   UNL A   1      33.017  19.805  25.626  1.00  0.00     0.007 C 
ENDBRANCH  20  21
ENDBRANCH   7  20
ENDBRANCH   4   7
ENDBRANCH   2   3
ENDBRANCH   1   2
BRANCH   1  24
ATOM     24  C   UNL A   1      37.279  23.787  26.006  1.00  0.00     0.023 C 
BRANCH  24  25
ATOM     25  C   UNL A   1      38.554  24.122  26.775  1.00  0.00     0.116 C 
BRANCH  25  26
ATOM     26  N   UNL A   1      39.656  24.536  25.916  1.00  0.00    -0.352 N 
ATOM     27  C   UNL A   1      40.588  25.531  26.099  1.00  0.00     0.251 C 
ATOM     28  H   UNL A   1      39.746  24.028  25.078  1.00  0.00     0.163 HD
ATOM     29  O   UNL A   1      41.369  25.807  25.197  1.00  0.00    -0.269 OA
BRANCH  27  30
ATOM     30  C   UNL A   1      40.616  26.285  27.370  1.00  0.00     0.039 A 
ATOM     31  C   UNL A   1      41.547  27.315  27.517  1.00  0.00     0.014 A 
ATOM     32  C   UNL A   1      39.711  26.004  28.397  1.00  0.00     0.014 A 
ATOM     33  C   UNL A   1      41.512  28.117  28.660  1.00  0.00     0.010 A 
ATOM     34  C   UNL A   1      39.621  26.858  29.493  1.00  0.00     0.010 A 
ATOM     35  C   UNL A   1      40.517  27.926  29.635  1.00  0.00    -0.014 A 
BRANCH  35  36
ATOM     36  C   UNL A   1      40.392  28.863  30.782  1.00  0.00     0.031 A 
ATOM     37  C   UNL A   1      41.245  28.693  32.011  1.00  0.00     0.074 A 
ATOM     38  C   UNL A   1      39.471  29.848  30.732  1.00  0.00     0.049 A 
ATOM     39  N   UNL A   1      41.278  29.426  33.096  1.00  0.00    -0.248 NA
ATOM     40  C   UNL A   1      42.162  27.541  32.042  1.00  0.00     0.031 C 
ATOM     41  C   UNL A   1      38.532  30.076  29.629  1.00  0.00     0.029 A 
ATOM     42  N   UNL A   1      39.168  30.842  31.629  1.00  0.00    -0.354 N 
ATOM     43  C   UNL A   1      42.203  28.820  33.936  1.00  0.00     0.074 A 
ATOM     44  C   UNL A   1      42.676  27.632  33.261  1.00  0.00     0.031 C 
ATOM     45  C   UNL A   1      37.789  31.161  29.898  1.00  0.00     0.029 A 
ATOM     46  C   UNL A   1      38.166  31.685  31.205  1.00  0.00     0.049 A 
ATOM     47  H   UNL A   1      39.628  30.945  32.494  1.00  0.00     0.167 HD
ATOM     48  C   UNL A   1      42.636  29.226  35.154  1.00  0.00     0.031 A 
ATOM     49  C   UNL A   1      37.608  32.756  31.803  1.00  0.00     0.031 A 
ATOM     50  C   UNL A   1      42.179  30.420  35.817  1.00  0.00     0.049 A 
ATOM     51  C   UNL A   1      38.123  33.196  33.146  1.00  0.00     0.074 A 
ATOM     52  C   UNL A   1      42.619  30.957  37.014  1.00  0.00     0.029 A 
ATOM     53  N   UNL A   1      41.178  31.255  35.348  1.00  0.00    -0.354 N 
ATOM     54  N   UNL A   1      39.075  32.665  33.877  1.00  0.00    -0.248 NA
ATOM     55  C   UNL A   1      37.502  34.389  33.737  1.00  0.00     0.031 C 
ATOM     56  C   UNL A   1      41.840  32.082  37.300  1.00  0.00     0.029 A 
ATOM     57  C   UNL A   1      40.961  32.285  36.248  1.00  0.00     0.049 A 
ATOM     58  H   UNL A   1      40.693  31.135  34.500  1.00  0.00     0.167 HD
ATOM     59  C   UNL A   1      39.179  33.473  35.004  1.00  0.00     0.074 A 
ATOM     60  C   UNL A   1      38.218  34.543  34.842  1.00  0.00     0.031 C 
ATOM     61  C   UNL A   1      39.995  33.340  36.079  1.00  0.00     0.031 A 
BRANCH  48  62
ATOM     62  C   UNL A   1      43.662  28.378  35.861  1.00  0.00    -0.014 A 
ATOM     63  C   UNL A   1      43.277  27.313  36.695  1.00  0.00     0.010 A 
ATOM     64  C   UNL A   1      45.030  28.593  35.615  1.00  0.00     0.010 A 
ATOM     65  C   UNL A   1      44.240  26.492  37.284  1.00  0.00     0.020 A 
ATOM     66  C   UNL A   1      45.997  27.757  36.181  1.00  0.00     0.020 A 
ATOM     67  C   UNL A   1      45.595  26.715  37.019  1.00  0.00     0.054 A 
BRANCH  67  68
ATOM     68  S   UNL A   1      46.820  25.591  37.745  1.00  0.00     0.124 S 
ATOM     69  O   UNL A   1      46.007  24.835  38.696  1.00  0.00    -0.237 OA
ATOM     70  O   UNL A   1      47.289  24.838  36.584  1.00  0.00    -0.237 OA
ATOM     71  O   UNL A   1      47.805  26.488  38.343  1.00  0.00    -0.744 OA
ENDBRANCH  67  68
ENDBRANCH  48  62
BRANCH  49  72
ATOM     72  C   UNL A   1      36.495  33.491  31.137  1.00  0.00    -0.014 A 
ATOM     73  C   UNL A   1      35.242  33.625  31.760  1.00  0.00     0.010 A 
ATOM     74  C   UNL A   1      36.683  34.047  29.857  1.00  0.00     0.010 A 
ATOM     75  C   UNL A   1      34.187  34.267  31.103  1.00  0.00     0.020 A 
ATOM     76  C   UNL A   1      35.642  34.720  29.211  1.00  0.00     0.020 A 
ATOM     77  C   UNL A   1      34.394  34.809  29.831  1.00  0.00     0.054 A 
BRANCH  77  78
ATOM     78  S   UNL A   1      33.021  35.659  29.005  1.00  0.00     0.124 S 
ATOM     79  O   UNL A   1      33.722  36.650  28.196  1.00  0.00    -0.237 OA
ATOM     80  O   UNL A   1      32.379  34.576  28.265  1.00  0.00    -0.237 OA
ATOM     81  O   UNL A   1      32.236  36.195  30.114  1.00  0.00    -0.744 OA
ENDBRANCH  77  78
ENDBRANCH  49  72
BRANCH  61  82
ATOM     82  C   UNL A   1      39.899  34.391  37.153  1.00  0.00    -0.014 A 
ATOM     83  C   UNL A   1      40.633  35.589  37.072  1.00  0.00     0.010 A 
ATOM     84  C   UNL A   1      39.040  34.188  38.250  1.00  0.00     0.010 A 
ATOM     85  C   UNL A   1      40.549  36.540  38.091  1.00  0.00     0.020 A 
ATOM     86  C   UNL A   1      38.927  35.152  39.254  1.00  0.00     0.020 A 
ATOM     87  C   UNL A   1      39.699  36.313  39.179  1.00  0.00     0.054 A 
BRANCH  87  88
ATOM     88  S   UNL A   1      39.597  37.569  40.482  1.00  0.00     0.124 S 
ATOM     89  O   UNL A   1      39.021  36.811  41.589  1.00  0.00    -0.237 OA
ATOM     90  O   UNL A   1      40.992  37.969  40.652  1.00  0.00    -0.237 OA
ATOM     91  O   UNL A   1      38.726  38.594  39.909  1.00  0.00    -0.744 OA
ENDBRANCH  87  88
ENDBRANCH  61  82
ENDBRANCH  35  36
ENDBRANCH  27  30
ENDBRANCH  25  26
ENDBRANCH  24  25
ENDBRANCH   1  24
TORSDOF 20
ENDMDL
MODEL 2
REMARK VINA RESULT:     -10.6      4.564     10.131
REMARK SMILES CCc1ccc(C(=O)NC[C@@H](CC(C)C)C(=O)NCCCCNC(=O)c2ccc(-c3c4nc(c(-c5ccc(S(=O)(=O)[O-])cc5)c5ccc([nH]5)c(-c5ccc(S(=O)(=O)[O-])cc5)c5nc(c(-c6ccc(S(=O)(=O)[O-])cc6)c6ccc3[nH]6)C=C5)C=C4)cc2)s1
REMARK SMILES IDX 20 1 19 2 18 3 16 4 17 5 11 7 10 8 9 9 7 10 8 11 6 13 3 14
REMARK SMILES IDX 4 15 86 16 5 17 2 18 1 19 12 20 13 21 14 22 15 23 21 24
REMARK SMILES IDX 22 25 23 26 24 27 25 29 26 30 27 31 85 32 28 33 84 34 29 35
REMARK SMILES IDX 30 36 31 37 78 38 32 39 83 40 77 41 79 42 33 43 82 44 76 45
REMARK SMILES IDX 75 46 34 48 64 49 45 50 63 51 46 52 49 53 62 54 80 55 47 56
REMARK SMILES IDX 48 57 61 59 81 60 50 61 35 62 36 63 44 64 37 65 43 66 38 67
REMARK SMILES IDX 39 68 40 69 41 70 42 71 65 72 66 73 74 74 67 75 73 76 68 77
REMARK SMILES IDX 69 78 70 79 71 80 72 81 51 82 52 83 60 84 53 85 59 86 54 87
REMARK SMILES IDX 55 88 56 89 57 90 58 91
REMARK H PARENT 18 6 9 12 23 28 79 47 49 58
REMARK Flexibility Score: inf
ROOT
ATOM      1  C   UNL A   1      32.582  27.242  25.365  1.00  0.00     0.023 C 
ENDROOT
BRANCH   1   2
ATOM      2  C   UNL A   1      33.722  26.349  24.902  1.00  0.00     0.116 C 
BRANCH   2   3
ATOM      3  N   UNL A   1      33.760  26.159  23.465  1.00  0.00    -0.356 N 
ATOM      4  C   UNL A   1      33.847  25.028  22.716  1.00  0.00     0.224 C 
ATOM      5  O   UNL A   1      33.670  25.148  21.499  1.00  0.00    -0.275 OA
ATOM      6  H   UNL A   1      33.716  26.993  22.943  1.00  0.00     0.163 HD
BRANCH   4   7
ATOM      7  C   UNL A   1      34.137  23.649  23.303  1.00  0.00     0.098 C 
BRANCH   7   8
ATOM      8  C   UNL A   1      33.384  22.511  22.599  1.00  0.00     0.129 C 
BRANCH   8   9
ATOM      9  N   UNL A   1      33.087  21.391  23.475  1.00  0.00    -0.351 N 
ATOM     10  C   UNL A   1      32.299  21.302  24.599  1.00  0.00     0.261 C 
ATOM     11  O   UNL A   1      32.021  20.148  24.940  1.00  0.00    -0.268 OA
ATOM     12  H   UNL A   1      33.529  20.548  23.219  1.00  0.00     0.163 HD
BRANCH  10  13
ATOM     13  C   UNL A   1      31.847  22.483  25.327  1.00  0.00     0.092 A 
ATOM     14  C   UNL A   1      30.496  24.505  25.915  1.00  0.00     0.005 A 
ATOM     15  C   UNL A   1      31.343  24.115  26.933  1.00  0.00     0.016 A 
ATOM     16  S   UNL A   1      30.719  23.521  24.535  1.00  0.00    -0.135 S 
ATOM     17  C   UNL A   1      32.097  22.946  26.605  1.00  0.00     0.026 A 
BRANCH  14  18
ATOM     18  C   UNL A   1      29.517  25.650  25.940  1.00  0.00     0.043 C 
ATOM     19  C   UNL A   1      29.216  26.273  24.584  1.00  0.00     0.010 C 
ENDBRANCH  14  18
ENDBRANCH  10  13
ENDBRANCH   8   9
ENDBRANCH   7   8
BRANCH   7  20
ATOM     20  C   UNL A   1      35.638  23.366  23.574  1.00  0.00     0.018 C 
BRANCH  20  21
ATOM     21  C   UNL A   1      36.054  22.981  25.009  1.00  0.00    -0.017 C 
ATOM     22  C   UNL A   1      36.262  21.469  25.161  1.00  0.00     0.007 C 
ATOM     23  C   UNL A   1      37.350  23.685  25.423  1.00  0.00     0.007 C 
ENDBRANCH  20  21
ENDBRANCH   7  20
ENDBRANCH   4   7
ENDBRANCH   2   3
ENDBRANCH   1   2
BRANCH   1  24
ATOM     24  C   UNL A   1      32.996  28.662  25.742  1.00  0.00     0.023 C 
BRANCH  24  25
ATOM     25  C   UNL A   1      33.714  28.807  27.081  1.00  0.00     0.116 C 
BRANCH  25  26
ATOM     26  N   UNL A   1      33.705  30.168  27.599  1.00  0.00    -0.352 N 
ATOM     27  C   UNL A   1      34.675  30.852  28.295  1.00  0.00     0.251 C 
ATOM     28  H   UNL A   1      32.879  30.676  27.425  1.00  0.00     0.163 HD
ATOM     29  O   UNL A   1      34.428  31.961  28.753  1.00  0.00    -0.269 OA
BRANCH  27  30
ATOM     30  C   UNL A   1      35.996  30.227  28.517  1.00  0.00     0.039 A 
ATOM     31  C   UNL A   1      36.925  30.235  27.476  1.00  0.00     0.014 A 
ATOM     32  C   UNL A   1      36.330  29.668  29.754  1.00  0.00     0.014 A 
ATOM     33  C   UNL A   1      38.218  29.758  27.703  1.00  0.00     0.010 A 
ATOM     34  C   UNL A   1      37.643  29.275  30.003  1.00  0.00     0.010 A 
ATOM     35  C   UNL A   1      38.602  29.320  28.982  1.00  0.00    -0.014 A 
BRANCH  35  36
ATOM     36  C   UNL A   1      40.013  28.942  29.260  1.00  0.00     0.031 A 
ATOM     37  C   UNL A   1      40.961  29.923  29.898  1.00  0.00     0.074 A 
ATOM     38  C   UNL A   1      40.453  27.720  28.893  1.00  0.00     0.049 A 
ATOM     39  N   UNL A   1      42.217  29.755  30.226  1.00  0.00    -0.248 NA
ATOM     40  C   UNL A   1      40.444  31.271  30.186  1.00  0.00     0.031 C 
ATOM     41  C   UNL A   1      39.654  26.704  28.201  1.00  0.00     0.029 A 
ATOM     42  N   UNL A   1      41.679  27.122  29.048  1.00  0.00    -0.354 N 
ATOM     43  C   UNL A   1      42.641  30.973  30.742  1.00  0.00     0.074 A 
ATOM     44  C   UNL A   1      41.525  31.887  30.642  1.00  0.00     0.031 C 
ATOM     45  C   UNL A   1      40.398  25.600  28.027  1.00  0.00     0.029 A 
ATOM     46  C   UNL A   1      41.735  25.838  28.556  1.00  0.00     0.049 A 
ATOM     47  H   UNL A   1      42.446  27.570  29.473  1.00  0.00     0.167 HD
ATOM     48  C   UNL A   1      43.846  31.297  31.271  1.00  0.00     0.031 A 
ATOM     49  C   UNL A   1      42.750  24.952  28.530  1.00  0.00     0.031 A 
ATOM     50  C   UNL A   1      44.949  30.379  31.388  1.00  0.00     0.049 A 
ATOM     51  C   UNL A   1      44.071  25.332  29.143  1.00  0.00     0.074 A 
ATOM     52  C   UNL A   1      46.180  30.592  31.984  1.00  0.00     0.029 A 
ATOM     53  N   UNL A   1      44.961  29.084  30.896  1.00  0.00    -0.354 N 
ATOM     54  N   UNL A   1      44.416  26.458  29.721  1.00  0.00    -0.248 NA
ATOM     55  C   UNL A   1      45.131  24.317  29.116  1.00  0.00     0.031 C 
ATOM     56  C   UNL A   1      46.959  29.446  31.796  1.00  0.00     0.029 A 
ATOM     57  C   UNL A   1      46.190  28.496  31.143  1.00  0.00     0.049 A 
ATOM     58  H   UNL A   1      44.207  28.646  30.438  1.00  0.00     0.167 HD
ATOM     59  C   UNL A   1      45.728  26.277  30.145  1.00  0.00     0.074 A 
ATOM     60  C   UNL A   1      46.100  24.925  29.785  1.00  0.00     0.031 C 
ATOM     61  C   UNL A   1      46.552  27.152  30.773  1.00  0.00     0.031 A 
BRANCH  48  62
ATOM     62  C   UNL A   1      44.045  32.704  31.771  1.00  0.00    -0.014 A 
ATOM     63  C   UNL A   1      43.753  33.052  33.103  1.00  0.00     0.010 A 
ATOM     64  C   UNL A   1      44.616  33.670  30.922  1.00  0.00     0.010 A 
ATOM     65  C   UNL A   1      44.012  34.343  33.569  1.00  0.00     0.020 A 
ATOM     66  C   UNL A   1      44.902  34.955  31.392  1.00  0.00     0.020 A 
ATOM     67  C   UNL A   1      44.590  35.285  32.712  1.00  0.00     0.054 A 
BRANCH  67  68
ATOM     68  S   UNL A   1      44.976  36.933  33.366  1.00  0.00     0.124 S 
ATOM     69  O   UNL A   1      46.242  36.694  34.056  1.00  0.00    -0.237 OA
ATOM     70  O   UNL A   1      45.066  37.743  32.153  1.00  0.00    -0.237 OA
ATOM     71  O   UNL A   1      43.842  37.238  34.234  1.00  0.00    -0.744 OA
ENDBRANCH  67  68
ENDBRANCH  48  62
BRANCH  49  72
ATOM     72  C   UNL A   1      42.561  23.614  27.900  1.00  0.00    -0.014 A 
ATOM     73  C   UNL A   1      42.016  22.541  28.627  1.00  0.00     0.010 A 
ATOM     74  C   UNL A   1      42.949  23.403  26.563  1.00  0.00     0.010 A 
ATOM     75  C   UNL A   1      41.896  21.276  28.044  1.00  0.00     0.020 A 
ATOM     76  C   UNL A   1      42.799  22.149  25.965  1.00  0.00     0.020 A 
ATOM     77  C   UNL A   1      42.291  21.087  26.717  1.00  0.00     0.054 A 
BRANCH  77  78
ATOM     78  S   UNL A   1      42.105  19.444  25.970  1.00  0.00     0.124 S 
ATOM     79  O   UNL A   1      42.930  19.562  24.772  1.00  0.00    -0.237 OA
ATOM     80  O   UNL A   1      42.623  18.564  27.013  1.00  0.00    -0.237 OA
ATOM     81  O   UNL A   1      40.667  19.338  25.734  1.00  0.00    -0.744 OA
ENDBRANCH  77  78
ENDBRANCH  49  72
BRANCH  61  82
ATOM     82  C   UNL A   1      47.931  26.665  31.131  1.00  0.00    -0.014 A 
ATOM     83  C   UNL A   1      48.197  26.078  32.382  1.00  0.00     0.010 A 
ATOM     84  C   UNL A   1      48.973  26.774  30.192  1.00  0.00     0.010 A 
ATOM     85  C   UNL A   1      49.489  25.656  32.704  1.00  0.00     0.020 A 
ATOM     86  C   UNL A   1      50.259  26.322  30.497  1.00  0.00     0.020 A 
ATOM     87  C   UNL A   1      50.513  25.784  31.760  1.00  0.00     0.054 A 
BRANCH  87  88
ATOM     88  S   UNL A   1      52.179  25.217  32.198  1.00  0.00     0.124 S 
ATOM     89  O   UNL A   1      52.393  25.870  33.486  1.00  0.00    -0.237 OA
ATOM     90  O   UNL A   1      52.021  23.766  32.247  1.00  0.00    -0.237 OA
ATOM     91  O   UNL A   1      53.012  25.711  31.103  1.00  0.00    -0.744 OA
ENDBRANCH  87  88
ENDBRANCH  61  82
ENDBRANCH  35  36
ENDBRANCH  27  30
ENDBRANCH  25  26
ENDBRANCH  24  25
ENDBRANCH   1  24
TORSDOF 20
ENDMDL
MODEL 3
REMARK VINA RESULT:     -10.2      5.181      9.848
REMARK SMILES CCc1ccc(C(=O)NC[C@@H](CC(C)C)C(=O)NCCCCNC(=O)c2ccc(-c3c4nc(c(-c5ccc(S(=O)(=O)[O-])cc5)c5ccc([nH]5)c(-c5ccc(S(=O)(=O)[O-])cc5)c5nc(c(-c6ccc(S(=O)(=O)[O-])cc6)c6ccc3[nH]6)C=C5)C=C4)cc2)s1
REMARK SMILES IDX 20 1 19 2 18 3 16 4 17 5 11 7 10 8 9 9 7 10 8 11 6 13 3 14
REMARK SMILES IDX 4 15 86 16 5 17 2 18 1 19 12 20 13 21 14 22 15 23 21 24
REMARK SMILES IDX 22 25 23 26 24 27 25 29 26 30 27 31 85 32 28 33 84 34 29 35
REMARK SMILES IDX 30 36 31 37 78 38 32 39 83 40 77 41 79 42 33 43 82 44 76 45
REMARK SMILES IDX 75 46 34 48 64 49 45 50 63 51 46 52 49 53 62 54 80 55 47 56
REMARK SMILES IDX 48 57 61 59 81 60 50 61 35 62 36 63 44 64 37 65 43 66 38 67
REMARK SMILES IDX 39 68 40 69 41 70 42 71 65 72 66 73 74 74 67 75 73 76 68 77
REMARK SMILES IDX 69 78 70 79 71 80 72 81 51 82 52 83 60 84 53 85 59 86 54 87
REMARK SMILES IDX 55 88 56 89 57 90 58 91
REMARK H PARENT 18 6 9 12 23 28 79 47 49 58
REMARK Flexibility Score: inf
ROOT
ATOM      1  C   UNL A   1      32.885  27.216  25.651  1.00  0.00     0.023 C 
ENDROOT
BRANCH   1   2
ATOM      2  C   UNL A   1      34.003  26.333  25.118  1.00  0.00     0.116 C 
BRANCH   2   3
ATOM      3  N   UNL A   1      33.897  26.062  23.698  1.00  0.00    -0.356 N 
ATOM      4  C   UNL A   1      33.924  24.891  23.008  1.00  0.00     0.224 C 
ATOM      5  O   UNL A   1      33.623  24.940  21.811  1.00  0.00    -0.275 OA
ATOM      6  H   UNL A   1      33.787  26.864  23.137  1.00  0.00     0.163 HD
BRANCH   4   7
ATOM      7  C   UNL A   1      34.295  23.550  23.638  1.00  0.00     0.098 C 
BRANCH   7   8
ATOM      8  C   UNL A   1      33.714  22.340  22.892  1.00  0.00     0.129 C 
BRANCH   8   9
ATOM      9  N   UNL A   1      33.293  21.268  23.777  1.00  0.00    -0.351 N 
ATOM     10  C   UNL A   1      32.408  21.257  24.831  1.00  0.00     0.261 C 
ATOM     11  O   UNL A   1      32.049  20.130  25.187  1.00  0.00    -0.268 OA
ATOM     12  H   UNL A   1      33.715  20.398  23.590  1.00  0.00     0.163 HD
BRANCH  10  13
ATOM     13  C   UNL A   1      31.951  22.484  25.475  1.00  0.00     0.092 A 
ATOM     14  C   UNL A   1      30.593  24.537  25.920  1.00  0.00     0.005 A 
ATOM     15  C   UNL A   1      31.437  24.220  26.965  1.00  0.00     0.016 A 
ATOM     16  S   UNL A   1      30.824  23.463  24.610  1.00  0.00    -0.135 S 
ATOM     17  C   UNL A   1      32.195  23.033  26.720  1.00  0.00     0.026 A 
BRANCH  14  18
ATOM     18  C   UNL A   1      29.611  25.679  25.864  1.00  0.00     0.043 C 
ATOM     19  C   UNL A   1      29.383  26.267  24.478  1.00  0.00     0.010 C 
ENDBRANCH  14  18
ENDBRANCH  10  13
ENDBRANCH   8   9
ENDBRANCH   7   8
BRANCH   7  20
ATOM     20  C   UNL A   1      35.788  23.415  24.036  1.00  0.00     0.018 C 
BRANCH  20  21
ATOM     21  C   UNL A   1      36.123  23.211  25.528  1.00  0.00    -0.017 C 
ATOM     22  C   UNL A   1      35.960  21.748  25.959  1.00  0.00     0.007 C 
ATOM     23  C   UNL A   1      37.558  23.645  25.844  1.00  0.00     0.007 C 
ENDBRANCH  20  21
ENDBRANCH   7  20
ENDBRANCH   4   7
ENDBRANCH   2   3
ENDBRANCH   1   2
BRANCH   1  24
ATOM     24  C   UNL A   1      33.317  28.627  26.042  1.00  0.00     0.023 C 
BRANCH  24  25
ATOM     25  C   UNL A   1      34.264  28.721  27.235  1.00  0.00     0.116 C 
BRANCH  25  26
ATOM     26  N   UNL A   1      34.169  29.986  27.951  1.00  0.00    -0.352 N 
ATOM     27  C   UNL A   1      35.110  30.638  28.713  1.00  0.00     0.251 C 
ATOM     28  H   UNL A   1      33.299  30.442  27.879  1.00  0.00     0.163 HD
ATOM     29  O   UNL A   1      34.796  31.643  29.339  1.00  0.00    -0.269 OA
BRANCH  27  30
ATOM     30  C   UNL A   1      36.484  30.101  28.801  1.00  0.00     0.039 A 
ATOM     31  C   UNL A   1      37.299  30.159  27.669  1.00  0.00     0.014 A 
ATOM     32  C   UNL A   1      36.979  29.577  29.998  1.00  0.00     0.014 A 
ATOM     33  C   UNL A   1      38.637  29.767  27.764  1.00  0.00     0.010 A 
ATOM     34  C   UNL A   1      38.332  29.270  30.112  1.00  0.00     0.010 A 
ATOM     35  C   UNL A   1      39.177  29.367  28.998  1.00  0.00    -0.014 A 
BRANCH  35  36
ATOM     36  C   UNL A   1      40.630  29.082  29.131  1.00  0.00     0.031 A 
ATOM     37  C   UNL A   1      41.189  27.736  28.752  1.00  0.00     0.074 A 
ATOM     38  C   UNL A   1      41.444  30.031  29.639  1.00  0.00     0.049 A 
ATOM     39  N   UNL A   1      42.431  27.322  28.790  1.00  0.00    -0.248 NA
ATOM     40  C   UNL A   1      40.233  26.713  28.296  1.00  0.00     0.031 C 
ATOM     41  C   UNL A   1      41.016  31.351  30.112  1.00  0.00     0.029 A 
ATOM     42  N   UNL A   1      42.801  30.035  29.846  1.00  0.00    -0.354 N 
ATOM     43  C   UNL A   1      42.402  25.996  28.377  1.00  0.00     0.074 A 
ATOM     44  C   UNL A   1      41.018  25.656  28.139  1.00  0.00     0.031 C 
ATOM     45  C   UNL A   1      42.091  32.047  30.515  1.00  0.00     0.029 A 
ATOM     46  C   UNL A   1      43.279  31.214  30.370  1.00  0.00     0.049 A 
ATOM     47  H   UNL A   1      43.380  29.265  29.637  1.00  0.00     0.167 HD
ATOM     48  C   UNL A   1      43.439  25.143  28.193  1.00  0.00     0.031 A 
ATOM     49  C   UNL A   1      44.532  31.585  30.700  1.00  0.00     0.031 A 
ATOM     50  C   UNL A   1      44.819  25.491  28.412  1.00  0.00     0.049 A 
ATOM     51  C   UNL A   1      45.665  30.623  30.466  1.00  0.00     0.074 A 
ATOM     52  C   UNL A   1      45.944  24.720  28.174  1.00  0.00     0.029 A 
ATOM     53  N   UNL A   1      45.263  26.699  28.924  1.00  0.00    -0.354 N 
ATOM     54  N   UNL A   1      45.625  29.407  29.975  1.00  0.00    -0.248 NA
ATOM     55  C   UNL A   1      47.014  31.090  30.813  1.00  0.00     0.031 C 
ATOM     56  C   UNL A   1      47.064  25.439  28.602  1.00  0.00     0.029 A 
ATOM     57  C   UNL A   1      46.643  26.684  29.042  1.00  0.00     0.049 A 
ATOM     58  H   UNL A   1      44.683  27.457  29.167  1.00  0.00     0.167 HD
ATOM     59  C   UNL A   1      46.946  28.974  29.935  1.00  0.00     0.074 A 
ATOM     60  C   UNL A   1      47.760  30.068  30.422  1.00  0.00     0.031 C 
ATOM     61  C   UNL A   1      47.441  27.776  29.536  1.00  0.00     0.031 A 
BRANCH  48  62
ATOM     62  C   UNL A   1      43.130  23.743  27.728  1.00  0.00    -0.014 A 
ATOM     63  C   UNL A   1      42.615  22.779  28.614  1.00  0.00     0.010 A 
ATOM     64  C   UNL A   1      43.273  23.415  26.368  1.00  0.00     0.010 A 
ATOM     65  C   UNL A   1      42.266  21.509  28.151  1.00  0.00     0.020 A 
ATOM     66  C   UNL A   1      42.900  22.153  25.895  1.00  0.00     0.020 A 
ATOM     67  C   UNL A   1      42.405  21.205  26.792  1.00  0.00     0.054 A 
BRANCH  67  68
ATOM     68  S   UNL A   1      41.881  19.569  26.210  1.00  0.00     0.124 S 
ATOM     69  O   UNL A   1      40.449  19.769  26.001  1.00  0.00    -0.237 OA
ATOM     70  O   UNL A   1      42.674  19.395  24.994  1.00  0.00    -0.237 OA
ATOM     71  O   UNL A   1      42.231  18.678  27.312  1.00  0.00    -0.744 OA
ENDBRANCH  67  68
ENDBRANCH  48  62
BRANCH  49  72
ATOM     72  C   UNL A   1      44.785  32.930  31.291  1.00  0.00    -0.014 A 
ATOM     73  C   UNL A   1      44.789  33.119  32.685  1.00  0.00     0.010 A 
ATOM     74  C   UNL A   1      45.004  34.039  30.453  1.00  0.00     0.010 A 
ATOM     75  C   UNL A   1      44.971  34.395  33.228  1.00  0.00     0.020 A 
ATOM     76  C   UNL A   1      45.221  35.310  30.992  1.00  0.00     0.020 A 
ATOM     77  C   UNL A   1      45.184  35.483  32.377  1.00  0.00     0.054 A 
BRANCH  77  78
ATOM     78  S   UNL A   1      45.441  37.127  33.100  1.00  0.00     0.124 S 
ATOM     79  O   UNL A   1      46.776  37.464  32.616  1.00  0.00    -0.237 OA
ATOM     80  O   UNL A   1      44.344  37.900  32.526  1.00  0.00    -0.237 OA
ATOM     81  O   UNL A   1      45.338  36.886  34.537  1.00  0.00    -0.744 OA
ENDBRANCH  77  78
ENDBRANCH  49  72
BRANCH  61  82
ATOM     82  C   UNL A   1      48.935  27.596  29.586  1.00  0.00    -0.014 A 
ATOM     83  C   UNL A   1      49.564  27.008  30.699  1.00  0.00     0.010 A 
ATOM     84  C   UNL A   1      49.721  27.999  28.491  1.00  0.00     0.010 A 
ATOM     85  C   UNL A   1      50.954  26.873  30.737  1.00  0.00     0.020 A 
ATOM     86  C   UNL A   1      51.108  27.835  28.509  1.00  0.00     0.020 A 
ATOM     87  C   UNL A   1      51.718  27.292  29.642  1.00  0.00     0.054 A 
BRANCH  87  88
ATOM     88  S   UNL A   1      53.519  27.095  29.710  1.00  0.00     0.124 S 
ATOM     89  O   UNL A   1      53.752  26.088  28.679  1.00  0.00    -0.237 OA
ATOM     90  O   UNL A   1      54.000  28.438  29.397  1.00  0.00    -0.237 OA
ATOM     91  O   UNL A   1      53.768  26.652  31.081  1.00  0.00    -0.744 OA
ENDBRANCH  87  88
ENDBRANCH  61  82
ENDBRANCH  35  36
ENDBRANCH  27  30
ENDBRANCH  25  26
ENDBRANCH  24  25
ENDBRANCH   1  24
TORSDOF 20
ENDMDL
