MODEL 1
REMARK VINA RESULT:     -10.7      0.000      0.000
REMARK SMILES Cc1cc(NC[C@H](C)[NH+](C)C)cc(C(=O)NCCCCNC(=O)c2ccc(-c3c4nc(c(-c5ccc(S(=O)(=O)[O-])cc5)c5ccc([nH]5)c(-c5ccc(S(=O)(=O)[O-])cc5)c5nc(c(-c6ccc(S(=O)(=O)[O-])cc6)c6ccc3[nH]6)C=C5)C=C4)cc2)c1N
REMARK SMILES IDX 18 1 17 2 16 3 14 4 15 5 13 7 1 8 2 9 3 10 84 11 4 12 12 13
REMARK SMILES IDX 85 14 5 17 6 19 7 20 8 21 9 22 10 23 11 24 19 26 20 27 21 28
REMARK SMILES IDX 22 29 23 31 24 32 25 33 83 34 26 35 82 36 27 37 28 38 29 39
REMARK SMILES IDX 76 40 30 41 81 42 75 43 77 44 31 45 80 46 74 47 73 48 32 50
REMARK SMILES IDX 62 51 43 52 61 53 44 54 47 55 60 56 78 57 45 58 46 59 59 61
REMARK SMILES IDX 79 62 48 63 33 64 34 65 42 66 35 67 41 68 36 69 37 70 38 71
REMARK SMILES IDX 39 72 40 73 63 74 64 75 72 76 65 77 71 78 66 79 67 80 68 81
REMARK SMILES IDX 69 82 70 83 49 84 50 85 58 86 51 87 57 88 52 89 53 90 54 91
REMARK SMILES IDX 55 92 56 93
REMARK H PARENT 16 6 85 15 85 16 5 18 9 25 21 30 77 49 47 60
REMARK Flexibility Score: inf
ROOT
ATOM      1  C   UNL A   1      32.580  27.226  25.032  1.00  0.00     0.023 C 
ENDROOT
BRANCH   1   2
ATOM      2  C   UNL A   1      31.658  26.017  24.834  1.00  0.00     0.116 C 
BRANCH   2   3
ATOM      3  N   UNL A   1      31.468  25.299  26.082  1.00  0.00    -0.352 N 
ATOM      4  C   UNL A   1      31.942  24.098  26.560  1.00  0.00     0.253 C 
ATOM      5  O   UNL A   1      31.596  23.792  27.705  1.00  0.00    -0.269 OA
ATOM      6  H   UNL A   1      30.879  25.768  26.717  1.00  0.00     0.163 HD
BRANCH   4   7
ATOM      7  C   UNL A   1      32.859  23.185  25.793  1.00  0.00     0.065 A 
ATOM      8  C   UNL A   1      36.482  23.022  24.566  1.00  0.00     0.046 C 
ATOM      9  C   UNL A   1      35.039  22.686  24.826  1.00  0.00    -0.025 A 
ATOM     10  C   UNL A   1      34.519  21.483  24.308  1.00  0.00     0.031 A 
ATOM     11  C   UNL A   1      34.208  23.552  25.573  1.00  0.00     0.047 A 
ATOM     12  C   UNL A   1      33.197  21.105  24.528  1.00  0.00     0.035 A 
ATOM     13  C   UNL A   1      32.424  21.935  25.340  1.00  0.00     0.041 A 
BRANCH  11  14
ATOM     14  N   UNL A   1      34.687  24.813  25.949  1.00  0.00    -0.398 N 
ATOM     15  H   UNL A   1      35.125  25.392  25.283  1.00  0.00     0.156 HD
ATOM     16  H   UNL A   1      34.587  25.120  26.879  1.00  0.00     0.156 HD
ENDBRANCH  11  14
BRANCH  12  17
ATOM     17  N   UNL A   1      32.691  19.944  23.960  1.00  0.00    -0.379 N 
ATOM     18  H   UNL A   1      32.377  19.958  23.027  1.00  0.00     0.160 HD
BRANCH  17  19
ATOM     19  C   UNL A   1      32.614  18.695  24.724  1.00  0.00     0.177 C 
BRANCH  19  20
ATOM     20  C   UNL A   1      33.841  17.763  24.507  1.00  0.00     0.199 C 
ATOM     21  C   UNL A   1      33.765  17.171  23.087  1.00  0.00     0.077 C 
BRANCH  20  22
ATOM     22  N   UNL A   1      34.065  16.682  25.501  1.00  0.00    -0.336 N 
ATOM     23  C   UNL A   1      32.915  15.790  25.631  1.00  0.00     0.332 C 
ATOM     24  C   UNL A   1      35.280  15.894  25.279  1.00  0.00     0.332 C 
ATOM     25  H   UNL A   1      34.195  17.186  26.377  1.00  0.00     0.347 HD
ENDBRANCH  20  22
ENDBRANCH  19  20
ENDBRANCH  17  19
ENDBRANCH  12  17
ENDBRANCH   4   7
ENDBRANCH   2   3
ENDBRANCH   1   2
BRANCH   1  26
ATOM     26  C   UNL A   1      32.306  28.031  26.304  1.00  0.00     0.023 C 
BRANCH  26  27
ATOM     27  C   UNL A   1      33.553  28.480  27.055  1.00  0.00     0.116 C 
BRANCH  27  28
ATOM     28  N   UNL A   1      33.488  29.863  27.507  1.00  0.00    -0.352 N 
ATOM     29  C   UNL A   1      34.469  30.598  28.133  1.00  0.00     0.251 C 
ATOM     30  H   UNL A   1      32.636  30.330  27.343  1.00  0.00     0.163 HD
ATOM     31  O   UNL A   1      34.234  31.728  28.537  1.00  0.00    -0.269 OA
BRANCH  29  32
ATOM     32  C   UNL A   1      35.790  29.975  28.351  1.00  0.00     0.039 A 
ATOM     33  C   UNL A   1      36.733  30.019  27.322  1.00  0.00     0.014 A 
ATOM     34  C   UNL A   1      36.116  29.420  29.592  1.00  0.00     0.014 A 
ATOM     35  C   UNL A   1      38.034  29.579  27.566  1.00  0.00     0.010 A 
ATOM     36  C   UNL A   1      37.428  29.040  29.851  1.00  0.00     0.010 A 
ATOM     37  C   UNL A   1      38.402  29.128  28.843  1.00  0.00    -0.014 A 
BRANCH  37  38
ATOM     38  C   UNL A   1      39.808  28.780  29.162  1.00  0.00     0.031 A 
ATOM     39  C   UNL A   1      40.716  29.796  29.795  1.00  0.00     0.074 A 
ATOM     40  C   UNL A   1      40.287  27.572  28.804  1.00  0.00     0.049 A 
ATOM     41  N   UNL A   1      41.988  29.696  30.084  1.00  0.00    -0.248 NA
ATOM     42  C   UNL A   1      40.124  31.102  30.122  1.00  0.00     0.031 C 
ATOM     43  C   UNL A   1      39.519  26.518  28.136  1.00  0.00     0.029 A 
ATOM     44  N   UNL A   1      41.540  27.031  28.942  1.00  0.00    -0.354 N 
ATOM     45  C   UNL A   1      42.353  30.929  30.607  1.00  0.00     0.074 A 
ATOM     46  C   UNL A   1      41.180  31.774  30.558  1.00  0.00     0.031 C 
ATOM     47  C   UNL A   1      40.312  25.452  27.941  1.00  0.00     0.029 A 
ATOM     48  C   UNL A   1      41.650  25.756  28.439  1.00  0.00     0.049 A 
ATOM     49  H   UNL A   1      42.292  27.511  29.360  1.00  0.00     0.167 HD
ATOM     50  C   UNL A   1      43.554  31.319  31.098  1.00  0.00     0.031 A 
ATOM     51  C   UNL A   1      42.707  24.924  28.383  1.00  0.00     0.031 A 
ATOM     52  C   UNL A   1      44.716  30.475  31.157  1.00  0.00     0.049 A 
ATOM     53  C   UNL A   1      44.025  25.372  28.949  1.00  0.00     0.074 A 
ATOM     54  C   UNL A   1      45.962  30.759  31.689  1.00  0.00     0.029 A 
ATOM     55  N   UNL A   1      44.777  29.179  30.666  1.00  0.00    -0.354 N 
ATOM     56  N   UNL A   1      44.334  26.522  29.499  1.00  0.00    -0.248 NA
ATOM     57  C   UNL A   1      45.131  24.408  28.897  1.00  0.00     0.031 C 
ATOM     58  C   UNL A   1      46.787  29.647  31.488  1.00  0.00     0.029 A 
ATOM     59  C   UNL A   1      46.042  28.655  30.869  1.00  0.00     0.049 A 
ATOM     60  H   UNL A   1      44.030  28.702  30.237  1.00  0.00     0.167 HD
ATOM     61  C   UNL A   1      45.666  26.410  29.883  1.00  0.00     0.074 A 
ATOM     62  C   UNL A   1      46.100  25.079  29.510  1.00  0.00     0.031 C 
ATOM     63  C   UNL A   1      46.457  27.328  30.491  1.00  0.00     0.031 A 
BRANCH  50  64
ATOM     64  C   UNL A   1      43.662  32.732  31.607  1.00  0.00    -0.014 A 
ATOM     65  C   UNL A   1      43.866  33.806  30.721  1.00  0.00     0.010 A 
ATOM     66  C   UNL A   1      43.543  32.992  32.984  1.00  0.00     0.010 A 
ATOM     67  C   UNL A   1      43.998  35.108  31.208  1.00  0.00     0.020 A 
ATOM     68  C   UNL A   1      43.651  34.296  33.472  1.00  0.00     0.020 A 
ATOM     69  C   UNL A   1      43.899  35.344  32.582  1.00  0.00     0.054 A 
BRANCH  69  70
ATOM     70  S   UNL A   1      44.075  37.044  33.191  1.00  0.00     0.124 S 
ATOM     71  O   UNL A   1      42.800  37.252  33.871  1.00  0.00    -0.237 OA
ATOM     72  O   UNL A   1      45.245  36.955  34.062  1.00  0.00    -0.237 OA
ATOM     73  O   UNL A   1      44.269  37.828  31.973  1.00  0.00    -0.744 OA
ENDBRANCH  69  70
ENDBRANCH  50  64
BRANCH  51  74
ATOM     74  C   UNL A   1      42.550  23.570  27.789  1.00  0.00    -0.014 A 
ATOM     75  C   UNL A   1      43.054  23.297  26.506  1.00  0.00     0.010 A 
ATOM     76  C   UNL A   1      41.923  22.540  28.514  1.00  0.00     0.010 A 
ATOM     77  C   UNL A   1      42.928  22.020  25.952  1.00  0.00     0.020 A 
ATOM     78  C   UNL A   1      41.814  21.256  27.972  1.00  0.00     0.020 A 
ATOM     79  C   UNL A   1      42.310  21.007  26.691  1.00  0.00     0.054 A 
BRANCH  79  80
ATOM     80  S   UNL A   1      42.216  19.338  25.982  1.00  0.00     0.124 S 
ATOM     81  O   UNL A   1      43.054  19.465  24.794  1.00  0.00    -0.237 OA
ATOM     82  O   UNL A   1      42.760  18.507  27.054  1.00  0.00    -0.237 OA
ATOM     83  O   UNL A   1      40.789  19.157  25.729  1.00  0.00    -0.744 OA
ENDBRANCH  79  80
ENDBRANCH  51  74
BRANCH  63  84
ATOM     84  C   UNL A   1      47.864  26.915  30.820  1.00  0.00    -0.014 A 
ATOM     85  C   UNL A   1      48.837  26.783  29.814  1.00  0.00     0.010 A 
ATOM     86  C   UNL A   1      48.231  26.710  32.163  1.00  0.00     0.010 A 
ATOM     87  C   UNL A   1      50.147  26.430  30.143  1.00  0.00     0.020 A 
ATOM     88  C   UNL A   1      49.546  26.378  32.498  1.00  0.00     0.020 A 
ATOM     89  C   UNL A   1      50.494  26.228  31.483  1.00  0.00     0.054 A 
BRANCH  89  90
ATOM     90  S   UNL A   1      52.213  25.819  31.893  1.00  0.00     0.124 S 
ATOM     91  O   UNL A   1      52.928  26.297  30.713  1.00  0.00    -0.237 OA
ATOM     92  O   UNL A   1      52.442  26.581  33.119  1.00  0.00    -0.237 OA
ATOM     93  O   UNL A   1      52.190  24.368  32.065  1.00  0.00    -0.744 OA
ENDBRANCH  89  90
ENDBRANCH  63  84
ENDBRANCH  37  38
ENDBRANCH  29  32
ENDBRANCH  27  28
ENDBRANCH  26  27
ENDBRANCH   1  26
TORSDOF 19
ENDMDL
MODEL 2
REMARK VINA RESULT:     -10.2      2.688      3.733
REMARK SMILES Cc1cc(NC[C@H](C)[NH+](C)C)cc(C(=O)NCCCCNC(=O)c2ccc(-c3c4nc(c(-c5ccc(S(=O)(=O)[O-])cc5)c5ccc([nH]5)c(-c5ccc(S(=O)(=O)[O-])cc5)c5nc(c(-c6ccc(S(=O)(=O)[O-])cc6)c6ccc3[nH]6)C=C5)C=C4)cc2)c1N
REMARK SMILES IDX 18 1 17 2 16 3 14 4 15 5 13 7 1 8 2 9 3 10 84 11 4 12 12 13
REMARK SMILES IDX 85 14 5 17 6 19 7 20 8 21 9 22 10 23 11 24 19 26 20 27 21 28
REMARK SMILES IDX 22 29 23 31 24 32 25 33 83 34 26 35 82 36 27 37 28 38 29 39
REMARK SMILES IDX 76 40 30 41 81 42 75 43 77 44 31 45 80 46 74 47 73 48 32 50
REMARK SMILES IDX 62 51 43 52 61 53 44 54 47 55 60 56 78 57 45 58 46 59 59 61
REMARK SMILES IDX 79 62 48 63 33 64 34 65 42 66 35 67 41 68 36 69 37 70 38 71
REMARK SMILES IDX 39 72 40 73 63 74 64 75 72 76 65 77 71 78 66 79 67 80 68 81
REMARK SMILES IDX 69 82 70 83 49 84 50 85 58 86 51 87 57 88 52 89 53 90 54 91
REMARK SMILES IDX 55 92 56 93
REMARK H PARENT 16 6 85 15 85 16 5 18 9 25 21 30 77 49 47 60
REMARK Flexibility Score: inf
ROOT
ATOM      1  C   UNL A   1      33.432  27.287  24.254  1.00  0.00     0.023 C 
ENDROOT
BRANCH   1   2
ATOM      2  C   UNL A   1      32.589  26.013  24.116  1.00  0.00     0.116 C 
BRANCH   2   3
ATOM      3  N   UNL A   1      31.899  25.711  25.357  1.00  0.00    -0.352 N 
ATOM      4  C   UNL A   1      31.905  24.620  26.198  1.00  0.00     0.253 C 
ATOM      5  O   UNL A   1      31.202  24.707  27.209  1.00  0.00    -0.269 OA
ATOM      6  H   UNL A   1      31.304  26.434  25.660  1.00  0.00     0.163 HD
BRANCH   4   7
ATOM      7  C   UNL A   1      32.725  23.380  25.969  1.00  0.00     0.065 A 
ATOM      8  C   UNL A   1      32.320  19.790  24.698  1.00  0.00     0.046 C 
ATOM      9  C   UNL A   1      32.909  21.056  25.261  1.00  0.00    -0.025 A 
ATOM     10  C   UNL A   1      34.274  21.071  25.612  1.00  0.00     0.031 A 
ATOM     11  C   UNL A   1      32.120  22.214  25.441  1.00  0.00     0.047 A 
ATOM     12  C   UNL A   1      34.884  22.214  26.121  1.00  0.00     0.035 A 
ATOM     13  C   UNL A   1      34.104  23.367  26.206  1.00  0.00     0.041 A 
BRANCH  11  14
ATOM     14  N   UNL A   1      30.736  22.145  25.237  1.00  0.00    -0.398 N 
ATOM     15  H   UNL A   1      30.169  22.924  25.441  1.00  0.00     0.156 HD
ATOM     16  H   UNL A   1      30.330  21.318  24.891  1.00  0.00     0.156 HD
ENDBRANCH  11  14
BRANCH  12  17
ATOM     17  N   UNL A   1      36.215  22.189  26.514  1.00  0.00    -0.379 N 
ATOM     18  H   UNL A   1      36.485  21.626  27.274  1.00  0.00     0.160 HD
BRANCH  17  19
ATOM     19  C   UNL A   1      37.228  22.988  25.816  1.00  0.00     0.177 C 
BRANCH  19  20
ATOM     20  C   UNL A   1      38.391  22.135  25.232  1.00  0.00     0.199 C 
ATOM     21  C   UNL A   1      37.926  20.670  25.131  1.00  0.00     0.077 C 
BRANCH  20  22
ATOM     22  N   UNL A   1      39.707  22.209  25.916  1.00  0.00    -0.336 N 
ATOM     23  C   UNL A   1      39.735  23.215  26.975  1.00  0.00     0.332 C 
ATOM     24  C   UNL A   1      40.195  20.930  26.435  1.00  0.00     0.332 C 
ATOM     25  H   UNL A   1      40.346  22.491  25.173  1.00  0.00     0.347 HD
ENDBRANCH  20  22
ENDBRANCH  19  20
ENDBRANCH  17  19
ENDBRANCH  12  17
ENDBRANCH   4   7
ENDBRANCH   2   3
ENDBRANCH   1   2
BRANCH   1  26
ATOM     26  C   UNL A   1      32.968  28.236  25.360  1.00  0.00     0.023 C 
BRANCH  26  27
ATOM     27  C   UNL A   1      34.080  28.751  26.267  1.00  0.00     0.116 C 
BRANCH  27  28
ATOM     28  N   UNL A   1      33.900  30.138  26.670  1.00  0.00    -0.352 N 
ATOM     29  C   UNL A   1      34.678  30.878  27.530  1.00  0.00     0.251 C 
ATOM     30  H   UNL A   1      33.127  30.604  26.277  1.00  0.00     0.163 HD
ATOM     31  O   UNL A   1      34.348  32.014  27.845  1.00  0.00    -0.269 OA
BRANCH  29  32
ATOM     32  C   UNL A   1      35.888  30.256  28.105  1.00  0.00     0.039 A 
ATOM     33  C   UNL A   1      37.098  30.377  27.417  1.00  0.00     0.014 A 
ATOM     34  C   UNL A   1      35.838  29.624  29.351  1.00  0.00     0.014 A 
ATOM     35  C   UNL A   1      38.276  29.936  28.021  1.00  0.00     0.010 A 
ATOM     36  C   UNL A   1      37.020  29.241  29.975  1.00  0.00     0.010 A 
ATOM     37  C   UNL A   1      38.251  29.406  29.321  1.00  0.00    -0.014 A 
BRANCH  37  38
ATOM     38  C   UNL A   1      39.503  29.052  30.032  1.00  0.00     0.031 A 
ATOM     39  C   UNL A   1      39.924  29.819  31.254  1.00  0.00     0.074 A 
ATOM     40  C   UNL A   1      40.301  28.090  29.527  1.00  0.00     0.049 A 
ATOM     41  N   UNL A   1      41.014  29.698  31.966  1.00  0.00    -0.248 NA
ATOM     42  C   UNL A   1      39.013  30.877  31.719  1.00  0.00     0.031 C 
ATOM     43  C   UNL A   1      40.028  27.309  28.318  1.00  0.00     0.029 A 
ATOM     44  N   UNL A   1      41.512  27.615  29.962  1.00  0.00    -0.354 N 
ATOM     45  C   UNL A   1      40.931  30.675  32.949  1.00  0.00     0.074 A 
ATOM     46  C   UNL A   1      39.704  31.405  32.719  1.00  0.00     0.031 C 
ATOM     47  C   UNL A   1      41.032  26.439  28.121  1.00  0.00     0.029 A 
ATOM     48  C   UNL A   1      42.033  26.621  29.167  1.00  0.00     0.049 A 
ATOM     49  H   UNL A   1      41.966  27.953  30.768  1.00  0.00     0.167 HD
ATOM     50  C   UNL A   1      41.792  30.931  33.964  1.00  0.00     0.031 A 
ATOM     51  C   UNL A   1      43.187  25.934  29.266  1.00  0.00     0.031 A 
ATOM     52  C   UNL A   1      43.005  30.196  34.200  1.00  0.00     0.049 A 
ATOM     53  C   UNL A   1      44.118  26.223  30.409  1.00  0.00     0.074 A 
ATOM     54  C   UNL A   1      43.913  30.342  35.234  1.00  0.00     0.029 A 
ATOM     55  N   UNL A   1      43.481  29.176  33.389  1.00  0.00    -0.354 N 
ATOM     56  N   UNL A   1      43.990  27.109  31.369  1.00  0.00    -0.248 NA
ATOM     57  C   UNL A   1      45.341  25.414  30.490  1.00  0.00     0.031 C 
ATOM     58  C   UNL A   1      44.957  29.433  35.029  1.00  0.00     0.029 A 
ATOM     59  C   UNL A   1      44.677  28.693  33.891  1.00  0.00     0.049 A 
ATOM     60  H   UNL A   1      43.033  28.845  32.577  1.00  0.00     0.167 HD
ATOM     61  C   UNL A   1      45.106  26.946  32.183  1.00  0.00     0.074 A 
ATOM     62  C   UNL A   1      45.891  25.873  31.608  1.00  0.00     0.031 C 
ATOM     63  C   UNL A   1      45.446  27.624  33.306  1.00  0.00     0.031 A 
BRANCH  50  64
ATOM     64  C   UNL A   1      41.442  32.063  34.893  1.00  0.00    -0.014 A 
ATOM     65  C   UNL A   1      40.650  31.844  36.034  1.00  0.00     0.010 A 
ATOM     66  C   UNL A   1      41.925  33.358  34.630  1.00  0.00     0.010 A 
ATOM     67  C   UNL A   1      40.304  32.909  36.869  1.00  0.00     0.020 A 
ATOM     68  C   UNL A   1      41.602  34.421  35.477  1.00  0.00     0.020 A 
ATOM     69  C   UNL A   1      40.775  34.193  36.580  1.00  0.00     0.054 A 
BRANCH  69  70
ATOM     70  S   UNL A   1      40.313  35.560  37.680  1.00  0.00     0.124 S 
ATOM     71  O   UNL A   1      39.254  34.954  38.482  1.00  0.00    -0.237 OA
ATOM     72  O   UNL A   1      41.559  35.837  38.391  1.00  0.00    -0.237 OA
ATOM     73  O   UNL A   1      39.878  36.610  36.762  1.00  0.00    -0.744 OA
ENDBRANCH  69  70
ENDBRANCH  50  64
BRANCH  51  74
ATOM     74  C   UNL A   1      43.509  24.884  28.263  1.00  0.00    -0.014 A 
ATOM     75  C   UNL A   1      44.309  25.190  27.150  1.00  0.00     0.010 A 
ATOM     76  C   UNL A   1      43.043  23.567  28.432  1.00  0.00     0.010 A 
ATOM     77  C   UNL A   1      44.633  24.202  26.216  1.00  0.00     0.020 A 
ATOM     78  C   UNL A   1      43.382  22.572  27.512  1.00  0.00     0.020 A 
ATOM     79  C   UNL A   1      44.168  22.898  26.406  1.00  0.00     0.054 A 
BRANCH  79  80
ATOM     80  S   UNL A   1      44.655  21.613  25.218  1.00  0.00     0.124 S 
ATOM     81  O   UNL A   1      46.092  21.514  25.450  1.00  0.00    -0.237 OA
ATOM     82  O   UNL A   1      43.863  20.464  25.653  1.00  0.00    -0.237 OA
ATOM     83  O   UNL A   1      44.263  22.177  23.929  1.00  0.00    -0.744 OA
ENDBRANCH  79  80
ENDBRANCH  51  74
BRANCH  63  84
ATOM     84  C   UNL A   1      46.709  27.206  34.007  1.00  0.00    -0.014 A 
ATOM     85  C   UNL A   1      47.944  27.802  33.696  1.00  0.00     0.010 A 
ATOM     86  C   UNL A   1      46.647  26.242  35.030  1.00  0.00     0.010 A 
ATOM     87  C   UNL A   1      49.100  27.423  34.382  1.00  0.00     0.020 A 
ATOM     88  C   UNL A   1      47.799  25.877  35.732  1.00  0.00     0.020 A 
ATOM     89  C   UNL A   1      49.021  26.462  35.394  1.00  0.00     0.054 A 
BRANCH  89  90
ATOM     90  S   UNL A   1      50.527  26.020  36.305  1.00  0.00     0.124 S 
ATOM     91  O   UNL A   1      49.984  25.547  37.576  1.00  0.00    -0.237 OA
ATOM     92  O   UNL A   1      51.127  24.993  35.457  1.00  0.00    -0.237 OA
ATOM     93  O   UNL A   1      51.270  27.276  36.373  1.00  0.00    -0.744 OA
ENDBRANCH  89  90
ENDBRANCH  63  84
ENDBRANCH  37  38
ENDBRANCH  29  32
ENDBRANCH  27  28
ENDBRANCH  26  27
ENDBRANCH   1  26
TORSDOF 19
ENDMDL
MODEL 3
REMARK VINA RESULT:      -9.9      2.488      3.091
REMARK SMILES Cc1cc(NC[C@H](C)[NH+](C)C)cc(C(=O)NCCCCNC(=O)c2ccc(-c3c4nc(c(-c5ccc(S(=O)(=O)[O-])cc5)c5ccc([nH]5)c(-c5ccc(S(=O)(=O)[O-])cc5)c5nc(c(-c6ccc(S(=O)(=O)[O-])cc6)c6ccc3[nH]6)C=C5)C=C4)cc2)c1N
REMARK SMILES IDX 18 1 17 2 16 3 14 4 15 5 13 7 1 8 2 9 3 10 84 11 4 12 12 13
REMARK SMILES IDX 85 14 5 17 6 19 7 20 8 21 9 22 10 23 11 24 19 26 20 27 21 28
REMARK SMILES IDX 22 29 23 31 24 32 25 33 83 34 26 35 82 36 27 37 28 38 29 39
REMARK SMILES IDX 76 40 30 41 81 42 75 43 77 44 31 45 80 46 74 47 73 48 32 50
REMARK SMILES IDX 62 51 43 52 61 53 44 54 47 55 60 56 78 57 45 58 46 59 59 61
REMARK SMILES IDX 79 62 48 63 33 64 34 65 42 66 35 67 41 68 36 69 37 70 38 71
REMARK SMILES IDX 39 72 40 73 63 74 64 75 72 76 65 77 71 78 66 79 67 80 68 81
REMARK SMILES IDX 69 82 70 83 49 84 50 85 58 86 51 87 57 88 52 89 53 90 54 91
REMARK SMILES IDX 55 92 56 93
REMARK H PARENT 16 6 85 15 85 16 5 18 9 25 21 30 77 49 47 60
REMARK Flexibility Score: inf
ROOT
ATOM      1  C   UNL A   1      33.191  27.494  24.068  1.00  0.00     0.023 C 
ENDROOT
BRANCH   1   2
ATOM      2  C   UNL A   1      32.308  26.262  23.841  1.00  0.00     0.116 C 
BRANCH   2   3
ATOM      3  N   UNL A   1      31.780  25.762  25.099  1.00  0.00    -0.352 N 
ATOM      4  C   UNL A   1      32.133  24.712  25.917  1.00  0.00     0.253 C 
ATOM      5  O   UNL A   1      31.473  24.583  26.953  1.00  0.00    -0.269 OA
ATOM      6  H   UNL A   1      31.015  26.280  25.435  1.00  0.00     0.163 HD
BRANCH   4   7
ATOM      7  C   UNL A   1      33.265  23.763  25.637  1.00  0.00     0.065 A 
ATOM      8  C   UNL A   1      37.094  23.680  25.658  1.00  0.00     0.046 C 
ATOM      9  C   UNL A   1      35.651  23.284  25.501  1.00  0.00    -0.025 A 
ATOM     10  C   UNL A   1      35.350  21.984  25.048  1.00  0.00     0.031 A 
ATOM     11  C   UNL A   1      34.606  24.189  25.797  1.00  0.00     0.047 A 
ATOM     12  C   UNL A   1      34.036  21.550  24.897  1.00  0.00     0.035 A 
ATOM     13  C   UNL A   1      33.026  22.432  25.279  1.00  0.00     0.041 A 
BRANCH  11  14
ATOM     14  N   UNL A   1      34.913  25.523  26.095  1.00  0.00    -0.398 N 
ATOM     15  H   UNL A   1      35.552  25.731  26.815  1.00  0.00     0.156 HD
ATOM     16  H   UNL A   1      34.489  26.251  25.587  1.00  0.00     0.156 HD
ENDBRANCH  11  14
BRANCH  12  17
ATOM     17  N   UNL A   1      33.763  20.284  24.395  1.00  0.00    -0.379 N 
ATOM     18  H   UNL A   1      34.509  19.683  24.169  1.00  0.00     0.160 HD
BRANCH  17  19
ATOM     19  C   UNL A   1      32.385  19.827  24.194  1.00  0.00     0.177 C 
BRANCH  19  20
ATOM     20  C   UNL A   1      32.198  18.302  24.442  1.00  0.00     0.199 C 
ATOM     21  C   UNL A   1      32.985  17.908  25.707  1.00  0.00     0.077 C 
BRANCH  20  22
ATOM     22  N   UNL A   1      32.529  17.380  23.326  1.00  0.00    -0.336 N 
ATOM     23  C   UNL A   1      32.342  17.995  22.013  1.00  0.00     0.332 C 
ATOM     24  C   UNL A   1      33.863  16.781  23.406  1.00  0.00     0.332 C 
ATOM     25  H   UNL A   1      31.857  16.621  23.436  1.00  0.00     0.347 HD
ENDBRANCH  20  22
ENDBRANCH  19  20
ENDBRANCH  17  19
ENDBRANCH  12  17
ENDBRANCH   4   7
ENDBRANCH   2   3
ENDBRANCH   1   2
BRANCH   1  26
ATOM     26  C   UNL A   1      32.846  28.299  25.323  1.00  0.00     0.023 C 
BRANCH  26  27
ATOM     27  C   UNL A   1      34.046  28.896  26.048  1.00  0.00     0.116 C 
BRANCH  27  28
ATOM     28  N   UNL A   1      33.804  30.239  26.554  1.00  0.00    -0.352 N 
ATOM     29  C   UNL A   1      34.529  30.933  27.496  1.00  0.00     0.251 C 
ATOM     30  H   UNL A   1      33.026  30.709  26.175  1.00  0.00     0.163 HD
ATOM     31  O   UNL A   1      34.148  32.028  27.889  1.00  0.00    -0.269 OA
BRANCH  29  32
ATOM     32  C   UNL A   1      35.743  30.308  28.059  1.00  0.00     0.039 A 
ATOM     33  C   UNL A   1      36.968  30.529  27.426  1.00  0.00     0.014 A 
ATOM     34  C   UNL A   1      35.676  29.571  29.246  1.00  0.00     0.014 A 
ATOM     35  C   UNL A   1      38.142  30.080  28.032  1.00  0.00     0.010 A 
ATOM     36  C   UNL A   1      36.852  29.180  29.877  1.00  0.00     0.010 A 
ATOM     37  C   UNL A   1      38.096  29.442  29.281  1.00  0.00    -0.014 A 
BRANCH  37  38
ATOM     38  C   UNL A   1      39.338  29.074  30.005  1.00  0.00     0.031 A 
ATOM     39  C   UNL A   1      39.756  29.836  31.229  1.00  0.00     0.074 A 
ATOM     40  C   UNL A   1      40.128  28.103  29.507  1.00  0.00     0.049 A 
ATOM     41  N   UNL A   1      40.839  29.703  31.951  1.00  0.00    -0.248 NA
ATOM     42  C   UNL A   1      38.854  30.905  31.686  1.00  0.00     0.031 C 
ATOM     43  C   UNL A   1      39.857  27.324  28.296  1.00  0.00     0.029 A 
ATOM     44  N   UNL A   1      41.330  27.613  29.953  1.00  0.00    -0.354 N 
ATOM     45  C   UNL A   1      40.759  30.681  32.933  1.00  0.00     0.074 A 
ATOM     46  C   UNL A   1      39.542  31.426  32.691  1.00  0.00     0.031 C 
ATOM     47  C   UNL A   1      40.852  26.442  28.108  1.00  0.00     0.029 A 
ATOM     48  C   UNL A   1      41.846  26.612  29.163  1.00  0.00     0.049 A 
ATOM     49  H   UNL A   1      41.781  27.946  30.762  1.00  0.00     0.167 HD
ATOM     50  C   UNL A   1      41.613  30.928  33.956  1.00  0.00     0.031 A 
ATOM     51  C   UNL A   1      42.991  25.912  29.273  1.00  0.00     0.031 A 
ATOM     52  C   UNL A   1      42.816  30.179  34.202  1.00  0.00     0.049 A 
ATOM     53  C   UNL A   1      43.915  26.191  30.424  1.00  0.00     0.074 A 
ATOM     54  C   UNL A   1      43.717  30.314  35.244  1.00  0.00     0.029 A 
ATOM     55  N   UNL A   1      43.287  29.153  33.396  1.00  0.00    -0.354 N 
ATOM     56  N   UNL A   1      43.789  27.078  31.382  1.00  0.00    -0.248 NA
ATOM     57  C   UNL A   1      45.128  25.368  30.516  1.00  0.00     0.031 C 
ATOM     58  C   UNL A   1      44.751  29.393  35.049  1.00  0.00     0.029 A 
ATOM     59  C   UNL A   1      44.473  28.656  33.909  1.00  0.00     0.049 A 
ATOM     60  H   UNL A   1      42.843  28.826  32.581  1.00  0.00     0.167 HD
ATOM     61  C   UNL A   1      44.896  26.902  32.205  1.00  0.00     0.074 A 
ATOM     62  C   UNL A   1      45.674  25.820  31.638  1.00  0.00     0.031 C 
ATOM     63  C   UNL A   1      45.234  27.577  33.331  1.00  0.00     0.031 A 
BRANCH  50  64
ATOM     64  C   UNL A   1      41.269  32.065  34.880  1.00  0.00    -0.014 A 
ATOM     65  C   UNL A   1      40.500  31.848  36.038  1.00  0.00     0.010 A 
ATOM     66  C   UNL A   1      41.734  33.362  34.598  1.00  0.00     0.010 A 
ATOM     67  C   UNL A   1      40.158  32.916  36.870  1.00  0.00     0.020 A 
ATOM     68  C   UNL A   1      41.415  34.429  35.442  1.00  0.00     0.020 A 
ATOM     69  C   UNL A   1      40.611  34.202  36.561  1.00  0.00     0.054 A 
BRANCH  69  70
ATOM     70  S   UNL A   1      40.154  35.575  37.657  1.00  0.00     0.124 S 
ATOM     71  O   UNL A   1      39.011  35.017  38.374  1.00  0.00    -0.237 OA
ATOM     72  O   UNL A   1      41.363  35.766  38.455  1.00  0.00    -0.237 OA
ATOM     73  O   UNL A   1      39.843  36.664  36.735  1.00  0.00    -0.744 OA
ENDBRANCH  69  70
ENDBRANCH  50  64
BRANCH  51  74
ATOM     74  C   UNL A   1      43.309  24.857  28.273  1.00  0.00    -0.014 A 
ATOM     75  C   UNL A   1      42.852  23.542  28.463  1.00  0.00     0.010 A 
ATOM     76  C   UNL A   1      44.043  25.169  27.114  1.00  0.00     0.010 A 
ATOM     77  C   UNL A   1      43.130  22.552  27.516  1.00  0.00     0.020 A 
ATOM     78  C   UNL A   1      44.304  24.187  26.155  1.00  0.00     0.020 A 
ATOM     79  C   UNL A   1      43.852  22.883  26.366  1.00  0.00     0.054 A 
BRANCH  79  80
ATOM     80  S   UNL A   1      44.145  21.600  25.116  1.00  0.00     0.124 S 
ATOM     81  O   UNL A   1      43.968  22.342  23.872  1.00  0.00    -0.237 OA
ATOM     82  O   UNL A   1      45.512  21.176  25.410  1.00  0.00    -0.237 OA
ATOM     83  O   UNL A   1      43.117  20.603  25.406  1.00  0.00    -0.744 OA
ENDBRANCH  79  80
ENDBRANCH  51  74
BRANCH  63  84
ATOM     84  C   UNL A   1      46.486  27.145  34.044  1.00  0.00    -0.014 A 
ATOM     85  C   UNL A   1      46.454  26.130  35.016  1.00  0.00     0.010 A 
ATOM     86  C   UNL A   1      47.718  27.725  33.694  1.00  0.00     0.010 A 
ATOM     87  C   UNL A   1      47.632  25.719  35.643  1.00  0.00     0.020 A 
ATOM     88  C   UNL A   1      48.901  27.302  34.304  1.00  0.00     0.020 A 
ATOM     89  C   UNL A   1      48.848  26.309  35.285  1.00  0.00     0.054 A 
BRANCH  89  90
ATOM     90  S   UNL A   1      50.373  25.727  36.077  1.00  0.00     0.124 S 
ATOM     91  O   UNL A   1      51.382  26.062  35.075  1.00  0.00    -0.237 OA
ATOM     92  O   UNL A   1      50.421  26.517  37.306  1.00  0.00    -0.237 OA
ATOM     93  O   UNL A   1      50.138  24.298  36.272  1.00  0.00    -0.744 OA
ENDBRANCH  89  90
ENDBRANCH  63  84
ENDBRANCH  37  38
ENDBRANCH  29  32
ENDBRANCH  27  28
ENDBRANCH  26  27
ENDBRANCH   1  26
TORSDOF 19
ENDMDL
