MODEL 1
REMARK VINA RESULT:     -11.1      0.000      0.000
REMARK SMILES [NH3+]C1CC[NH+](CC(=O)Nc2cc(Cl)ccc2C(=O)NCCCCNC(=O)c2ccc(-c3c4nc(c(-c5ccc(S(=O)(=O)[O-])cc5)c5ccc([nH]5)c(-c5ccc(S(=O)(=O)[O-])cc5)c5nc(c(-c6ccc(S(=O)(=O)[O-])cc6)c6ccc3[nH]6)C=C5)C=C4)cc2)CC1
REMARK SMILES IDX 21 1 20 2 19 3 17 4 18 5 16 7 10 8 11 9 12 10 15 11 13 12
REMARK SMILES IDX 14 13 9 14 7 15 8 16 6 18 5 19 2 20 3 21 88 22 4 23 87 24
REMARK SMILES IDX 1 26 22 30 23 31 24 32 25 33 26 35 27 36 28 37 86 38 29 39
REMARK SMILES IDX 85 40 30 41 31 42 32 43 79 44 33 45 84 46 78 47 80 48 34 49
REMARK SMILES IDX 83 50 77 51 76 52 35 54 65 55 46 56 64 57 47 58 50 59 63 60
REMARK SMILES IDX 81 61 48 62 49 63 62 65 82 66 51 67 36 68 37 69 45 70 38 71
REMARK SMILES IDX 44 72 39 73 40 74 41 75 42 76 43 77 66 78 67 79 75 80 68 81
REMARK SMILES IDX 74 82 69 83 70 84 71 85 72 86 73 87 52 88 53 89 61 90 54 91
REMARK SMILES IDX 60 92 55 93 56 94 57 95 58 96 59 97
REMARK H PARENT 19 6 9 17 5 25 1 27 1 28 1 29 24 34 80 53 50 64
REMARK Flexibility Score: inf
ROOT
ATOM      1  C   UNL A   1      34.351  29.365  27.237  1.00  0.00     0.023 C 
ENDROOT
BRANCH   1   2
ATOM      2  C   UNL A   1      33.861  28.243  26.311  1.00  0.00     0.116 C 
BRANCH   2   3
ATOM      3  N   UNL A   1      34.212  28.573  24.945  1.00  0.00    -0.352 N 
ATOM      4  C   UNL A   1      33.559  28.675  23.749  1.00  0.00     0.253 C 
ATOM      5  O   UNL A   1      34.288  28.923  22.782  1.00  0.00    -0.269 OA
ATOM      6  H   UNL A   1      35.170  28.778  24.854  1.00  0.00     0.163 HD
BRANCH   4   7
ATOM      7  C   UNL A   1      32.083  28.602  23.479  1.00  0.00     0.063 A 
ATOM      8  C   UNL A   1      31.360  27.850  22.512  1.00  0.00     0.055 A 
ATOM      9  C   UNL A   1      29.998  28.132  22.348  1.00  0.00     0.047 A 
ATOM     10  C   UNL A   1      29.336  29.093  23.112  1.00  0.00     0.043 A 
ATOM     11  C   UNL A   1      31.378  29.568  24.246  1.00  0.00     0.017 A 
ATOM     12  Cl  UNL A   1      27.661  29.385  22.851  1.00  0.00    -0.084 Cl
ATOM     13  C   UNL A   1      30.019  29.811  24.073  1.00  0.00     0.021 A 
BRANCH   8  14
ATOM     14  N   UNL A   1      31.984  26.840  21.761  1.00  0.00    -0.320 N 
ATOM     15  C   UNL A   1      32.699  25.696  21.971  1.00  0.00     0.279 C 
ATOM     16  O   UNL A   1      33.289  25.251  20.973  1.00  0.00    -0.268 OA
ATOM     17  H   UNL A   1      31.872  27.006  20.796  1.00  0.00     0.170 HD
BRANCH  15  18
ATOM     18  C   UNL A   1      32.769  24.902  23.267  1.00  0.00     0.363 C 
BRANCH  18  19
ATOM     19  N   UNL A   1      31.549  24.205  23.703  1.00  0.00    -0.327 N 
ATOM     20  C   UNL A   1      31.228  22.931  26.372  1.00  0.00     0.192 C 
ATOM     21  C   UNL A   1      31.952  22.214  25.226  1.00  0.00     0.126 C 
ATOM     22  C   UNL A   1      31.236  24.445  26.155  1.00  0.00     0.126 C 
ATOM     23  C   UNL A   1      31.611  22.747  23.827  1.00  0.00     0.268 C 
ATOM     24  C   UNL A   1      30.751  24.810  24.756  1.00  0.00     0.268 C 
ATOM     25  H   UNL A   1      31.016  24.380  22.852  1.00  0.00     0.348 HD
BRANCH  20  26
ATOM     26  N   UNL A   1      29.849  22.453  26.528  1.00  0.00    -0.355 N 
ATOM     27  H   UNL A   1      29.267  22.846  25.788  1.00  0.00     0.344 HD
ATOM     28  H   UNL A   1      29.488  22.745  27.436  1.00  0.00     0.344 HD
ATOM     29  H   UNL A   1      29.833  21.434  26.467  1.00  0.00     0.344 HD
ENDBRANCH  20  26
ENDBRANCH  18  19
ENDBRANCH  15  18
ENDBRANCH   8  14
ENDBRANCH   4   7
ENDBRANCH   2   3
ENDBRANCH   1   2
BRANCH   1  30
ATOM     30  C   UNL A   1      33.478  30.609  27.297  1.00  0.00     0.023 C 
BRANCH  30  31
ATOM     31  C   UNL A   1      34.245  31.881  27.616  1.00  0.00     0.116 C 
BRANCH  31  32
ATOM     32  N   UNL A   1      33.401  33.059  27.809  1.00  0.00    -0.352 N 
ATOM     33  C   UNL A   1      33.519  34.039  28.774  1.00  0.00     0.251 C 
ATOM     34  H   UNL A   1      32.657  33.167  27.172  1.00  0.00     0.163 HD
ATOM     35  O   UNL A   1      32.731  34.964  28.846  1.00  0.00    -0.269 OA
BRANCH  33  36
ATOM     36  C   UNL A   1      34.602  33.884  29.767  1.00  0.00     0.039 A 
ATOM     37  C   UNL A   1      34.347  33.143  30.921  1.00  0.00     0.014 A 
ATOM     38  C   UNL A   1      35.896  34.297  29.444  1.00  0.00     0.014 A 
ATOM     39  C   UNL A   1      35.419  32.707  31.697  1.00  0.00     0.010 A 
ATOM     40  C   UNL A   1      36.964  33.786  30.169  1.00  0.00     0.010 A 
ATOM     41  C   UNL A   1      36.737  32.962  31.284  1.00  0.00    -0.014 A 
BRANCH  41  42
ATOM     42  C   UNL A   1      37.900  32.334  31.959  1.00  0.00     0.031 A 
ATOM     43  C   UNL A   1      38.372  32.865  33.284  1.00  0.00     0.074 A 
ATOM     44  C   UNL A   1      38.597  31.366  31.327  1.00  0.00     0.049 A 
ATOM     45  N   UNL A   1      39.437  32.540  33.967  1.00  0.00    -0.248 NA
ATOM     46  C   UNL A   1      37.557  33.925  33.904  1.00  0.00     0.031 C 
ATOM     47  C   UNL A   1      38.273  30.799  30.014  1.00  0.00     0.029 A 
ATOM     48  N   UNL A   1      39.736  30.694  31.700  1.00  0.00    -0.354 N 
ATOM     49  C   UNL A   1      39.441  33.377  35.076  1.00  0.00     0.074 A 
ATOM     50  C   UNL A   1      38.293  34.247  34.958  1.00  0.00     0.031 C 
ATOM     51  C   UNL A   1      39.174  29.850  29.707  1.00  0.00     0.029 A 
ATOM     52  C   UNL A   1      40.167  29.773  30.773  1.00  0.00     0.049 A 
ATOM     53  H   UNL A   1      40.201  30.856  32.553  1.00  0.00     0.167 HD
ATOM     54  C   UNL A   1      40.314  33.404  36.109  1.00  0.00     0.031 A 
ATOM     55  C   UNL A   1      41.248  28.969  30.772  1.00  0.00     0.031 A 
ATOM     56  C   UNL A   1      41.428  32.507  36.245  1.00  0.00     0.049 A 
ATOM     57  C   UNL A   1      42.205  29.026  31.932  1.00  0.00     0.074 A 
ATOM     58  C   UNL A   1      42.303  32.383  37.310  1.00  0.00     0.029 A 
ATOM     59  N   UNL A   1      41.821  31.582  35.291  1.00  0.00    -0.354 N 
ATOM     60  N   UNL A   1      42.137  29.757  33.018  1.00  0.00    -0.248 NA
ATOM     61  C   UNL A   1      43.387  28.154  31.864  1.00  0.00     0.031 C 
ATOM     62  C   UNL A   1      43.260  31.421  36.977  1.00  0.00     0.029 A 
ATOM     63  C   UNL A   1      42.952  30.913  35.725  1.00  0.00     0.049 A 
ATOM     64  H   UNL A   1      41.365  31.426  34.433  1.00  0.00     0.167 HD
ATOM     65  C   UNL A   1      43.254  29.419  33.771  1.00  0.00     0.074 A 
ATOM     66  C   UNL A   1      43.974  28.407  33.026  1.00  0.00     0.031 C 
ATOM     67  C   UNL A   1      43.652  29.905  34.971  1.00  0.00     0.031 A 
BRANCH  54  68
ATOM     68  C   UNL A   1      40.103  34.438  37.179  1.00  0.00    -0.014 A 
ATOM     69  C   UNL A   1      40.678  35.717  37.077  1.00  0.00     0.010 A 
ATOM     70  C   UNL A   1      39.264  34.145  38.269  1.00  0.00     0.010 A 
ATOM     71  C   UNL A   1      40.437  36.678  38.061  1.00  0.00     0.020 A 
ATOM     72  C   UNL A   1      39.001  35.113  39.243  1.00  0.00     0.020 A 
ATOM     73  C   UNL A   1      39.600  36.370  39.138  1.00  0.00     0.054 A 
BRANCH  73  74
ATOM     74  S   UNL A   1      39.265  37.654  40.374  1.00  0.00     0.124 S 
ATOM     75  O   UNL A   1      38.973  36.857  41.563  1.00  0.00    -0.237 OA
ATOM     76  O   UNL A   1      40.521  38.399  40.411  1.00  0.00    -0.237 OA
ATOM     77  O   UNL A   1      38.128  38.382  39.818  1.00  0.00    -0.744 OA
ENDBRANCH  73  74
ENDBRANCH  54  68
BRANCH  55  78
ATOM     78  C   UNL A   1      41.500  28.040  29.635  1.00  0.00    -0.014 A 
ATOM     79  C   UNL A   1      42.448  28.368  28.649  1.00  0.00     0.010 A 
ATOM     80  C   UNL A   1      40.777  26.840  29.516  1.00  0.00     0.010 A 
ATOM     81  C   UNL A   1      42.645  27.527  27.549  1.00  0.00     0.020 A 
ATOM     82  C   UNL A   1      40.990  25.984  28.431  1.00  0.00     0.020 A 
ATOM     83  C   UNL A   1      41.911  26.343  27.444  1.00  0.00     0.054 A 
BRANCH  83  84
ATOM     84  S   UNL A   1      42.198  25.255  26.020  1.00  0.00     0.124 S 
ATOM     85  O   UNL A   1      41.836  26.122  24.903  1.00  0.00    -0.237 OA
ATOM     86  O   UNL A   1      43.618  24.939  26.142  1.00  0.00    -0.237 OA
ATOM     87  O   UNL A   1      41.294  24.133  26.263  1.00  0.00    -0.744 OA
ENDBRANCH  83  84
ENDBRANCH  55  78
BRANCH  67  88
ATOM     88  C   UNL A   1      44.911  29.343  35.569  1.00  0.00    -0.014 A 
ATOM     89  C   UNL A   1      44.875  28.185  36.365  1.00  0.00     0.010 A 
ATOM     90  C   UNL A   1      46.153  29.928  35.258  1.00  0.00     0.010 A 
ATOM     91  C   UNL A   1      46.060  27.627  36.850  1.00  0.00     0.020 A 
ATOM     92  C   UNL A   1      47.341  29.358  35.721  1.00  0.00     0.020 A 
ATOM     93  C   UNL A   1      47.285  28.214  36.520  1.00  0.00     0.054 A 
BRANCH  93  94
ATOM     94  S   UNL A   1      48.814  27.425  37.096  1.00  0.00     0.124 S 
ATOM     95  O   UNL A   1      48.318  26.164  37.641  1.00  0.00    -0.237 OA
ATOM     96  O   UNL A   1      49.600  27.314  35.870  1.00  0.00    -0.237 OA
ATOM     97  O   UNL A   1      49.340  28.367  38.082  1.00  0.00    -0.744 OA
ENDBRANCH  93  94
ENDBRANCH  67  88
ENDBRANCH  41  42
ENDBRANCH  33  36
ENDBRANCH  31  32
ENDBRANCH  30  31
ENDBRANCH   1  30
TORSDOF 18
ENDMDL
MODEL 2
REMARK VINA RESULT:     -10.8      1.318      8.202
REMARK SMILES [NH3+]C1CC[NH+](CC(=O)Nc2cc(Cl)ccc2C(=O)NCCCCNC(=O)c2ccc(-c3c4nc(c(-c5ccc(S(=O)(=O)[O-])cc5)c5ccc([nH]5)c(-c5ccc(S(=O)(=O)[O-])cc5)c5nc(c(-c6ccc(S(=O)(=O)[O-])cc6)c6ccc3[nH]6)C=C5)C=C4)cc2)CC1
REMARK SMILES IDX 21 1 20 2 19 3 17 4 18 5 16 7 10 8 11 9 12 10 15 11 13 12
REMARK SMILES IDX 14 13 9 14 7 15 8 16 6 18 5 19 2 20 3 21 88 22 4 23 87 24
REMARK SMILES IDX 1 26 22 30 23 31 24 32 25 33 26 35 27 36 28 37 86 38 29 39
REMARK SMILES IDX 85 40 30 41 31 42 32 43 79 44 33 45 84 46 78 47 80 48 34 49
REMARK SMILES IDX 83 50 77 51 76 52 35 54 65 55 46 56 64 57 47 58 50 59 63 60
REMARK SMILES IDX 81 61 48 62 49 63 62 65 82 66 51 67 36 68 37 69 45 70 38 71
REMARK SMILES IDX 44 72 39 73 40 74 41 75 42 76 43 77 66 78 67 79 75 80 68 81
REMARK SMILES IDX 74 82 69 83 70 84 71 85 72 86 73 87 52 88 53 89 61 90 54 91
REMARK SMILES IDX 60 92 55 93 56 94 57 95 58 96 59 97
REMARK H PARENT 19 6 9 17 5 25 1 27 1 28 1 29 24 34 80 53 50 64
REMARK Flexibility Score: inf
ROOT
ATOM      1  C   UNL A   1      34.454  28.919  27.201  1.00  0.00     0.023 C 
ENDROOT
BRANCH   1   2
ATOM      2  C   UNL A   1      34.126  27.896  26.104  1.00  0.00     0.116 C 
BRANCH   2   3
ATOM      3  N   UNL A   1      32.986  27.106  26.522  1.00  0.00    -0.352 N 
ATOM      4  C   UNL A   1      31.678  26.976  26.148  1.00  0.00     0.253 C 
ATOM      5  O   UNL A   1      31.015  26.205  26.852  1.00  0.00    -0.269 OA
ATOM      6  H   UNL A   1      33.212  26.508  27.270  1.00  0.00     0.163 HD
BRANCH   4   7
ATOM      7  C   UNL A   1      30.977  27.579  24.964  1.00  0.00     0.063 A 
ATOM      8  C   UNL A   1      30.440  26.963  23.801  1.00  0.00     0.055 A 
ATOM      9  C   UNL A   1      30.020  27.794  22.755  1.00  0.00     0.047 A 
ATOM     10  C   UNL A   1      30.089  29.185  22.832  1.00  0.00     0.043 A 
ATOM     11  C   UNL A   1      31.026  28.998  25.015  1.00  0.00     0.017 A 
ATOM     12  Cl  UNL A   1      29.557  30.140  21.503  1.00  0.00    -0.084 Cl
ATOM     13  C   UNL A   1      30.583  29.797  23.966  1.00  0.00     0.021 A 
BRANCH   8  14
ATOM     14  N   UNL A   1      30.310  25.567  23.710  1.00  0.00    -0.320 N 
ATOM     15  C   UNL A   1      31.081  24.481  23.412  1.00  0.00     0.279 C 
ATOM     16  O   UNL A   1      30.455  23.430  23.200  1.00  0.00    -0.268 OA
ATOM     17  H   UNL A   1      29.390  25.290  23.926  1.00  0.00     0.170 HD
BRANCH  15  18
ATOM     18  C   UNL A   1      32.602  24.433  23.394  1.00  0.00     0.363 C 
BRANCH  18  19
ATOM     19  N   UNL A   1      33.266  23.600  24.408  1.00  0.00    -0.327 N 
ATOM     20  C   UNL A   1      32.249  20.955  25.313  1.00  0.00     0.192 C 
ATOM     21  C   UNL A   1      31.689  22.265  25.883  1.00  0.00     0.126 C 
ATOM     22  C   UNL A   1      32.889  21.190  23.944  1.00  0.00     0.126 C 
ATOM     23  C   UNL A   1      32.615  23.478  25.714  1.00  0.00     0.268 C 
ATOM     24  C   UNL A   1      33.876  22.352  23.982  1.00  0.00     0.268 C 
ATOM     25  H   UNL A   1      34.057  24.226  24.560  1.00  0.00     0.348 HD
BRANCH  20  26
ATOM     26  N   UNL A   1      33.220  20.338  26.224  1.00  0.00    -0.355 N 
ATOM     27  H   UNL A   1      32.844  20.336  27.172  1.00  0.00     0.344 HD
ATOM     28  H   UNL A   1      34.091  20.870  26.204  1.00  0.00     0.344 HD
ATOM     29  H   UNL A   1      33.402  19.378  25.929  1.00  0.00     0.344 HD
ENDBRANCH  20  26
ENDBRANCH  18  19
ENDBRANCH  15  18
ENDBRANCH   8  14
ENDBRANCH   4   7
ENDBRANCH   2   3
ENDBRANCH   1   2
BRANCH   1  30
ATOM     30  C   UNL A   1      33.555  30.145  27.260  1.00  0.00     0.023 C 
BRANCH  30  31
ATOM     31  C   UNL A   1      34.294  31.431  27.589  1.00  0.00     0.116 C 
BRANCH  31  32
ATOM     32  N   UNL A   1      33.443  32.620  27.628  1.00  0.00    -0.352 N 
ATOM     33  C   UNL A   1      33.556  33.719  28.455  1.00  0.00     0.251 C 
ATOM     34  H   UNL A   1      32.698  32.638  26.983  1.00  0.00     0.163 HD
ATOM     35  O   UNL A   1      32.763  34.640  28.406  1.00  0.00    -0.269 OA
BRANCH  33  36
ATOM     36  C   UNL A   1      34.641  33.702  29.457  1.00  0.00     0.039 A 
ATOM     37  C   UNL A   1      34.452  32.972  30.631  1.00  0.00     0.014 A 
ATOM     38  C   UNL A   1      35.889  34.234  29.130  1.00  0.00     0.014 A 
ATOM     39  C   UNL A   1      35.557  32.668  31.426  1.00  0.00     0.010 A 
ATOM     40  C   UNL A   1      36.998  33.854  29.874  1.00  0.00     0.010 A 
ATOM     41  C   UNL A   1      36.846  33.043  31.012  1.00  0.00    -0.014 A 
BRANCH  41  42
ATOM     42  C   UNL A   1      38.060  32.555  31.711  1.00  0.00     0.031 A 
ATOM     43  C   UNL A   1      38.926  31.510  31.064  1.00  0.00     0.074 A 
ATOM     44  C   UNL A   1      38.317  32.966  32.971  1.00  0.00     0.049 A 
ATOM     45  N   UNL A   1      39.948  30.867  31.563  1.00  0.00    -0.248 NA
ATOM     46  C   UNL A   1      38.575  31.113  29.690  1.00  0.00     0.031 C 
ATOM     47  C   UNL A   1      37.524  33.938  33.731  1.00  0.00     0.029 A 
ATOM     48  N   UNL A   1      39.315  32.607  33.844  1.00  0.00    -0.354 N 
ATOM     49  C   UNL A   1      40.339  29.965  30.580  1.00  0.00     0.074 A 
ATOM     50  C   UNL A   1      39.425  30.120  29.471  1.00  0.00     0.031 C 
ATOM     51  C   UNL A   1      38.080  34.115  34.942  1.00  0.00     0.029 A 
ATOM     52  C   UNL A   1      39.238  33.237  35.066  1.00  0.00     0.049 A 
ATOM     53  H   UNL A   1      40.020  31.958  33.618  1.00  0.00     0.167 HD
ATOM     54  C   UNL A   1      41.379  29.099  30.595  1.00  0.00     0.031 A 
ATOM     55  C   UNL A   1      40.004  33.111  36.167  1.00  0.00     0.031 A 
ATOM     56  C   UNL A   1      42.312  28.982  31.681  1.00  0.00     0.049 A 
ATOM     57  C   UNL A   1      41.149  32.136  36.156  1.00  0.00     0.074 A 
ATOM     58  C   UNL A   1      43.461  28.213  31.743  1.00  0.00     0.029 A 
ATOM     59  N   UNL A   1      42.206  29.646  32.892  1.00  0.00    -0.354 N 
ATOM     60  N   UNL A   1      41.561  31.362  35.180  1.00  0.00    -0.248 NA
ATOM     61  C   UNL A   1      41.930  32.011  37.396  1.00  0.00     0.031 C 
ATOM     62  C   UNL A   1      44.022  28.371  33.013  1.00  0.00     0.029 A 
ATOM     63  C   UNL A   1      43.247  29.274  33.724  1.00  0.00     0.049 A 
ATOM     64  H   UNL A   1      41.496  30.287  33.126  1.00  0.00     0.167 HD
ATOM     65  C   UNL A   1      42.660  30.675  35.681  1.00  0.00     0.074 A 
ATOM     66  C   UNL A   1      42.859  31.134  37.040  1.00  0.00     0.031 C 
ATOM     67  C   UNL A   1      43.433  29.745  35.072  1.00  0.00     0.031 A 
BRANCH  54  68
ATOM     68  C   UNL A   1      41.566  28.208  29.400  1.00  0.00    -0.014 A 
ATOM     69  C   UNL A   1      42.469  28.545  28.377  1.00  0.00     0.010 A 
ATOM     70  C   UNL A   1      40.878  26.983  29.335  1.00  0.00     0.010 A 
ATOM     71  C   UNL A   1      42.661  27.685  27.294  1.00  0.00     0.020 A 
ATOM     72  C   UNL A   1      41.085  26.108  28.264  1.00  0.00     0.020 A 
ATOM     73  C   UNL A   1      41.968  26.471  27.245  1.00  0.00     0.054 A 
BRANCH  73  74
ATOM     74  S   UNL A   1      42.275  25.351  25.852  1.00  0.00     0.124 S 
ATOM     75  O   UNL A   1      41.257  25.778  24.895  1.00  0.00    -0.237 OA
ATOM     76  O   UNL A   1      43.653  25.665  25.485  1.00  0.00    -0.237 OA
ATOM     77  O   UNL A   1      42.072  24.023  26.424  1.00  0.00    -0.744 OA
ENDBRANCH  73  74
ENDBRANCH  54  68
BRANCH  55  78
ATOM     78  C   UNL A   1      39.717  33.920  37.385  1.00  0.00    -0.014 A 
ATOM     79  C   UNL A   1      40.276  35.202  37.532  1.00  0.00     0.010 A 
ATOM     80  C   UNL A   1      38.909  33.404  38.414  1.00  0.00     0.010 A 
ATOM     81  C   UNL A   1      40.057  35.941  38.698  1.00  0.00     0.020 A 
ATOM     82  C   UNL A   1      38.667  34.151  39.571  1.00  0.00     0.020 A 
ATOM     83  C   UNL A   1      39.257  35.408  39.713  1.00  0.00     0.054 A 
BRANCH  83  84
ATOM     84  S   UNL A   1      38.968  36.392  41.210  1.00  0.00     0.124 S 
ATOM     85  O   UNL A   1      37.861  35.674  41.833  1.00  0.00    -0.237 OA
ATOM     86  O   UNL A   1      40.251  36.303  41.903  1.00  0.00    -0.237 OA
ATOM     87  O   UNL A   1      38.642  37.717  40.687  1.00  0.00    -0.744 OA
ENDBRANCH  83  84
ENDBRANCH  55  78
BRANCH  67  88
ATOM     88  C   UNL A   1      44.579  29.168  35.856  1.00  0.00    -0.014 A 
ATOM     89  C   UNL A   1      45.837  29.795  35.858  1.00  0.00     0.010 A 
ATOM     90  C   UNL A   1      44.369  28.038  36.668  1.00  0.00     0.010 A 
ATOM     91  C   UNL A   1      46.871  29.294  36.652  1.00  0.00     0.020 A 
ATOM     92  C   UNL A   1      45.394  27.550  37.482  1.00  0.00     0.020 A 
ATOM     93  C   UNL A   1      46.641  28.178  37.463  1.00  0.00     0.054 A 
BRANCH  93  94
ATOM     94  S   UNL A   1      47.976  27.596  38.544  1.00  0.00     0.124 S 
ATOM     95  O   UNL A   1      47.240  27.154  39.725  1.00  0.00    -0.237 OA
ATOM     96  O   UNL A   1      48.590  26.534  37.752  1.00  0.00    -0.237 OA
ATOM     97  O   UNL A   1      48.809  28.782  38.735  1.00  0.00    -0.744 OA
ENDBRANCH  93  94
ENDBRANCH  67  88
ENDBRANCH  41  42
ENDBRANCH  33  36
ENDBRANCH  31  32
ENDBRANCH  30  31
ENDBRANCH   1  30
TORSDOF 18
ENDMDL
MODEL 3
REMARK VINA RESULT:     -10.7      1.768      8.661
REMARK SMILES [NH3+]C1CC[NH+](CC(=O)Nc2cc(Cl)ccc2C(=O)NCCCCNC(=O)c2ccc(-c3c4nc(c(-c5ccc(S(=O)(=O)[O-])cc5)c5ccc([nH]5)c(-c5ccc(S(=O)(=O)[O-])cc5)c5nc(c(-c6ccc(S(=O)(=O)[O-])cc6)c6ccc3[nH]6)C=C5)C=C4)cc2)CC1
REMARK SMILES IDX 21 1 20 2 19 3 17 4 18 5 16 7 10 8 11 9 12 10 15 11 13 12
REMARK SMILES IDX 14 13 9 14 7 15 8 16 6 18 5 19 2 20 3 21 88 22 4 23 87 24
REMARK SMILES IDX 1 26 22 30 23 31 24 32 25 33 26 35 27 36 28 37 86 38 29 39
REMARK SMILES IDX 85 40 30 41 31 42 32 43 79 44 33 45 84 46 78 47 80 48 34 49
REMARK SMILES IDX 83 50 77 51 76 52 35 54 65 55 46 56 64 57 47 58 50 59 63 60
REMARK SMILES IDX 81 61 48 62 49 63 62 65 82 66 51 67 36 68 37 69 45 70 38 71
REMARK SMILES IDX 44 72 39 73 40 74 41 75 42 76 43 77 66 78 67 79 75 80 68 81
REMARK SMILES IDX 74 82 69 83 70 84 71 85 72 86 73 87 52 88 53 89 61 90 54 91
REMARK SMILES IDX 60 92 55 93 56 94 57 95 58 96 59 97
REMARK H PARENT 19 6 9 17 5 25 1 27 1 28 1 29 24 34 80 53 50 64
REMARK Flexibility Score: inf
ROOT
ATOM      1  C   UNL A   1      34.215  28.937  27.206  1.00  0.00     0.023 C 
ENDROOT
BRANCH   1   2
ATOM      2  C   UNL A   1      33.988  27.844  26.152  1.00  0.00     0.116 C 
BRANCH   2   3
ATOM      3  N   UNL A   1      32.736  27.171  26.434  1.00  0.00    -0.352 N 
ATOM      4  C   UNL A   1      32.214  25.923  26.240  1.00  0.00     0.253 C 
ATOM      5  O   UNL A   1      31.033  25.799  26.583  1.00  0.00    -0.269 OA
ATOM      6  H   UNL A   1      32.094  27.768  26.880  1.00  0.00     0.163 HD
BRANCH   4   7
ATOM      7  C   UNL A   1      32.906  24.685  25.745  1.00  0.00     0.063 A 
ATOM      8  C   UNL A   1      33.530  24.417  24.496  1.00  0.00     0.055 A 
ATOM      9  C   UNL A   1      33.919  23.099  24.228  1.00  0.00     0.047 A 
ATOM     10  C   UNL A   1      33.739  22.065  25.147  1.00  0.00     0.043 A 
ATOM     11  C   UNL A   1      32.745  23.612  26.662  1.00  0.00     0.017 A 
ATOM     12  Cl  UNL A   1      34.240  20.469  24.744  1.00  0.00    -0.084 Cl
ATOM     13  C   UNL A   1      33.160  22.316  26.374  1.00  0.00     0.021 A 
BRANCH   8  14
ATOM     14  N   UNL A   1      33.771  25.443  23.567  1.00  0.00    -0.320 N 
ATOM     15  C   UNL A   1      33.071  26.223  22.692  1.00  0.00     0.279 C 
ATOM     16  O   UNL A   1      33.761  26.838  21.863  1.00  0.00    -0.268 OA
ATOM     17  H   UNL A   1      34.730  25.667  23.539  1.00  0.00     0.170 HD
BRANCH  15  18
ATOM     18  C   UNL A   1      31.567  26.456  22.697  1.00  0.00     0.363 C 
BRANCH  18  19
ATOM     19  N   UNL A   1      31.063  27.617  23.447  1.00  0.00    -0.327 N 
ATOM     20  C   UNL A   1      28.976  29.476  22.426  1.00  0.00     0.192 C 
ATOM     21  C   UNL A   1      30.447  29.620  22.013  1.00  0.00     0.126 C 
ATOM     22  C   UNL A   1      28.681  28.048  22.890  1.00  0.00     0.126 C 
ATOM     23  C   UNL A   1      31.443  28.948  22.969  1.00  0.00     0.268 C 
ATOM     24  C   UNL A   1      29.693  27.580  23.930  1.00  0.00     0.268 C 
ATOM     25  H   UNL A   1      31.627  27.459  24.281  1.00  0.00     0.348 HD
BRANCH  20  26
ATOM     26  N   UNL A   1      28.610  30.432  23.477  1.00  0.00    -0.355 N 
ATOM     27  H   UNL A   1      28.295  31.303  23.049  1.00  0.00     0.344 HD
ATOM     28  H   UNL A   1      29.423  30.618  24.066  1.00  0.00     0.344 HD
ATOM     29  H   UNL A   1      27.859  30.042  24.046  1.00  0.00     0.344 HD
ENDBRANCH  20  26
ENDBRANCH  18  19
ENDBRANCH  15  18
ENDBRANCH   8  14
ENDBRANCH   4   7
ENDBRANCH   2   3
ENDBRANCH   1   2
BRANCH   1  30
ATOM     30  C   UNL A   1      33.486  30.251  26.972  1.00  0.00     0.023 C 
BRANCH  30  31
ATOM     31  C   UNL A   1      34.141  31.444  27.648  1.00  0.00     0.116 C 
BRANCH  31  32
ATOM     32  N   UNL A   1      33.323  32.656  27.650  1.00  0.00    -0.352 N 
ATOM     33  C   UNL A   1      33.469  33.777  28.443  1.00  0.00     0.251 C 
ATOM     34  H   UNL A   1      32.577  32.675  27.008  1.00  0.00     0.163 HD
ATOM     35  O   UNL A   1      32.702  34.719  28.367  1.00  0.00    -0.269 OA
BRANCH  33  36
ATOM     36  C   UNL A   1      34.557  33.762  29.442  1.00  0.00     0.039 A 
ATOM     37  C   UNL A   1      34.362  33.053  30.628  1.00  0.00     0.014 A 
ATOM     38  C   UNL A   1      35.811  34.273  29.103  1.00  0.00     0.014 A 
ATOM     39  C   UNL A   1      35.465  32.748  31.424  1.00  0.00     0.010 A 
ATOM     40  C   UNL A   1      36.916  33.891  29.851  1.00  0.00     0.010 A 
ATOM     41  C   UNL A   1      36.757  33.099  31.001  1.00  0.00    -0.014 A 
BRANCH  41  42
ATOM     42  C   UNL A   1      37.967  32.606  31.705  1.00  0.00     0.031 A 
ATOM     43  C   UNL A   1      38.735  31.442  31.145  1.00  0.00     0.074 A 
ATOM     44  C   UNL A   1      38.304  33.131  32.902  1.00  0.00     0.049 A 
ATOM     45  N   UNL A   1      39.735  30.787  31.673  1.00  0.00    -0.248 NA
ATOM     46  C   UNL A   1      38.300  30.926  29.836  1.00  0.00     0.031 C 
ATOM     47  C   UNL A   1      37.608  34.229  33.580  1.00  0.00     0.029 A 
ATOM     48  N   UNL A   1      39.314  32.799  33.773  1.00  0.00    -0.354 N 
ATOM     49  C   UNL A   1      40.025  29.762  30.781  1.00  0.00     0.074 A 
ATOM     50  C   UNL A   1      39.075  29.860  29.696  1.00  0.00     0.031 C 
ATOM     51  C   UNL A   1      38.227  34.496  34.743  1.00  0.00     0.029 A 
ATOM     52  C   UNL A   1      39.331  33.559  34.920  1.00  0.00     0.049 A 
ATOM     53  H   UNL A   1      39.965  32.084  33.593  1.00  0.00     0.167 HD
ATOM     54  C   UNL A   1      41.006  28.834  30.852  1.00  0.00     0.031 A 
ATOM     55  C   UNL A   1      40.134  33.499  36.001  1.00  0.00     0.031 A 
ATOM     56  C   UNL A   1      41.977  28.769  31.910  1.00  0.00     0.049 A 
ATOM     57  C   UNL A   1      41.213  32.452  36.054  1.00  0.00     0.074 A 
ATOM     58  C   UNL A   1      43.076  27.935  32.013  1.00  0.00     0.029 A 
ATOM     59  N   UNL A   1      41.966  29.564  33.045  1.00  0.00    -0.354 N 
ATOM     60  N   UNL A   1      41.532  31.553  35.154  1.00  0.00    -0.248 NA
ATOM     61  C   UNL A   1      42.038  32.407  37.271  1.00  0.00     0.031 C 
ATOM     62  C   UNL A   1      43.700  28.188  33.237  1.00  0.00     0.029 A 
ATOM     63  C   UNL A   1      43.016  29.212  33.874  1.00  0.00     0.049 A 
ATOM     64  H   UNL A   1      41.309  30.272  33.232  1.00  0.00     0.167 HD
ATOM     65  C   UNL A   1      42.605  30.850  35.687  1.00  0.00     0.074 A 
ATOM     66  C   UNL A   1      42.893  31.436  36.979  1.00  0.00     0.031 C 
ATOM     67  C   UNL A   1      43.290  29.809  35.155  1.00  0.00     0.031 A 
BRANCH  54  68
ATOM     68  C   UNL A   1      41.084  27.809  29.756  1.00  0.00    -0.014 A 
ATOM     69  C   UNL A   1      40.103  26.813  29.622  1.00  0.00     0.010 A 
ATOM     70  C   UNL A   1      42.120  27.888  28.807  1.00  0.00     0.010 A 
ATOM     71  C   UNL A   1      40.169  25.894  28.572  1.00  0.00     0.020 A 
ATOM     72  C   UNL A   1      42.177  26.985  27.741  1.00  0.00     0.020 A 
ATOM     73  C   UNL A   1      41.207  25.987  27.638  1.00  0.00     0.054 A 
BRANCH  73  74
ATOM     74  S   UNL A   1      41.240  24.811  26.257  1.00  0.00     0.124 S 
ATOM     75  O   UNL A   1      42.342  23.932  26.639  1.00  0.00    -0.237 OA
ATOM     76  O   UNL A   1      39.909  24.212  26.314  1.00  0.00    -0.237 OA
ATOM     77  O   UNL A   1      41.491  25.654  25.091  1.00  0.00    -0.744 OA
ENDBRANCH  73  74
ENDBRANCH  54  68
BRANCH  55  78
ATOM     78  C   UNL A   1      39.953  34.450  37.133  1.00  0.00    -0.014 A 
ATOM     79  C   UNL A   1      39.164  34.092  38.240  1.00  0.00     0.010 A 
ATOM     80  C   UNL A   1      40.543  35.726  37.098  1.00  0.00     0.010 A 
ATOM     81  C   UNL A   1      38.943  35.003  39.277  1.00  0.00     0.020 A 
ATOM     82  C   UNL A   1      40.346  36.631  38.145  1.00  0.00     0.020 A 
ATOM     83  C   UNL A   1      39.532  36.270  39.221  1.00  0.00     0.054 A 
BRANCH  83  84
ATOM     84  S   UNL A   1      39.250  37.430  40.587  1.00  0.00     0.124 S 
ATOM     85  O   UNL A   1      38.263  38.338  40.012  1.00  0.00    -0.237 OA
ATOM     86  O   UNL A   1      38.763  36.556  41.652  1.00  0.00    -0.237 OA
ATOM     87  O   UNL A   1      40.573  38.006  40.820  1.00  0.00    -0.744 OA
ENDBRANCH  83  84
ENDBRANCH  55  78
BRANCH  67  88
ATOM     88  C   UNL A   1      44.429  29.242  35.955  1.00  0.00    -0.014 A 
ATOM     89  C   UNL A   1      45.725  29.775  35.839  1.00  0.00     0.010 A 
ATOM     90  C   UNL A   1      44.183  28.226  36.896  1.00  0.00     0.010 A 
ATOM     91  C   UNL A   1      46.759  29.293  36.644  1.00  0.00     0.020 A 
ATOM     92  C   UNL A   1      45.209  27.758  37.720  1.00  0.00     0.020 A 
ATOM     93  C   UNL A   1      46.492  28.291  37.584  1.00  0.00     0.054 A 
BRANCH  93  94
ATOM     94  S   UNL A   1      47.834  27.738  38.672  1.00  0.00     0.124 S 
ATOM     95  O   UNL A   1      48.466  29.001  39.043  1.00  0.00    -0.237 OA
ATOM     96  O   UNL A   1      47.116  27.055  39.746  1.00  0.00    -0.237 OA
ATOM     97  O   UNL A   1      48.637  26.866  37.817  1.00  0.00    -0.744 OA
ENDBRANCH  93  94
ENDBRANCH  67  88
ENDBRANCH  41  42
ENDBRANCH  33  36
ENDBRANCH  31  32
ENDBRANCH  30  31
ENDBRANCH   1  30
TORSDOF 18
ENDMDL
