MODEL 1
REMARK VINA RESULT:     -11.0      0.000      0.000
REMARK SMILES C[C@@H]1C[C@](Nc2ccccc2F)(C(=O)NCCCCNC(=O)c2ccc(-c3c4nc(c(-c5ccc(S(=O)(=O)[O-])cc5)c5ccc([nH]5)c(-c5ccc(S(=O)(=O)[O-])cc5)c5nc(c(-c6ccc(S(=O)(=O)[O-])cc6)c6ccc3[nH]6)C=C5)C=C4)cc2)CS1
REMARK SMILES IDX 18 1 17 2 16 3 15 4 13 5 14 6 4 8 1 9 2 10 3 11 84 12 83 13
REMARK SMILES IDX 5 14 6 16 7 17 11 18 8 19 10 20 12 21 9 22 19 23 20 24 21 25
REMARK SMILES IDX 22 27 23 28 24 29 82 30 25 31 81 32 26 33 27 34 28 35 75 36
REMARK SMILES IDX 29 37 80 38 74 39 76 40 30 41 79 42 73 43 72 44 31 46 61 47
REMARK SMILES IDX 42 48 60 49 43 50 46 51 59 52 77 53 44 54 45 55 58 57 78 58
REMARK SMILES IDX 47 59 32 60 33 61 41 62 34 63 40 64 35 65 36 66 37 67 38 68
REMARK SMILES IDX 39 69 62 70 63 71 71 72 64 73 70 74 65 75 66 76 67 77 68 78
REMARK SMILES IDX 69 79 48 80 49 81 57 82 50 83 56 84 51 85 52 86 53 87 54 88
REMARK SMILES IDX 55 89
REMARK H PARENT 15 7 5 15 20 26 76 45 46 56
REMARK Flexibility Score: inf
ROOT
ATOM      1  C   UNL A   1      32.695  27.972  26.066  1.00  0.00     0.023 C 
ENDROOT
BRANCH   1   2
ATOM      2  C   UNL A   1      33.586  27.079  25.204  1.00  0.00     0.023 C 
BRANCH   2   3
ATOM      3  C   UNL A   1      33.719  25.636  25.679  1.00  0.00     0.116 C 
BRANCH   3   4
ATOM      4  N   UNL A   1      32.593  25.203  26.485  1.00  0.00    -0.354 N 
ATOM      5  C   UNL A   1      31.755  24.126  26.353  1.00  0.00     0.246 C 
ATOM      6  O   UNL A   1      30.953  23.953  27.274  1.00  0.00    -0.272 OA
ATOM      7  H   UNL A   1      32.398  25.781  27.258  1.00  0.00     0.163 HD
BRANCH   5   8
ATOM      8  C   UNL A   1      31.787  23.232  25.054  1.00  0.00     0.127 C 
ATOM      9  C   UNL A   1      35.312  21.950  24.162  1.00  0.00     0.019 C 
ATOM     10  C   UNL A   1      33.791  21.933  24.186  1.00  0.00     0.046 C 
ATOM     11  C   UNL A   1      33.202  23.320  24.415  1.00  0.00     0.053 C 
ATOM     12  S   UNL A   1      33.164  20.975  25.575  1.00  0.00    -0.156 SA
ATOM     13  C   UNL A   1      31.533  21.765  25.474  1.00  0.00     0.108 C 
BRANCH   8  14
ATOM     14  N   UNL A   1      30.715  23.768  24.162  1.00  0.00    -0.368 N 
ATOM     15  H   UNL A   1      29.995  23.147  23.907  1.00  0.00     0.161 HD
BRANCH  14  16
ATOM     16  C   UNL A   1      30.638  25.057  23.661  1.00  0.00     0.071 A 
ATOM     17  C   UNL A   1      31.429  25.406  22.556  1.00  0.00     0.029 A 
ATOM     18  C   UNL A   1      29.835  26.065  24.212  1.00  0.00     0.146 A 
ATOM     19  C   UNL A   1      31.376  26.691  21.998  1.00  0.00     0.002 A 
ATOM     20  C   UNL A   1      29.767  27.343  23.659  1.00  0.00     0.041 A 
ATOM     21  F   UNL A   1      29.155  25.853  25.349  1.00  0.00    -0.205 F 
ATOM     22  C   UNL A   1      30.534  27.656  22.542  1.00  0.00     0.003 A 
ENDBRANCH  14  16
ENDBRANCH   8  14
ENDBRANCH   5   8
ENDBRANCH   3   4
ENDBRANCH   2   3
ENDBRANCH   1   2
BRANCH   1  23
ATOM     23  C   UNL A   1      33.300  28.422  27.392  1.00  0.00     0.116 C 
BRANCH  23  24
ATOM     24  N   UNL A   1      33.299  29.866  27.557  1.00  0.00    -0.352 N 
ATOM     25  C   UNL A   1      34.299  30.699  28.007  1.00  0.00     0.251 C 
ATOM     26  H   UNL A   1      32.458  30.316  27.308  1.00  0.00     0.163 HD
ATOM     27  O   UNL A   1      34.059  31.881  28.211  1.00  0.00    -0.269 OA
BRANCH  25  28
ATOM     28  C   UNL A   1      35.650  30.153  28.273  1.00  0.00     0.039 A 
ATOM     29  C   UNL A   1      36.583  30.126  27.234  1.00  0.00     0.014 A 
ATOM     30  C   UNL A   1      36.000  29.686  29.542  1.00  0.00     0.014 A 
ATOM     31  C   UNL A   1      37.891  29.705  27.489  1.00  0.00     0.010 A 
ATOM     32  C   UNL A   1      37.322  29.341  29.813  1.00  0.00     0.010 A 
ATOM     33  C   UNL A   1      38.283  29.349  28.791  1.00  0.00    -0.014 A 
BRANCH  33  34
ATOM     34  C   UNL A   1      39.695  29.002  29.106  1.00  0.00     0.031 A 
ATOM     35  C   UNL A   1      40.611  30.027  29.719  1.00  0.00     0.074 A 
ATOM     36  C   UNL A   1      40.172  27.784  28.777  1.00  0.00     0.049 A 
ATOM     37  N   UNL A   1      41.884  29.929  30.004  1.00  0.00    -0.248 NA
ATOM     38  C   UNL A   1      40.026  31.342  30.027  1.00  0.00     0.031 C 
ATOM     39  C   UNL A   1      39.400  26.714  28.139  1.00  0.00     0.029 A 
ATOM     40  N   UNL A   1      41.426  27.243  28.924  1.00  0.00    -0.354 N 
ATOM     41  C   UNL A   1      42.256  31.170  30.508  1.00  0.00     0.074 A 
ATOM     42  C   UNL A   1      41.087  32.020  30.443  1.00  0.00     0.031 C 
ATOM     43  C   UNL A   1      40.189  25.639  27.976  1.00  0.00     0.029 A 
ATOM     44  C   UNL A   1      41.531  25.954  28.455  1.00  0.00     0.049 A 
ATOM     45  H   UNL A   1      42.179  27.731  29.328  1.00  0.00     0.167 HD
ATOM     46  C   UNL A   1      43.457  31.563  30.998  1.00  0.00     0.031 A 
ATOM     47  C   UNL A   1      42.588  25.120  28.407  1.00  0.00     0.031 A 
ATOM     48  C   UNL A   1      44.616  30.713  31.072  1.00  0.00     0.049 A 
ATOM     49  C   UNL A   1      43.913  25.582  28.948  1.00  0.00     0.074 A 
ATOM     50  C   UNL A   1      45.860  31.002  31.604  1.00  0.00     0.029 A 
ATOM     51  N   UNL A   1      44.676  29.412  30.596  1.00  0.00    -0.354 N 
ATOM     52  N   UNL A   1      44.226  26.738  29.483  1.00  0.00    -0.248 NA
ATOM     53  C   UNL A   1      45.025  24.623  28.891  1.00  0.00     0.031 C 
ATOM     54  C   UNL A   1      46.689  29.893  31.402  1.00  0.00     0.029 A 
ATOM     55  C   UNL A   1      45.944  28.892  30.801  1.00  0.00     0.049 A 
ATOM     56  H   UNL A   1      43.929  28.929  30.175  1.00  0.00     0.167 HD
ATOM     57  C   UNL A   1      45.564  26.635  29.851  1.00  0.00     0.074 A 
ATOM     58  C   UNL A   1      45.995  25.299  29.492  1.00  0.00     0.031 C 
ATOM     59  C   UNL A   1      46.361  27.561  30.437  1.00  0.00     0.031 A 
BRANCH  46  60
ATOM     60  C   UNL A   1      43.578  32.982  31.489  1.00  0.00    -0.014 A 
ATOM     61  C   UNL A   1      43.367  33.303  32.843  1.00  0.00     0.010 A 
ATOM     62  C   UNL A   1      43.946  34.004  30.595  1.00  0.00     0.010 A 
ATOM     63  C   UNL A   1      43.479  34.624  33.285  1.00  0.00     0.020 A 
ATOM     64  C   UNL A   1      44.089  35.322  31.039  1.00  0.00     0.020 A 
ATOM     65  C   UNL A   1      43.837  35.626  32.378  1.00  0.00     0.054 A 
BRANCH  65  66
ATOM     66  S   UNL A   1      43.995  37.328  32.983  1.00  0.00     0.124 S 
ATOM     67  O   UNL A   1      42.833  37.444  33.862  1.00  0.00    -0.237 OA
ATOM     68  O   UNL A   1      45.291  37.309  33.657  1.00  0.00    -0.237 OA
ATOM     69  O   UNL A   1      43.939  38.137  31.768  1.00  0.00    -0.744 OA
ENDBRANCH  65  66
ENDBRANCH  46  60
BRANCH  47  70
ATOM     70  C   UNL A   1      42.431  23.753  27.836  1.00  0.00    -0.014 A 
ATOM     71  C   UNL A   1      42.157  22.657  28.674  1.00  0.00     0.010 A 
ATOM     72  C   UNL A   1      42.545  23.543  26.450  1.00  0.00     0.010 A 
ATOM     73  C   UNL A   1      42.016  21.374  28.138  1.00  0.00     0.020 A 
ATOM     74  C   UNL A   1      42.376  22.265  25.907  1.00  0.00     0.020 A 
ATOM     75  C   UNL A   1      42.124  21.187  26.757  1.00  0.00     0.054 A 
BRANCH  75  76
ATOM     76  S   UNL A   1      41.885  19.520  26.078  1.00  0.00     0.124 S 
ATOM     77  O   UNL A   1      42.310  18.676  27.190  1.00  0.00    -0.237 OA
ATOM     78  O   UNL A   1      40.454  19.504  25.782  1.00  0.00    -0.237 OA
ATOM     79  O   UNL A   1      42.756  19.500  24.906  1.00  0.00    -0.744 OA
ENDBRANCH  75  76
ENDBRANCH  47  70
BRANCH  59  80
ATOM     80  C   UNL A   1      47.774  27.157  30.762  1.00  0.00    -0.014 A 
ATOM     81  C   UNL A   1      48.826  27.382  29.857  1.00  0.00     0.010 A 
ATOM     82  C   UNL A   1      48.061  26.593  32.019  1.00  0.00     0.010 A 
ATOM     83  C   UNL A   1      50.134  27.021  30.191  1.00  0.00     0.020 A 
ATOM     84  C   UNL A   1      49.372  26.257  32.368  1.00  0.00     0.020 A 
ATOM     85  C   UNL A   1      50.399  26.462  31.445  1.00  0.00     0.054 A 
BRANCH  85  86
ATOM     86  S   UNL A   1      52.112  26.045  31.872  1.00  0.00     0.124 S 
ATOM     87  O   UNL A   1      52.029  24.602  32.086  1.00  0.00    -0.237 OA
ATOM     88  O   UNL A   1      52.850  26.463  30.683  1.00  0.00    -0.237 OA
ATOM     89  O   UNL A   1      52.374  26.838  33.071  1.00  0.00    -0.744 OA
ENDBRANCH  85  86
ENDBRANCH  59  80
ENDBRANCH  33  34
ENDBRANCH  25  28
ENDBRANCH  23  24
ENDBRANCH   1  23
TORSDOF 16
ENDMDL
MODEL 2
REMARK VINA RESULT:     -10.7      1.591      2.815
REMARK SMILES C[C@@H]1C[C@](Nc2ccccc2F)(C(=O)NCCCCNC(=O)c2ccc(-c3c4nc(c(-c5ccc(S(=O)(=O)[O-])cc5)c5ccc([nH]5)c(-c5ccc(S(=O)(=O)[O-])cc5)c5nc(c(-c6ccc(S(=O)(=O)[O-])cc6)c6ccc3[nH]6)C=C5)C=C4)cc2)CS1
REMARK SMILES IDX 18 1 17 2 16 3 15 4 13 5 14 6 4 8 1 9 2 10 3 11 84 12 83 13
REMARK SMILES IDX 5 14 6 16 7 17 11 18 8 19 10 20 12 21 9 22 19 23 20 24 21 25
REMARK SMILES IDX 22 27 23 28 24 29 82 30 25 31 81 32 26 33 27 34 28 35 75 36
REMARK SMILES IDX 29 37 80 38 74 39 76 40 30 41 79 42 73 43 72 44 31 46 61 47
REMARK SMILES IDX 42 48 60 49 43 50 46 51 59 52 77 53 44 54 45 55 58 57 78 58
REMARK SMILES IDX 47 59 32 60 33 61 41 62 34 63 40 64 35 65 36 66 37 67 38 68
REMARK SMILES IDX 39 69 62 70 63 71 71 72 64 73 70 74 65 75 66 76 67 77 68 78
REMARK SMILES IDX 69 79 48 80 49 81 57 82 50 83 56 84 51 85 52 86 53 87 54 88
REMARK SMILES IDX 55 89
REMARK H PARENT 15 7 5 15 20 26 76 45 46 56
REMARK Flexibility Score: inf
ROOT
ATOM      1  C   UNL A   1      32.762  28.010  25.939  1.00  0.00     0.023 C 
ENDROOT
BRANCH   1   2
ATOM      2  C   UNL A   1      33.619  27.086  25.076  1.00  0.00     0.023 C 
BRANCH   2   3
ATOM      3  C   UNL A   1      33.014  25.717  24.783  1.00  0.00     0.116 C 
BRANCH   3   4
ATOM      4  N   UNL A   1      33.590  25.088  23.608  1.00  0.00    -0.354 N 
ATOM      5  C   UNL A   1      34.074  23.819  23.416  1.00  0.00     0.246 C 
ATOM      6  O   UNL A   1      34.394  23.537  22.258  1.00  0.00    -0.272 OA
ATOM      7  H   UNL A   1      33.641  25.671  22.816  1.00  0.00     0.163 HD
BRANCH   5   8
ATOM      8  C   UNL A   1      34.272  22.836  24.633  1.00  0.00     0.127 C 
ATOM      9  C   UNL A   1      37.885  21.533  24.974  1.00  0.00     0.019 C 
ATOM     10  C   UNL A   1      36.492  21.910  25.454  1.00  0.00     0.046 C 
ATOM     11  C   UNL A   1      35.467  21.889  24.326  1.00  0.00     0.053 C 
ATOM     12  S   UNL A   1      36.434  23.611  26.043  1.00  0.00    -0.156 SA
ATOM     13  C   UNL A   1      34.628  23.680  25.879  1.00  0.00     0.108 C 
BRANCH   8  14
ATOM     14  N   UNL A   1      32.978  22.105  24.783  1.00  0.00    -0.368 N 
ATOM     15  H   UNL A   1      32.192  22.639  25.040  1.00  0.00     0.161 HD
BRANCH  14  16
ATOM     16  C   UNL A   1      32.780  20.747  24.594  1.00  0.00     0.071 A 
ATOM     17  C   UNL A   1      33.006  19.870  25.665  1.00  0.00     0.029 A 
ATOM     18  C   UNL A   1      32.394  20.175  23.373  1.00  0.00     0.146 A 
ATOM     19  C   UNL A   1      32.803  18.490  25.533  1.00  0.00     0.002 A 
ATOM     20  C   UNL A   1      32.179  18.804  23.234  1.00  0.00     0.041 A 
ATOM     21  F   UNL A   1      32.291  20.926  22.267  1.00  0.00    -0.205 F 
ATOM     22  C   UNL A   1      32.376  17.958  24.320  1.00  0.00     0.003 A 
ENDBRANCH  14  16
ENDBRANCH   8  14
ENDBRANCH   5   8
ENDBRANCH   3   4
ENDBRANCH   2   3
ENDBRANCH   1   2
BRANCH   1  23
ATOM     23  C   UNL A   1      33.369  28.406  27.282  1.00  0.00     0.116 C 
BRANCH  23  24
ATOM     24  N   UNL A   1      33.331  29.840  27.521  1.00  0.00    -0.352 N 
ATOM     25  C   UNL A   1      34.296  30.666  28.054  1.00  0.00     0.251 C 
ATOM     26  H   UNL A   1      32.493  30.287  27.261  1.00  0.00     0.163 HD
ATOM     27  O   UNL A   1      34.025  31.831  28.309  1.00  0.00    -0.269 OA
BRANCH  25  28
ATOM     28  C   UNL A   1      35.646  30.131  28.348  1.00  0.00     0.039 A 
ATOM     29  C   UNL A   1      36.617  30.163  27.344  1.00  0.00     0.014 A 
ATOM     30  C   UNL A   1      35.957  29.615  29.608  1.00  0.00     0.014 A 
ATOM     31  C   UNL A   1      37.922  29.753  27.630  1.00  0.00     0.010 A 
ATOM     32  C   UNL A   1      37.274  29.279  29.913  1.00  0.00     0.010 A 
ATOM     33  C   UNL A   1      38.272  29.348  28.929  1.00  0.00    -0.014 A 
BRANCH  33  34
ATOM     34  C   UNL A   1      39.677  29.010  29.282  1.00  0.00     0.031 A 
ATOM     35  C   UNL A   1      40.554  30.025  29.964  1.00  0.00     0.074 A 
ATOM     36  C   UNL A   1      40.185  27.812  28.927  1.00  0.00     0.049 A 
ATOM     37  N   UNL A   1      41.818  29.935  30.291  1.00  0.00    -0.248 NA
ATOM     38  C   UNL A   1      39.938  31.320  30.298  1.00  0.00     0.031 C 
ATOM     39  C   UNL A   1      39.453  26.754  28.223  1.00  0.00     0.029 A 
ATOM     40  N   UNL A   1      41.441  27.284  29.100  1.00  0.00    -0.354 N 
ATOM     41  C   UNL A   1      42.152  31.163  30.852  1.00  0.00     0.074 A 
ATOM     42  C   UNL A   1      40.973  31.997  30.775  1.00  0.00     0.031 C 
ATOM     43  C   UNL A   1      40.264  25.698  28.051  1.00  0.00     0.029 A 
ATOM     44  C   UNL A   1      41.583  26.015  28.588  1.00  0.00     0.049 A 
ATOM     45  H   UNL A   1      42.171  27.769  29.548  1.00  0.00     0.167 HD
ATOM     46  C   UNL A   1      43.328  31.555  31.398  1.00  0.00     0.031 A 
ATOM     47  C   UNL A   1      42.654  25.199  28.548  1.00  0.00     0.031 A 
ATOM     48  C   UNL A   1      44.498  30.721  31.483  1.00  0.00     0.049 A 
ATOM     49  C   UNL A   1      43.953  25.661  29.153  1.00  0.00     0.074 A 
ATOM     50  C   UNL A   1      45.718  31.008  32.069  1.00  0.00     0.029 A 
ATOM     51  N   UNL A   1      44.596  29.439  30.964  1.00  0.00    -0.354 N 
ATOM     52  N   UNL A   1      44.228  26.801  29.740  1.00  0.00    -0.248 NA
ATOM     53  C   UNL A   1      45.081  24.721  29.101  1.00  0.00     0.031 C 
ATOM     54  C   UNL A   1      46.571  29.920  31.858  1.00  0.00     0.029 A 
ATOM     55  C   UNL A   1      45.863  28.931  31.195  1.00  0.00     0.049 A 
ATOM     56  H   UNL A   1      43.871  28.960  30.499  1.00  0.00     0.167 HD
ATOM     57  C   UNL A   1      45.553  26.704  30.152  1.00  0.00     0.074 A 
ATOM     58  C   UNL A   1      46.018  25.388  29.760  1.00  0.00     0.031 C 
ATOM     59  C   UNL A   1      46.315  27.620  30.798  1.00  0.00     0.031 A 
BRANCH  46  60
ATOM     60  C   UNL A   1      43.409  32.957  31.944  1.00  0.00    -0.014 A 
ATOM     61  C   UNL A   1      43.680  34.051  31.101  1.00  0.00     0.010 A 
ATOM     62  C   UNL A   1      43.173  33.192  33.311  1.00  0.00     0.010 A 
ATOM     63  C   UNL A   1      43.756  35.346  31.621  1.00  0.00     0.020 A 
ATOM     64  C   UNL A   1      43.217  34.490  33.830  1.00  0.00     0.020 A 
ATOM     65  C   UNL A   1      43.527  35.556  32.984  1.00  0.00     0.054 A 
BRANCH  65  66
ATOM     66  S   UNL A   1      43.611  37.250  33.627  1.00  0.00     0.124 S 
ATOM     67  O   UNL A   1      43.802  38.026  32.404  1.00  0.00    -0.237 OA
ATOM     68  O   UNL A   1      42.313  37.411  34.277  1.00  0.00    -0.237 OA
ATOM     69  O   UNL A   1      44.759  37.222  34.531  1.00  0.00    -0.744 OA
ENDBRANCH  65  66
ENDBRANCH  46  60
BRANCH  47  70
ATOM     70  C   UNL A   1      42.540  23.851  27.924  1.00  0.00    -0.014 A 
ATOM     71  C   UNL A   1      42.727  23.688  26.540  1.00  0.00     0.010 A 
ATOM     72  C   UNL A   1      42.255  22.723  28.713  1.00  0.00     0.010 A 
ATOM     73  C   UNL A   1      42.615  22.424  25.954  1.00  0.00     0.020 A 
ATOM     74  C   UNL A   1      42.169  21.453  28.135  1.00  0.00     0.020 A 
ATOM     75  C   UNL A   1      42.338  21.314  26.756  1.00  0.00     0.054 A 
BRANCH  75  76
ATOM     76  S   UNL A   1      42.249  19.675  25.981  1.00  0.00     0.124 S 
ATOM     77  O   UNL A   1      42.546  18.791  27.105  1.00  0.00    -0.237 OA
ATOM     78  O   UNL A   1      40.874  19.634  25.489  1.00  0.00    -0.237 OA
ATOM     79  O   UNL A   1      43.274  19.732  24.942  1.00  0.00    -0.744 OA
ENDBRANCH  75  76
ENDBRANCH  47  70
BRANCH  59  80
ATOM     80  C   UNL A   1      47.722  27.225  31.159  1.00  0.00    -0.014 A 
ATOM     81  C   UNL A   1      48.016  26.610  32.389  1.00  0.00     0.010 A 
ATOM     82  C   UNL A   1      48.757  27.421  30.227  1.00  0.00     0.010 A 
ATOM     83  C   UNL A   1      49.326  26.228  32.692  1.00  0.00     0.020 A 
ATOM     84  C   UNL A   1      50.062  27.014  30.513  1.00  0.00     0.020 A 
ATOM     85  C   UNL A   1      50.340  26.432  31.752  1.00  0.00     0.054 A 
BRANCH  85  86
ATOM     86  S   UNL A   1      52.023  25.885  32.150  1.00  0.00     0.124 S 
ATOM     87  O   UNL A   1      52.811  26.549  31.115  1.00  0.00    -0.237 OA
ATOM     88  O   UNL A   1      52.212  26.393  33.507  1.00  0.00    -0.237 OA
ATOM     89  O   UNL A   1      51.951  24.430  32.041  1.00  0.00    -0.744 OA
ENDBRANCH  85  86
ENDBRANCH  59  80
ENDBRANCH  33  34
ENDBRANCH  25  28
ENDBRANCH  23  24
ENDBRANCH   1  23
TORSDOF 16
ENDMDL
MODEL 3
REMARK VINA RESULT:     -10.7      1.845      3.104
REMARK SMILES C[C@@H]1C[C@](Nc2ccccc2F)(C(=O)NCCCCNC(=O)c2ccc(-c3c4nc(c(-c5ccc(S(=O)(=O)[O-])cc5)c5ccc([nH]5)c(-c5ccc(S(=O)(=O)[O-])cc5)c5nc(c(-c6ccc(S(=O)(=O)[O-])cc6)c6ccc3[nH]6)C=C5)C=C4)cc2)CS1
REMARK SMILES IDX 18 1 17 2 16 3 15 4 13 5 14 6 4 8 1 9 2 10 3 11 84 12 83 13
REMARK SMILES IDX 5 14 6 16 7 17 11 18 8 19 10 20 12 21 9 22 19 23 20 24 21 25
REMARK SMILES IDX 22 27 23 28 24 29 82 30 25 31 81 32 26 33 27 34 28 35 75 36
REMARK SMILES IDX 29 37 80 38 74 39 76 40 30 41 79 42 73 43 72 44 31 46 61 47
REMARK SMILES IDX 42 48 60 49 43 50 46 51 59 52 77 53 44 54 45 55 58 57 78 58
REMARK SMILES IDX 47 59 32 60 33 61 41 62 34 63 40 64 35 65 36 66 37 67 38 68
REMARK SMILES IDX 39 69 62 70 63 71 71 72 64 73 70 74 65 75 66 76 67 77 68 78
REMARK SMILES IDX 69 79 48 80 49 81 57 82 50 83 56 84 51 85 52 86 53 87 54 88
REMARK SMILES IDX 55 89
REMARK H PARENT 15 7 5 15 20 26 76 45 46 56
REMARK Flexibility Score: inf
ROOT
ATOM      1  C   UNL A   1      34.061  28.045  25.954  1.00  0.00     0.023 C 
ENDROOT
BRANCH   1   2
ATOM      2  C   UNL A   1      33.232  26.971  25.250  1.00  0.00     0.023 C 
BRANCH   2   3
ATOM      3  C   UNL A   1      33.912  25.616  25.096  1.00  0.00     0.116 C 
BRANCH   3   4
ATOM      4  N   UNL A   1      33.871  25.117  23.734  1.00  0.00    -0.354 N 
ATOM      5  C   UNL A   1      33.952  23.839  23.243  1.00  0.00     0.246 C 
ATOM      6  O   UNL A   1      33.764  23.718  22.030  1.00  0.00    -0.272 OA
ATOM      7  H   UNL A   1      33.767  25.815  23.047  1.00  0.00     0.163 HD
BRANCH   5   8
ATOM      8  C   UNL A   1      34.343  22.635  24.183  1.00  0.00     0.127 C 
ATOM      9  C   UNL A   1      32.548  22.710  27.595  1.00  0.00     0.019 C 
ATOM     10  C   UNL A   1      33.260  22.072  26.412  1.00  0.00     0.046 C 
ATOM     11  C   UNL A   1      34.142  23.065  25.663  1.00  0.00     0.053 C 
ATOM     12  S   UNL A   1      32.093  21.518  25.158  1.00  0.00    -0.156 SA
ATOM     13  C   UNL A   1      33.382  21.460  23.883  1.00  0.00     0.108 C 
BRANCH   8  14
ATOM     14  N   UNL A   1      35.766  22.311  23.862  1.00  0.00    -0.368 N 
ATOM     15  H   UNL A   1      35.949  21.946  22.966  1.00  0.00     0.161 HD
BRANCH  14  16
ATOM     16  C   UNL A   1      36.851  22.475  24.706  1.00  0.00     0.071 A 
ATOM     17  C   UNL A   1      37.137  23.753  25.209  1.00  0.00     0.029 A 
ATOM     18  C   UNL A   1      37.720  21.438  25.074  1.00  0.00     0.146 A 
ATOM     19  C   UNL A   1      38.212  23.971  26.080  1.00  0.00     0.002 A 
ATOM     20  C   UNL A   1      38.787  21.641  25.949  1.00  0.00     0.041 A 
ATOM     21  F   UNL A   1      37.599  20.218  24.530  1.00  0.00    -0.205 F 
ATOM     22  C   UNL A   1      39.030  22.911  26.462  1.00  0.00     0.003 A 
ENDBRANCH  14  16
ENDBRANCH   8  14
ENDBRANCH   5   8
ENDBRANCH   3   4
ENDBRANCH   2   3
ENDBRANCH   1   2
BRANCH   1  23
ATOM     23  C   UNL A   1      33.579  28.441  27.346  1.00  0.00     0.116 C 
BRANCH  23  24
ATOM     24  N   UNL A   1      33.574  29.880  27.557  1.00  0.00    -0.352 N 
ATOM     25  C   UNL A   1      34.555  30.694  28.078  1.00  0.00     0.251 C 
ATOM     26  H   UNL A   1      32.747  30.341  27.285  1.00  0.00     0.163 HD
ATOM     27  O   UNL A   1      34.310  31.869  28.309  1.00  0.00    -0.269 OA
BRANCH  25  28
ATOM     28  C   UNL A   1      35.891  30.134  28.388  1.00  0.00     0.039 A 
ATOM     29  C   UNL A   1      36.878  30.159  27.400  1.00  0.00     0.014 A 
ATOM     30  C   UNL A   1      36.174  29.602  29.647  1.00  0.00     0.014 A 
ATOM     31  C   UNL A   1      38.172  29.724  27.703  1.00  0.00     0.010 A 
ATOM     32  C   UNL A   1      37.480  29.242  29.970  1.00  0.00     0.010 A 
ATOM     33  C   UNL A   1      38.495  29.302  29.003  1.00  0.00    -0.014 A 
BRANCH  33  34
ATOM     34  C   UNL A   1      39.888  28.938  29.375  1.00  0.00     0.031 A 
ATOM     35  C   UNL A   1      40.763  29.924  30.103  1.00  0.00     0.074 A 
ATOM     36  C   UNL A   1      40.390  27.744  28.996  1.00  0.00     0.049 A 
ATOM     37  N   UNL A   1      42.018  29.809  30.452  1.00  0.00    -0.248 NA
ATOM     38  C   UNL A   1      40.154  31.215  30.460  1.00  0.00     0.031 C 
ATOM     39  C   UNL A   1      39.661  26.716  28.248  1.00  0.00     0.029 A 
ATOM     40  N   UNL A   1      41.636  27.197  29.179  1.00  0.00    -0.354 N 
ATOM     41  C   UNL A   1      42.354  31.017  31.054  1.00  0.00     0.074 A 
ATOM     42  C   UNL A   1      41.187  31.867  30.977  1.00  0.00     0.031 C 
ATOM     43  C   UNL A   1      40.463  25.655  28.062  1.00  0.00     0.029 A 
ATOM     44  C   UNL A   1      41.774  25.942  28.636  1.00  0.00     0.049 A 
ATOM     45  H   UNL A   1      42.362  27.660  29.656  1.00  0.00     0.167 HD
ATOM     46  C   UNL A   1      43.524  31.380  31.635  1.00  0.00     0.031 A 
ATOM     47  C   UNL A   1      42.837  25.114  28.594  1.00  0.00     0.031 A 
ATOM     48  C   UNL A   1      44.682  30.529  31.720  1.00  0.00     0.049 A 
ATOM     49  C   UNL A   1      44.127  25.543  29.238  1.00  0.00     0.074 A 
ATOM     50  C   UNL A   1      45.892  30.785  32.339  1.00  0.00     0.029 A 
ATOM     51  N   UNL A   1      44.776  29.261  31.167  1.00  0.00    -0.354 N 
ATOM     52  N   UNL A   1      44.404  26.663  29.863  1.00  0.00    -0.248 NA
ATOM     53  C   UNL A   1      45.245  24.591  29.183  1.00  0.00     0.031 C 
ATOM     54  C   UNL A   1      46.737  29.694  32.115  1.00  0.00     0.029 A 
ATOM     55  C   UNL A   1      46.032  28.732  31.409  1.00  0.00     0.049 A 
ATOM     56  H   UNL A   1      44.056  28.805  30.674  1.00  0.00     0.167 HD
ATOM     57  C   UNL A   1      45.719  26.539  30.298  1.00  0.00     0.074 A 
ATOM     58  C   UNL A   1      46.176  25.229  29.879  1.00  0.00     0.031 C 
ATOM     59  C   UNL A   1      46.477  27.428  30.986  1.00  0.00     0.031 A 
BRANCH  46  60
ATOM     60  C   UNL A   1      43.609  32.765  32.222  1.00  0.00    -0.014 A 
ATOM     61  C   UNL A   1      43.384  32.989  33.593  1.00  0.00     0.010 A 
ATOM     62  C   UNL A   1      43.958  33.853  31.402  1.00  0.00     0.010 A 
ATOM     63  C   UNL A   1      43.463  34.279  34.124  1.00  0.00     0.020 A 
ATOM     64  C   UNL A   1      44.068  35.141  31.934  1.00  0.00     0.020 A 
ATOM     65  C   UNL A   1      43.802  35.348  33.289  1.00  0.00     0.054 A 
BRANCH  65  66
ATOM     66  S   UNL A   1      43.918  37.008  34.009  1.00  0.00     0.124 S 
ATOM     67  O   UNL A   1      44.871  37.659  33.112  1.00  0.00    -0.237 OA
ATOM     68  O   UNL A   1      42.543  37.493  33.921  1.00  0.00    -0.237 OA
ATOM     69  O   UNL A   1      44.406  36.766  35.365  1.00  0.00    -0.744 OA
ENDBRANCH  65  66
ENDBRANCH  46  60
BRANCH  47  70
ATOM     70  C   UNL A   1      42.720  23.786  27.930  1.00  0.00    -0.014 A 
ATOM     71  C   UNL A   1      43.094  23.626  26.584  1.00  0.00     0.010 A 
ATOM     72  C   UNL A   1      42.245  22.671  28.644  1.00  0.00     0.010 A 
ATOM     73  C   UNL A   1      42.980  22.380  25.960  1.00  0.00     0.020 A 
ATOM     74  C   UNL A   1      42.155  21.418  28.032  1.00  0.00     0.020 A 
ATOM     75  C   UNL A   1      42.513  21.283  26.689  1.00  0.00     0.054 A 
BRANCH  75  76
ATOM     76  S   UNL A   1      42.422  19.665  25.873  1.00  0.00     0.124 S 
ATOM     77  O   UNL A   1      43.450  19.786  24.843  1.00  0.00    -0.237 OA
ATOM     78  O   UNL A   1      42.726  18.744  26.966  1.00  0.00    -0.237 OA
ATOM     79  O   UNL A   1      41.047  19.606  25.383  1.00  0.00    -0.744 OA
ENDBRANCH  75  76
ENDBRANCH  47  70
BRANCH  59  80
ATOM     80  C   UNL A   1      47.872  27.005  31.364  1.00  0.00    -0.014 A 
ATOM     81  C   UNL A   1      48.980  27.346  30.568  1.00  0.00     0.010 A 
ATOM     82  C   UNL A   1      48.081  26.305  32.566  1.00  0.00     0.010 A 
ATOM     83  C   UNL A   1      50.268  26.965  30.952  1.00  0.00     0.020 A 
ATOM     84  C   UNL A   1      49.370  25.948  32.968  1.00  0.00     0.020 A 
ATOM     85  C   UNL A   1      50.456  26.269  32.150  1.00  0.00     0.054 A 
BRANCH  85  86
ATOM     86  S   UNL A   1      52.142  25.827  32.650  1.00  0.00     0.124 S 
ATOM     87  O   UNL A   1      52.076  25.966  34.102  1.00  0.00    -0.237 OA
ATOM     88  O   UNL A   1      52.274  24.458  32.155  1.00  0.00    -0.237 OA
ATOM     89  O   UNL A   1      52.977  26.812  31.967  1.00  0.00    -0.744 OA
ENDBRANCH  85  86
ENDBRANCH  59  80
ENDBRANCH  33  34
ENDBRANCH  25  28
ENDBRANCH  23  24
ENDBRANCH   1  23
TORSDOF 16
ENDMDL
