MODEL 1
REMARK VINA RESULT:     -10.3      0.000      0.000
REMARK SMILES C=C(CC)C[C@@]1(C(=O)NCCCCNC(=O)c2ccc(-c3c4nc(c(-c5ccc(S(=O)(=O)[O-])cc5)c5ccc([nH]5)c(-c5ccc(S(=O)(=O)[O-])cc5)c5nc(c(-c6ccc(S(=O)(=O)[O-])cc6)c6ccc3[nH]6)C=C5)C=C4)cc2)C[C@H]2CC[C@@H]1C2
REMARK SMILES IDX 11 1 10 2 9 3 7 4 8 5 6 7 77 8 81 9 78 10 80 11 82 12 79 13
REMARK SMILES IDX 5 14 2 15 1 16 3 17 4 18 12 19 13 20 14 21 15 22 16 24 17 25
REMARK SMILES IDX 18 26 76 27 19 28 75 29 20 30 21 31 22 32 69 33 23 34 74 35
REMARK SMILES IDX 68 36 70 37 24 38 73 39 67 40 66 41 25 43 55 44 36 45 54 46
REMARK SMILES IDX 37 47 40 48 53 49 71 50 38 51 39 52 52 54 72 55 41 56 26 57
REMARK SMILES IDX 27 58 35 59 28 60 34 61 29 62 30 63 31 64 32 65 33 66 56 67
REMARK SMILES IDX 57 68 65 69 58 70 64 71 59 72 60 73 61 74 62 75 63 76 42 77
REMARK SMILES IDX 43 78 51 79 44 80 50 81 45 82 46 83 47 84 48 85 49 86
REMARK H PARENT 9 6 14 23 70 42 40 53
REMARK Flexibility Score: inf
ROOT
ATOM      1  C   UNL A   1      33.849  27.032  24.727  1.00  0.00     0.023 C 
ENDROOT
BRANCH   1   2
ATOM      2  C   UNL A   1      32.850  25.887  24.593  1.00  0.00     0.116 C 
BRANCH   2   3
ATOM      3  N   UNL A   1      33.154  24.995  23.490  1.00  0.00    -0.356 N 
ATOM      4  C   UNL A   1      33.838  23.833  23.362  1.00  0.00     0.226 C 
ATOM      5  O   UNL A   1      33.845  23.367  22.212  1.00  0.00    -0.274 OA
ATOM      6  H   UNL A   1      32.776  25.307  22.636  1.00  0.00     0.163 HD
BRANCH   4   7
ATOM      7  C   UNL A   1      34.607  23.083  24.485  1.00  0.00     0.056 C 
ATOM      8  C   UNL A   1      35.633  24.145  25.053  1.00  0.00     0.021 C 
ATOM      9  C   UNL A   1      35.599  21.958  24.078  1.00  0.00     0.005 C 
ATOM     10  C   UNL A   1      37.020  23.533  24.769  1.00  0.00    -0.010 C 
ATOM     11  C   UNL A   1      36.324  21.316  25.282  1.00  0.00     0.005 C 
ATOM     12  C   UNL A   1      36.771  22.759  23.482  1.00  0.00     0.008 C 
ATOM     13  C   UNL A   1      37.278  22.406  25.769  1.00  0.00     0.004 C 
BRANCH   7  14
ATOM     14  C   UNL A   1      33.573  22.715  25.609  1.00  0.00     0.047 C 
BRANCH  14  15
ATOM     15  C   UNL A   1      32.232  22.083  25.252  1.00  0.00    -0.077 C 
ATOM     16  C   UNL A   1      31.065  22.615  25.664  1.00  0.00     0.008 C 
BRANCH  15  17
ATOM     17  C   UNL A   1      32.204  20.688  24.650  1.00  0.00     0.027 C 
ATOM     18  C   UNL A   1      32.975  19.614  25.397  1.00  0.00     0.008 C 
ENDBRANCH  15  17
ENDBRANCH  14  15
ENDBRANCH   7  14
ENDBRANCH   4   7
ENDBRANCH   2   3
ENDBRANCH   1   2
BRANCH   1  19
ATOM     19  C   UNL A   1      33.300  28.259  25.459  1.00  0.00     0.023 C 
BRANCH  19  20
ATOM     20  C   UNL A   1      33.849  28.447  26.871  1.00  0.00     0.116 C 
BRANCH  20  21
ATOM     21  N   UNL A   1      33.669  29.799  27.378  1.00  0.00    -0.352 N 
ATOM     22  C   UNL A   1      34.554  30.571  28.091  1.00  0.00     0.251 C 
ATOM     23  H   UNL A   1      32.799  30.216  27.183  1.00  0.00     0.163 HD
ATOM     24  O   UNL A   1      34.207  31.657  28.536  1.00  0.00    -0.269 OA
BRANCH  22  25
ATOM     25  C   UNL A   1      35.909  30.050  28.353  1.00  0.00     0.039 A 
ATOM     26  C   UNL A   1      36.870  30.145  27.343  1.00  0.00     0.014 A 
ATOM     27  C   UNL A   1      36.236  29.503  29.597  1.00  0.00     0.014 A 
ATOM     28  C   UNL A   1      38.180  29.743  27.602  1.00  0.00     0.010 A 
ATOM     29  C   UNL A   1      37.556  29.165  29.873  1.00  0.00     0.010 A 
ATOM     30  C   UNL A   1      38.539  29.279  28.878  1.00  0.00    -0.014 A 
BRANCH  30  31
ATOM     31  C   UNL A   1      39.939  28.905  29.190  1.00  0.00     0.031 A 
ATOM     32  C   UNL A   1      40.866  29.916  29.807  1.00  0.00     0.074 A 
ATOM     33  C   UNL A   1      40.391  27.682  28.848  1.00  0.00     0.049 A 
ATOM     34  N   UNL A   1      42.134  29.797  30.101  1.00  0.00    -0.248 NA
ATOM     35  C   UNL A   1      40.301  31.243  30.107  1.00  0.00     0.031 C 
ATOM     36  C   UNL A   1      39.601  26.639  28.189  1.00  0.00     0.029 A 
ATOM     37  N   UNL A   1      41.630  27.112  28.999  1.00  0.00    -0.354 N 
ATOM     38  C   UNL A   1      42.526  31.038  30.591  1.00  0.00     0.074 A 
ATOM     39  C   UNL A   1      41.371  31.907  30.519  1.00  0.00     0.031 C 
ATOM     40  C   UNL A   1      40.370  25.552  28.008  1.00  0.00     0.029 A 
ATOM     41  C   UNL A   1      41.712  25.830  28.510  1.00  0.00     0.049 A 
ATOM     42  H   UNL A   1      42.390  27.578  29.418  1.00  0.00     0.167 HD
ATOM     43  C   UNL A   1      43.734  31.414  31.073  1.00  0.00     0.031 A 
ATOM     44  C   UNL A   1      42.752  24.977  28.465  1.00  0.00     0.031 A 
ATOM     45  C   UNL A   1      44.868  30.535  31.171  1.00  0.00     0.049 A 
ATOM     46  C   UNL A   1      44.073  25.406  29.045  1.00  0.00     0.074 A 
ATOM     47  C   UNL A   1      46.110  30.793  31.723  1.00  0.00     0.029 A 
ATOM     48  N   UNL A   1      44.896  29.228  30.708  1.00  0.00    -0.354 N 
ATOM     49  N   UNL A   1      44.398  26.555  29.588  1.00  0.00    -0.248 NA
ATOM     50  C   UNL A   1      45.160  24.419  29.023  1.00  0.00     0.031 C 
ATOM     51  C   UNL A   1      46.906  29.655  31.554  1.00  0.00     0.029 A 
ATOM     52  C   UNL A   1      46.142  28.673  30.943  1.00  0.00     0.049 A 
ATOM     53  H   UNL A   1      44.144  28.765  30.277  1.00  0.00     0.167 HD
ATOM     54  C   UNL A   1      45.721  26.420  29.994  1.00  0.00     0.074 A 
ATOM     55  C   UNL A   1      46.128  25.073  29.649  1.00  0.00     0.031 C 
ATOM     56  C   UNL A   1      46.526  27.328  30.597  1.00  0.00     0.031 A 
BRANCH  43  57
ATOM     57  C   UNL A   1      43.893  32.840  31.529  1.00  0.00    -0.014 A 
ATOM     58  C   UNL A   1      44.257  33.856  30.627  1.00  0.00     0.010 A 
ATOM     59  C   UNL A   1      43.629  33.176  32.869  1.00  0.00     0.010 A 
ATOM     60  C   UNL A   1      44.388  35.176  31.065  1.00  0.00     0.020 A 
ATOM     61  C   UNL A   1      43.734  34.499  33.306  1.00  0.00     0.020 A 
ATOM     62  C   UNL A   1      44.128  35.490  32.403  1.00  0.00     0.054 A 
BRANCH  62  63
ATOM     63  S   UNL A   1      44.274  37.217  32.937  1.00  0.00     0.124 S 
ATOM     64  O   UNL A   1      43.070  37.382  33.749  1.00  0.00    -0.237 OA
ATOM     65  O   UNL A   1      45.533  37.220  33.676  1.00  0.00    -0.237 OA
ATOM     66  O   UNL A   1      44.288  37.968  31.684  1.00  0.00    -0.744 OA
ENDBRANCH  62  63
ENDBRANCH  43  57
BRANCH  44  67
ATOM     67  C   UNL A   1      42.585  23.625  27.864  1.00  0.00    -0.014 A 
ATOM     68  C   UNL A   1      41.910  22.610  28.563  1.00  0.00     0.010 A 
ATOM     69  C   UNL A   1      43.098  23.349  26.584  1.00  0.00     0.010 A 
ATOM     70  C   UNL A   1      41.776  21.334  28.007  1.00  0.00     0.020 A 
ATOM     71  C   UNL A   1      42.942  22.083  26.012  1.00  0.00     0.020 A 
ATOM     72  C   UNL A   1      42.295  21.079  26.734  1.00  0.00     0.054 A 
BRANCH  72  73
ATOM     73  S   UNL A   1      42.077  19.428  26.013  1.00  0.00     0.124 S 
ATOM     74  O   UNL A   1      42.849  19.532  24.780  1.00  0.00    -0.237 OA
ATOM     75  O   UNL A   1      42.639  18.554  27.041  1.00  0.00    -0.237 OA
ATOM     76  O   UNL A   1      40.630  19.322  25.840  1.00  0.00    -0.744 OA
ENDBRANCH  72  73
ENDBRANCH  44  67
BRANCH  56  77
ATOM     77  C   UNL A   1      47.918  26.887  30.956  1.00  0.00    -0.014 A 
ATOM     78  C   UNL A   1      48.982  27.025  30.047  1.00  0.00     0.010 A 
ATOM     79  C   UNL A   1      48.172  26.376  32.241  1.00  0.00     0.010 A 
ATOM     80  C   UNL A   1      50.272  26.632  30.409  1.00  0.00     0.020 A 
ATOM     81  C   UNL A   1      49.467  26.006  32.615  1.00  0.00     0.020 A 
ATOM     82  C   UNL A   1      50.506  26.123  31.690  1.00  0.00     0.054 A 
BRANCH  82  83
ATOM     83  S   UNL A   1      52.197  25.660  32.153  1.00  0.00     0.124 S 
ATOM     84  O   UNL A   1      52.378  26.386  33.407  1.00  0.00    -0.237 OA
ATOM     85  O   UNL A   1      52.111  24.206  32.275  1.00  0.00    -0.237 OA
ATOM     86  O   UNL A   1      53.005  26.137  31.034  1.00  0.00    -0.744 OA
ENDBRANCH  82  83
ENDBRANCH  56  77
ENDBRANCH  30  31
ENDBRANCH  22  25
ENDBRANCH  20  21
ENDBRANCH  19  20
ENDBRANCH   1  19
TORSDOF 17
ENDMDL
MODEL 2
REMARK VINA RESULT:     -10.1      2.574      9.314
REMARK SMILES C=C(CC)C[C@@]1(C(=O)NCCCCNC(=O)c2ccc(-c3c4nc(c(-c5ccc(S(=O)(=O)[O-])cc5)c5ccc([nH]5)c(-c5ccc(S(=O)(=O)[O-])cc5)c5nc(c(-c6ccc(S(=O)(=O)[O-])cc6)c6ccc3[nH]6)C=C5)C=C4)cc2)C[C@H]2CC[C@@H]1C2
REMARK SMILES IDX 11 1 10 2 9 3 7 4 8 5 6 7 77 8 81 9 78 10 80 11 82 12 79 13
REMARK SMILES IDX 5 14 2 15 1 16 3 17 4 18 12 19 13 20 14 21 15 22 16 24 17 25
REMARK SMILES IDX 18 26 76 27 19 28 75 29 20 30 21 31 22 32 69 33 23 34 74 35
REMARK SMILES IDX 68 36 70 37 24 38 73 39 67 40 66 41 25 43 55 44 36 45 54 46
REMARK SMILES IDX 37 47 40 48 53 49 71 50 38 51 39 52 52 54 72 55 41 56 26 57
REMARK SMILES IDX 27 58 35 59 28 60 34 61 29 62 30 63 31 64 32 65 33 66 56 67
REMARK SMILES IDX 57 68 65 69 58 70 64 71 59 72 60 73 61 74 62 75 63 76 42 77
REMARK SMILES IDX 43 78 51 79 44 80 50 81 45 82 46 83 47 84 48 85 49 86
REMARK H PARENT 9 6 14 23 70 42 40 53
REMARK Flexibility Score: inf
ROOT
ATOM      1  C   UNL A   1      35.018  22.168  24.186  1.00  0.00     0.023 C 
ENDROOT
BRANCH   1   2
ATOM      2  C   UNL A   1      33.504  22.350  24.158  1.00  0.00     0.116 C 
BRANCH   2   3
ATOM      3  N   UNL A   1      32.995  23.049  25.322  1.00  0.00    -0.356 N 
ATOM      4  C   UNL A   1      32.479  24.281  25.546  1.00  0.00     0.226 C 
ATOM      5  O   UNL A   1      32.133  24.485  26.720  1.00  0.00    -0.274 OA
ATOM      6  H   UNL A   1      33.035  22.501  26.139  1.00  0.00     0.163 HD
BRANCH   4   7
ATOM      7  C   UNL A   1      32.318  25.422  24.502  1.00  0.00     0.056 C 
ATOM      8  C   UNL A   1      31.139  26.318  25.059  1.00  0.00     0.021 C 
ATOM      9  C   UNL A   1      31.736  25.069  23.105  1.00  0.00     0.005 C 
ATOM     10  C   UNL A   1      30.043  26.232  23.977  1.00  0.00    -0.010 C 
ATOM     11  C   UNL A   1      31.595  26.294  22.174  1.00  0.00     0.005 C 
ATOM     12  C   UNL A   1      30.250  24.828  23.425  1.00  0.00     0.008 C 
ATOM     13  C   UNL A   1      30.452  27.101  22.788  1.00  0.00     0.004 C 
BRANCH   7  14
ATOM     14  C   UNL A   1      33.646  26.261  24.504  1.00  0.00     0.047 C 
BRANCH  14  15
ATOM     15  C   UNL A   1      33.683  27.653  25.126  1.00  0.00    -0.077 C 
ATOM     16  C   UNL A   1      33.678  27.834  26.460  1.00  0.00     0.008 C 
BRANCH  15  17
ATOM     17  C   UNL A   1      33.456  28.868  24.243  1.00  0.00     0.027 C 
ATOM     18  C   UNL A   1      33.989  28.782  22.823  1.00  0.00     0.008 C 
ENDBRANCH  15  17
ENDBRANCH  14  15
ENDBRANCH   7  14
ENDBRANCH   4   7
ENDBRANCH   2   3
ENDBRANCH   1   2
BRANCH   1  19
ATOM     19  C   UNL A   1      35.806  23.479  24.232  1.00  0.00     0.023 C 
BRANCH  19  20
ATOM     20  C   UNL A   1      36.646  23.664  25.493  1.00  0.00     0.116 C 
BRANCH  20  21
ATOM     21  N   UNL A   1      37.715  22.684  25.616  1.00  0.00    -0.352 N 
ATOM     22  C   UNL A   1      38.965  22.843  26.161  1.00  0.00     0.251 C 
ATOM     23  H   UNL A   1      37.514  21.787  25.263  1.00  0.00     0.163 HD
ATOM     24  O   UNL A   1      39.790  21.942  26.093  1.00  0.00    -0.269 OA
BRANCH  22  25
ATOM     25  C   UNL A   1      39.313  24.134  26.787  1.00  0.00     0.039 A 
ATOM     26  C   UNL A   1      38.920  24.366  28.107  1.00  0.00     0.014 A 
ATOM     27  C   UNL A   1      40.050  25.092  26.086  1.00  0.00     0.014 A 
ATOM     28  C   UNL A   1      39.318  25.540  28.746  1.00  0.00     0.010 A 
ATOM     29  C   UNL A   1      40.502  26.229  26.744  1.00  0.00     0.010 A 
ATOM     30  C   UNL A   1      40.138  26.466  28.079  1.00  0.00    -0.014 A 
BRANCH  30  31
ATOM     31  C   UNL A   1      40.622  27.689  28.762  1.00  0.00     0.031 A 
ATOM     32  C   UNL A   1      41.999  27.716  29.367  1.00  0.00     0.074 A 
ATOM     33  C   UNL A   1      39.794  28.744  28.899  1.00  0.00     0.049 A 
ATOM     34  N   UNL A   1      42.578  28.668  30.049  1.00  0.00    -0.248 NA
ATOM     35  C   UNL A   1      42.820  26.504  29.208  1.00  0.00     0.031 C 
ATOM     36  C   UNL A   1      38.415  28.811  28.407  1.00  0.00     0.029 A 
ATOM     37  N   UNL A   1      39.988  29.960  29.503  1.00  0.00    -0.354 N 
ATOM     38  C   UNL A   1      43.816  28.162  30.426  1.00  0.00     0.074 A 
ATOM     39  C   UNL A   1      43.889  26.805  29.930  1.00  0.00     0.031 C 
ATOM     40  C   UNL A   1      37.895  30.011  28.715  1.00  0.00     0.029 A 
ATOM     41  C   UNL A   1      38.889  30.786  29.449  1.00  0.00     0.049 A 
ATOM     42  H   UNL A   1      40.834  30.218  29.936  1.00  0.00     0.167 HD
ATOM     43  C   UNL A   1      44.810  28.778  31.110  1.00  0.00     0.031 A 
ATOM     44  C   UNL A   1      38.703  32.025  29.942  1.00  0.00     0.031 A 
ATOM     45  C   UNL A   1      44.743  30.138  31.572  1.00  0.00     0.049 A 
ATOM     46  C   UNL A   1      39.838  32.702  30.661  1.00  0.00     0.074 A 
ATOM     47  C   UNL A   1      45.726  30.883  32.198  1.00  0.00     0.029 A 
ATOM     48  N   UNL A   1      43.629  30.957  31.455  1.00  0.00    -0.354 N 
ATOM     49  N   UNL A   1      41.035  32.238  30.929  1.00  0.00    -0.248 NA
ATOM     50  C   UNL A   1      39.602  34.074  31.129  1.00  0.00     0.031 C 
ATOM     51  C   UNL A   1      45.193  32.141  32.500  1.00  0.00     0.029 A 
ATOM     52  C   UNL A   1      43.894  32.194  32.017  1.00  0.00     0.049 A 
ATOM     53  H   UNL A   1      42.778  30.698  31.036  1.00  0.00     0.167 HD
ATOM     54  C   UNL A   1      41.705  33.272  31.575  1.00  0.00     0.074 A 
ATOM     55  C   UNL A   1      40.784  34.388  31.643  1.00  0.00     0.031 C 
ATOM     56  C   UNL A   1      42.966  33.294  32.069  1.00  0.00     0.031 A 
BRANCH  43  57
ATOM     57  C   UNL A   1      46.055  27.985  31.403  1.00  0.00    -0.014 A 
ATOM     58  C   UNL A   1      46.194  27.264  32.602  1.00  0.00     0.010 A 
ATOM     59  C   UNL A   1      47.083  27.921  30.444  1.00  0.00     0.010 A 
ATOM     60  C   UNL A   1      47.351  26.523  32.853  1.00  0.00     0.020 A 
ATOM     61  C   UNL A   1      48.231  27.161  30.679  1.00  0.00     0.020 A 
ATOM     62  C   UNL A   1      48.365  26.477  31.890  1.00  0.00     0.054 A 
BRANCH  62  63
ATOM     63  S   UNL A   1      49.842  25.481  32.227  1.00  0.00     0.124 S 
ATOM     64  O   UNL A   1      50.731  26.463  32.844  1.00  0.00    -0.237 OA
ATOM     65  O   UNL A   1      49.334  24.446  33.122  1.00  0.00    -0.237 OA
ATOM     66  O   UNL A   1      50.254  25.012  30.906  1.00  0.00    -0.744 OA
ENDBRANCH  62  63
ENDBRANCH  43  57
BRANCH  44  67
ATOM     67  C   UNL A   1      37.396  32.713  29.757  1.00  0.00    -0.014 A 
ATOM     68  C   UNL A   1      37.156  33.500  28.618  1.00  0.00     0.010 A 
ATOM     69  C   UNL A   1      36.381  32.580  30.722  1.00  0.00     0.010 A 
ATOM     70  C   UNL A   1      35.937  34.166  28.459  1.00  0.00     0.020 A 
ATOM     71  C   UNL A   1      35.150  33.221  30.554  1.00  0.00     0.020 A 
ATOM     72  C   UNL A   1      34.942  34.023  29.431  1.00  0.00     0.054 A 
BRANCH  72  73
ATOM     73  S   UNL A   1      33.352  34.863  29.187  1.00  0.00     0.124 S 
ATOM     74  O   UNL A   1      33.771  36.152  28.647  1.00  0.00    -0.237 OA
ATOM     75  O   UNL A   1      32.664  33.977  28.250  1.00  0.00    -0.237 OA
ATOM     76  O   UNL A   1      32.779  34.901  30.530  1.00  0.00    -0.744 OA
ENDBRANCH  72  73
ENDBRANCH  44  67
BRANCH  56  77
ATOM     77  C   UNL A   1      43.440  34.577  32.695  1.00  0.00    -0.014 A 
ATOM     78  C   UNL A   1      44.085  35.565  31.930  1.00  0.00     0.010 A 
ATOM     79  C   UNL A   1      43.187  34.816  34.058  1.00  0.00     0.010 A 
ATOM     80  C   UNL A   1      44.496  36.760  32.526  1.00  0.00     0.020 A 
ATOM     81  C   UNL A   1      43.574  36.021  34.651  1.00  0.00     0.020 A 
ATOM     82  C   UNL A   1      44.239  36.979  33.884  1.00  0.00     0.054 A 
BRANCH  82  83
ATOM     83  S   UNL A   1      44.742  38.555  34.626  1.00  0.00     0.124 S 
ATOM     84  O   UNL A   1      43.561  39.385  34.403  1.00  0.00    -0.237 OA
ATOM     85  O   UNL A   1      44.998  38.189  36.017  1.00  0.00    -0.237 OA
ATOM     86  O   UNL A   1      45.926  38.936  33.860  1.00  0.00    -0.744 OA
ENDBRANCH  82  83
ENDBRANCH  56  77
ENDBRANCH  30  31
ENDBRANCH  22  25
ENDBRANCH  20  21
ENDBRANCH  19  20
ENDBRANCH   1  19
TORSDOF 17
ENDMDL
MODEL 3
REMARK VINA RESULT:     -10.1      4.637     10.337
REMARK SMILES C=C(CC)C[C@@]1(C(=O)NCCCCNC(=O)c2ccc(-c3c4nc(c(-c5ccc(S(=O)(=O)[O-])cc5)c5ccc([nH]5)c(-c5ccc(S(=O)(=O)[O-])cc5)c5nc(c(-c6ccc(S(=O)(=O)[O-])cc6)c6ccc3[nH]6)C=C5)C=C4)cc2)C[C@H]2CC[C@@H]1C2
REMARK SMILES IDX 11 1 10 2 9 3 7 4 8 5 6 7 77 8 81 9 78 10 80 11 82 12 79 13
REMARK SMILES IDX 5 14 2 15 1 16 3 17 4 18 12 19 13 20 14 21 15 22 16 24 17 25
REMARK SMILES IDX 18 26 76 27 19 28 75 29 20 30 21 31 22 32 69 33 23 34 74 35
REMARK SMILES IDX 68 36 70 37 24 38 73 39 67 40 66 41 25 43 55 44 36 45 54 46
REMARK SMILES IDX 37 47 40 48 53 49 71 50 38 51 39 52 52 54 72 55 41 56 26 57
REMARK SMILES IDX 27 58 35 59 28 60 34 61 29 62 30 63 31 64 32 65 33 66 56 67
REMARK SMILES IDX 57 68 65 69 58 70 64 71 59 72 60 73 61 74 62 75 63 76 42 77
REMARK SMILES IDX 43 78 51 79 44 80 50 81 45 82 46 83 47 84 48 85 49 86
REMARK H PARENT 9 6 14 23 70 42 40 53
REMARK Flexibility Score: inf
ROOT
ATOM      1  C   UNL A   1      38.640  23.695  26.442  1.00  0.00     0.023 C 
ENDROOT
BRANCH   1   2
ATOM      2  C   UNL A   1      37.474  22.986  25.762  1.00  0.00     0.116 C 
BRANCH   2   3
ATOM      3  N   UNL A   1      36.296  22.896  26.603  1.00  0.00    -0.356 N 
ATOM      4  C   UNL A   1      34.966  23.064  26.407  1.00  0.00     0.226 C 
ATOM      5  O   UNL A   1      34.270  22.868  27.415  1.00  0.00    -0.274 OA
ATOM      6  H   UNL A   1      36.513  22.657  27.533  1.00  0.00     0.163 HD
BRANCH   4   7
ATOM      7  C   UNL A   1      34.273  23.494  25.084  1.00  0.00     0.056 C 
ATOM      8  C   UNL A   1      32.724  23.372  25.379  1.00  0.00     0.021 C 
ATOM      9  C   UNL A   1      34.376  22.550  23.854  1.00  0.00     0.005 C 
ATOM     10  C   UNL A   1      32.222  22.307  24.383  1.00  0.00    -0.010 C 
ATOM     11  C   UNL A   1      33.618  23.074  22.614  1.00  0.00     0.005 C 
ATOM     12  C   UNL A   1      33.436  21.397  24.251  1.00  0.00     0.008 C 
ATOM     13  C   UNL A   1      32.143  22.930  22.990  1.00  0.00     0.004 C 
BRANCH   7  14
ATOM     14  C   UNL A   1      34.630  25.002  24.826  1.00  0.00     0.047 C 
BRANCH  14  15
ATOM     15  C   UNL A   1      33.550  26.077  24.891  1.00  0.00    -0.077 C 
ATOM     16  C   UNL A   1      33.013  26.611  23.777  1.00  0.00     0.008 C 
BRANCH  15  17
ATOM     17  C   UNL A   1      33.255  26.755  26.218  1.00  0.00     0.027 C 
ATOM     18  C   UNL A   1      32.171  27.818  26.208  1.00  0.00     0.008 C 
ENDBRANCH  15  17
ENDBRANCH  14  15
ENDBRANCH   7  14
ENDBRANCH   4   7
ENDBRANCH   2   3
ENDBRANCH   1   2
BRANCH   1  19
ATOM     19  C   UNL A   1      39.771  22.761  26.878  1.00  0.00     0.023 C 
BRANCH  19  20
ATOM     20  C   UNL A   1      41.100  23.464  27.144  1.00  0.00     0.116 C 
BRANCH  20  21
ATOM     21  N   UNL A   1      41.553  24.272  26.021  1.00  0.00    -0.352 N 
ATOM     22  C   UNL A   1      41.786  25.625  25.978  1.00  0.00     0.251 C 
ATOM     23  H   UNL A   1      41.717  23.783  25.182  1.00  0.00     0.163 HD
ATOM     24  O   UNL A   1      42.066  26.171  24.919  1.00  0.00    -0.269 OA
BRANCH  22  25
ATOM     25  C   UNL A   1      41.644  26.415  27.216  1.00  0.00     0.039 A 
ATOM     26  C   UNL A   1      42.565  27.435  27.468  1.00  0.00     0.014 A 
ATOM     27  C   UNL A   1      40.591  26.173  28.102  1.00  0.00     0.014 A 
ATOM     28  C   UNL A   1      42.394  28.253  28.585  1.00  0.00     0.010 A 
ATOM     29  C   UNL A   1      40.385  27.030  29.176  1.00  0.00     0.010 A 
ATOM     30  C   UNL A   1      41.286  28.076  29.430  1.00  0.00    -0.014 A 
BRANCH  30  31
ATOM     31  C   UNL A   1      41.055  28.974  30.586  1.00  0.00     0.031 A 
ATOM     32  C   UNL A   1      41.887  28.824  31.831  1.00  0.00     0.074 A 
ATOM     33  C   UNL A   1      40.049  29.870  30.540  1.00  0.00     0.049 A 
ATOM     34  N   UNL A   1      41.798  29.475  32.961  1.00  0.00    -0.248 NA
ATOM     35  C   UNL A   1      42.935  27.790  31.812  1.00  0.00     0.031 C 
ATOM     36  C   UNL A   1      39.136  30.063  29.409  1.00  0.00     0.029 A 
ATOM     37  N   UNL A   1      39.618  30.780  31.472  1.00  0.00    -0.354 N 
ATOM     38  C   UNL A   1      42.756  28.911  33.796  1.00  0.00     0.074 A 
ATOM     39  C   UNL A   1      43.387  27.840  33.056  1.00  0.00     0.031 C 
ATOM     40  C   UNL A   1      38.266  31.042  29.708  1.00  0.00     0.029 A 
ATOM     41  C   UNL A   1      38.538  31.524  31.058  1.00  0.00     0.049 A 
ATOM     42  H   UNL A   1      40.042  30.889  32.354  1.00  0.00     0.167 HD
ATOM     43  C   UNL A   1      43.090  29.264  35.060  1.00  0.00     0.031 A 
ATOM     44  C   UNL A   1      37.842  32.483  31.698  1.00  0.00     0.031 A 
ATOM     45  C   UNL A   1      42.480  30.351  35.777  1.00  0.00     0.049 A 
ATOM     46  C   UNL A   1      38.261  32.885  33.086  1.00  0.00     0.074 A 
ATOM     47  C   UNL A   1      42.804  30.845  37.028  1.00  0.00     0.029 A 
ATOM     48  N   UNL A   1      41.421  31.112  35.306  1.00  0.00    -0.354 N 
ATOM     49  N   UNL A   1      39.230  32.399  33.826  1.00  0.00    -0.248 NA
ATOM     50  C   UNL A   1      37.506  33.974  33.719  1.00  0.00     0.031 C 
ATOM     51  C   UNL A   1      41.913  31.879  37.333  1.00  0.00     0.029 A 
ATOM     52  C   UNL A   1      41.065  32.060  36.250  1.00  0.00     0.049 A 
ATOM     53  H   UNL A   1      40.987  30.997  34.431  1.00  0.00     0.167 HD
ATOM     54  C   UNL A   1      39.216  33.142  35.001  1.00  0.00     0.074 A 
ATOM     55  C   UNL A   1      38.153  34.118  34.866  1.00  0.00     0.031 C 
ATOM     56  C   UNL A   1      40.009  33.026  36.094  1.00  0.00     0.031 A 
BRANCH  43  57
ATOM     57  C   UNL A   1      44.164  28.466  35.749  1.00  0.00    -0.014 A 
ATOM     58  C   UNL A   1      45.519  28.829  35.648  1.00  0.00     0.010 A 
ATOM     59  C   UNL A   1      43.809  27.364  36.548  1.00  0.00     0.010 A 
ATOM     60  C   UNL A   1      46.502  28.084  36.305  1.00  0.00     0.020 A 
ATOM     61  C   UNL A   1      44.786  26.631  37.227  1.00  0.00     0.020 A 
ATOM     62  C   UNL A   1      46.130  26.988  37.088  1.00  0.00     0.054 A 
BRANCH  62  63
ATOM     63  S   UNL A   1      47.423  26.058  37.956  1.00  0.00     0.124 S 
ATOM     64  O   UNL A   1      48.635  26.558  37.311  1.00  0.00    -0.237 OA
ATOM     65  O   UNL A   1      47.238  26.470  39.345  1.00  0.00    -0.237 OA
ATOM     66  O   UNL A   1      47.097  24.663  37.674  1.00  0.00    -0.744 OA
ENDBRANCH  62  63
ENDBRANCH  43  57
BRANCH  44  67
ATOM     67  C   UNL A   1      36.687  33.141  31.028  1.00  0.00    -0.014 A 
ATOM     68  C   UNL A   1      35.399  33.067  31.586  1.00  0.00     0.010 A 
ATOM     69  C   UNL A   1      36.872  33.849  29.827  1.00  0.00     0.010 A 
ATOM     70  C   UNL A   1      34.312  33.664  30.941  1.00  0.00     0.020 A 
ATOM     71  C   UNL A   1      35.793  34.471  29.193  1.00  0.00     0.020 A 
ATOM     72  C   UNL A   1      34.516  34.361  29.747  1.00  0.00     0.054 A 
BRANCH  72  73
ATOM     73  S   UNL A   1      33.099  35.163  28.946  1.00  0.00     0.124 S 
ATOM     74  O   UNL A   1      32.202  35.390  30.075  1.00  0.00    -0.237 OA
ATOM     75  O   UNL A   1      33.698  36.362  28.363  1.00  0.00    -0.237 OA
ATOM     76  O   UNL A   1      32.648  34.168  27.976  1.00  0.00    -0.744 OA
ENDBRANCH  72  73
ENDBRANCH  44  67
BRANCH  56  77
ATOM     77  C   UNL A   1      39.783  34.000  37.218  1.00  0.00    -0.014 A 
ATOM     78  C   UNL A   1      38.978  33.665  38.320  1.00  0.00     0.010 A 
ATOM     79  C   UNL A   1      40.433  35.247  37.192  1.00  0.00     0.010 A 
ATOM     80  C   UNL A   1      38.801  34.575  39.365  1.00  0.00     0.020 A 
ATOM     81  C   UNL A   1      40.279  36.149  38.249  1.00  0.00     0.020 A 
ATOM     82  C   UNL A   1      39.452  35.812  39.321  1.00  0.00     0.054 A 
BRANCH  82  83
ATOM     83  S   UNL A   1      39.243  36.960  40.710  1.00  0.00     0.124 S 
ATOM     84  O   UNL A   1      38.362  37.973  40.136  1.00  0.00    -0.237 OA
ATOM     85  O   UNL A   1      38.641  36.115  41.739  1.00  0.00    -0.237 OA
ATOM     86  O   UNL A   1      40.603  37.407  40.998  1.00  0.00    -0.744 OA
ENDBRANCH  82  83
ENDBRANCH  56  77
ENDBRANCH  30  31
ENDBRANCH  22  25
ENDBRANCH  20  21
ENDBRANCH  19  20
ENDBRANCH   1  19
TORSDOF 17
ENDMDL
