MODEL 1
REMARK VINA RESULT:     -11.0      0.000      0.000
REMARK SMILES Cc1onc(-c2cnn(C)c2C)c1C(=O)NCCCCNC(=O)c1ccc(-c2c3nc(c(-c4ccc(S(=O)(=O)[O-])cc4)c4ccc([nH]4)c(-c4ccc(S(=O)(=O)[O-])cc4)c4nc(c(-c5ccc(S(=O)(=O)[O-])cc5)c5ccc2[nH]5)C=C4)C=C3)cc1
REMARK SMILES IDX 19 1 18 2 17 3 16 4 14 5 15 6 13 8 1 9 2 10 3 11 4 12 5 13
REMARK SMILES IDX 6 14 7 15 11 16 8 17 9 18 12 19 10 20 20 21 21 22 22 23
REMARK SMILES IDX 23 25 24 26 25 27 83 28 26 29 82 30 27 31 28 32 29 33 76 34
REMARK SMILES IDX 30 35 81 36 75 37 77 38 31 39 80 40 74 41 73 42 32 44 62 45
REMARK SMILES IDX 43 46 61 47 44 48 47 49 60 50 78 51 45 52 46 53 59 55 79 56
REMARK SMILES IDX 48 57 33 58 34 59 42 60 35 61 41 62 36 63 37 64 38 65 39 66
REMARK SMILES IDX 40 67 63 68 64 69 72 70 65 71 71 72 66 73 67 74 68 75 69 76
REMARK SMILES IDX 70 77 49 78 50 79 58 80 51 81 57 82 52 83 53 84 54 85 55 86
REMARK SMILES IDX 56 87
REMARK H PARENT 16 7 21 24 77 43 47 54
REMARK Flexibility Score: inf
ROOT
ATOM      1  C   UNL A   1      33.803  28.531  25.514  1.00  0.00     0.023 C 
ENDROOT
BRANCH   1   2
ATOM      2  C   UNL A   1      33.687  27.130  24.908  1.00  0.00     0.023 C 
BRANCH   2   3
ATOM      3  C   UNL A   1      32.537  26.952  23.915  1.00  0.00     0.116 C 
BRANCH   3   4
ATOM      4  N   UNL A   1      32.540  25.614  23.384  1.00  0.00    -0.352 N 
ATOM      5  C   UNL A   1      32.353  24.365  23.907  1.00  0.00     0.257 C 
ATOM      6  O   UNL A   1      32.516  23.468  23.077  1.00  0.00    -0.269 OA
ATOM      7  H   UNL A   1      32.719  25.592  22.416  1.00  0.00     0.163 HD
BRANCH   5   8
ATOM      8  C   UNL A   1      31.957  24.055  25.278  1.00  0.00     0.110 A 
ATOM      9  C   UNL A   1      29.916  25.561  26.172  1.00  0.00     0.092 C 
ATOM     10  C   UNL A   1      30.971  24.531  26.138  1.00  0.00     0.147 A 
ATOM     11  O   UNL A   1      31.013  23.844  27.312  1.00  0.00    -0.360 OA
ATOM     12  N   UNL A   1      32.036  22.942  27.301  1.00  0.00    -0.079 NA
ATOM     13  C   UNL A   1      32.628  23.090  26.115  1.00  0.00     0.130 A 
BRANCH  13  14
ATOM     14  C   UNL A   1      33.806  22.289  25.802  1.00  0.00     0.045 A 
ATOM     15  C   UNL A   1      33.825  20.909  25.531  1.00  0.00     0.145 A 
ATOM     16  C   UNL A   1      35.107  22.716  25.609  1.00  0.00     0.044 A 
ATOM     17  N   UNL A   1      35.043  20.478  25.190  1.00  0.00    -0.181 NA
ATOM     18  N   UNL A   1      35.808  21.584  25.273  1.00  0.00    -0.272 N 
ATOM     19  C   UNL A   1      35.696  24.073  25.719  1.00  0.00     0.067 C 
ATOM     20  C   UNL A   1      37.219  21.476  24.988  1.00  0.00     0.174 C 
ENDBRANCH  13  14
ENDBRANCH   5   8
ENDBRANCH   3   4
ENDBRANCH   2   3
ENDBRANCH   1   2
BRANCH   1  21
ATOM     21  C   UNL A   1      33.686  28.589  27.034  1.00  0.00     0.116 C 
BRANCH  21  22
ATOM     22  N   UNL A   1      33.572  29.943  27.556  1.00  0.00    -0.352 N 
ATOM     23  C   UNL A   1      34.518  30.676  28.230  1.00  0.00     0.251 C 
ATOM     24  H   UNL A   1      32.706  30.388  27.409  1.00  0.00     0.163 HD
ATOM     25  O   UNL A   1      34.236  31.779  28.688  1.00  0.00    -0.269 OA
BRANCH  23  26
ATOM     26  C   UNL A   1      35.859  30.095  28.436  1.00  0.00     0.039 A 
ATOM     27  C   UNL A   1      36.770  30.116  27.377  1.00  0.00     0.014 A 
ATOM     28  C   UNL A   1      36.230  29.588  29.683  1.00  0.00     0.014 A 
ATOM     29  C   UNL A   1      38.083  29.695  27.593  1.00  0.00     0.010 A 
ATOM     30  C   UNL A   1      37.554  29.230  29.913  1.00  0.00     0.010 A 
ATOM     31  C   UNL A   1      38.493  29.285  28.872  1.00  0.00    -0.014 A 
BRANCH  31  32
ATOM     32  C   UNL A   1      39.906  28.923  29.148  1.00  0.00     0.031 A 
ATOM     33  C   UNL A   1      40.840  29.940  29.743  1.00  0.00     0.074 A 
ATOM     34  C   UNL A   1      40.363  27.706  28.793  1.00  0.00     0.049 A 
ATOM     35  N   UNL A   1      42.121  29.838  29.988  1.00  0.00    -0.248 NA
ATOM     36  C   UNL A   1      40.266  31.252  30.082  1.00  0.00     0.031 C 
ATOM     37  C   UNL A   1      39.566  26.650  28.163  1.00  0.00     0.029 A 
ATOM     38  N   UNL A   1      41.616  27.156  28.901  1.00  0.00    -0.354 N 
ATOM     39  C   UNL A   1      42.510  31.075  30.486  1.00  0.00     0.074 A 
ATOM     40  C   UNL A   1      41.339  31.925  30.469  1.00  0.00     0.031 C 
ATOM     41  C   UNL A   1      40.342  25.573  27.963  1.00  0.00     0.029 A 
ATOM     42  C   UNL A   1      41.697  25.872  28.415  1.00  0.00     0.049 A 
ATOM     43  H   UNL A   1      42.383  27.635  29.289  1.00  0.00     0.167 HD
ATOM     44  C   UNL A   1      43.727  31.462  30.936  1.00  0.00     0.031 A 
ATOM     45  C   UNL A   1      42.746  25.030  28.339  1.00  0.00     0.031 A 
ATOM     46  C   UNL A   1      44.883  30.608  30.970  1.00  0.00     0.049 A 
ATOM     47  C   UNL A   1      44.084  25.478  28.861  1.00  0.00     0.074 A 
ATOM     48  C   UNL A   1      46.147  30.889  31.460  1.00  0.00     0.029 A 
ATOM     49  N   UNL A   1      44.917  29.305  30.499  1.00  0.00    -0.354 N 
ATOM     50  N   UNL A   1      44.417  26.632  29.387  1.00  0.00    -0.248 NA
ATOM     51  C   UNL A   1      45.183  24.505  28.791  1.00  0.00     0.031 C 
ATOM     52  C   UNL A   1      46.955  29.767  31.251  1.00  0.00     0.029 A 
ATOM     53  C   UNL A   1      46.182  28.771  30.674  1.00  0.00     0.049 A 
ATOM     54  H   UNL A   1      44.154  28.828  30.099  1.00  0.00     0.167 HD
ATOM     55  C   UNL A   1      45.758  26.515  29.735  1.00  0.00     0.074 A 
ATOM     56  C   UNL A   1      46.170  25.174  29.370  1.00  0.00     0.031 C 
ATOM     57  C   UNL A   1      46.573  27.433  30.310  1.00  0.00     0.031 A 
BRANCH  44  58
ATOM     58  C   UNL A   1      43.864  32.877  31.427  1.00  0.00    -0.014 A 
ATOM     59  C   UNL A   1      43.669  33.195  32.784  1.00  0.00     0.010 A 
ATOM     60  C   UNL A   1      44.219  33.900  30.529  1.00  0.00     0.010 A 
ATOM     61  C   UNL A   1      43.780  34.515  33.225  1.00  0.00     0.020 A 
ATOM     62  C   UNL A   1      44.357  35.219  30.972  1.00  0.00     0.020 A 
ATOM     63  C   UNL A   1      44.118  35.521  32.314  1.00  0.00     0.054 A 
BRANCH  63  64
ATOM     64  S   UNL A   1      44.267  37.225  32.915  1.00  0.00     0.124 S 
ATOM     65  O   UNL A   1      44.308  37.982  31.666  1.00  0.00    -0.237 OA
ATOM     66  O   UNL A   1      43.054  37.394  33.711  1.00  0.00    -0.237 OA
ATOM     67  O   UNL A   1      45.513  37.215  33.678  1.00  0.00    -0.744 OA
ENDBRANCH  63  64
ENDBRANCH  44  58
BRANCH  45  68
ATOM     68  C   UNL A   1      42.565  23.668  27.772  1.00  0.00    -0.014 A 
ATOM     69  C   UNL A   1      42.805  23.429  26.408  1.00  0.00     0.010 A 
ATOM     70  C   UNL A   1      42.169  22.598  28.596  1.00  0.00     0.010 A 
ATOM     71  C   UNL A   1      42.636  22.149  25.873  1.00  0.00     0.020 A 
ATOM     72  C   UNL A   1      42.022  21.312  28.070  1.00  0.00     0.020 A 
ATOM     73  C   UNL A   1      42.246  21.098  26.708  1.00  0.00     0.054 A 
BRANCH  73  74
ATOM     74  S   UNL A   1      42.085  19.433  26.004  1.00  0.00     0.124 S 
ATOM     75  O   UNL A   1      42.951  19.514  24.832  1.00  0.00    -0.237 OA
ATOM     76  O   UNL A   1      42.568  18.582  27.089  1.00  0.00    -0.237 OA
ATOM     77  O   UNL A   1      40.656  19.320  25.723  1.00  0.00    -0.744 OA
ENDBRANCH  73  74
ENDBRANCH  45  68
BRANCH  57  78
ATOM     78  C   UNL A   1      47.983  27.012  30.616  1.00  0.00    -0.014 A 
ATOM     79  C   UNL A   1      49.046  27.350  29.760  1.00  0.00     0.010 A 
ATOM     80  C   UNL A   1      48.255  26.322  31.811  1.00  0.00     0.010 A 
ATOM     81  C   UNL A   1      50.355  26.984  30.084  1.00  0.00     0.020 A 
ATOM     82  C   UNL A   1      49.565  25.975  32.149  1.00  0.00     0.020 A 
ATOM     83  C   UNL A   1      50.606  26.298  31.277  1.00  0.00     0.054 A 
BRANCH  83  84
ATOM     84  S   UNL A   1      52.319  25.881  31.702  1.00  0.00     0.124 S 
ATOM     85  O   UNL A   1      52.994  26.018  30.414  1.00  0.00    -0.237 OA
ATOM     86  O   UNL A   1      52.659  26.891  32.701  1.00  0.00    -0.237 OA
ATOM     87  O   UNL A   1      52.225  24.515  32.215  1.00  0.00    -0.744 OA
ENDBRANCH  83  84
ENDBRANCH  57  78
ENDBRANCH  31  32
ENDBRANCH  23  26
ENDBRANCH  21  22
ENDBRANCH   1  21
TORSDOF 15
ENDMDL
MODEL 2
REMARK VINA RESULT:     -10.8      3.686     10.724
REMARK SMILES Cc1onc(-c2cnn(C)c2C)c1C(=O)NCCCCNC(=O)c1ccc(-c2c3nc(c(-c4ccc(S(=O)(=O)[O-])cc4)c4ccc([nH]4)c(-c4ccc(S(=O)(=O)[O-])cc4)c4nc(c(-c5ccc(S(=O)(=O)[O-])cc5)c5ccc2[nH]5)C=C4)C=C3)cc1
REMARK SMILES IDX 19 1 18 2 17 3 16 4 14 5 15 6 13 8 1 9 2 10 3 11 4 12 5 13
REMARK SMILES IDX 6 14 7 15 11 16 8 17 9 18 12 19 10 20 20 21 21 22 22 23
REMARK SMILES IDX 23 25 24 26 25 27 83 28 26 29 82 30 27 31 28 32 29 33 76 34
REMARK SMILES IDX 30 35 81 36 75 37 77 38 31 39 80 40 74 41 73 42 32 44 62 45
REMARK SMILES IDX 43 46 61 47 44 48 47 49 60 50 78 51 45 52 46 53 59 55 79 56
REMARK SMILES IDX 48 57 33 58 34 59 42 60 35 61 41 62 36 63 37 64 38 65 39 66
REMARK SMILES IDX 40 67 63 68 64 69 72 70 65 71 71 72 66 73 67 74 68 75 69 76
REMARK SMILES IDX 70 77 49 78 50 79 58 80 51 81 57 82 52 83 53 84 54 85 55 86
REMARK SMILES IDX 56 87
REMARK H PARENT 16 7 21 24 77 43 47 54
REMARK Flexibility Score: inf
ROOT
ATOM      1  C   UNL A   1      40.742  21.215  27.471  1.00  0.00     0.023 C 
ENDROOT
BRANCH   1   2
ATOM      2  C   UNL A   1      41.836  21.830  28.348  1.00  0.00     0.023 C 
BRANCH   2   3
ATOM      3  C   UNL A   1      42.298  23.223  27.918  1.00  0.00     0.116 C 
BRANCH   3   4
ATOM      4  N   UNL A   1      43.723  23.349  28.082  1.00  0.00    -0.352 N 
ATOM      5  C   UNL A   1      44.812  23.104  27.294  1.00  0.00     0.257 C 
ATOM      6  O   UNL A   1      45.881  23.294  27.880  1.00  0.00    -0.269 OA
ATOM      7  H   UNL A   1      43.972  23.690  28.971  1.00  0.00     0.163 HD
BRANCH   5   8
ATOM      8  C   UNL A   1      44.789  22.705  25.889  1.00  0.00     0.110 A 
ATOM      9  C   UNL A   1      43.795  20.237  25.492  1.00  0.00     0.092 C 
ATOM     10  C   UNL A   1      44.357  21.571  25.207  1.00  0.00     0.147 A 
ATOM     11  O   UNL A   1      44.528  21.747  23.868  1.00  0.00    -0.360 OA
ATOM     12  N   UNL A   1      45.114  22.952  23.616  1.00  0.00    -0.079 NA
ATOM     13  C   UNL A   1      45.312  23.509  24.812  1.00  0.00     0.130 A 
BRANCH  13  14
ATOM     14  C   UNL A   1      45.974  24.806  24.893  1.00  0.00     0.045 A 
ATOM     15  C   UNL A   1      47.329  25.065  24.620  1.00  0.00     0.145 A 
ATOM     16  C   UNL A   1      45.411  26.042  25.147  1.00  0.00     0.044 A 
ATOM     17  N   UNL A   1      47.619  26.367  24.694  1.00  0.00    -0.181 NA
ATOM     18  N   UNL A   1      46.448  26.936  25.042  1.00  0.00    -0.272 N 
ATOM     19  C   UNL A   1      44.010  26.409  25.467  1.00  0.00     0.067 C 
ATOM     20  C   UNL A   1      46.400  28.365  25.237  1.00  0.00     0.174 C 
ENDBRANCH  13  14
ENDBRANCH   5   8
ENDBRANCH   3   4
ENDBRANCH   2   3
ENDBRANCH   1   2
BRANCH   1  21
ATOM     21  C   UNL A   1      40.562  21.873  26.107  1.00  0.00     0.116 C 
BRANCH  21  22
ATOM     22  N   UNL A   1      39.174  22.166  25.782  1.00  0.00    -0.352 N 
ATOM     23  C   UNL A   1      38.444  23.283  26.107  1.00  0.00     0.251 C 
ATOM     24  H   UNL A   1      38.698  21.475  25.266  1.00  0.00     0.163 HD
ATOM     25  O   UNL A   1      37.248  23.342  25.835  1.00  0.00    -0.269 OA
BRANCH  23  26
ATOM     26  C   UNL A   1      39.107  24.387  26.829  1.00  0.00     0.039 A 
ATOM     27  C   UNL A   1      39.884  25.292  26.103  1.00  0.00     0.014 A 
ATOM     28  C   UNL A   1      38.914  24.555  28.201  1.00  0.00     0.014 A 
ATOM     29  C   UNL A   1      40.409  26.415  26.745  1.00  0.00     0.010 A 
ATOM     30  C   UNL A   1      39.382  25.707  28.824  1.00  0.00     0.010 A 
ATOM     31  C   UNL A   1      40.129  26.650  28.101  1.00  0.00    -0.014 A 
BRANCH  31  32
ATOM     32  C   UNL A   1      40.595  27.884  28.781  1.00  0.00     0.031 A 
ATOM     33  C   UNL A   1      41.976  27.941  29.372  1.00  0.00     0.074 A 
ATOM     34  C   UNL A   1      39.748  28.921  28.933  1.00  0.00     0.049 A 
ATOM     35  N   UNL A   1      42.536  28.897  30.066  1.00  0.00    -0.248 NA
ATOM     36  C   UNL A   1      42.830  26.757  29.182  1.00  0.00     0.031 C 
ATOM     37  C   UNL A   1      38.366  28.967  28.447  1.00  0.00     0.029 A 
ATOM     38  N   UNL A   1      39.922  30.134  29.550  1.00  0.00    -0.354 N 
ATOM     39  C   UNL A   1      43.795  28.424  30.413  1.00  0.00     0.074 A 
ATOM     40  C   UNL A   1      43.901  27.079  29.891  1.00  0.00     0.031 C 
ATOM     41  C   UNL A   1      37.828  30.156  28.763  1.00  0.00     0.029 A 
ATOM     42  C   UNL A   1      38.809  30.941  29.504  1.00  0.00     0.049 A 
ATOM     43  H   UNL A   1      40.764  30.401  29.985  1.00  0.00     0.167 HD
ATOM     44  C   UNL A   1      44.782  29.059  31.090  1.00  0.00     0.031 A 
ATOM     45  C   UNL A   1      38.602  32.174  30.005  1.00  0.00     0.031 A 
ATOM     46  C   UNL A   1      44.680  30.404  31.589  1.00  0.00     0.049 A 
ATOM     47  C   UNL A   1      39.718  32.865  30.737  1.00  0.00     0.074 A 
ATOM     48  C   UNL A   1      45.645  31.157  32.237  1.00  0.00     0.029 A 
ATOM     49  N   UNL A   1      43.549  31.199  31.495  1.00  0.00    -0.354 N 
ATOM     50  N   UNL A   1      40.925  32.424  31.002  1.00  0.00    -0.248 NA
ATOM     51  C   UNL A   1      39.450  34.224  31.227  1.00  0.00     0.031 C 
ATOM     52  C   UNL A   1      45.083  32.394  32.567  1.00  0.00     0.029 A 
ATOM     53  C   UNL A   1      43.785  32.429  32.083  1.00  0.00     0.049 A 
ATOM     54  H   UNL A   1      42.702  30.929  31.071  1.00  0.00     0.167 HD
ATOM     55  C   UNL A   1      41.569  33.463  31.665  1.00  0.00     0.074 A 
ATOM     56  C   UNL A   1      40.622  34.556  31.752  1.00  0.00     0.031 C 
ATOM     57  C   UNL A   1      42.833  33.508  32.154  1.00  0.00     0.031 A 
BRANCH  44  58
ATOM     58  C   UNL A   1      46.058  28.299  31.325  1.00  0.00    -0.014 A 
ATOM     59  C   UNL A   1      46.228  27.508  32.477  1.00  0.00     0.010 A 
ATOM     60  C   UNL A   1      47.092  28.353  30.373  1.00  0.00     0.010 A 
ATOM     61  C   UNL A   1      47.425  26.823  32.695  1.00  0.00     0.020 A 
ATOM     62  C   UNL A   1      48.282  27.647  30.574  1.00  0.00     0.020 A 
ATOM     63  C   UNL A   1      48.448  26.902  31.743  1.00  0.00     0.054 A 
BRANCH  63  64
ATOM     64  S   UNL A   1      49.988  25.993  32.044  1.00  0.00     0.124 S 
ATOM     65  O   UNL A   1      49.640  25.193  33.216  1.00  0.00    -0.237 OA
ATOM     66  O   UNL A   1      50.168  25.243  30.804  1.00  0.00    -0.237 OA
ATOM     67  O   UNL A   1      50.972  27.047  32.280  1.00  0.00    -0.744 OA
ENDBRANCH  63  64
ENDBRANCH  44  58
BRANCH  45  68
ATOM     68  C   UNL A   1      37.290  32.845  29.805  1.00  0.00    -0.014 A 
ATOM     69  C   UNL A   1      36.309  32.802  30.811  1.00  0.00     0.010 A 
ATOM     70  C   UNL A   1      37.021  33.546  28.615  1.00  0.00     0.010 A 
ATOM     71  C   UNL A   1      35.076  33.432  30.625  1.00  0.00     0.020 A 
ATOM     72  C   UNL A   1      35.798  34.198  28.435  1.00  0.00     0.020 A 
ATOM     73  C   UNL A   1      34.828  34.128  29.438  1.00  0.00     0.054 A 
BRANCH  73  74
ATOM     74  S   UNL A   1      33.241  34.985  29.240  1.00  0.00     0.124 S 
ATOM     75  O   UNL A   1      32.707  34.953  30.598  1.00  0.00    -0.237 OA
ATOM     76  O   UNL A   1      33.650  36.300  28.751  1.00  0.00    -0.237 OA
ATOM     77  O   UNL A   1      32.529  34.161  28.265  1.00  0.00    -0.744 OA
ENDBRANCH  73  74
ENDBRANCH  45  68
BRANCH  57  78
ATOM     78  C   UNL A   1      43.281  34.792  32.796  1.00  0.00    -0.014 A 
ATOM     79  C   UNL A   1      43.782  35.855  32.025  1.00  0.00     0.010 A 
ATOM     80  C   UNL A   1      43.138  34.957  34.185  1.00  0.00     0.010 A 
ATOM     81  C   UNL A   1      44.156  37.054  32.637  1.00  0.00     0.020 A 
ATOM     82  C   UNL A   1      43.489  36.162  34.798  1.00  0.00     0.020 A 
ATOM     83  C   UNL A   1      44.007  37.200  34.020  1.00  0.00     0.054 A 
BRANCH  83  84
ATOM     84  S   UNL A   1      44.447  38.784  34.786  1.00  0.00     0.124 S 
ATOM     85  O   UNL A   1      45.885  38.852  34.538  1.00  0.00    -0.237 OA
ATOM     86  O   UNL A   1      43.634  39.741  34.038  1.00  0.00    -0.237 OA
ATOM     87  O   UNL A   1      44.062  38.611  36.185  1.00  0.00    -0.744 OA
ENDBRANCH  83  84
ENDBRANCH  57  78
ENDBRANCH  31  32
ENDBRANCH  23  26
ENDBRANCH  21  22
ENDBRANCH   1  21
TORSDOF 15
ENDMDL
MODEL 3
REMARK VINA RESULT:     -10.7      1.043      2.046
REMARK SMILES Cc1onc(-c2cnn(C)c2C)c1C(=O)NCCCCNC(=O)c1ccc(-c2c3nc(c(-c4ccc(S(=O)(=O)[O-])cc4)c4ccc([nH]4)c(-c4ccc(S(=O)(=O)[O-])cc4)c4nc(c(-c5ccc(S(=O)(=O)[O-])cc5)c5ccc2[nH]5)C=C4)C=C3)cc1
REMARK SMILES IDX 19 1 18 2 17 3 16 4 14 5 15 6 13 8 1 9 2 10 3 11 4 12 5 13
REMARK SMILES IDX 6 14 7 15 11 16 8 17 9 18 12 19 10 20 20 21 21 22 22 23
REMARK SMILES IDX 23 25 24 26 25 27 83 28 26 29 82 30 27 31 28 32 29 33 76 34
REMARK SMILES IDX 30 35 81 36 75 37 77 38 31 39 80 40 74 41 73 42 32 44 62 45
REMARK SMILES IDX 43 46 61 47 44 48 47 49 60 50 78 51 45 52 46 53 59 55 79 56
REMARK SMILES IDX 48 57 33 58 34 59 42 60 35 61 41 62 36 63 37 64 38 65 39 66
REMARK SMILES IDX 40 67 63 68 64 69 72 70 65 71 71 72 66 73 67 74 68 75 69 76
REMARK SMILES IDX 70 77 49 78 50 79 58 80 51 81 57 82 52 83 53 84 54 85 55 86
REMARK SMILES IDX 56 87
REMARK H PARENT 16 7 21 24 77 43 47 54
REMARK Flexibility Score: inf
ROOT
ATOM      1  C   UNL A   1      32.143  27.827  27.014  1.00  0.00     0.023 C 
ENDROOT
BRANCH   1   2
ATOM      2  C   UNL A   1      32.086  26.759  25.919  1.00  0.00     0.023 C 
BRANCH   2   3
ATOM      3  C   UNL A   1      31.593  25.388  26.382  1.00  0.00     0.116 C 
BRANCH   3   4
ATOM      4  N   UNL A   1      30.922  24.709  25.304  1.00  0.00    -0.352 N 
ATOM      5  C   UNL A   1      31.273  24.311  24.045  1.00  0.00     0.257 C 
ATOM      6  O   UNL A   1      30.335  23.809  23.421  1.00  0.00    -0.269 OA
ATOM      7  H   UNL A   1      29.991  24.477  25.525  1.00  0.00     0.163 HD
BRANCH   5   8
ATOM      8  C   UNL A   1      32.605  24.396  23.452  1.00  0.00     0.110 A 
ATOM      9  C   UNL A   1      32.941  26.549  21.874  1.00  0.00     0.092 C 
ATOM     10  C   UNL A   1      33.241  25.309  22.615  1.00  0.00     0.147 A 
ATOM     11  O   UNL A   1      34.529  24.922  22.406  1.00  0.00    -0.360 OA
ATOM     12  N   UNL A   1      34.780  23.739  23.036  1.00  0.00    -0.079 NA
ATOM     13  C   UNL A   1      33.631  23.398  23.623  1.00  0.00     0.130 A 
BRANCH  13  14
ATOM     14  C   UNL A   1      33.552  22.138  24.353  1.00  0.00     0.045 A 
ATOM     15  C   UNL A   1      34.052  21.892  25.645  1.00  0.00     0.145 A 
ATOM     16  C   UNL A   1      32.899  20.976  23.988  1.00  0.00     0.044 A 
ATOM     17  N   UNL A   1      33.746  20.667  26.080  1.00  0.00    -0.181 NA
ATOM     18  N   UNL A   1      33.073  20.120  25.049  1.00  0.00    -0.272 N 
ATOM     19  C   UNL A   1      32.153  20.644  22.750  1.00  0.00     0.067 C 
ATOM     20  C   UNL A   1      32.602  18.761  25.168  1.00  0.00     0.174 C 
ENDBRANCH  13  14
ENDBRANCH   5   8
ENDBRANCH   3   4
ENDBRANCH   2   3
ENDBRANCH   1   2
BRANCH   1  21
ATOM     21  C   UNL A   1      33.501  28.495  27.196  1.00  0.00     0.116 C 
BRANCH  21  22
ATOM     22  N   UNL A   1      33.413  29.902  27.557  1.00  0.00    -0.352 N 
ATOM     23  C   UNL A   1      34.383  30.697  28.118  1.00  0.00     0.251 C 
ATOM     24  H   UNL A   1      32.549  30.338  27.377  1.00  0.00     0.163 HD
ATOM     25  O   UNL A   1      34.123  31.850  28.448  1.00  0.00    -0.269 OA
BRANCH  23  26
ATOM     26  C   UNL A   1      35.723  30.127  28.362  1.00  0.00     0.039 A 
ATOM     27  C   UNL A   1      36.652  30.130  27.320  1.00  0.00     0.014 A 
ATOM     28  C   UNL A   1      36.072  29.649  29.626  1.00  0.00     0.014 A 
ATOM     29  C   UNL A   1      37.963  29.719  27.568  1.00  0.00     0.010 A 
ATOM     30  C   UNL A   1      37.394  29.302  29.888  1.00  0.00     0.010 A 
ATOM     31  C   UNL A   1      38.351  29.340  28.864  1.00  0.00    -0.014 A 
BRANCH  31  32
ATOM     32  C   UNL A   1      39.760  28.990  29.174  1.00  0.00     0.031 A 
ATOM     33  C   UNL A   1      40.671  30.016  29.790  1.00  0.00     0.074 A 
ATOM     34  C   UNL A   1      40.236  27.777  28.830  1.00  0.00     0.049 A 
ATOM     35  N   UNL A   1      41.946  29.925  30.065  1.00  0.00    -0.248 NA
ATOM     36  C   UNL A   1      40.077  31.323  30.114  1.00  0.00     0.031 C 
ATOM     37  C   UNL A   1      39.464  26.714  28.182  1.00  0.00     0.029 A 
ATOM     38  N   UNL A   1      41.491  27.238  28.968  1.00  0.00    -0.354 N 
ATOM     39  C   UNL A   1      42.312  31.165  30.572  1.00  0.00     0.074 A 
ATOM     40  C   UNL A   1      41.135  32.005  30.527  1.00  0.00     0.031 C 
ATOM     41  C   UNL A   1      40.254  25.644  28.001  1.00  0.00     0.029 A 
ATOM     42  C   UNL A   1      41.596  25.955  28.485  1.00  0.00     0.049 A 
ATOM     43  H   UNL A   1      42.244  27.725  29.374  1.00  0.00     0.167 HD
ATOM     44  C   UNL A   1      43.515  31.564  31.050  1.00  0.00     0.031 A 
ATOM     45  C   UNL A   1      42.653  25.122  28.435  1.00  0.00     0.031 A 
ATOM     46  C   UNL A   1      44.677  30.719  31.113  1.00  0.00     0.049 A 
ATOM     47  C   UNL A   1      43.974  25.582  28.988  1.00  0.00     0.074 A 
ATOM     48  C   UNL A   1      45.927  31.012  31.633  1.00  0.00     0.029 A 
ATOM     49  N   UNL A   1      44.734  29.417  30.643  1.00  0.00    -0.354 N 
ATOM     50  N   UNL A   1      44.285  26.740  29.521  1.00  0.00    -0.248 NA
ATOM     51  C   UNL A   1      45.083  24.619  28.944  1.00  0.00     0.031 C 
ATOM     52  C   UNL A   1      46.749  29.897  31.443  1.00  0.00     0.029 A 
ATOM     53  C   UNL A   1      45.999  28.895  30.849  1.00  0.00     0.049 A 
ATOM     54  H   UNL A   1      43.985  28.933  30.225  1.00  0.00     0.167 HD
ATOM     55  C   UNL A   1      45.618  26.634  29.901  1.00  0.00     0.074 A 
ATOM     56  C   UNL A   1      46.051  25.297  29.547  1.00  0.00     0.031 C 
ATOM     57  C   UNL A   1      46.410  27.560  30.495  1.00  0.00     0.031 A 
BRANCH  44  58
ATOM     58  C   UNL A   1      43.628  32.980  31.544  1.00  0.00    -0.014 A 
ATOM     59  C   UNL A   1      43.334  33.307  32.881  1.00  0.00     0.010 A 
ATOM     60  C   UNL A   1      44.059  33.995  30.671  1.00  0.00     0.010 A 
ATOM     61  C   UNL A   1      43.423  34.628  33.323  1.00  0.00     0.020 A 
ATOM     62  C   UNL A   1      44.175  35.315  31.116  1.00  0.00     0.020 A 
ATOM     63  C   UNL A   1      43.838  35.626  32.435  1.00  0.00     0.054 A 
BRANCH  63  64
ATOM     64  S   UNL A   1      43.958  37.332  33.037  1.00  0.00     0.124 S 
ATOM     65  O   UNL A   1      45.279  37.339  33.660  1.00  0.00    -0.237 OA
ATOM     66  O   UNL A   1      43.838  38.117  31.812  1.00  0.00    -0.237 OA
ATOM     67  O   UNL A   1      42.833  37.452  33.963  1.00  0.00    -0.744 OA
ENDBRANCH  63  64
ENDBRANCH  44  58
BRANCH  45  68
ATOM     68  C   UNL A   1      42.498  23.758  27.864  1.00  0.00    -0.014 A 
ATOM     69  C   UNL A   1      42.122  22.683  28.687  1.00  0.00     0.010 A 
ATOM     70  C   UNL A   1      42.709  23.531  26.491  1.00  0.00     0.010 A 
ATOM     71  C   UNL A   1      41.975  21.400  28.152  1.00  0.00     0.020 A 
ATOM     72  C   UNL A   1      42.539  22.254  25.949  1.00  0.00     0.020 A 
ATOM     73  C   UNL A   1      42.184  21.194  26.786  1.00  0.00     0.054 A 
BRANCH  73  74
ATOM     74  S   UNL A   1      41.935  19.531  26.102  1.00  0.00     0.124 S 
ATOM     75  O   UNL A   1      42.353  18.681  27.212  1.00  0.00    -0.237 OA
ATOM     76  O   UNL A   1      40.505  19.523  25.802  1.00  0.00    -0.237 OA
ATOM     77  O   UNL A   1      42.809  19.511  24.931  1.00  0.00    -0.744 OA
ENDBRANCH  73  74
ENDBRANCH  45  68
BRANCH  57  78
ATOM     78  C   UNL A   1      47.817  27.152  30.834  1.00  0.00    -0.014 A 
ATOM     79  C   UNL A   1      48.112  26.480  32.034  1.00  0.00     0.010 A 
ATOM     80  C   UNL A   1      48.848  27.389  29.907  1.00  0.00     0.010 A 
ATOM     81  C   UNL A   1      49.420  26.074  32.310  1.00  0.00     0.020 A 
ATOM     82  C   UNL A   1      50.152  26.964  30.169  1.00  0.00     0.020 A 
ATOM     83  C   UNL A   1      50.432  26.318  31.376  1.00  0.00     0.054 A 
BRANCH  83  84
ATOM     84  S   UNL A   1      52.112  25.734  31.733  1.00  0.00     0.124 S 
ATOM     85  O   UNL A   1      52.493  26.576  32.863  1.00  0.00    -0.237 OA
ATOM     86  O   UNL A   1      51.903  24.322  32.042  1.00  0.00    -0.237 OA
ATOM     87  O   UNL A   1      52.838  25.991  30.490  1.00  0.00    -0.744 OA
ENDBRANCH  83  84
ENDBRANCH  57  78
ENDBRANCH  31  32
ENDBRANCH  23  26
ENDBRANCH  21  22
ENDBRANCH   1  21
TORSDOF 15
ENDMDL
