MODEL 1
REMARK VINA RESULT:     -10.6      0.000      0.000
REMARK SMILES CC[C@@H](O)C[NH+]1CC(n2cc(C(=O)NCCCCNC(=O)c3ccc(-c4c5nc(c(-c6ccc(S(=O)(=O)[O-])cc6)c6ccc([nH]6)c(-c6ccc(S(=O)(=O)[O-])cc6)c6nc(c(-c7ccc(S(=O)(=O)[O-])cc7)c7ccc4[nH]7)C=C6)C=C5)cc3)nn2)C1
REMARK SMILES IDX 16 1 15 2 14 3 12 4 13 5 11 7 9 8 10 9 83 10 82 11 8 12 6 13
REMARK SMILES IDX 7 14 84 15 5 17 3 18 2 19 1 20 4 21 17 23 18 24 19 25 20 26
REMARK SMILES IDX 21 28 22 29 23 30 81 31 24 32 80 33 25 34 26 35 27 36 74 37
REMARK SMILES IDX 28 38 79 39 73 40 75 41 29 42 78 43 72 44 71 45 30 47 60 48
REMARK SMILES IDX 41 49 59 50 42 51 45 52 58 53 76 54 43 55 44 56 57 58 77 59
REMARK SMILES IDX 46 60 31 61 32 62 40 63 33 64 39 65 34 66 35 67 36 68 37 69
REMARK SMILES IDX 38 70 61 71 62 72 70 73 63 74 69 75 64 76 65 77 66 78 67 79
REMARK SMILES IDX 68 80 47 81 48 82 56 83 49 84 55 85 50 86 51 87 52 88 53 89
REMARK SMILES IDX 54 90
REMARK H PARENT 14 6 6 16 4 22 19 27 75 46 45 57
REMARK Flexibility Score: inf
ROOT
ATOM      1  C   UNL A   1      34.780  30.660  27.717  1.00  0.00     0.023 C 
ENDROOT
BRANCH   1   2
ATOM      2  C   UNL A   1      34.066  29.371  27.295  1.00  0.00     0.116 C 
BRANCH   2   3
ATOM      3  N   UNL A   1      34.183  29.124  25.870  1.00  0.00    -0.351 N 
ATOM      4  C   UNL A   1      33.571  28.205  25.044  1.00  0.00     0.273 C 
ATOM      5  O   UNL A   1      33.793  28.313  23.837  1.00  0.00    -0.267 OA
ATOM      6  H   UNL A   1      34.815  29.721  25.409  1.00  0.00     0.163 HD
BRANCH   4   7
ATOM      7  C   UNL A   1      32.699  27.158  25.571  1.00  0.00     0.170 A 
ATOM      8  N   UNL A   1      31.782  25.341  26.337  1.00  0.00    -0.237 N 
ATOM      9  C   UNL A   1      32.921  25.808  25.745  1.00  0.00     0.145 A 
ATOM     10  N   UNL A   1      30.866  26.310  26.460  1.00  0.00    -0.066 NA
ATOM     11  N   UNL A   1      31.401  27.423  25.969  1.00  0.00    -0.125 NA
BRANCH   8  12
ATOM     12  C   UNL A   1      31.680  24.016  26.857  1.00  0.00     0.218 C 
ATOM     13  N   UNL A   1      32.149  22.059  26.294  1.00  0.00    -0.329 N 
ATOM     14  C   UNL A   1      32.956  23.142  26.886  1.00  0.00     0.296 C 
ATOM     15  C   UNL A   1      31.216  23.047  25.736  1.00  0.00     0.296 C 
ATOM     16  H   UNL A   1      31.820  21.302  26.894  1.00  0.00     0.348 HD
BRANCH  13  17
ATOM     17  C   UNL A   1      32.813  21.226  25.284  1.00  0.00     0.294 C 
BRANCH  17  18
ATOM     18  C   UNL A   1      33.216  19.734  25.477  1.00  0.00     0.169 C 
BRANCH  18  19
ATOM     19  C   UNL A   1      32.490  18.755  24.551  1.00  0.00     0.034 C 
ATOM     20  C   UNL A   1      32.353  19.238  23.113  1.00  0.00     0.007 C 
ENDBRANCH  18  19
BRANCH  18  21
ATOM     21  O   UNL A   1      34.629  19.657  25.223  1.00  0.00    -0.387 OA
ATOM     22  H   UNL A   1      34.812  19.964  24.322  1.00  0.00     0.211 HD
ENDBRANCH  18  21
ENDBRANCH  17  18
ENDBRANCH  13  17
ENDBRANCH   8  12
ENDBRANCH   4   7
ENDBRANCH   2   3
ENDBRANCH   1   2
BRANCH   1  23
ATOM     23  C   UNL A   1      33.880  31.900  27.836  1.00  0.00     0.023 C 
BRANCH  23  24
ATOM     24  C   UNL A   1      34.622  33.230  27.958  1.00  0.00     0.116 C 
BRANCH  24  25
ATOM     25  N   UNL A   1      34.204  34.017  29.118  1.00  0.00    -0.352 N 
ATOM     26  C   UNL A   1      34.504  33.782  30.446  1.00  0.00     0.251 C 
ATOM     27  H   UNL A   1      33.646  34.805  28.931  1.00  0.00     0.163 HD
ATOM     28  O   UNL A   1      33.783  34.227  31.338  1.00  0.00    -0.269 OA
BRANCH  26  29
ATOM     29  C   UNL A   1      35.711  33.008  30.779  1.00  0.00     0.039 A 
ATOM     30  C   UNL A   1      35.641  31.664  31.156  1.00  0.00     0.014 A 
ATOM     31  C   UNL A   1      36.940  33.656  30.670  1.00  0.00     0.014 A 
ATOM     32  C   UNL A   1      36.827  30.953  31.333  1.00  0.00     0.010 A 
ATOM     33  C   UNL A   1      38.102  32.926  30.720  1.00  0.00     0.010 A 
ATOM     34  C   UNL A   1      38.059  31.584  31.089  1.00  0.00    -0.014 A 
BRANCH  34  35
ATOM     35  C   UNL A   1      39.299  30.808  31.012  1.00  0.00     0.031 A 
ATOM     36  C   UNL A   1      39.935  30.598  32.344  1.00  0.00     0.074 A 
ATOM     37  C   UNL A   1      39.669  30.120  29.906  1.00  0.00     0.049 A 
ATOM     38  N   UNL A   1      41.031  31.116  32.792  1.00  0.00    -0.248 NA
ATOM     39  C   UNL A   1      39.160  29.879  33.377  1.00  0.00     0.031 C 
ATOM     40  C   UNL A   1      38.913  30.001  28.650  1.00  0.00     0.029 A 
ATOM     41  N   UNL A   1      40.713  29.265  29.699  1.00  0.00    -0.354 N 
ATOM     42  C   UNL A   1      41.225  30.534  34.045  1.00  0.00     0.074 A 
ATOM     43  C   UNL A   1      39.945  30.017  34.446  1.00  0.00     0.031 C 
ATOM     44  C   UNL A   1      39.368  28.945  27.941  1.00  0.00     0.029 A 
ATOM     45  C   UNL A   1      40.557  28.429  28.591  1.00  0.00     0.049 A 
ATOM     46  H   UNL A   1      41.507  29.240  30.281  1.00  0.00     0.167 HD
ATOM     47  C   UNL A   1      42.477  30.179  34.454  1.00  0.00     0.031 A 
ATOM     48  C   UNL A   1      41.336  27.377  28.230  1.00  0.00     0.031 A 
ATOM     49  C   UNL A   1      43.476  30.769  33.600  1.00  0.00     0.049 A 
ATOM     50  C   UNL A   1      42.647  27.564  28.888  1.00  0.00     0.074 A 
ATOM     51  C   UNL A   1      43.980  32.026  33.350  1.00  0.00     0.029 A 
ATOM     52  N   UNL A   1      43.806  29.972  32.534  1.00  0.00    -0.354 N 
ATOM     53  N   UNL A   1      43.442  28.560  28.615  1.00  0.00    -0.248 NA
ATOM     54  C   UNL A   1      42.930  26.860  30.131  1.00  0.00     0.031 C 
ATOM     55  C   UNL A   1      44.451  31.997  32.003  1.00  0.00     0.029 A 
ATOM     56  C   UNL A   1      44.284  30.710  31.490  1.00  0.00     0.049 A 
ATOM     57  H   UNL A   1      43.711  28.992  32.524  1.00  0.00     0.167 HD
ATOM     58  C   UNL A   1      44.017  28.881  29.829  1.00  0.00     0.074 A 
ATOM     59  C   UNL A   1      43.807  27.709  30.673  1.00  0.00     0.031 C 
ATOM     60  C   UNL A   1      44.311  30.176  30.143  1.00  0.00     0.031 A 
BRANCH  47  61
ATOM     61  C   UNL A   1      42.788  28.883  35.195  1.00  0.00    -0.014 A 
ATOM     62  C   UNL A   1      43.722  28.926  36.256  1.00  0.00     0.010 A 
ATOM     63  C   UNL A   1      42.457  27.604  34.705  1.00  0.00     0.010 A 
ATOM     64  C   UNL A   1      44.344  27.764  36.737  1.00  0.00     0.020 A 
ATOM     65  C   UNL A   1      43.044  26.436  35.199  1.00  0.00     0.020 A 
ATOM     66  C   UNL A   1      44.007  26.525  36.193  1.00  0.00     0.054 A 
BRANCH  66  67
ATOM     67  S   UNL A   1      44.873  25.038  36.753  1.00  0.00     0.124 S 
ATOM     68  O   UNL A   1      46.256  25.346  36.398  1.00  0.00    -0.237 OA
ATOM     69  O   UNL A   1      44.568  25.026  38.180  1.00  0.00    -0.237 OA
ATOM     70  O   UNL A   1      44.248  23.969  35.977  1.00  0.00    -0.744 OA
ENDBRANCH  66  67
ENDBRANCH  47  61
BRANCH  48  71
ATOM     71  C   UNL A   1      40.966  26.110  27.546  1.00  0.00    -0.014 A 
ATOM     72  C   UNL A   1      41.871  25.448  26.693  1.00  0.00     0.010 A 
ATOM     73  C   UNL A   1      39.828  25.394  27.968  1.00  0.00     0.010 A 
ATOM     74  C   UNL A   1      41.682  24.099  26.334  1.00  0.00     0.020 A 
ATOM     75  C   UNL A   1      39.631  24.052  27.614  1.00  0.00     0.020 A 
ATOM     76  C   UNL A   1      40.572  23.403  26.818  1.00  0.00     0.054 A 
BRANCH  76  77
ATOM     77  S   UNL A   1      40.426  21.615  26.503  1.00  0.00     0.124 S 
ATOM     78  O   UNL A   1      41.549  21.365  25.604  1.00  0.00    -0.237 OA
ATOM     79  O   UNL A   1      40.550  21.044  27.841  1.00  0.00    -0.237 OA
ATOM     80  O   UNL A   1      39.105  21.480  25.894  1.00  0.00    -0.744 OA
ENDBRANCH  76  77
ENDBRANCH  48  71
BRANCH  60  81
ATOM     81  C   UNL A   1      44.559  31.139  29.015  1.00  0.00    -0.014 A 
ATOM     82  C   UNL A   1      45.649  31.085  28.128  1.00  0.00     0.010 A 
ATOM     83  C   UNL A   1      43.569  32.117  28.809  1.00  0.00     0.010 A 
ATOM     84  C   UNL A   1      45.754  32.008  27.076  1.00  0.00     0.020 A 
ATOM     85  C   UNL A   1      43.656  33.023  27.756  1.00  0.00     0.020 A 
ATOM     86  C   UNL A   1      44.756  32.974  26.900  1.00  0.00     0.054 A 
BRANCH  86  87
ATOM     87  S   UNL A   1      44.883  34.163  25.536  1.00  0.00     0.124 S 
ATOM     88  O   UNL A   1      46.216  34.728  25.731  1.00  0.00    -0.237 OA
ATOM     89  O   UNL A   1      44.723  33.319  24.355  1.00  0.00    -0.237 OA
ATOM     90  O   UNL A   1      43.778  35.090  25.779  1.00  0.00    -0.744 OA
ENDBRANCH  86  87
ENDBRANCH  60  81
ENDBRANCH  34  35
ENDBRANCH  26  29
ENDBRANCH  24  25
ENDBRANCH  23  24
ENDBRANCH   1  23
TORSDOF 19
ENDMDL
MODEL 2
REMARK VINA RESULT:     -10.6      2.718      7.327
REMARK SMILES CC[C@@H](O)C[NH+]1CC(n2cc(C(=O)NCCCCNC(=O)c3ccc(-c4c5nc(c(-c6ccc(S(=O)(=O)[O-])cc6)c6ccc([nH]6)c(-c6ccc(S(=O)(=O)[O-])cc6)c6nc(c(-c7ccc(S(=O)(=O)[O-])cc7)c7ccc4[nH]7)C=C6)C=C5)cc3)nn2)C1
REMARK SMILES IDX 16 1 15 2 14 3 12 4 13 5 11 7 9 8 10 9 83 10 82 11 8 12 6 13
REMARK SMILES IDX 7 14 84 15 5 17 3 18 2 19 1 20 4 21 17 23 18 24 19 25 20 26
REMARK SMILES IDX 21 28 22 29 23 30 81 31 24 32 80 33 25 34 26 35 27 36 74 37
REMARK SMILES IDX 28 38 79 39 73 40 75 41 29 42 78 43 72 44 71 45 30 47 60 48
REMARK SMILES IDX 41 49 59 50 42 51 45 52 58 53 76 54 43 55 44 56 57 58 77 59
REMARK SMILES IDX 46 60 31 61 32 62 40 63 33 64 39 65 34 66 35 67 36 68 37 69
REMARK SMILES IDX 38 70 61 71 62 72 70 73 63 74 69 75 64 76 65 77 66 78 67 79
REMARK SMILES IDX 68 80 47 81 48 82 56 83 49 84 55 85 50 86 51 87 52 88 53 89
REMARK SMILES IDX 54 90
REMARK H PARENT 14 6 6 16 4 22 19 27 75 46 45 57
REMARK Flexibility Score: inf
ROOT
ATOM      1  C   UNL A   1      31.681  29.848  26.351  1.00  0.00     0.023 C 
ENDROOT
BRANCH   1   2
ATOM      2  C   UNL A   1      31.467  29.329  24.925  1.00  0.00     0.116 C 
BRANCH   2   3
ATOM      3  N   UNL A   1      32.681  29.392  24.133  1.00  0.00    -0.351 N 
ATOM      4  C   UNL A   1      33.484  28.406  23.601  1.00  0.00     0.273 C 
ATOM      5  O   UNL A   1      34.402  28.775  22.868  1.00  0.00    -0.267 OA
ATOM      6  H   UNL A   1      32.988  30.308  23.941  1.00  0.00     0.163 HD
BRANCH   4   7
ATOM      7  C   UNL A   1      33.256  26.991  23.890  1.00  0.00     0.170 A 
ATOM      8  N   UNL A   1      33.186  24.967  24.682  1.00  0.00    -0.237 N 
ATOM      9  C   UNL A   1      33.836  26.160  24.826  1.00  0.00     0.145 A 
ATOM     10  N   UNL A   1      32.309  25.010  23.672  1.00  0.00    -0.066 NA
ATOM     11  N   UNL A   1      32.359  26.234  23.158  1.00  0.00    -0.125 NA
BRANCH   8  12
ATOM     12  C   UNL A   1      33.363  23.888  25.598  1.00  0.00     0.218 C 
ATOM     13  N   UNL A   1      33.231  21.802  25.627  1.00  0.00    -0.329 N 
ATOM     14  C   UNL A   1      34.295  22.724  25.187  1.00  0.00     0.296 C 
ATOM     15  C   UNL A   1      32.223  22.850  25.413  1.00  0.00     0.296 C 
ATOM     16  H   UNL A   1      33.323  21.334  26.529  1.00  0.00     0.348 HD
BRANCH  13  17
ATOM     17  C   UNL A   1      33.028  20.601  24.809  1.00  0.00     0.294 C 
BRANCH  17  18
ATOM     18  C   UNL A   1      32.721  19.179  25.366  1.00  0.00     0.169 C 
BRANCH  18  19
ATOM     19  C   UNL A   1      33.507  18.050  24.694  1.00  0.00     0.034 C 
ATOM     20  C   UNL A   1      33.354  16.693  25.369  1.00  0.00     0.007 C 
ENDBRANCH  18  19
BRANCH  18  21
ATOM     21  O   UNL A   1      33.053  19.209  26.766  1.00  0.00    -0.387 OA
ATOM     22  H   UNL A   1      33.430  20.074  26.989  1.00  0.00     0.211 HD
ENDBRANCH  18  21
ENDBRANCH  17  18
ENDBRANCH  13  17
ENDBRANCH   8  12
ENDBRANCH   4   7
ENDBRANCH   2   3
ENDBRANCH   1   2
BRANCH   1  23
ATOM     23  C   UNL A   1      31.516  31.366  26.529  1.00  0.00     0.023 C 
BRANCH  23  24
ATOM     24  C   UNL A   1      32.719  32.080  27.143  1.00  0.00     0.116 C 
BRANCH  24  25
ATOM     25  N   UNL A   1      32.457  33.485  27.453  1.00  0.00    -0.352 N 
ATOM     26  C   UNL A   1      33.045  34.254  28.438  1.00  0.00     0.251 C 
ATOM     27  H   UNL A   1      31.783  33.935  26.893  1.00  0.00     0.163 HD
ATOM     28  O   UNL A   1      32.473  35.250  28.879  1.00  0.00    -0.269 OA
BRANCH  26  29
ATOM     29  C   UNL A   1      34.377  33.875  28.938  1.00  0.00     0.039 A 
ATOM     30  C   UNL A   1      34.541  33.203  30.152  1.00  0.00     0.014 A 
ATOM     31  C   UNL A   1      35.475  34.179  28.136  1.00  0.00     0.014 A 
ATOM     32  C   UNL A   1      35.814  32.759  30.509  1.00  0.00     0.010 A 
ATOM     33  C   UNL A   1      36.701  33.633  28.424  1.00  0.00     0.010 A 
ATOM     34  C   UNL A   1      36.890  32.955  29.626  1.00  0.00    -0.014 A 
BRANCH  34  35
ATOM     35  C   UNL A   1      38.173  32.282  29.844  1.00  0.00     0.031 A 
ATOM     36  C   UNL A   1      38.141  30.839  29.474  1.00  0.00     0.074 A 
ATOM     37  C   UNL A   1      39.325  32.953  30.080  1.00  0.00     0.049 A 
ATOM     38  N   UNL A   1      38.189  29.814  30.261  1.00  0.00    -0.248 NA
ATOM     39  C   UNL A   1      37.820  30.489  28.074  1.00  0.00     0.031 C 
ATOM     40  C   UNL A   1      39.499  34.413  30.123  1.00  0.00     0.029 A 
ATOM     41  N   UNL A   1      40.609  32.504  30.190  1.00  0.00    -0.354 N 
ATOM     42  C   UNL A   1      38.215  28.705  29.417  1.00  0.00     0.074 A 
ATOM     43  C   UNL A   1      37.723  29.161  28.145  1.00  0.00     0.031 C 
ATOM     44  C   UNL A   1      40.807  34.721  29.979  1.00  0.00     0.029 A 
ATOM     45  C   UNL A   1      41.578  33.495  30.023  1.00  0.00     0.049 A 
ATOM     46  H   UNL A   1      40.832  31.562  30.373  1.00  0.00     0.167 HD
ATOM     47  C   UNL A   1      39.002  27.630  29.713  1.00  0.00     0.031 A 
ATOM     48  C   UNL A   1      42.922  33.330  29.913  1.00  0.00     0.031 A 
ATOM     49  C   UNL A   1      39.469  27.704  31.075  1.00  0.00     0.049 A 
ATOM     50  C   UNL A   1      43.246  32.013  30.505  1.00  0.00     0.074 A 
ATOM     51  C   UNL A   1      38.932  27.583  32.336  1.00  0.00     0.029 A 
ATOM     52  N   UNL A   1      40.662  28.369  31.195  1.00  0.00    -0.354 N 
ATOM     53  N   UNL A   1      43.069  31.740  31.767  1.00  0.00    -0.248 NA
ATOM     54  C   UNL A   1      43.415  30.860  29.632  1.00  0.00     0.031 C 
ATOM     55  C   UNL A   1      39.755  28.378  33.189  1.00  0.00     0.029 A 
ATOM     56  C   UNL A   1      40.808  28.906  32.441  1.00  0.00     0.049 A 
ATOM     57  H   UNL A   1      41.327  28.448  30.474  1.00  0.00     0.167 HD
ATOM     58  C   UNL A   1      42.664  30.419  31.777  1.00  0.00     0.074 A 
ATOM     59  C   UNL A   1      43.063  29.888  30.478  1.00  0.00     0.031 C 
ATOM     60  C   UNL A   1      41.756  29.973  32.692  1.00  0.00     0.031 A 
BRANCH  47  61
ATOM     61  C   UNL A   1      39.820  26.870  28.675  1.00  0.00    -0.014 A 
ATOM     62  C   UNL A   1      39.605  25.479  28.542  1.00  0.00     0.010 A 
ATOM     63  C   UNL A   1      40.983  27.383  28.067  1.00  0.00     0.010 A 
ATOM     64  C   UNL A   1      40.540  24.646  27.909  1.00  0.00     0.020 A 
ATOM     65  C   UNL A   1      41.905  26.569  27.404  1.00  0.00     0.020 A 
ATOM     66  C   UNL A   1      41.693  25.200  27.354  1.00  0.00     0.054 A 
BRANCH  66  67
ATOM     67  S   UNL A   1      42.940  24.116  26.616  1.00  0.00     0.124 S 
ATOM     68  O   UNL A   1      43.930  25.077  26.141  1.00  0.00    -0.237 OA
ATOM     69  O   UNL A   1      43.342  23.294  27.753  1.00  0.00    -0.237 OA
ATOM     70  O   UNL A   1      42.199  23.409  25.573  1.00  0.00    -0.744 OA
ENDBRANCH  66  67
ENDBRANCH  47  61
BRANCH  48  71
ATOM     71  C   UNL A   1      43.917  34.117  29.138  1.00  0.00    -0.014 A 
ATOM     72  C   UNL A   1      45.215  34.348  29.635  1.00  0.00     0.010 A 
ATOM     73  C   UNL A   1      43.686  34.386  27.774  1.00  0.00     0.010 A 
ATOM     74  C   UNL A   1      46.258  34.765  28.786  1.00  0.00     0.020 A 
ATOM     75  C   UNL A   1      44.719  34.803  26.922  1.00  0.00     0.020 A 
ATOM     76  C   UNL A   1      46.006  34.967  27.427  1.00  0.00     0.054 A 
BRANCH  76  77
ATOM     77  S   UNL A   1      47.392  35.327  26.301  1.00  0.00     0.124 S 
ATOM     78  O   UNL A   1      48.554  35.099  27.155  1.00  0.00    -0.237 OA
ATOM     79  O   UNL A   1      47.195  34.353  25.231  1.00  0.00    -0.237 OA
ATOM     80  O   UNL A   1      47.170  36.719  25.917  1.00  0.00    -0.744 OA
ENDBRANCH  76  77
ENDBRANCH  48  71
BRANCH  60  81
ATOM     81  C   UNL A   1      41.645  30.713  33.997  1.00  0.00    -0.014 A 
ATOM     82  C   UNL A   1      40.716  31.732  34.274  1.00  0.00     0.010 A 
ATOM     83  C   UNL A   1      42.501  30.281  35.026  1.00  0.00     0.010 A 
ATOM     84  C   UNL A   1      40.668  32.320  35.548  1.00  0.00     0.020 A 
ATOM     85  C   UNL A   1      42.445  30.847  36.297  1.00  0.00     0.020 A 
ATOM     86  C   UNL A   1      41.538  31.874  36.550  1.00  0.00     0.054 A 
BRANCH  86  87
ATOM     87  S   UNL A   1      41.473  32.626  38.199  1.00  0.00     0.124 S 
ATOM     88  O   UNL A   1      42.107  33.923  37.982  1.00  0.00    -0.237 OA
ATOM     89  O   UNL A   1      40.040  32.664  38.481  1.00  0.00    -0.237 OA
ATOM     90  O   UNL A   1      42.235  31.698  39.035  1.00  0.00    -0.744 OA
ENDBRANCH  86  87
ENDBRANCH  60  81
ENDBRANCH  34  35
ENDBRANCH  26  29
ENDBRANCH  24  25
ENDBRANCH  23  24
ENDBRANCH   1  23
TORSDOF 19
ENDMDL
MODEL 3
REMARK VINA RESULT:     -10.6      2.923      9.342
REMARK SMILES CC[C@@H](O)C[NH+]1CC(n2cc(C(=O)NCCCCNC(=O)c3ccc(-c4c5nc(c(-c6ccc(S(=O)(=O)[O-])cc6)c6ccc([nH]6)c(-c6ccc(S(=O)(=O)[O-])cc6)c6nc(c(-c7ccc(S(=O)(=O)[O-])cc7)c7ccc4[nH]7)C=C6)C=C5)cc3)nn2)C1
REMARK SMILES IDX 16 1 15 2 14 3 12 4 13 5 11 7 9 8 10 9 83 10 82 11 8 12 6 13
REMARK SMILES IDX 7 14 84 15 5 17 3 18 2 19 1 20 4 21 17 23 18 24 19 25 20 26
REMARK SMILES IDX 21 28 22 29 23 30 81 31 24 32 80 33 25 34 26 35 27 36 74 37
REMARK SMILES IDX 28 38 79 39 73 40 75 41 29 42 78 43 72 44 71 45 30 47 60 48
REMARK SMILES IDX 41 49 59 50 42 51 45 52 58 53 76 54 43 55 44 56 57 58 77 59
REMARK SMILES IDX 46 60 31 61 32 62 40 63 33 64 39 65 34 66 35 67 36 68 37 69
REMARK SMILES IDX 38 70 61 71 62 72 70 73 63 74 69 75 64 76 65 77 66 78 67 79
REMARK SMILES IDX 68 80 47 81 48 82 56 83 49 84 55 85 50 86 51 87 52 88 53 89
REMARK SMILES IDX 54 90
REMARK H PARENT 14 6 6 16 4 22 19 27 75 46 45 57
REMARK Flexibility Score: inf
ROOT
ATOM      1  C   UNL A   1      38.237  23.645  26.171  1.00  0.00     0.023 C 
ENDROOT
BRANCH   1   2
ATOM      2  C   UNL A   1      36.902  23.702  25.422  1.00  0.00     0.116 C 
BRANCH   2   3
ATOM      3  N   UNL A   1      36.252  22.406  25.366  1.00  0.00    -0.351 N 
ATOM      4  C   UNL A   1      35.160  21.956  24.653  1.00  0.00     0.273 C 
ATOM      5  O   UNL A   1      34.907  20.752  24.730  1.00  0.00    -0.267 OA
ATOM      6  H   UNL A   1      36.665  21.724  25.942  1.00  0.00     0.163 HD
BRANCH   4   7
ATOM      7  C   UNL A   1      34.345  22.859  23.845  1.00  0.00     0.170 A 
ATOM      8  N   UNL A   1      32.798  24.090  22.937  1.00  0.00    -0.237 N 
ATOM      9  C   UNL A   1      32.987  23.105  23.865  1.00  0.00     0.145 A 
ATOM     10  N   UNL A   1      33.942  24.395  22.313  1.00  0.00    -0.066 NA
ATOM     11  N   UNL A   1      34.893  23.630  22.836  1.00  0.00    -0.125 NA
BRANCH   8  12
ATOM     12  C   UNL A   1      31.549  24.764  22.785  1.00  0.00     0.218 C 
ATOM     13  N   UNL A   1      30.728  26.659  23.103  1.00  0.00    -0.329 N 
ATOM     14  C   UNL A   1      31.528  26.095  21.999  1.00  0.00     0.296 C 
ATOM     15  C   UNL A   1      31.281  25.658  24.026  1.00  0.00     0.296 C 
ATOM     16  H   UNL A   1      29.721  26.765  22.981  1.00  0.00     0.348 HD
BRANCH  13  17
ATOM     17  C   UNL A   1      31.021  28.047  23.480  1.00  0.00     0.294 C 
BRANCH  17  18
ATOM     18  C   UNL A   1      30.255  29.298  22.957  1.00  0.00     0.169 C 
BRANCH  18  19
ATOM     19  C   UNL A   1      28.765  29.066  22.692  1.00  0.00     0.034 C 
ATOM     20  C   UNL A   1      28.101  30.153  21.857  1.00  0.00     0.007 C 
ENDBRANCH  18  19
BRANCH  18  21
ATOM     21  O   UNL A   1      30.396  30.313  23.967  1.00  0.00    -0.387 OA
ATOM     22  H   UNL A   1      29.928  30.038  24.770  1.00  0.00     0.211 HD
ENDBRANCH  18  21
ENDBRANCH  17  18
ENDBRANCH  13  17
ENDBRANCH   8  12
ENDBRANCH   4   7
ENDBRANCH   2   3
ENDBRANCH   1   2
BRANCH   1  23
ATOM     23  C   UNL A   1      38.941  22.279  26.157  1.00  0.00     0.023 C 
BRANCH  23  24
ATOM     24  C   UNL A   1      40.196  22.187  27.023  1.00  0.00     0.116 C 
BRANCH  24  25
ATOM     25  N   UNL A   1      41.398  21.850  26.260  1.00  0.00    -0.352 N 
ATOM     26  C   UNL A   1      42.294  22.722  25.672  1.00  0.00     0.251 C 
ATOM     27  H   UNL A   1      41.591  20.890  26.154  1.00  0.00     0.163 HD
ATOM     28  O   UNL A   1      42.997  22.356  24.731  1.00  0.00    -0.269 OA
BRANCH  26  29
ATOM     29  C   UNL A   1      42.409  24.091  26.202  1.00  0.00     0.039 A 
ATOM     30  C   UNL A   1      41.730  25.163  25.617  1.00  0.00     0.014 A 
ATOM     31  C   UNL A   1      43.195  24.277  27.337  1.00  0.00     0.014 A 
ATOM     32  C   UNL A   1      41.778  26.409  26.241  1.00  0.00     0.010 A 
ATOM     33  C   UNL A   1      43.138  25.467  28.017  1.00  0.00     0.010 A 
ATOM     34  C   UNL A   1      42.465  26.551  27.459  1.00  0.00    -0.014 A 
BRANCH  34  35
ATOM     35  C   UNL A   1      42.321  27.764  28.267  1.00  0.00     0.031 A 
ATOM     36  C   UNL A   1      43.432  28.735  28.057  1.00  0.00     0.074 A 
ATOM     37  C   UNL A   1      41.173  28.090  28.907  1.00  0.00     0.049 A 
ATOM     38  N   UNL A   1      44.372  29.058  28.883  1.00  0.00    -0.248 NA
ATOM     39  C   UNL A   1      43.637  29.270  26.695  1.00  0.00     0.031 C 
ATOM     40  C   UNL A   1      39.908  27.339  28.881  1.00  0.00     0.029 A 
ATOM     41  N   UNL A   1      40.829  29.216  29.596  1.00  0.00    -0.354 N 
ATOM     42  C   UNL A   1      45.095  30.064  28.240  1.00  0.00     0.074 A 
ATOM     43  C   UNL A   1      44.774  29.952  26.842  1.00  0.00     0.031 C 
ATOM     44  C   UNL A   1      38.895  28.138  29.280  1.00  0.00     0.029 A 
ATOM     45  C   UNL A   1      39.452  29.386  29.765  1.00  0.00     0.049 A 
ATOM     46  H   UNL A   1      41.493  29.854  29.945  1.00  0.00     0.167 HD
ATOM     47  C   UNL A   1      45.568  31.131  28.944  1.00  0.00     0.031 A 
ATOM     48  C   UNL A   1      38.805  30.474  30.255  1.00  0.00     0.031 A 
ATOM     49  C   UNL A   1      45.495  30.877  30.361  1.00  0.00     0.049 A 
ATOM     50  C   UNL A   1      39.789  31.240  31.050  1.00  0.00     0.074 A 
ATOM     51  C   UNL A   1      46.127  30.069  31.278  1.00  0.00     0.029 A 
ATOM     52  N   UNL A   1      44.308  31.281  30.915  1.00  0.00    -0.354 N 
ATOM     53  N   UNL A   1      40.340  30.775  32.136  1.00  0.00    -0.248 NA
ATOM     54  C   UNL A   1      40.461  32.384  30.447  1.00  0.00     0.031 C 
ATOM     55  C   UNL A   1      45.179  29.845  32.321  1.00  0.00     0.029 A 
ATOM     56  C   UNL A   1      44.021  30.575  32.047  1.00  0.00     0.049 A 
ATOM     57  H   UNL A   1      43.735  31.991  30.543  1.00  0.00     0.167 HD
ATOM     58  C   UNL A   1      41.633  31.261  32.098  1.00  0.00     0.074 A 
ATOM     59  C   UNL A   1      41.597  32.369  31.150  1.00  0.00     0.031 C 
ATOM     60  C   UNL A   1      42.674  30.518  32.576  1.00  0.00     0.031 A 
BRANCH  47  61
ATOM     61  C   UNL A   1      45.527  32.567  28.432  1.00  0.00    -0.014 A 
ATOM     62  C   UNL A   1      46.618  33.416  28.731  1.00  0.00     0.010 A 
ATOM     63  C   UNL A   1      44.357  33.195  27.960  1.00  0.00     0.010 A 
ATOM     64  C   UNL A   1      46.511  34.812  28.639  1.00  0.00     0.020 A 
ATOM     65  C   UNL A   1      44.250  34.583  27.832  1.00  0.00     0.020 A 
ATOM     66  C   UNL A   1      45.318  35.386  28.201  1.00  0.00     0.054 A 
BRANCH  66  67
ATOM     67  S   UNL A   1      45.153  37.187  28.166  1.00  0.00     0.124 S 
ATOM     68  O   UNL A   1      43.764  37.369  28.576  1.00  0.00    -0.237 OA
ATOM     69  O   UNL A   1      46.163  37.606  29.134  1.00  0.00    -0.237 OA
ATOM     70  O   UNL A   1      45.449  37.529  26.777  1.00  0.00    -0.744 OA
ENDBRANCH  66  67
ENDBRANCH  47  61
BRANCH  48  71
ATOM     71  C   UNL A   1      37.468  31.022  29.908  1.00  0.00    -0.014 A 
ATOM     72  C   UNL A   1      36.609  31.539  30.899  1.00  0.00     0.010 A 
ATOM     73  C   UNL A   1      37.158  31.312  28.564  1.00  0.00     0.010 A 
ATOM     74  C   UNL A   1      35.524  32.371  30.562  1.00  0.00     0.020 A 
ATOM     75  C   UNL A   1      36.080  32.139  28.220  1.00  0.00     0.020 A 
ATOM     76  C   UNL A   1      35.281  32.685  29.223  1.00  0.00     0.054 A 
BRANCH  76  77
ATOM     77  S   UNL A   1      33.994  33.904  28.805  1.00  0.00     0.124 S 
ATOM     78  O   UNL A   1      33.128  33.146  27.907  1.00  0.00    -0.237 OA
ATOM     79  O   UNL A   1      33.424  34.226  30.110  1.00  0.00    -0.237 OA
ATOM     80  O   UNL A   1      34.742  34.990  28.173  1.00  0.00    -0.744 OA
ENDBRANCH  76  77
ENDBRANCH  48  71
BRANCH  60  81
ATOM     81  C   UNL A   1      42.381  29.488  33.632  1.00  0.00    -0.014 A 
ATOM     82  C   UNL A   1      41.986  29.772  34.952  1.00  0.00     0.010 A 
ATOM     83  C   UNL A   1      42.444  28.145  33.220  1.00  0.00     0.010 A 
ATOM     84  C   UNL A   1      41.688  28.728  35.843  1.00  0.00     0.020 A 
ATOM     85  C   UNL A   1      42.131  27.106  34.092  1.00  0.00     0.020 A 
ATOM     86  C   UNL A   1      41.767  27.400  35.405  1.00  0.00     0.054 A 
BRANCH  86  87
ATOM     87  S   UNL A   1      41.374  26.050  36.549  1.00  0.00     0.124 S 
ATOM     88  O   UNL A   1      40.589  25.144  35.715  1.00  0.00    -0.237 OA
ATOM     89  O   UNL A   1      42.694  25.562  36.940  1.00  0.00    -0.237 OA
ATOM     90  O   UNL A   1      40.625  26.708  37.620  1.00  0.00    -0.744 OA
ENDBRANCH  86  87
ENDBRANCH  60  81
ENDBRANCH  34  35
ENDBRANCH  26  29
ENDBRANCH  24  25
ENDBRANCH  23  24
ENDBRANCH   1  23
TORSDOF 19
ENDMDL
