MODEL 1
REMARK VINA RESULT:     -11.6      0.000      0.000
REMARK SMILES O=C(NCCCCNC(=O)[C@@H]1[C@H](C(=O)NCc2ccncc2)[C@H]2C=C[C@@H]1O2)c1ccc(-c2c3nc(c(-c4ccc(S(=O)(=O)[O-])cc4)c4ccc([nH]4)c(-c4ccc(S(=O)(=O)[O-])cc4)c4nc(c(-c5ccc(S(=O)(=O)[O-])cc5)c5ccc2[nH]5)C=C4)C=C3)cc1
REMARK SMILES IDX 5 1 4 2 3 3 1 4 2 5 28 7 29 8 87 9 30 10 86 11 31 12 32 13
REMARK SMILES IDX 33 14 80 15 34 16 85 17 79 18 81 19 35 20 84 21 78 22 77 23
REMARK SMILES IDX 36 25 66 26 47 27 65 28 48 29 51 30 64 31 82 32 49 33 50 34
REMARK SMILES IDX 63 36 83 37 52 38 37 39 38 40 46 41 39 42 45 43 40 44 41 45
REMARK SMILES IDX 42 46 43 47 44 48 67 49 68 50 76 51 69 52 75 53 70 54 71 55
REMARK SMILES IDX 72 56 73 57 74 58 53 59 54 60 62 61 55 62 61 63 56 64 57 65
REMARK SMILES IDX 58 66 59 67 60 68 6 69 7 70 8 71 9 72 10 74 11 75 12 76
REMARK SMILES IDX 26 77 23 78 25 79 27 80 24 81 13 82 14 83 15 84 16 86 17 87
REMARK SMILES IDX 18 88 22 89 19 90 21 91 20 92
REMARK H PARENT 3 6 81 24 51 35 8 73 15 85
REMARK Flexibility Score: inf
ROOT
ATOM      1  C   UNL A   1      32.893  27.335  25.718  1.00  0.00     0.023 C 
ENDROOT
BRANCH   1   2
ATOM      2  C   UNL A   1      33.984  28.001  26.533  1.00  0.00     0.116 C 
BRANCH   2   3
ATOM      3  N   UNL A   1      33.657  29.384  26.859  1.00  0.00    -0.352 N 
ATOM      4  O   UNL A   1      33.828  31.344  27.957  1.00  0.00    -0.269 OA
ATOM      5  C   UNL A   1      34.354  30.295  27.621  1.00  0.00     0.251 C 
ATOM      6  H   UNL A   1      32.812  29.715  26.479  1.00  0.00     0.163 HD
BRANCH   5   7
ATOM      7  C   UNL A   1      35.737  29.978  28.035  1.00  0.00     0.039 A 
ATOM      8  C   UNL A   1      36.793  30.200  27.152  1.00  0.00     0.014 A 
ATOM      9  C   UNL A   1      35.977  29.449  29.305  1.00  0.00     0.014 A 
ATOM     10  C   UNL A   1      38.055  29.723  27.460  1.00  0.00     0.010 A 
ATOM     11  C   UNL A   1      37.279  29.091  29.665  1.00  0.00     0.010 A 
ATOM     12  C   UNL A   1      38.322  29.201  28.735  1.00  0.00    -0.014 A 
BRANCH  12  13
ATOM     13  C   UNL A   1      39.727  28.876  29.080  1.00  0.00     0.031 A 
ATOM     14  C   UNL A   1      40.569  29.809  29.900  1.00  0.00     0.074 A 
ATOM     15  C   UNL A   1      40.212  27.684  28.677  1.00  0.00     0.049 A 
ATOM     16  N   UNL A   1      41.802  29.653  30.308  1.00  0.00    -0.248 NA
ATOM     17  C   UNL A   1      39.959  31.085  30.307  1.00  0.00     0.031 C 
ATOM     18  C   UNL A   1      39.471  26.701  27.878  1.00  0.00     0.029 A 
ATOM     19  N   UNL A   1      41.413  27.073  28.916  1.00  0.00    -0.354 N 
ATOM     20  C   UNL A   1      42.131  30.822  30.983  1.00  0.00     0.074 A 
ATOM     21  C   UNL A   1      40.969  31.683  30.924  1.00  0.00     0.031 C 
ATOM     22  C   UNL A   1      40.195  25.580  27.774  1.00  0.00     0.029 A 
ATOM     23  C   UNL A   1      41.486  25.797  28.410  1.00  0.00     0.049 A 
ATOM     24  H   UNL A   1      42.153  27.505  29.402  1.00  0.00     0.167 HD
ATOM     25  C   UNL A   1      43.301  31.145  31.587  1.00  0.00     0.031 A 
ATOM     26  C   UNL A   1      42.488  24.900  28.436  1.00  0.00     0.031 A 
ATOM     27  C   UNL A   1      44.446  30.271  31.637  1.00  0.00     0.049 A 
ATOM     28  C   UNL A   1      43.773  25.287  29.101  1.00  0.00     0.074 A 
ATOM     29  C   UNL A   1      45.675  30.492  32.234  1.00  0.00     0.029 A 
ATOM     30  N   UNL A   1      44.502  29.007  31.065  1.00  0.00    -0.354 N 
ATOM     31  N   UNL A   1      44.067  26.401  29.727  1.00  0.00    -0.248 NA
ATOM     32  C   UNL A   1      44.861  24.306  29.051  1.00  0.00     0.031 C 
ATOM     33  C   UNL A   1      46.488  29.380  31.983  1.00  0.00     0.029 A 
ATOM     34  C   UNL A   1      45.750  28.444  31.276  1.00  0.00     0.049 A 
ATOM     35  H   UNL A   1      43.762  28.574  30.580  1.00  0.00     0.167 HD
ATOM     36  C   UNL A   1      45.379  26.254  30.156  1.00  0.00     0.074 A 
ATOM     37  C   UNL A   1      45.809  24.934  29.734  1.00  0.00     0.031 C 
ATOM     38  C   UNL A   1      46.157  27.134  30.833  1.00  0.00     0.031 A 
BRANCH  25  39
ATOM     39  C   UNL A   1      43.413  32.522  32.192  1.00  0.00    -0.014 A 
ATOM     40  C   UNL A   1      43.086  32.766  33.537  1.00  0.00     0.010 A 
ATOM     41  C   UNL A   1      43.861  33.592  31.394  1.00  0.00     0.010 A 
ATOM     42  C   UNL A   1      43.150  34.063  34.058  1.00  0.00     0.020 A 
ATOM     43  C   UNL A   1      43.950  34.885  31.918  1.00  0.00     0.020 A 
ATOM     44  C   UNL A   1      43.570  35.117  33.240  1.00  0.00     0.054 A 
BRANCH  44  45
ATOM     45  S   UNL A   1      43.626  36.794  33.931  1.00  0.00     0.124 S 
ATOM     46  O   UNL A   1      42.342  36.874  34.624  1.00  0.00    -0.237 OA
ATOM     47  O   UNL A   1      44.802  36.749  34.795  1.00  0.00    -0.237 OA
ATOM     48  O   UNL A   1      43.753  37.650  32.755  1.00  0.00    -0.744 OA
ENDBRANCH  44  45
ENDBRANCH  25  39
BRANCH  26  49
ATOM     49  C   UNL A   1      42.295  23.571  27.799  1.00  0.00    -0.014 A 
ATOM     50  C   UNL A   1      42.749  23.334  26.491  1.00  0.00     0.010 A 
ATOM     51  C   UNL A   1      41.730  22.509  28.531  1.00  0.00     0.010 A 
ATOM     52  C   UNL A   1      42.649  22.058  25.930  1.00  0.00     0.020 A 
ATOM     53  C   UNL A   1      41.656  21.227  27.985  1.00  0.00     0.020 A 
ATOM     54  C   UNL A   1      42.112  21.009  26.684  1.00  0.00     0.054 A 
BRANCH  54  55
ATOM     55  S   UNL A   1      42.081  19.341  25.973  1.00  0.00     0.124 S 
ATOM     56  O   UNL A   1      42.615  18.535  27.067  1.00  0.00    -0.237 OA
ATOM     57  O   UNL A   1      40.663  19.149  25.678  1.00  0.00    -0.237 OA
ATOM     58  O   UNL A   1      42.942  19.454  24.798  1.00  0.00    -0.744 OA
ENDBRANCH  54  55
ENDBRANCH  26  49
BRANCH  38  59
ATOM     59  C   UNL A   1      47.548  26.677  31.175  1.00  0.00    -0.014 A 
ATOM     60  C   UNL A   1      48.610  26.844  30.269  1.00  0.00     0.010 A 
ATOM     61  C   UNL A   1      47.796  26.099  32.433  1.00  0.00     0.010 A 
ATOM     62  C   UNL A   1      49.893  26.406  30.603  1.00  0.00     0.020 A 
ATOM     63  C   UNL A   1      49.082  25.683  32.779  1.00  0.00     0.020 A 
ATOM     64  C   UNL A   1      50.121  25.825  31.855  1.00  0.00     0.054 A 
BRANCH  64  65
ATOM     65  S   UNL A   1      51.801  25.294  32.280  1.00  0.00     0.124 S 
ATOM     66  O   UNL A   1      51.972  25.867  33.613  1.00  0.00    -0.237 OA
ATOM     67  O   UNL A   1      51.701  23.837  32.229  1.00  0.00    -0.237 OA
ATOM     68  O   UNL A   1      52.628  25.892  31.234  1.00  0.00    -0.744 OA
ENDBRANCH  64  65
ENDBRANCH  38  59
ENDBRANCH  12  13
ENDBRANCH   5   7
ENDBRANCH   2   3
ENDBRANCH   1   2
BRANCH   1  69
ATOM     69  C   UNL A   1      31.822  26.681  26.578  1.00  0.00     0.023 C 
BRANCH  69  70
ATOM     70  C   UNL A   1      31.179  25.435  25.978  1.00  0.00     0.116 C 
BRANCH  70  71
ATOM     71  N   UNL A   1      31.372  24.238  26.777  1.00  0.00    -0.356 N 
ATOM     72  C   UNL A   1      32.474  23.441  26.892  1.00  0.00     0.227 C 
ATOM     73  H   UNL A   1      30.595  23.959  27.314  1.00  0.00     0.163 HD
ATOM     74  O   UNL A   1      32.563  22.705  27.874  1.00  0.00    -0.275 OA
BRANCH  72  75
ATOM     75  C   UNL A   1      33.611  23.592  25.919  1.00  0.00     0.127 C 
ATOM     76  C   UNL A   1      33.601  22.829  24.577  1.00  0.00     0.127 C 
ATOM     77  C   UNL A   1      34.967  23.135  26.508  1.00  0.00     0.155 C 
ATOM     78  C   UNL A   1      34.993  22.199  24.544  1.00  0.00     0.155 C 
ATOM     79  C   UNL A   1      36.061  23.822  25.738  1.00  0.00     0.004 C 
ATOM     80  O   UNL A   1      35.124  21.810  25.933  1.00  0.00    -0.365 OA
ATOM     81  C   UNL A   1      36.058  23.266  24.517  1.00  0.00     0.004 C 
BRANCH  76  82
ATOM     82  C   UNL A   1      32.547  21.808  24.180  1.00  0.00     0.227 C 
ATOM     83  O   UNL A   1      31.983  21.974  23.088  1.00  0.00    -0.275 OA
ATOM     84  N   UNL A   1      32.144  20.727  24.883  1.00  0.00    -0.352 N 
ATOM     85  H   UNL A   1      31.190  20.510  24.783  1.00  0.00     0.163 HD
BRANCH  84  86
ATOM     86  C   UNL A   1      32.872  19.829  25.758  1.00  0.00     0.151 C 
BRANCH  86  87
ATOM     87  C   UNL A   1      33.159  18.463  25.198  1.00  0.00    -0.026 A 
ATOM     88  C   UNL A   1      34.080  18.357  24.147  1.00  0.00     0.025 A 
ATOM     89  C   UNL A   1      32.524  17.295  25.628  1.00  0.00     0.025 A 
ATOM     90  C   UNL A   1      34.360  17.108  23.616  1.00  0.00     0.111 A 
ATOM     91  C   UNL A   1      32.864  16.091  25.024  1.00  0.00     0.111 A 
ATOM     92  N   UNL A   1      33.770  15.970  24.031  1.00  0.00    -0.265 NA
ENDBRANCH  86  87
ENDBRANCH  84  86
ENDBRANCH  76  82
ENDBRANCH  72  75
ENDBRANCH  70  71
ENDBRANCH  69  70
ENDBRANCH   1  69
TORSDOF 17
ENDMDL
MODEL 2
REMARK VINA RESULT:     -11.3      0.831      8.205
REMARK SMILES O=C(NCCCCNC(=O)[C@@H]1[C@H](C(=O)NCc2ccncc2)[C@H]2C=C[C@@H]1O2)c1ccc(-c2c3nc(c(-c4ccc(S(=O)(=O)[O-])cc4)c4ccc([nH]4)c(-c4ccc(S(=O)(=O)[O-])cc4)c4nc(c(-c5ccc(S(=O)(=O)[O-])cc5)c5ccc2[nH]5)C=C4)C=C3)cc1
REMARK SMILES IDX 5 1 4 2 3 3 1 4 2 5 28 7 29 8 87 9 30 10 86 11 31 12 32 13
REMARK SMILES IDX 33 14 80 15 34 16 85 17 79 18 81 19 35 20 84 21 78 22 77 23
REMARK SMILES IDX 36 25 66 26 47 27 65 28 48 29 51 30 64 31 82 32 49 33 50 34
REMARK SMILES IDX 63 36 83 37 52 38 37 39 38 40 46 41 39 42 45 43 40 44 41 45
REMARK SMILES IDX 42 46 43 47 44 48 67 49 68 50 76 51 69 52 75 53 70 54 71 55
REMARK SMILES IDX 72 56 73 57 74 58 53 59 54 60 62 61 55 62 61 63 56 64 57 65
REMARK SMILES IDX 58 66 59 67 60 68 6 69 7 70 8 71 9 72 10 74 11 75 12 76
REMARK SMILES IDX 26 77 23 78 25 79 27 80 24 81 13 82 14 83 15 84 16 86 17 87
REMARK SMILES IDX 18 88 22 89 19 90 21 91 20 92
REMARK H PARENT 3 6 81 24 51 35 8 73 15 85
REMARK Flexibility Score: inf
ROOT
ATOM      1  C   UNL A   1      33.077  27.541  25.786  1.00  0.00     0.023 C 
ENDROOT
BRANCH   1   2
ATOM      2  C   UNL A   1      34.206  28.197  26.554  1.00  0.00     0.116 C 
BRANCH   2   3
ATOM      3  N   UNL A   1      33.855  29.538  27.007  1.00  0.00    -0.352 N 
ATOM      4  O   UNL A   1      34.003  31.397  28.270  1.00  0.00    -0.269 OA
ATOM      5  C   UNL A   1      34.546  30.395  27.834  1.00  0.00     0.251 C 
ATOM      6  H   UNL A   1      32.995  29.881  26.672  1.00  0.00     0.163 HD
BRANCH   5   7
ATOM      7  C   UNL A   1      35.943  30.076  28.195  1.00  0.00     0.039 A 
ATOM      8  C   UNL A   1      36.964  30.290  27.271  1.00  0.00     0.014 A 
ATOM      9  C   UNL A   1      36.231  29.552  29.458  1.00  0.00     0.014 A 
ATOM     10  C   UNL A   1      38.236  29.811  27.532  1.00  0.00     0.010 A 
ATOM     11  C   UNL A   1      37.545  29.193  29.769  1.00  0.00     0.010 A 
ATOM     12  C   UNL A   1      38.551  29.295  28.798  1.00  0.00    -0.014 A 
BRANCH  12  13
ATOM     13  C   UNL A   1      39.967  28.967  29.089  1.00  0.00     0.031 A 
ATOM     14  C   UNL A   1      40.567  27.654  28.681  1.00  0.00     0.074 A 
ATOM     15  C   UNL A   1      40.719  29.911  29.690  1.00  0.00     0.049 A 
ATOM     16  N   UNL A   1      41.796  27.233  28.838  1.00  0.00    -0.248 NA
ATOM     17  C   UNL A   1      39.680  26.683  28.021  1.00  0.00     0.031 C 
ATOM     18  C   UNL A   1      40.230  31.226  30.123  1.00  0.00     0.029 A 
ATOM     19  N   UNL A   1      42.052  29.941  29.998  1.00  0.00    -0.354 N 
ATOM     20  C   UNL A   1      41.822  25.937  28.337  1.00  0.00     0.074 A 
ATOM     21  C   UNL A   1      40.483  25.638  27.876  1.00  0.00     0.031 C 
ATOM     22  C   UNL A   1      41.263  31.961  30.552  1.00  0.00     0.029 A 
ATOM     23  C   UNL A   1      42.466  31.143  30.518  1.00  0.00     0.049 A 
ATOM     24  H   UNL A   1      42.656  29.174  29.861  1.00  0.00     0.167 HD
ATOM     25  C   UNL A   1      42.868  25.077  28.278  1.00  0.00     0.031 A 
ATOM     26  C   UNL A   1      43.678  31.544  30.943  1.00  0.00     0.031 A 
ATOM     27  C   UNL A   1      44.195  25.395  28.740  1.00  0.00     0.049 A 
ATOM     28  C   UNL A   1      44.814  30.571  30.876  1.00  0.00     0.074 A 
ATOM     29  C   UNL A   1      45.332  24.605  28.715  1.00  0.00     0.029 A 
ATOM     30  N   UNL A   1      44.565  26.606  29.313  1.00  0.00    -0.354 N 
ATOM     31  N   UNL A   1      44.816  29.347  30.405  1.00  0.00    -0.248 NA
ATOM     32  C   UNL A   1      46.102  31.025  31.406  1.00  0.00     0.031 C 
ATOM     33  C   UNL A   1      46.375  25.321  29.315  1.00  0.00     0.029 A 
ATOM     34  C   UNL A   1      45.904  26.577  29.665  1.00  0.00     0.049 A 
ATOM     35  H   UNL A   1      43.962  27.372  29.450  1.00  0.00     0.167 HD
ATOM     36  C   UNL A   1      46.112  28.882  30.578  1.00  0.00     0.074 A 
ATOM     37  C   UNL A   1      46.868  29.967  31.174  1.00  0.00     0.031 C 
ATOM     38  C   UNL A   1      46.628  27.666  30.272  1.00  0.00     0.031 A 
BRANCH  25  39
ATOM     39  C   UNL A   1      42.600  23.693  27.744  1.00  0.00    -0.014 A 
ATOM     40  C   UNL A   1      42.148  22.654  28.578  1.00  0.00     0.010 A 
ATOM     41  C   UNL A   1      42.799  23.429  26.375  1.00  0.00     0.010 A 
ATOM     42  C   UNL A   1      41.957  21.366  28.067  1.00  0.00     0.020 A 
ATOM     43  C   UNL A   1      42.584  22.149  25.855  1.00  0.00     0.020 A 
ATOM     44  C   UNL A   1      42.188  21.119  26.709  1.00  0.00     0.054 A 
BRANCH  44  45
ATOM     45  S   UNL A   1      41.953  19.437  26.073  1.00  0.00     0.124 S 
ATOM     46  O   UNL A   1      40.510  19.404  25.842  1.00  0.00    -0.237 OA
ATOM     47  O   UNL A   1      42.780  19.427  24.870  1.00  0.00    -0.237 OA
ATOM     48  O   UNL A   1      42.429  18.585  27.159  1.00  0.00    -0.744 OA
ENDBRANCH  44  45
ENDBRANCH  25  39
BRANCH  26  49
ATOM     49  C   UNL A   1      43.847  32.924  31.471  1.00  0.00    -0.014 A 
ATOM     50  C   UNL A   1      44.171  33.983  30.607  1.00  0.00     0.010 A 
ATOM     51  C   UNL A   1      43.600  33.197  32.830  1.00  0.00     0.010 A 
ATOM     52  C   UNL A   1      44.237  35.293  31.092  1.00  0.00     0.020 A 
ATOM     53  C   UNL A   1      43.635  34.508  33.310  1.00  0.00     0.020 A 
ATOM     54  C   UNL A   1      43.959  35.549  32.438  1.00  0.00     0.054 A 
BRANCH  54  55
ATOM     55  S   UNL A   1      43.956  37.265  33.024  1.00  0.00     0.124 S 
ATOM     56  O   UNL A   1      43.819  38.011  31.777  1.00  0.00    -0.237 OA
ATOM     57  O   UNL A   1      42.794  37.295  33.910  1.00  0.00    -0.237 OA
ATOM     58  O   UNL A   1      45.244  37.399  33.699  1.00  0.00    -0.744 OA
ENDBRANCH  54  55
ENDBRANCH  26  49
BRANCH  38  59
ATOM     59  C   UNL A   1      48.089  27.462  30.563  1.00  0.00    -0.014 A 
ATOM     60  C   UNL A   1      48.513  26.870  31.766  1.00  0.00     0.010 A 
ATOM     61  C   UNL A   1      49.045  27.845  29.606  1.00  0.00     0.010 A 
ATOM     62  C   UNL A   1      49.875  26.697  32.020  1.00  0.00     0.020 A 
ATOM     63  C   UNL A   1      50.405  27.650  29.847  1.00  0.00     0.020 A 
ATOM     64  C   UNL A   1      50.813  27.091  31.061  1.00  0.00     0.054 A 
BRANCH  64  65
ATOM     65  S   UNL A   1      52.575  26.827  31.398  1.00  0.00     0.124 S 
ATOM     66  O   UNL A   1      53.060  26.342  30.109  1.00  0.00    -0.237 OA
ATOM     67  O   UNL A   1      53.032  28.160  31.782  1.00  0.00    -0.237 OA
ATOM     68  O   UNL A   1      52.576  25.840  32.477  1.00  0.00    -0.744 OA
ENDBRANCH  64  65
ENDBRANCH  38  59
ENDBRANCH  12  13
ENDBRANCH   5   7
ENDBRANCH   2   3
ENDBRANCH   1   2
BRANCH   1  69
ATOM     69  C   UNL A   1      32.069  26.843  26.687  1.00  0.00     0.023 C 
BRANCH  69  70
ATOM     70  C   UNL A   1      31.334  25.668  26.051  1.00  0.00     0.116 C 
BRANCH  70  71
ATOM     71  N   UNL A   1      31.470  24.426  26.791  1.00  0.00    -0.356 N 
ATOM     72  C   UNL A   1      32.552  23.603  26.911  1.00  0.00     0.227 C 
ATOM     73  H   UNL A   1      30.664  24.134  27.277  1.00  0.00     0.163 HD
ATOM     74  O   UNL A   1      32.583  22.813  27.854  1.00  0.00    -0.275 OA
BRANCH  72  75
ATOM     75  C   UNL A   1      33.735  23.784  25.999  1.00  0.00     0.127 C 
ATOM     76  C   UNL A   1      33.679  23.293  24.536  1.00  0.00     0.127 C 
ATOM     77  C   UNL A   1      35.000  23.052  26.507  1.00  0.00     0.155 C 
ATOM     78  C   UNL A   1      34.982  22.505  24.402  1.00  0.00     0.155 C 
ATOM     79  C   UNL A   1      36.199  23.723  25.897  1.00  0.00     0.004 C 
ATOM     80  O   UNL A   1      35.011  21.850  25.693  1.00  0.00    -0.365 OA
ATOM     81  C   UNL A   1      36.172  23.411  24.592  1.00  0.00     0.004 C 
BRANCH  76  82
ATOM     82  C   UNL A   1      32.522  22.511  23.939  1.00  0.00     0.227 C 
ATOM     83  O   UNL A   1      32.039  22.937  22.878  1.00  0.00    -0.275 OA
ATOM     84  N   UNL A   1      31.945  21.392  24.430  1.00  0.00    -0.352 N 
ATOM     85  H   UNL A   1      30.976  21.330  24.269  1.00  0.00     0.163 HD
BRANCH  84  86
ATOM     86  C   UNL A   1      32.503  20.267  25.153  1.00  0.00     0.151 C 
BRANCH  86  87
ATOM     87  C   UNL A   1      32.969  19.114  24.307  1.00  0.00    -0.026 A 
ATOM     88  C   UNL A   1      32.256  18.819  23.136  1.00  0.00     0.025 A 
ATOM     89  C   UNL A   1      34.040  18.283  24.643  1.00  0.00     0.025 A 
ATOM     90  C   UNL A   1      32.667  17.761  22.342  1.00  0.00     0.111 A 
ATOM     91  C   UNL A   1      34.368  17.238  23.787  1.00  0.00     0.111 A 
ATOM     92  N   UNL A   1      33.709  16.962  22.642  1.00  0.00    -0.265 NA
ENDBRANCH  86  87
ENDBRANCH  84  86
ENDBRANCH  76  82
ENDBRANCH  72  75
ENDBRANCH  70  71
ENDBRANCH  69  70
ENDBRANCH   1  69
TORSDOF 17
ENDMDL
MODEL 3
REMARK VINA RESULT:     -11.1      3.075      9.709
REMARK SMILES O=C(NCCCCNC(=O)[C@@H]1[C@H](C(=O)NCc2ccncc2)[C@H]2C=C[C@@H]1O2)c1ccc(-c2c3nc(c(-c4ccc(S(=O)(=O)[O-])cc4)c4ccc([nH]4)c(-c4ccc(S(=O)(=O)[O-])cc4)c4nc(c(-c5ccc(S(=O)(=O)[O-])cc5)c5ccc2[nH]5)C=C4)C=C3)cc1
REMARK SMILES IDX 5 1 4 2 3 3 1 4 2 5 28 7 29 8 87 9 30 10 86 11 31 12 32 13
REMARK SMILES IDX 33 14 80 15 34 16 85 17 79 18 81 19 35 20 84 21 78 22 77 23
REMARK SMILES IDX 36 25 66 26 47 27 65 28 48 29 51 30 64 31 82 32 49 33 50 34
REMARK SMILES IDX 63 36 83 37 52 38 37 39 38 40 46 41 39 42 45 43 40 44 41 45
REMARK SMILES IDX 42 46 43 47 44 48 67 49 68 50 76 51 69 52 75 53 70 54 71 55
REMARK SMILES IDX 72 56 73 57 74 58 53 59 54 60 62 61 55 62 61 63 56 64 57 65
REMARK SMILES IDX 58 66 59 67 60 68 6 69 7 70 8 71 9 72 10 74 11 75 12 76
REMARK SMILES IDX 26 77 23 78 25 79 27 80 24 81 13 82 14 83 15 84 16 86 17 87
REMARK SMILES IDX 18 88 22 89 19 90 21 91 20 92
REMARK H PARENT 3 6 81 24 51 35 8 73 15 85
REMARK Flexibility Score: inf
ROOT
ATOM      1  C   UNL A   1      35.314  23.610  26.413  1.00  0.00     0.023 C 
ENDROOT
BRANCH   1   2
ATOM      2  C   UNL A   1      36.621  23.910  25.707  1.00  0.00     0.116 C 
BRANCH   2   3
ATOM      3  N   UNL A   1      37.592  22.834  25.870  1.00  0.00    -0.352 N 
ATOM      4  O   UNL A   1      39.625  21.913  26.174  1.00  0.00    -0.269 OA
ATOM      5  C   UNL A   1      38.900  22.887  26.296  1.00  0.00     0.251 C 
ATOM      6  H   UNL A   1      37.262  21.935  25.640  1.00  0.00     0.163 HD
BRANCH   5   7
ATOM      7  C   UNL A   1      39.413  24.141  26.887  1.00  0.00     0.039 A 
ATOM      8  C   UNL A   1      39.218  24.399  28.243  1.00  0.00     0.014 A 
ATOM      9  C   UNL A   1      40.082  25.065  26.081  1.00  0.00     0.014 A 
ATOM     10  C   UNL A   1      39.519  25.649  28.753  1.00  0.00     0.010 A 
ATOM     11  C   UNL A   1      40.507  26.277  26.633  1.00  0.00     0.010 A 
ATOM     12  C   UNL A   1      40.204  26.587  27.966  1.00  0.00    -0.014 A 
BRANCH  12  13
ATOM     13  C   UNL A   1      40.668  27.839  28.611  1.00  0.00     0.031 A 
ATOM     14  C   UNL A   1      42.104  28.032  29.004  1.00  0.00     0.074 A 
ATOM     15  C   UNL A   1      39.767  28.826  28.787  1.00  0.00     0.049 A 
ATOM     16  N   UNL A   1      42.668  29.079  29.549  1.00  0.00    -0.248 NA
ATOM     17  C   UNL A   1      43.024  26.909  28.768  1.00  0.00     0.031 C 
ATOM     18  C   UNL A   1      38.345  28.739  28.433  1.00  0.00     0.029 A 
ATOM     19  N   UNL A   1      39.909  30.103  29.258  1.00  0.00    -0.354 N 
ATOM     20  C   UNL A   1      43.996  28.731  29.759  1.00  0.00     0.074 A 
ATOM     21  C   UNL A   1      44.153  27.371  29.289  1.00  0.00     0.031 C 
ATOM     22  C   UNL A   1      37.772  29.935  28.611  1.00  0.00     0.029 A 
ATOM     23  C   UNL A   1      38.754  30.844  29.183  1.00  0.00     0.049 A 
ATOM     24  H   UNL A   1      40.756  30.456  29.616  1.00  0.00     0.167 HD
ATOM     25  C   UNL A   1      44.988  29.478  30.303  1.00  0.00     0.031 A 
ATOM     26  C   UNL A   1      38.502  32.113  29.550  1.00  0.00     0.031 A 
ATOM     27  C   UNL A   1      44.811  30.832  30.763  1.00  0.00     0.049 A 
ATOM     28  C   UNL A   1      39.612  32.913  30.158  1.00  0.00     0.074 A 
ATOM     29  C   UNL A   1      45.750  31.685  31.318  1.00  0.00     0.029 A 
ATOM     30  N   UNL A   1      43.612  31.532  30.722  1.00  0.00    -0.354 N 
ATOM     31  N   UNL A   1      40.860  32.562  30.356  1.00  0.00    -0.248 NA
ATOM     32  C   UNL A   1      39.280  34.269  30.604  1.00  0.00     0.031 C 
ATOM     33  C   UNL A   1      45.107  32.882  31.654  1.00  0.00     0.029 A 
ATOM     34  C   UNL A   1      43.781  32.797  31.260  1.00  0.00     0.049 A 
ATOM     35  H   UNL A   1      42.766  31.179  30.364  1.00  0.00     0.167 HD
ATOM     36  C   UNL A   1      41.469  33.660  30.946  1.00  0.00     0.074 A 
ATOM     37  C   UNL A   1      40.454  34.692  31.050  1.00  0.00     0.031 C 
ATOM     38  C   UNL A   1      42.751  33.800  31.366  1.00  0.00     0.031 A 
BRANCH  25  39
ATOM     39  C   UNL A   1      46.334  28.822  30.480  1.00  0.00    -0.014 A 
ATOM     40  C   UNL A   1      47.329  28.901  29.489  1.00  0.00     0.010 A 
ATOM     41  C   UNL A   1      46.609  28.116  31.667  1.00  0.00     0.010 A 
ATOM     42  C   UNL A   1      48.551  28.240  29.657  1.00  0.00     0.020 A 
ATOM     43  C   UNL A   1      47.838  27.475  31.850  1.00  0.00     0.020 A 
ATOM     44  C   UNL A   1      48.792  27.520  30.832  1.00  0.00     0.054 A 
BRANCH  44  45
ATOM     45  S   UNL A   1      50.375  26.654  31.020  1.00  0.00     0.124 S 
ATOM     46  O   UNL A   1      51.059  27.009  29.778  1.00  0.00    -0.237 OA
ATOM     47  O   UNL A   1      50.929  27.249  32.232  1.00  0.00    -0.237 OA
ATOM     48  O   UNL A   1      49.991  25.250  31.138  1.00  0.00    -0.744 OA
ENDBRANCH  44  45
ENDBRANCH  25  39
BRANCH  26  49
ATOM     49  C   UNL A   1      37.138  32.672  29.354  1.00  0.00    -0.014 A 
ATOM     50  C   UNL A   1      36.204  32.659  30.404  1.00  0.00     0.010 A 
ATOM     51  C   UNL A   1      36.797  33.299  28.140  1.00  0.00     0.010 A 
ATOM     52  C   UNL A   1      34.956  33.269  30.245  1.00  0.00     0.020 A 
ATOM     53  C   UNL A   1      35.563  33.935  27.990  1.00  0.00     0.020 A 
ATOM     54  C   UNL A   1      34.647  33.912  29.043  1.00  0.00     0.054 A 
BRANCH  54  55
ATOM     55  S   UNL A   1      33.062  34.779  28.893  1.00  0.00     0.124 S 
ATOM     56  O   UNL A   1      33.479  36.091  28.406  1.00  0.00    -0.237 OA
ATOM     57  O   UNL A   1      32.336  33.951  27.933  1.00  0.00    -0.237 OA
ATOM     58  O   UNL A   1      32.528  34.754  30.252  1.00  0.00    -0.744 OA
ENDBRANCH  54  55
ENDBRANCH  26  49
BRANCH  38  59
ATOM     59  C   UNL A   1      43.123  35.131  31.958  1.00  0.00    -0.014 A 
ATOM     60  C   UNL A   1      43.854  36.076  31.216  1.00  0.00     0.010 A 
ATOM     61  C   UNL A   1      42.710  35.447  33.264  1.00  0.00     0.010 A 
ATOM     62  C   UNL A   1      44.196  37.303  31.787  1.00  0.00     0.020 A 
ATOM     63  C   UNL A   1      43.029  36.682  33.828  1.00  0.00     0.020 A 
ATOM     64  C   UNL A   1      43.784  37.598  33.091  1.00  0.00     0.054 A 
BRANCH  64  65
ATOM     65  S   UNL A   1      44.211  39.210  33.801  1.00  0.00     0.124 S 
ATOM     66  O   UNL A   1      44.975  38.827  34.985  1.00  0.00    -0.237 OA
ATOM     67  O   UNL A   1      44.982  39.839  32.731  1.00  0.00    -0.237 OA
ATOM     68  O   UNL A   1      42.913  39.825  34.069  1.00  0.00    -0.744 OA
ENDBRANCH  64  65
ENDBRANCH  38  59
ENDBRANCH  12  13
ENDBRANCH   5   7
ENDBRANCH   2   3
ENDBRANCH   1   2
BRANCH   1  69
ATOM     69  C   UNL A   1      34.374  22.746  25.586  1.00  0.00     0.023 C 
BRANCH  69  70
ATOM     70  C   UNL A   1      33.037  23.391  25.237  1.00  0.00     0.116 C 
BRANCH  70  71
ATOM     71  N   UNL A   1      33.113  24.325  24.127  1.00  0.00    -0.356 N 
ATOM     72  C   UNL A   1      33.318  25.674  24.142  1.00  0.00     0.227 C 
ATOM     73  H   UNL A   1      32.999  23.927  23.233  1.00  0.00     0.163 HD
ATOM     74  O   UNL A   1      33.707  26.217  23.109  1.00  0.00    -0.275 OA
BRANCH  72  75
ATOM     75  C   UNL A   1      33.220  26.431  25.438  1.00  0.00     0.127 C 
ATOM     76  C   UNL A   1      31.855  26.619  26.135  1.00  0.00     0.127 C 
ATOM     77  C   UNL A   1      33.690  27.900  25.310  1.00  0.00     0.155 C 
ATOM     78  C   UNL A   1      31.839  28.118  26.431  1.00  0.00     0.155 C 
ATOM     79  C   UNL A   1      34.090  28.379  26.678  1.00  0.00     0.004 C 
ATOM     80  O   UNL A   1      32.433  28.620  25.209  1.00  0.00    -0.365 OA
ATOM     81  C   UNL A   1      32.951  28.485  27.379  1.00  0.00     0.004 C 
BRANCH  76  82
ATOM     82  C   UNL A   1      30.525  26.179  25.546  1.00  0.00     0.227 C 
ATOM     83  O   UNL A   1      29.720  25.631  26.315  1.00  0.00    -0.275 OA
ATOM     84  N   UNL A   1      30.107  26.313  24.268  1.00  0.00    -0.352 N 
ATOM     85  H   UNL A   1      29.541  25.575  23.946  1.00  0.00     0.163 HD
BRANCH  84  86
ATOM     86  C   UNL A   1      30.345  27.354  23.288  1.00  0.00     0.151 C 
BRANCH  86  87
ATOM     87  C   UNL A   1      29.309  28.442  23.226  1.00  0.00    -0.026 A 
ATOM     88  C   UNL A   1      29.735  29.772  23.340  1.00  0.00     0.025 A 
ATOM     89  C   UNL A   1      27.936  28.205  23.115  1.00  0.00     0.025 A 
ATOM     90  C   UNL A   1      28.798  30.790  23.286  1.00  0.00     0.111 A 
ATOM     91  C   UNL A   1      27.073  29.293  23.082  1.00  0.00     0.111 A 
ATOM     92  N   UNL A   1      27.473  30.580  23.160  1.00  0.00    -0.265 NA
ENDBRANCH  86  87
ENDBRANCH  84  86
ENDBRANCH  76  82
ENDBRANCH  72  75
ENDBRANCH  70  71
ENDBRANCH  69  70
ENDBRANCH   1  69
TORSDOF 17
ENDMDL
