MODEL 1
REMARK VINA RESULT:     -10.2      0.000      0.000
REMARK SMILES COCCC(=O)N1Cc2ccccc2C[C@H]1C(=O)NCCCCNC(=O)c1ccc(-c2c3nc(c(-c4ccc(S(=O)(=O)[O-])cc4)c4ccc([nH]4)c(-c4ccc(S(=O)(=O)[O-])cc4)c4nc(c(-c5ccc(S(=O)(=O)[O-])cc5)c5ccc2[nH]5)C=C4)C=C3)cc1
REMARK SMILES IDX 21 1 20 2 19 3 17 4 18 5 16 7 7 8 8 9 9 10 15 11 10 12 14 13
REMARK SMILES IDX 11 14 13 15 12 16 5 17 6 18 4 19 3 20 2 21 1 22 22 23 23 24
REMARK SMILES IDX 24 25 25 26 26 28 27 29 28 30 86 31 29 32 85 33 30 34 31 35
REMARK SMILES IDX 32 36 79 37 33 38 84 39 78 40 80 41 34 42 83 43 77 44 76 45
REMARK SMILES IDX 35 47 65 48 46 49 64 50 47 51 50 52 63 53 81 54 48 55 49 56
REMARK SMILES IDX 62 58 82 59 51 60 36 61 37 62 45 63 38 64 44 65 39 66 40 67
REMARK SMILES IDX 41 68 42 69 43 70 66 71 67 72 75 73 68 74 74 75 69 76 70 77
REMARK SMILES IDX 71 78 72 79 73 80 52 81 53 82 61 83 54 84 60 85 55 86 56 87
REMARK SMILES IDX 57 88 58 89 59 90
REMARK H PARENT 19 6 24 27 80 46 50 57
REMARK Flexibility Score: inf
ROOT
ATOM      1  C   UNL A   1      35.423  23.717  23.742  1.00  0.00     0.023 C 
ENDROOT
BRANCH   1   2
ATOM      2  C   UNL A   1      34.413  24.857  23.841  1.00  0.00     0.116 C 
BRANCH   2   3
ATOM      3  N   UNL A   1      33.306  24.587  24.732  1.00  0.00    -0.354 N 
ATOM      4  C   UNL A   1      32.477  25.465  25.365  1.00  0.00     0.243 C 
ATOM      5  O   UNL A   1      31.411  25.021  25.797  1.00  0.00    -0.273 OA
ATOM      6  H   UNL A   1      33.125  23.636  24.905  1.00  0.00     0.163 HD
BRANCH   4   7
ATOM      7  C   UNL A   1      32.752  26.977  25.330  1.00  0.00     0.179 C 
ATOM      8  N   UNL A   1      31.589  27.912  25.282  1.00  0.00    -0.326 N 
ATOM      9  C   UNL A   1      31.586  29.074  26.181  1.00  0.00     0.156 C 
ATOM     10  C   UNL A   1      32.937  29.544  26.654  1.00  0.00    -0.025 A 
ATOM     11  C   UNL A   1      33.728  27.189  26.512  1.00  0.00     0.071 C 
ATOM     12  C   UNL A   1      33.130  30.876  27.047  1.00  0.00     0.006 A 
ATOM     13  C   UNL A   1      33.981  28.630  26.821  1.00  0.00    -0.040 A 
ATOM     14  C   UNL A   1      34.352  31.288  27.582  1.00  0.00     0.000 A 
ATOM     15  C   UNL A   1      35.202  29.042  27.370  1.00  0.00     0.004 A 
ATOM     16  C   UNL A   1      35.388  30.370  27.742  1.00  0.00     0.000 A 
BRANCH   8  17
ATOM     17  C   UNL A   1      30.714  27.979  24.191  1.00  0.00     0.225 C 
ATOM     18  O   UNL A   1      29.798  27.163  24.037  1.00  0.00    -0.275 OA
BRANCH  17  19
ATOM     19  C   UNL A   1      30.981  28.971  23.071  1.00  0.00     0.128 C 
BRANCH  19  20
ATOM     20  C   UNL A   1      29.760  29.700  22.558  1.00  0.00     0.169 C 
BRANCH  20  21
ATOM     21  O   UNL A   1      29.257  30.569  23.564  1.00  0.00    -0.384 OA
ATOM     22  C   UNL A   1      27.959  31.058  23.268  1.00  0.00     0.194 C 
ENDBRANCH  20  21
ENDBRANCH  19  20
ENDBRANCH  17  19
ENDBRANCH   8  17
ENDBRANCH   4   7
ENDBRANCH   2   3
ENDBRANCH   1   2
BRANCH   1  23
ATOM     23  C   UNL A   1      35.720  23.008  25.061  1.00  0.00     0.023 C 
BRANCH  23  24
ATOM     24  C   UNL A   1      37.028  23.428  25.713  1.00  0.00     0.116 C 
BRANCH  24  25
ATOM     25  N   UNL A   1      37.925  22.304  25.934  1.00  0.00    -0.352 N 
ATOM     26  C   UNL A   1      39.214  22.309  26.386  1.00  0.00     0.251 C 
ATOM     27  H   UNL A   1      37.550  21.417  25.730  1.00  0.00     0.163 HD
ATOM     28  O   UNL A   1      39.867  21.268  26.386  1.00  0.00    -0.269 OA
BRANCH  26  29
ATOM     29  C   UNL A   1      39.812  23.574  26.839  1.00  0.00     0.039 A 
ATOM     30  C   UNL A   1      40.581  23.571  28.001  1.00  0.00     0.014 A 
ATOM     31  C   UNL A   1      39.625  24.751  26.108  1.00  0.00     0.014 A 
ATOM     32  C   UNL A   1      41.181  24.753  28.422  1.00  0.00     0.010 A 
ATOM     33  C   UNL A   1      40.309  25.902  26.472  1.00  0.00     0.010 A 
ATOM     34  C   UNL A   1      41.059  25.924  27.654  1.00  0.00    -0.014 A 
BRANCH  34  35
ATOM     35  C   UNL A   1      41.655  27.196  28.119  1.00  0.00     0.031 A 
ATOM     36  C   UNL A   1      43.137  27.416  27.983  1.00  0.00     0.074 A 
ATOM     37  C   UNL A   1      40.866  28.140  28.665  1.00  0.00     0.049 A 
ATOM     38  N   UNL A   1      43.844  28.474  28.285  1.00  0.00    -0.248 NA
ATOM     39  C   UNL A   1      43.936  26.292  27.464  1.00  0.00     0.031 C 
ATOM     40  C   UNL A   1      39.421  28.018  28.878  1.00  0.00     0.029 A 
ATOM     41  N   UNL A   1      41.165  29.397  29.119  1.00  0.00    -0.354 N 
ATOM     42  C   UNL A   1      45.163  28.139  28.000  1.00  0.00     0.074 A 
ATOM     43  C   UNL A   1      45.168  26.757  27.581  1.00  0.00     0.031 C 
ATOM     44  C   UNL A   1      38.951  29.179  29.363  1.00  0.00     0.029 A 
ATOM     45  C   UNL A   1      40.063  30.108  29.532  1.00  0.00     0.049 A 
ATOM     46  H   UNL A   1      42.081  29.757  29.147  1.00  0.00     0.167 HD
ATOM     47  C   UNL A   1      46.268  28.920  28.050  1.00  0.00     0.031 A 
ATOM     48  C   UNL A   1      39.963  31.374  29.976  1.00  0.00     0.031 A 
ATOM     49  C   UNL A   1      46.251  30.293  28.471  1.00  0.00     0.049 A 
ATOM     50  C   UNL A   1      41.206  32.218  30.047  1.00  0.00     0.074 A 
ATOM     51  C   UNL A   1      47.302  31.191  28.532  1.00  0.00     0.029 A 
ATOM     52  N   UNL A   1      45.120  30.970  28.907  1.00  0.00    -0.354 N 
ATOM     53  N   UNL A   1      42.439  31.904  29.719  1.00  0.00    -0.248 NA
ATOM     54  C   UNL A   1      41.039  33.595  30.526  1.00  0.00     0.031 C 
ATOM     55  C   UNL A   1      46.816  32.394  29.056  1.00  0.00     0.029 A 
ATOM     56  C   UNL A   1      45.449  32.268  29.255  1.00  0.00     0.049 A 
ATOM     57  H   UNL A   1      44.216  30.582  28.958  1.00  0.00     0.167 HD
ATOM     58  C   UNL A   1      43.187  33.059  29.915  1.00  0.00     0.074 A 
ATOM     59  C   UNL A   1      42.265  34.077  30.378  1.00  0.00     0.031 C 
ATOM     60  C   UNL A   1      44.515  33.264  29.720  1.00  0.00     0.031 A 
BRANCH  47  61
ATOM     61  C   UNL A   1      47.576  28.285  27.648  1.00  0.00    -0.014 A 
ATOM     62  C   UNL A   1      48.010  28.296  26.308  1.00  0.00     0.010 A 
ATOM     63  C   UNL A   1      48.376  27.655  28.617  1.00  0.00     0.010 A 
ATOM     64  C   UNL A   1      49.180  27.630  25.935  1.00  0.00     0.020 A 
ATOM     65  C   UNL A   1      49.567  27.018  28.253  1.00  0.00     0.020 A 
ATOM     66  C   UNL A   1      49.948  26.988  26.910  1.00  0.00     0.054 A 
BRANCH  66  67
ATOM     67  S   UNL A   1      51.454  26.118  26.396  1.00  0.00     0.124 S 
ATOM     68  O   UNL A   1      52.496  26.918  27.036  1.00  0.00    -0.237 OA
ATOM     69  O   UNL A   1      51.259  24.782  26.953  1.00  0.00    -0.237 OA
ATOM     70  O   UNL A   1      51.419  26.193  24.938  1.00  0.00    -0.744 OA
ENDBRANCH  66  67
ENDBRANCH  47  61
BRANCH  48  71
ATOM     71  C   UNL A   1      38.630  31.935  30.327  1.00  0.00    -0.014 A 
ATOM     72  C   UNL A   1      38.106  31.762  31.621  1.00  0.00     0.010 A 
ATOM     73  C   UNL A   1      37.887  32.666  29.383  1.00  0.00     0.010 A 
ATOM     74  C   UNL A   1      36.858  32.291  31.958  1.00  0.00     0.020 A 
ATOM     75  C   UNL A   1      36.651  33.222  29.724  1.00  0.00     0.020 A 
ATOM     76  C   UNL A   1      36.140  33.021  31.008  1.00  0.00     0.054 A 
BRANCH  76  77
ATOM     77  S   UNL A   1      34.546  33.744  31.487  1.00  0.00     0.124 S 
ATOM     78  O   UNL A   1      33.973  32.691  32.321  1.00  0.00    -0.237 OA
ATOM     79  O   UNL A   1      34.949  34.959  32.189  1.00  0.00    -0.237 OA
ATOM     80  O   UNL A   1      33.873  33.966  30.209  1.00  0.00    -0.744 OA
ENDBRANCH  76  77
ENDBRANCH  48  71
BRANCH  60  81
ATOM     81  C   UNL A   1      45.037  34.656  29.957  1.00  0.00    -0.014 A 
ATOM     82  C   UNL A   1      45.525  35.059  31.213  1.00  0.00     0.010 A 
ATOM     83  C   UNL A   1      45.061  35.571  28.888  1.00  0.00     0.010 A 
ATOM     84  C   UNL A   1      45.977  36.366  31.407  1.00  0.00     0.020 A 
ATOM     85  C   UNL A   1      45.545  36.868  29.069  1.00  0.00     0.020 A 
ATOM     86  C   UNL A   1      45.980  37.264  30.335  1.00  0.00     0.054 A 
BRANCH  86  87
ATOM     87  S   UNL A   1      46.585  38.951  30.610  1.00  0.00     0.124 S 
ATOM     88  O   UNL A   1      47.367  39.194  29.401  1.00  0.00    -0.237 OA
ATOM     89  O   UNL A   1      45.348  39.720  30.724  1.00  0.00    -0.237 OA
ATOM     90  O   UNL A   1      47.361  38.843  31.843  1.00  0.00    -0.744 OA
ENDBRANCH  86  87
ENDBRANCH  60  81
ENDBRANCH  34  35
ENDBRANCH  26  29
ENDBRANCH  24  25
ENDBRANCH  23  24
ENDBRANCH   1  23
TORSDOF 18
ENDMDL
MODEL 2
REMARK VINA RESULT:     -10.1      2.926      9.457
REMARK SMILES COCCC(=O)N1Cc2ccccc2C[C@H]1C(=O)NCCCCNC(=O)c1ccc(-c2c3nc(c(-c4ccc(S(=O)(=O)[O-])cc4)c4ccc([nH]4)c(-c4ccc(S(=O)(=O)[O-])cc4)c4nc(c(-c5ccc(S(=O)(=O)[O-])cc5)c5ccc2[nH]5)C=C4)C=C3)cc1
REMARK SMILES IDX 21 1 20 2 19 3 17 4 18 5 16 7 7 8 8 9 9 10 15 11 10 12 14 13
REMARK SMILES IDX 11 14 13 15 12 16 5 17 6 18 4 19 3 20 2 21 1 22 22 23 23 24
REMARK SMILES IDX 24 25 25 26 26 28 27 29 28 30 86 31 29 32 85 33 30 34 31 35
REMARK SMILES IDX 32 36 79 37 33 38 84 39 78 40 80 41 34 42 83 43 77 44 76 45
REMARK SMILES IDX 35 47 65 48 46 49 64 50 47 51 50 52 63 53 81 54 48 55 49 56
REMARK SMILES IDX 62 58 82 59 51 60 36 61 37 62 45 63 38 64 44 65 39 66 40 67
REMARK SMILES IDX 41 68 42 69 43 70 66 71 67 72 75 73 68 74 74 75 69 76 70 77
REMARK SMILES IDX 71 78 72 79 73 80 52 81 53 82 61 83 54 84 60 85 55 86 56 87
REMARK SMILES IDX 57 88 58 89 59 90
REMARK H PARENT 19 6 24 27 80 46 50 57
REMARK Flexibility Score: inf
ROOT
ATOM      1  C   UNL A   1      34.660  28.767  26.186  1.00  0.00     0.023 C 
ENDROOT
BRANCH   1   2
ATOM      2  C   UNL A   1      33.741  27.633  25.742  1.00  0.00     0.116 C 
BRANCH   2   3
ATOM      3  N   UNL A   1      33.668  27.460  24.308  1.00  0.00    -0.354 N 
ATOM      4  C   UNL A   1      33.500  26.315  23.587  1.00  0.00     0.243 C 
ATOM      5  O   UNL A   1      33.134  26.437  22.415  1.00  0.00    -0.273 OA
ATOM      6  H   UNL A   1      33.752  28.284  23.779  1.00  0.00     0.163 HD
BRANCH   4   7
ATOM      7  C   UNL A   1      33.536  24.939  24.269  1.00  0.00     0.179 C 
ATOM      8  N   UNL A   1      32.496  23.933  23.900  1.00  0.00    -0.326 N 
ATOM      9  C   UNL A   1      32.922  22.554  23.623  1.00  0.00     0.156 C 
ATOM     10  C   UNL A   1      34.221  22.126  24.255  1.00  0.00    -0.025 A 
ATOM     11  C   UNL A   1      35.001  24.482  24.075  1.00  0.00     0.071 C 
ATOM     12  C   UNL A   1      34.472  20.773  24.520  1.00  0.00     0.006 A 
ATOM     13  C   UNL A   1      35.237  23.060  24.473  1.00  0.00    -0.040 A 
ATOM     14  C   UNL A   1      35.714  20.365  25.009  1.00  0.00     0.000 A 
ATOM     15  C   UNL A   1      36.487  22.647  24.953  1.00  0.00     0.004 A 
ATOM     16  C   UNL A   1      36.721  21.303  25.227  1.00  0.00     0.000 A 
BRANCH   8  17
ATOM     17  C   UNL A   1      31.136  24.110  24.179  1.00  0.00     0.225 C 
ATOM     18  O   UNL A   1      30.278  24.090  23.289  1.00  0.00    -0.275 OA
BRANCH  17  19
ATOM     19  C   UNL A   1      30.699  24.503  25.581  1.00  0.00     0.128 C 
BRANCH  19  20
ATOM     20  C   UNL A   1      30.313  23.349  26.478  1.00  0.00     0.169 C 
BRANCH  20  21
ATOM     21  O   UNL A   1      31.152  23.325  27.625  1.00  0.00    -0.384 OA
ATOM     22  C   UNL A   1      32.486  22.951  27.321  1.00  0.00     0.194 C 
ENDBRANCH  20  21
ENDBRANCH  19  20
ENDBRANCH  17  19
ENDBRANCH   8  17
ENDBRANCH   4   7
ENDBRANCH   2   3
ENDBRANCH   1   2
BRANCH   1  23
ATOM     23  C   UNL A   1      34.400  29.289  27.597  1.00  0.00     0.023 C 
BRANCH  23  24
ATOM     24  C   UNL A   1      35.492  30.200  28.135  1.00  0.00     0.116 C 
BRANCH  24  25
ATOM     25  N   UNL A   1      35.493  30.266  29.589  1.00  0.00    -0.352 N 
ATOM     26  C   UNL A   1      36.496  29.956  30.463  1.00  0.00     0.251 C 
ATOM     27  H   UNL A   1      34.654  30.578  29.999  1.00  0.00     0.163 HD
ATOM     28  O   UNL A   1      36.274  29.946  31.671  1.00  0.00    -0.269 OA
BRANCH  26  29
ATOM     29  C   UNL A   1      37.824  29.606  29.936  1.00  0.00     0.039 A 
ATOM     30  C   UNL A   1      38.093  29.846  28.590  1.00  0.00     0.014 A 
ATOM     31  C   UNL A   1      38.802  29.061  30.775  1.00  0.00     0.014 A 
ATOM     32  C   UNL A   1      39.356  29.553  28.086  1.00  0.00     0.010 A 
ATOM     33  C   UNL A   1      40.089  28.868  30.295  1.00  0.00     0.010 A 
ATOM     34  C   UNL A   1      40.367  29.073  28.938  1.00  0.00    -0.014 A 
BRANCH  34  35
ATOM     35  C   UNL A   1      41.698  28.715  28.401  1.00  0.00     0.031 A 
ATOM     36  C   UNL A   1      42.779  29.759  28.336  1.00  0.00     0.074 A 
ATOM     37  C   UNL A   1      41.926  27.460  27.970  1.00  0.00     0.049 A 
ATOM     38  N   UNL A   1      44.021  29.637  27.945  1.00  0.00    -0.248 NA
ATOM     39  C   UNL A   1      42.412  31.128  28.739  1.00  0.00     0.031 C 
ATOM     40  C   UNL A   1      40.939  26.377  27.953  1.00  0.00     0.029 A 
ATOM     41  N   UNL A   1      43.067  26.879  27.483  1.00  0.00    -0.354 N 
ATOM     42  C   UNL A   1      44.574  30.907  28.048  1.00  0.00     0.074 A 
ATOM     43  C   UNL A   1      43.515  31.800  28.458  1.00  0.00     0.031 C 
ATOM     44  C   UNL A   1      41.536  25.247  27.539  1.00  0.00     0.029 A 
ATOM     45  C   UNL A   1      42.931  25.536  27.225  1.00  0.00     0.049 A 
ATOM     46  H   UNL A   1      43.903  27.376  27.333  1.00  0.00     0.167 HD
ATOM     47  C   UNL A   1      45.858  31.294  27.853  1.00  0.00     0.031 A 
ATOM     48  C   UNL A   1      43.840  24.637  26.802  1.00  0.00     0.031 A 
ATOM     49  C   UNL A   1      46.903  30.398  27.443  1.00  0.00     0.049 A 
ATOM     50  C   UNL A   1      45.254  25.092  26.567  1.00  0.00     0.074 A 
ATOM     51  C   UNL A   1      48.244  30.669  27.243  1.00  0.00     0.029 A 
ATOM     52  N   UNL A   1      46.720  29.050  27.165  1.00  0.00    -0.354 N 
ATOM     53  N   UNL A   1      45.776  26.286  26.724  1.00  0.00    -0.248 NA
ATOM     54  C   UNL A   1      46.207  24.068  26.119  1.00  0.00     0.031 C 
ATOM     55  C   UNL A   1      48.863  29.497  26.793  1.00  0.00     0.029 A 
ATOM     56  C   UNL A   1      47.921  28.479  26.780  1.00  0.00     0.049 A 
ATOM     57  H   UNL A   1      45.863  28.570  27.235  1.00  0.00     0.167 HD
ATOM     58  C   UNL A   1      47.128  26.149  26.434  1.00  0.00     0.074 A 
ATOM     59  C   UNL A   1      47.342  24.754  26.102  1.00  0.00     0.031 C 
ATOM     60  C   UNL A   1      48.109  27.088  26.449  1.00  0.00     0.031 A 
BRANCH  47  61
ATOM     61  C   UNL A   1      46.177  32.752  28.073  1.00  0.00    -0.014 A 
ATOM     62  C   UNL A   1      46.392  33.264  29.367  1.00  0.00     0.010 A 
ATOM     63  C   UNL A   1      46.247  33.627  26.975  1.00  0.00     0.010 A 
ATOM     64  C   UNL A   1      46.602  34.631  29.565  1.00  0.00     0.020 A 
ATOM     65  C   UNL A   1      46.493  34.991  27.165  1.00  0.00     0.020 A 
ATOM     66  C   UNL A   1      46.642  35.487  28.462  1.00  0.00     0.054 A 
BRANCH  66  67
ATOM     67  S   UNL A   1      46.901  37.260  28.747  1.00  0.00     0.124 S 
ATOM     68  O   UNL A   1      46.628  37.376  30.178  1.00  0.00    -0.237 OA
ATOM     69  O   UNL A   1      48.295  37.448  28.357  1.00  0.00    -0.237 OA
ATOM     70  O   UNL A   1      45.921  37.899  27.873  1.00  0.00    -0.744 OA
ENDBRANCH  66  67
ENDBRANCH  47  61
BRANCH  48  71
ATOM     71  C   UNL A   1      43.451  23.210  26.636  1.00  0.00    -0.014 A 
ATOM     72  C   UNL A   1      43.457  22.618  25.361  1.00  0.00     0.010 A 
ATOM     73  C   UNL A   1      43.097  22.428  27.750  1.00  0.00     0.010 A 
ATOM     74  C   UNL A   1      43.098  21.277  25.199  1.00  0.00     0.020 A 
ATOM     75  C   UNL A   1      42.766  21.079  27.597  1.00  0.00     0.020 A 
ATOM     76  C   UNL A   1      42.758  20.515  26.320  1.00  0.00     0.054 A 
BRANCH  76  77
ATOM     77  S   UNL A   1      42.349  18.762  26.090  1.00  0.00     0.124 S 
ATOM     78  O   UNL A   1      40.930  18.823  25.750  1.00  0.00    -0.237 OA
ATOM     79  O   UNL A   1      43.244  18.369  25.005  1.00  0.00    -0.237 OA
ATOM     80  O   UNL A   1      42.657  18.166  27.387  1.00  0.00    -0.744 OA
ENDBRANCH  76  77
ENDBRANCH  48  71
BRANCH  60  81
ATOM     81  C   UNL A   1      49.509  26.623  26.148  1.00  0.00    -0.014 A 
ATOM     82  C   UNL A   1      50.093  26.807  24.882  1.00  0.00     0.010 A 
ATOM     83  C   UNL A   1      50.263  26.012  27.167  1.00  0.00     0.010 A 
ATOM     84  C   UNL A   1      51.385  26.340  24.627  1.00  0.00     0.020 A 
ATOM     85  C   UNL A   1      51.567  25.575  26.926  1.00  0.00     0.020 A 
ATOM     86  C   UNL A   1      52.112  25.723  25.650  1.00  0.00     0.054 A 
BRANCH  86  87
ATOM     87  S   UNL A   1      53.791  25.138  25.297  1.00  0.00     0.124 S 
ATOM     88  O   UNL A   1      54.563  25.770  26.363  1.00  0.00    -0.237 OA
ATOM     89  O   UNL A   1      53.653  23.687  25.396  1.00  0.00    -0.237 OA
ATOM     90  O   UNL A   1      54.058  25.642  23.951  1.00  0.00    -0.744 OA
ENDBRANCH  86  87
ENDBRANCH  60  81
ENDBRANCH  34  35
ENDBRANCH  26  29
ENDBRANCH  24  25
ENDBRANCH  23  24
ENDBRANCH   1  23
TORSDOF 18
ENDMDL
MODEL 3
REMARK VINA RESULT:      -9.9      1.126      2.724
REMARK SMILES COCCC(=O)N1Cc2ccccc2C[C@H]1C(=O)NCCCCNC(=O)c1ccc(-c2c3nc(c(-c4ccc(S(=O)(=O)[O-])cc4)c4ccc([nH]4)c(-c4ccc(S(=O)(=O)[O-])cc4)c4nc(c(-c5ccc(S(=O)(=O)[O-])cc5)c5ccc2[nH]5)C=C4)C=C3)cc1
REMARK SMILES IDX 21 1 20 2 19 3 17 4 18 5 16 7 7 8 8 9 9 10 15 11 10 12 14 13
REMARK SMILES IDX 11 14 13 15 12 16 5 17 6 18 4 19 3 20 2 21 1 22 22 23 23 24
REMARK SMILES IDX 24 25 25 26 26 28 27 29 28 30 86 31 29 32 85 33 30 34 31 35
REMARK SMILES IDX 32 36 79 37 33 38 84 39 78 40 80 41 34 42 83 43 77 44 76 45
REMARK SMILES IDX 35 47 65 48 46 49 64 50 47 51 50 52 63 53 81 54 48 55 49 56
REMARK SMILES IDX 62 58 82 59 51 60 36 61 37 62 45 63 38 64 44 65 39 66 40 67
REMARK SMILES IDX 41 68 42 69 43 70 66 71 67 72 75 73 68 74 74 75 69 76 70 77
REMARK SMILES IDX 71 78 72 79 73 80 52 81 53 82 61 83 54 84 60 85 55 86 56 87
REMARK SMILES IDX 57 88 58 89 59 90
REMARK H PARENT 19 6 24 27 80 46 50 57
REMARK Flexibility Score: inf
ROOT
ATOM      1  C   UNL A   1      34.568  24.178  24.124  1.00  0.00     0.023 C 
ENDROOT
BRANCH   1   2
ATOM      2  C   UNL A   1      33.131  24.689  24.183  1.00  0.00     0.116 C 
BRANCH   2   3
ATOM      3  N   UNL A   1      32.460  24.413  25.433  1.00  0.00    -0.354 N 
ATOM      4  C   UNL A   1      31.504  25.143  26.076  1.00  0.00     0.243 C 
ATOM      5  O   UNL A   1      30.839  24.564  26.939  1.00  0.00    -0.273 OA
ATOM      6  H   UNL A   1      32.730  23.582  25.884  1.00  0.00     0.163 HD
BRANCH   4   7
ATOM      7  C   UNL A   1      31.116  26.546  25.583  1.00  0.00     0.179 C 
ATOM      8  N   UNL A   1      32.181  27.418  25.005  1.00  0.00    -0.326 N 
ATOM      9  C   UNL A   1      31.901  28.128  23.749  1.00  0.00     0.156 C 
ATOM     10  C   UNL A   1      30.447  28.378  23.444  1.00  0.00    -0.025 A 
ATOM     11  C   UNL A   1      29.903  26.276  24.661  1.00  0.00     0.071 C 
ATOM     12  C   UNL A   1      30.066  29.446  22.620  1.00  0.00     0.006 A 
ATOM     13  C   UNL A   1      29.471  27.478  23.882  1.00  0.00    -0.040 A 
ATOM     14  C   UNL A   1      28.729  29.618  22.254  1.00  0.00     0.000 A 
ATOM     15  C   UNL A   1      28.133  27.645  23.504  1.00  0.00     0.004 A 
ATOM     16  C   UNL A   1      27.764  28.718  22.697  1.00  0.00     0.000 A 
BRANCH   8  17
ATOM     17  C   UNL A   1      33.254  27.907  25.760  1.00  0.00     0.225 C 
ATOM     18  O   UNL A   1      34.022  27.154  26.368  1.00  0.00    -0.275 OA
BRANCH  17  19
ATOM     19  C   UNL A   1      33.397  29.403  25.983  1.00  0.00     0.128 C 
BRANCH  19  20
ATOM     20  C   UNL A   1      32.668  29.942  27.194  1.00  0.00     0.169 C 
BRANCH  20  21
ATOM     21  O   UNL A   1      33.190  31.217  27.545  1.00  0.00    -0.384 OA
ATOM     22  C   UNL A   1      34.605  31.222  27.645  1.00  0.00     0.194 C 
ENDBRANCH  20  21
ENDBRANCH  19  20
ENDBRANCH  17  19
ENDBRANCH   8  17
ENDBRANCH   4   7
ENDBRANCH   2   3
ENDBRANCH   1   2
BRANCH   1  23
ATOM     23  C   UNL A   1      35.103  23.614  25.439  1.00  0.00     0.023 C 
BRANCH  23  24
ATOM     24  C   UNL A   1      36.539  24.007  25.746  1.00  0.00     0.116 C 
BRANCH  24  25
ATOM     25  N   UNL A   1      37.408  22.851  25.905  1.00  0.00    -0.352 N 
ATOM     26  C   UNL A   1      38.703  22.801  26.340  1.00  0.00     0.251 C 
ATOM     27  H   UNL A   1      37.008  21.984  25.665  1.00  0.00     0.163 HD
ATOM     28  O   UNL A   1      39.327  21.745  26.285  1.00  0.00    -0.269 OA
BRANCH  26  29
ATOM     29  C   UNL A   1      39.339  24.029  26.842  1.00  0.00     0.039 A 
ATOM     30  C   UNL A   1      39.899  24.914  25.923  1.00  0.00     0.014 A 
ATOM     31  C   UNL A   1      39.364  24.309  28.212  1.00  0.00     0.014 A 
ATOM     32  C   UNL A   1      40.473  26.096  26.380  1.00  0.00     0.010 A 
ATOM     33  C   UNL A   1      39.842  25.533  28.654  1.00  0.00     0.010 A 
ATOM     34  C   UNL A   1      40.438  26.420  27.748  1.00  0.00    -0.014 A 
BRANCH  34  35
ATOM     35  C   UNL A   1      41.087  27.651  28.248  1.00  0.00     0.031 A 
ATOM     36  C   UNL A   1      42.578  27.808  28.126  1.00  0.00     0.074 A 
ATOM     37  C   UNL A   1      40.338  28.615  28.815  1.00  0.00     0.049 A 
ATOM     38  N   UNL A   1      43.330  28.825  28.459  1.00  0.00    -0.248 NA
ATOM     39  C   UNL A   1      43.329  26.663  27.582  1.00  0.00     0.031 C 
ATOM     40  C   UNL A   1      38.888  28.553  29.018  1.00  0.00     0.029 A 
ATOM     41  N   UNL A   1      40.690  29.846  29.303  1.00  0.00    -0.354 N 
ATOM     42  C   UNL A   1      44.634  28.437  28.173  1.00  0.00     0.074 A 
ATOM     43  C   UNL A   1      44.581  27.068  27.717  1.00  0.00     0.031 C 
ATOM     44  C   UNL A   1      38.467  29.720  29.531  1.00  0.00     0.029 A 
ATOM     45  C   UNL A   1      39.619  30.594  29.729  1.00  0.00     0.049 A 
ATOM     46  H   UNL A   1      41.621  30.163  29.345  1.00  0.00     0.167 HD
ATOM     47  C   UNL A   1      45.773  29.166  28.248  1.00  0.00     0.031 A 
ATOM     48  C   UNL A   1      39.573  31.852  30.206  1.00  0.00     0.031 A 
ATOM     49  C   UNL A   1      45.816  30.528  28.704  1.00  0.00     0.049 A 
ATOM     50  C   UNL A   1      40.853  32.636  30.305  1.00  0.00     0.074 A 
ATOM     51  C   UNL A   1      46.905  31.375  28.794  1.00  0.00     0.029 A 
ATOM     52  N   UNL A   1      44.713  31.243  29.152  1.00  0.00    -0.354 N 
ATOM     53  N   UNL A   1      42.071  32.276  29.976  1.00  0.00    -0.248 NA
ATOM     54  C   UNL A   1      40.744  34.007  30.819  1.00  0.00     0.031 C 
ATOM     55  C   UNL A   1      46.470  32.585  29.348  1.00  0.00     0.029 A 
ATOM     56  C   UNL A   1      45.098  32.515  29.536  1.00  0.00     0.049 A 
ATOM     57  H   UNL A   1      43.793  30.896  29.189  1.00  0.00     0.167 HD
ATOM     58  C   UNL A   1      42.869  33.390  30.205  1.00  0.00     0.074 A 
ATOM     59  C   UNL A   1      41.992  34.437  30.690  1.00  0.00     0.031 C 
ATOM     60  C   UNL A   1      44.206  33.540  30.022  1.00  0.00     0.031 A 
BRANCH  47  61
ATOM     61  C   UNL A   1      47.054  28.484  27.836  1.00  0.00    -0.014 A 
ATOM     62  C   UNL A   1      47.515  28.541  26.506  1.00  0.00     0.010 A 
ATOM     63  C   UNL A   1      47.800  27.762  28.784  1.00  0.00     0.010 A 
ATOM     64  C   UNL A   1      48.656  27.834  26.119  1.00  0.00     0.020 A 
ATOM     65  C   UNL A   1      48.963  27.082  28.409  1.00  0.00     0.020 A 
ATOM     66  C   UNL A   1      49.368  27.101  27.072  1.00  0.00     0.054 A 
BRANCH  66  67
ATOM     67  S   UNL A   1      50.837  26.179  26.540  1.00  0.00     0.124 S 
ATOM     68  O   UNL A   1      50.524  25.898  25.141  1.00  0.00    -0.237 OA
ATOM     69  O   UNL A   1      51.915  27.139  26.761  1.00  0.00    -0.237 OA
ATOM     70  O   UNL A   1      50.854  25.015  27.421  1.00  0.00    -0.744 OA
ENDBRANCH  66  67
ENDBRANCH  47  61
BRANCH  48  71
ATOM     71  C   UNL A   1      38.264  32.463  30.565  1.00  0.00    -0.014 A 
ATOM     72  C   UNL A   1      37.782  32.381  31.883  1.00  0.00     0.010 A 
ATOM     73  C   UNL A   1      37.504  33.150  29.602  1.00  0.00     0.010 A 
ATOM     74  C   UNL A   1      36.556  32.958  32.228  1.00  0.00     0.020 A 
ATOM     75  C   UNL A   1      36.293  33.754  29.948  1.00  0.00     0.020 A 
ATOM     76  C   UNL A   1      35.821  33.644  31.258  1.00  0.00     0.054 A 
BRANCH  76  77
ATOM     77  S   UNL A   1      34.260  34.430  31.743  1.00  0.00     0.124 S 
ATOM     78  O   UNL A   1      33.584  34.583  30.457  1.00  0.00    -0.237 OA
ATOM     79  O   UNL A   1      33.679  33.445  32.651  1.00  0.00    -0.237 OA
ATOM     80  O   UNL A   1      34.686  35.675  32.377  1.00  0.00    -0.744 OA
ENDBRANCH  76  77
ENDBRANCH  48  71
BRANCH  60  81
ATOM     81  C   UNL A   1      44.789  34.901  30.298  1.00  0.00    -0.014 A 
ATOM     82  C   UNL A   1      44.850  35.895  29.305  1.00  0.00     0.010 A 
ATOM     83  C   UNL A   1      45.263  35.194  31.590  1.00  0.00     0.010 A 
ATOM     84  C   UNL A   1      45.422  37.138  29.586  1.00  0.00     0.020 A 
ATOM     85  C   UNL A   1      45.804  36.448  31.884  1.00  0.00     0.020 A 
ATOM     86  C   UNL A   1      45.899  37.405  30.873  1.00  0.00     0.054 A 
BRANCH  86  87
ATOM     87  S   UNL A   1      46.625  39.031  31.216  1.00  0.00     0.124 S 
ATOM     88  O   UNL A   1      45.605  39.646  32.062  1.00  0.00    -0.237 OA
ATOM     89  O   UNL A   1      47.876  38.688  31.887  1.00  0.00    -0.237 OA
ATOM     90  O   UNL A   1      46.778  39.627  29.891  1.00  0.00    -0.744 OA
ENDBRANCH  86  87
ENDBRANCH  60  81
ENDBRANCH  34  35
ENDBRANCH  26  29
ENDBRANCH  24  25
ENDBRANCH  23  24
ENDBRANCH   1  23
TORSDOF 18
ENDMDL
