MODEL 1
REMARK VINA RESULT:     -10.7      0.000      0.000
REMARK SMILES CC(C)[C@H](NC(=O)OCc1ccccc1)C(=O)NCC(=O)NCCCCNC(=O)c1ccc(-c2c3nc(c(-c4ccc(S(=O)(=O)[O-])cc4)c4ccc([nH]4)c(-c4ccc(S(=O)(=O)[O-])cc4)c4nc(c(-c5ccc(S(=O)(=O)[O-])cc5)c5ccc2[nH]5)C=C4)C=C3)cc1
REMARK SMILES IDX 23 1 22 2 20 3 21 4 19 6 18 7 16 8 17 9 4 11 2 12 1 13 3 14
REMARK SMILES IDX 5 15 6 16 7 18 8 19 9 20 10 21 11 22 15 23 12 24 14 25 13 26
REMARK SMILES IDX 24 27 25 28 26 29 27 30 28 31 29 33 30 34 31 35 89 36 32 37
REMARK SMILES IDX 88 38 33 39 34 40 35 41 82 42 36 43 87 44 81 45 83 46 37 47
REMARK SMILES IDX 86 48 80 49 79 50 38 52 68 53 49 54 67 55 50 56 53 57 66 58
REMARK SMILES IDX 84 59 51 60 52 61 65 63 85 64 54 65 39 66 40 67 48 68 41 69
REMARK SMILES IDX 47 70 42 71 43 72 44 73 45 74 46 75 69 76 70 77 78 78 71 79
REMARK SMILES IDX 77 80 72 81 73 82 74 83 75 84 76 85 55 86 56 87 64 88 57 89
REMARK SMILES IDX 63 90 58 91 59 92 60 93 61 94 62 95
REMARK H PARENT 22 5 18 10 5 17 27 32 83 51 53 62
REMARK Flexibility Score: inf
ROOT
ATOM      1  C   UNL A   1      31.932  29.169  26.910  1.00  0.00     0.116 C 
ENDROOT
BRANCH   1   2
ATOM      2  N   UNL A   1      31.330  28.600  25.712  1.00  0.00    -0.355 N 
ATOM      3  C   UNL A   1      31.375  27.301  25.281  1.00  0.00     0.239 C 
ATOM      4  O   UNL A   1      30.958  27.014  24.158  1.00  0.00    -0.273 OA
ATOM      5  H   UNL A   1      30.830  29.226  25.142  1.00  0.00     0.163 HD
BRANCH   3   6
ATOM      6  C   UNL A   1      31.939  26.233  26.217  1.00  0.00     0.216 C 
BRANCH   6   7
ATOM      7  N   UNL A   1      30.964  25.273  26.673  1.00  0.00    -0.345 N 
ATOM      8  C   UNL A   1      30.975  23.919  26.577  1.00  0.00     0.243 C 
ATOM      9  O   UNL A   1      30.102  23.309  27.209  1.00  0.00    -0.273 OA
ATOM     10  H   UNL A   1      30.175  25.656  27.119  1.00  0.00     0.164 HD
BRANCH   8  11
ATOM     11  C   UNL A   1      32.012  23.111  25.733  1.00  0.00     0.177 C 
BRANCH  11  12
ATOM     12  C   UNL A   1      31.979  23.317  24.175  1.00  0.00     0.015 C 
ATOM     13  C   UNL A   1      30.664  23.774  23.516  1.00  0.00     0.010 C 
ATOM     14  C   UNL A   1      33.130  24.185  23.660  1.00  0.00     0.010 C 
ENDBRANCH  11  12
BRANCH  11  15
ATOM     15  N   UNL A   1      32.187  21.705  26.106  1.00  0.00    -0.309 N 
ATOM     16  C   UNL A   1      33.347  20.972  26.062  1.00  0.00     0.408 C 
ATOM     17  H   UNL A   1      31.383  21.234  26.423  1.00  0.00     0.167 HD
ATOM     18  O   UNL A   1      33.284  19.749  26.030  1.00  0.00    -0.225 OA
BRANCH  16  19
ATOM     19  O   UNL A   1      34.472  21.707  26.186  1.00  0.00    -0.445 OA
BRANCH  19  20
ATOM     20  C   UNL A   1      35.520  21.483  25.215  1.00  0.00     0.270 C 
BRANCH  20  21
ATOM     21  C   UNL A   1      36.821  22.157  25.614  1.00  0.00    -0.011 A 
ATOM     22  C   UNL A   1      38.017  21.419  25.663  1.00  0.00     0.007 A 
ATOM     23  C   UNL A   1      36.875  23.519  25.938  1.00  0.00     0.007 A 
ATOM     24  C   UNL A   1      39.206  22.009  26.110  1.00  0.00     0.000 A 
ATOM     25  C   UNL A   1      38.060  24.107  26.393  1.00  0.00     0.000 A 
ATOM     26  C   UNL A   1      39.222  23.348  26.494  1.00  0.00     0.000 A 
ENDBRANCH  20  21
ENDBRANCH  19  20
ENDBRANCH  16  19
ENDBRANCH  11  15
ENDBRANCH   8  11
ENDBRANCH   6   7
ENDBRANCH   3   6
ENDBRANCH   1   2
BRANCH   1  27
ATOM     27  C   UNL A   1      33.235  29.876  26.569  1.00  0.00     0.023 C 
BRANCH  27  28
ATOM     28  C   UNL A   1      34.445  29.246  27.241  1.00  0.00     0.023 C 
BRANCH  28  29
ATOM     29  C   UNL A   1      35.448  30.270  27.733  1.00  0.00     0.116 C 
BRANCH  29  30
ATOM     30  N   UNL A   1      35.335  30.536  29.166  1.00  0.00    -0.352 N 
ATOM     31  C   UNL A   1      36.271  30.506  30.180  1.00  0.00     0.251 C 
ATOM     32  H   UNL A   1      34.428  30.780  29.461  1.00  0.00     0.163 HD
ATOM     33  O   UNL A   1      35.906  30.688  31.340  1.00  0.00    -0.269 OA
BRANCH  31  34
ATOM     34  C   UNL A   1      37.701  30.202  29.914  1.00  0.00     0.039 A 
ATOM     35  C   UNL A   1      38.484  29.639  30.930  1.00  0.00     0.014 A 
ATOM     36  C   UNL A   1      38.289  30.452  28.680  1.00  0.00     0.014 A 
ATOM     37  C   UNL A   1      39.806  29.249  30.671  1.00  0.00     0.010 A 
ATOM     38  C   UNL A   1      39.528  29.907  28.373  1.00  0.00     0.010 A 
ATOM     39  C   UNL A   1      40.324  29.325  29.369  1.00  0.00    -0.014 A 
BRANCH  39  40
ATOM     40  C   UNL A   1      41.696  28.872  29.006  1.00  0.00     0.031 A 
ATOM     41  C   UNL A   1      42.831  29.873  28.999  1.00  0.00     0.074 A 
ATOM     42  C   UNL A   1      41.917  27.613  28.574  1.00  0.00     0.049 A 
ATOM     43  N   UNL A   1      44.038  29.759  28.508  1.00  0.00    -0.248 NA
ATOM     44  C   UNL A   1      42.544  31.203  29.567  1.00  0.00     0.031 C 
ATOM     45  C   UNL A   1      40.913  26.550  28.486  1.00  0.00     0.029 A 
ATOM     46  N   UNL A   1      43.067  27.017  28.114  1.00  0.00    -0.354 N 
ATOM     47  C   UNL A   1      44.621  31.016  28.644  1.00  0.00     0.074 A 
ATOM     48  C   UNL A   1      43.615  31.890  29.204  1.00  0.00     0.031 C 
ATOM     49  C   UNL A   1      41.499  25.425  28.043  1.00  0.00     0.029 A 
ATOM     50  C   UNL A   1      42.903  25.699  27.758  1.00  0.00     0.049 A 
ATOM     51  H   UNL A   1      43.927  27.491  28.045  1.00  0.00     0.167 HD
ATOM     52  C   UNL A   1      45.887  31.405  28.359  1.00  0.00     0.031 A 
ATOM     53  C   UNL A   1      43.781  24.811  27.252  1.00  0.00     0.031 A 
ATOM     54  C   UNL A   1      46.906  30.516  27.878  1.00  0.00     0.049 A 
ATOM     55  C   UNL A   1      45.197  25.247  26.990  1.00  0.00     0.074 A 
ATOM     56  C   UNL A   1      48.242  30.785  27.640  1.00  0.00     0.029 A 
ATOM     57  N   UNL A   1      46.707  29.175  27.583  1.00  0.00    -0.354 N 
ATOM     58  N   UNL A   1      45.738  26.430  27.157  1.00  0.00    -0.248 NA
ATOM     59  C   UNL A   1      46.122  24.226  26.480  1.00  0.00     0.031 C 
ATOM     60  C   UNL A   1      48.844  29.613  27.168  1.00  0.00     0.029 A 
ATOM     61  C   UNL A   1      47.893  28.604  27.159  1.00  0.00     0.049 A 
ATOM     62  H   UNL A   1      45.848  28.701  27.663  1.00  0.00     0.167 HD
ATOM     63  C   UNL A   1      47.075  26.288  26.800  1.00  0.00     0.074 A 
ATOM     64  C   UNL A   1      47.261  24.904  26.417  1.00  0.00     0.031 C 
ATOM     65  C   UNL A   1      48.059  27.221  26.791  1.00  0.00     0.031 A 
BRANCH  52  66
ATOM     66  C   UNL A   1      46.232  32.858  28.576  1.00  0.00    -0.014 A 
ATOM     67  C   UNL A   1      46.775  33.306  29.795  1.00  0.00     0.010 A 
ATOM     68  C   UNL A   1      46.010  33.790  27.546  1.00  0.00     0.010 A 
ATOM     69  C   UNL A   1      47.022  34.665  30.005  1.00  0.00     0.020 A 
ATOM     70  C   UNL A   1      46.291  35.146  27.740  1.00  0.00     0.020 A 
ATOM     71  C   UNL A   1      46.770  35.578  28.979  1.00  0.00     0.054 A 
BRANCH  71  72
ATOM     72  S   UNL A   1      47.093  37.337  29.279  1.00  0.00     0.124 S 
ATOM     73  O   UNL A   1      46.460  37.539  30.581  1.00  0.00    -0.237 OA
ATOM     74  O   UNL A   1      48.552  37.402  29.275  1.00  0.00    -0.237 OA
ATOM     75  O   UNL A   1      46.438  38.007  28.159  1.00  0.00    -0.744 OA
ENDBRANCH  71  72
ENDBRANCH  52  66
BRANCH  53  76
ATOM     76  C   UNL A   1      43.352  23.408  26.997  1.00  0.00    -0.014 A 
ATOM     77  C   UNL A   1      43.317  22.909  25.683  1.00  0.00     0.010 A 
ATOM     78  C   UNL A   1      43.013  22.552  28.062  1.00  0.00     0.010 A 
ATOM     79  C   UNL A   1      42.942  21.586  25.435  1.00  0.00     0.020 A 
ATOM     80  C   UNL A   1      42.662  21.220  27.820  1.00  0.00     0.020 A 
ATOM     81  C   UNL A   1      42.621  20.747  26.506  1.00  0.00     0.054 A 
BRANCH  81  82
ATOM     82  S   UNL A   1      42.204  19.015  26.163  1.00  0.00     0.124 S 
ATOM     83  O   UNL A   1      40.788  19.105  25.821  1.00  0.00    -0.237 OA
ATOM     84  O   UNL A   1      43.102  18.687  25.060  1.00  0.00    -0.237 OA
ATOM     85  O   UNL A   1      42.503  18.336  27.422  1.00  0.00    -0.744 OA
ENDBRANCH  81  82
ENDBRANCH  53  76
BRANCH  65  86
ATOM     86  C   UNL A   1      49.439  26.770  26.397  1.00  0.00    -0.014 A 
ATOM     87  C   UNL A   1      50.291  26.139  27.319  1.00  0.00     0.010 A 
ATOM     88  C   UNL A   1      49.856  26.915  25.060  1.00  0.00     0.010 A 
ATOM     89  C   UNL A   1      51.549  25.683  26.917  1.00  0.00     0.020 A 
ATOM     90  C   UNL A   1      51.102  26.437  24.650  1.00  0.00     0.020 A 
ATOM     91  C   UNL A   1      51.945  25.832  25.584  1.00  0.00     0.054 A 
BRANCH  91  92
ATOM     92  S   UNL A   1      53.558  25.178  25.074  1.00  0.00     0.124 S 
ATOM     93  O   UNL A   1      54.465  25.847  26.003  1.00  0.00    -0.237 OA
ATOM     94  O   UNL A   1      53.399  23.740  25.277  1.00  0.00    -0.237 OA
ATOM     95  O   UNL A   1      53.675  25.596  23.679  1.00  0.00    -0.744 OA
ENDBRANCH  91  92
ENDBRANCH  65  86
ENDBRANCH  39  40
ENDBRANCH  31  34
ENDBRANCH  29  30
ENDBRANCH  28  29
ENDBRANCH  27  28
ENDBRANCH   1  27
TORSDOF 21
ENDMDL
MODEL 2
REMARK VINA RESULT:     -10.7      2.919      4.030
REMARK SMILES CC(C)[C@H](NC(=O)OCc1ccccc1)C(=O)NCC(=O)NCCCCNC(=O)c1ccc(-c2c3nc(c(-c4ccc(S(=O)(=O)[O-])cc4)c4ccc([nH]4)c(-c4ccc(S(=O)(=O)[O-])cc4)c4nc(c(-c5ccc(S(=O)(=O)[O-])cc5)c5ccc2[nH]5)C=C4)C=C3)cc1
REMARK SMILES IDX 23 1 22 2 20 3 21 4 19 6 18 7 16 8 17 9 4 11 2 12 1 13 3 14
REMARK SMILES IDX 5 15 6 16 7 18 8 19 9 20 10 21 11 22 15 23 12 24 14 25 13 26
REMARK SMILES IDX 24 27 25 28 26 29 27 30 28 31 29 33 30 34 31 35 89 36 32 37
REMARK SMILES IDX 88 38 33 39 34 40 35 41 82 42 36 43 87 44 81 45 83 46 37 47
REMARK SMILES IDX 86 48 80 49 79 50 38 52 68 53 49 54 67 55 50 56 53 57 66 58
REMARK SMILES IDX 84 59 51 60 52 61 65 63 85 64 54 65 39 66 40 67 48 68 41 69
REMARK SMILES IDX 47 70 42 71 43 72 44 73 45 74 46 75 69 76 70 77 78 78 71 79
REMARK SMILES IDX 77 80 72 81 73 82 74 83 75 84 76 85 55 86 56 87 64 88 57 89
REMARK SMILES IDX 63 90 58 91 59 92 60 93 61 94 62 95
REMARK H PARENT 22 5 18 10 5 17 27 32 83 51 53 62
REMARK Flexibility Score: inf
ROOT
ATOM      1  C   UNL A   1      32.353  29.206  24.219  1.00  0.00     0.116 C 
ENDROOT
BRANCH   1   2
ATOM      2  N   UNL A   1      31.564  28.490  23.226  1.00  0.00    -0.355 N 
ATOM      3  C   UNL A   1      31.865  27.308  22.603  1.00  0.00     0.239 C 
ATOM      4  O   UNL A   1      31.173  26.920  21.661  1.00  0.00    -0.273 OA
ATOM      5  H   UNL A   1      30.710  28.907  22.971  1.00  0.00     0.163 HD
BRANCH   3   6
ATOM      6  C   UNL A   1      33.057  26.494  23.103  1.00  0.00     0.216 C 
BRANCH   6   7
ATOM      7  N   UNL A   1      33.148  25.172  22.535  1.00  0.00    -0.345 N 
ATOM      8  C   UNL A   1      33.692  24.042  23.057  1.00  0.00     0.243 C 
ATOM      9  O   UNL A   1      33.482  22.988  22.443  1.00  0.00    -0.273 OA
ATOM     10  H   UNL A   1      32.758  25.073  21.636  1.00  0.00     0.164 HD
BRANCH   8  11
ATOM     11  C   UNL A   1      34.545  24.007  24.366  1.00  0.00     0.177 C 
BRANCH  11  12
ATOM     12  C   UNL A   1      35.858  23.144  24.339  1.00  0.00     0.015 C 
ATOM     13  C   UNL A   1      36.600  22.967  23.001  1.00  0.00     0.010 C 
ATOM     14  C   UNL A   1      36.861  23.542  25.424  1.00  0.00     0.010 C 
ENDBRANCH  11  12
BRANCH  11  15
ATOM     15  N   UNL A   1      33.797  23.847  25.615  1.00  0.00    -0.309 N 
ATOM     16  C   UNL A   1      33.055  22.760  26.006  1.00  0.00     0.408 C 
ATOM     17  H   UNL A   1      33.829  24.603  26.244  1.00  0.00     0.167 HD
ATOM     18  O   UNL A   1      32.193  22.898  26.865  1.00  0.00    -0.225 OA
BRANCH  16  19
ATOM     19  O   UNL A   1      33.458  21.590  25.464  1.00  0.00    -0.445 OA
BRANCH  19  20
ATOM     20  C   UNL A   1      32.444  20.760  24.850  1.00  0.00     0.270 C 
BRANCH  20  21
ATOM     21  C   UNL A   1      33.029  19.488  24.263  1.00  0.00    -0.011 A 
ATOM     22  C   UNL A   1      32.348  18.799  23.243  1.00  0.00     0.007 A 
ATOM     23  C   UNL A   1      34.251  18.966  24.706  1.00  0.00     0.007 A 
ATOM     24  C   UNL A   1      32.834  17.580  22.753  1.00  0.00     0.000 A 
ATOM     25  C   UNL A   1      34.733  17.746  24.223  1.00  0.00     0.000 A 
ATOM     26  C   UNL A   1      34.017  17.045  23.257  1.00  0.00     0.000 A 
ENDBRANCH  20  21
ENDBRANCH  19  20
ENDBRANCH  16  19
ENDBRANCH  11  15
ENDBRANCH   8  11
ENDBRANCH   6   7
ENDBRANCH   3   6
ENDBRANCH   1   2
BRANCH   1  27
ATOM     27  C   UNL A   1      31.628  29.236  25.557  1.00  0.00     0.023 C 
BRANCH  27  28
ATOM     28  C   UNL A   1      32.091  28.142  26.506  1.00  0.00     0.023 C 
BRANCH  28  29
ATOM     29  C   UNL A   1      33.379  28.489  27.225  1.00  0.00     0.116 C 
BRANCH  29  30
ATOM     30  N   UNL A   1      33.465  29.901  27.593  1.00  0.00    -0.352 N 
ATOM     31  C   UNL A   1      34.504  30.652  28.104  1.00  0.00     0.251 C 
ATOM     32  H   UNL A   1      32.633  30.407  27.451  1.00  0.00     0.163 HD
ATOM     33  O   UNL A   1      34.300  31.824  28.418  1.00  0.00    -0.269 OA
BRANCH  31  34
ATOM     34  C   UNL A   1      35.849  30.067  28.341  1.00  0.00     0.039 A 
ATOM     35  C   UNL A   1      36.825  30.162  27.341  1.00  0.00     0.014 A 
ATOM     36  C   UNL A   1      36.175  29.432  29.534  1.00  0.00     0.014 A 
ATOM     37  C   UNL A   1      38.130  29.710  27.581  1.00  0.00     0.010 A 
ATOM     38  C   UNL A   1      37.501  29.150  29.835  1.00  0.00     0.010 A 
ATOM     39  C   UNL A   1      38.498  29.252  28.856  1.00  0.00    -0.014 A 
BRANCH  39  40
ATOM     40  C   UNL A   1      39.879  28.813  29.202  1.00  0.00     0.031 A 
ATOM     41  C   UNL A   1      40.818  29.785  29.882  1.00  0.00     0.074 A 
ATOM     42  C   UNL A   1      40.337  27.605  28.816  1.00  0.00     0.049 A 
ATOM     43  N   UNL A   1      42.110  29.700  30.069  1.00  0.00    -0.248 NA
ATOM     44  C   UNL A   1      40.231  31.051  30.358  1.00  0.00     0.031 C 
ATOM     45  C   UNL A   1      39.562  26.578  28.115  1.00  0.00     0.029 A 
ATOM     46  N   UNL A   1      41.583  27.039  28.950  1.00  0.00    -0.354 N 
ATOM     47  C   UNL A   1      42.493  30.923  30.615  1.00  0.00     0.074 A 
ATOM     48  C   UNL A   1      41.310  31.750  30.668  1.00  0.00     0.031 C 
ATOM     49  C   UNL A   1      40.334  25.496  27.920  1.00  0.00     0.029 A 
ATOM     50  C   UNL A   1      41.674  25.771  28.425  1.00  0.00     0.049 A 
ATOM     51  H   UNL A   1      42.339  27.499  29.381  1.00  0.00     0.167 HD
ATOM     52  C   UNL A   1      43.711  31.315  31.061  1.00  0.00     0.031 A 
ATOM     53  C   UNL A   1      42.721  24.925  28.351  1.00  0.00     0.031 A 
ATOM     54  C   UNL A   1      44.866  30.462  31.080  1.00  0.00     0.049 A 
ATOM     55  C   UNL A   1      44.054  25.358  28.899  1.00  0.00     0.074 A 
ATOM     56  C   UNL A   1      46.125  30.727  31.590  1.00  0.00     0.029 A 
ATOM     57  N   UNL A   1      44.897  29.166  30.587  1.00  0.00    -0.354 N 
ATOM     58  N   UNL A   1      44.388  26.504  29.442  1.00  0.00    -0.248 NA
ATOM     59  C   UNL A   1      45.148  24.379  28.831  1.00  0.00     0.031 C 
ATOM     60  C   UNL A   1      46.927  29.602  31.373  1.00  0.00     0.029 A 
ATOM     61  C   UNL A   1      46.154  28.620  30.773  1.00  0.00     0.049 A 
ATOM     62  H   UNL A   1      44.137  28.704  30.165  1.00  0.00     0.167 HD
ATOM     63  C   UNL A   1      45.724  26.375  29.807  1.00  0.00     0.074 A 
ATOM     64  C   UNL A   1      46.132  25.037  29.431  1.00  0.00     0.031 C 
ATOM     65  C   UNL A   1      46.537  27.282  30.400  1.00  0.00     0.031 A 
BRANCH  52  66
ATOM     66  C   UNL A   1      43.841  32.728  31.574  1.00  0.00    -0.014 A 
ATOM     67  C   UNL A   1      43.510  33.056  32.902  1.00  0.00     0.010 A 
ATOM     68  C   UNL A   1      44.300  33.743  30.716  1.00  0.00     0.010 A 
ATOM     69  C   UNL A   1      43.568  34.381  33.342  1.00  0.00     0.020 A 
ATOM     70  C   UNL A   1      44.395  35.065  31.163  1.00  0.00     0.020 A 
ATOM     71  C   UNL A   1      44.002  35.379  32.466  1.00  0.00     0.054 A 
BRANCH  71  72
ATOM     72  S   UNL A   1      44.061  37.092  33.058  1.00  0.00     0.124 S 
ATOM     73  O   UNL A   1      42.963  37.113  34.023  1.00  0.00    -0.237 OA
ATOM     74  O   UNL A   1      45.400  37.189  33.631  1.00  0.00    -0.237 OA
ATOM     75  O   UNL A   1      43.842  37.885  31.851  1.00  0.00    -0.744 OA
ENDBRANCH  71  72
ENDBRANCH  52  66
BRANCH  53  76
ATOM     76  C   UNL A   1      42.537  23.567  27.768  1.00  0.00    -0.014 A 
ATOM     77  C   UNL A   1      43.038  23.277  26.487  1.00  0.00     0.010 A 
ATOM     78  C   UNL A   1      41.896  22.549  28.498  1.00  0.00     0.010 A 
ATOM     79  C   UNL A   1      42.894  21.998  25.942  1.00  0.00     0.020 A 
ATOM     80  C   UNL A   1      41.772  21.262  27.967  1.00  0.00     0.020 A 
ATOM     81  C   UNL A   1      42.266  20.996  26.687  1.00  0.00     0.054 A 
BRANCH  81  82
ATOM     82  S   UNL A   1      42.152  19.327  25.984  1.00  0.00     0.124 S 
ATOM     83  O   UNL A   1      40.709  19.149  25.856  1.00  0.00    -0.237 OA
ATOM     84  O   UNL A   1      42.887  19.462  24.729  1.00  0.00    -0.237 OA
ATOM     85  O   UNL A   1      42.801  18.489  26.989  1.00  0.00    -0.744 OA
ENDBRANCH  81  82
ENDBRANCH  53  76
BRANCH  65  86
ATOM     86  C   UNL A   1      47.941  26.848  30.724  1.00  0.00    -0.014 A 
ATOM     87  C   UNL A   1      48.981  26.988  29.789  1.00  0.00     0.010 A 
ATOM     88  C   UNL A   1      48.234  26.362  32.012  1.00  0.00     0.010 A 
ATOM     89  C   UNL A   1      50.287  26.626  30.129  1.00  0.00     0.020 A 
ATOM     90  C   UNL A   1      49.542  26.024  32.363  1.00  0.00     0.020 A 
ATOM     91  C   UNL A   1      50.560  26.149  31.415  1.00  0.00     0.054 A 
BRANCH  91  92
ATOM     92  S   UNL A   1      52.272  25.743  31.850  1.00  0.00     0.124 S 
ATOM     93  O   UNL A   1      52.233  24.284  31.912  1.00  0.00    -0.237 OA
ATOM     94  O   UNL A   1      53.029  26.304  30.733  1.00  0.00    -0.237 OA
ATOM     95  O   UNL A   1      52.473  26.415  33.132  1.00  0.00    -0.744 OA
ENDBRANCH  91  92
ENDBRANCH  65  86
ENDBRANCH  39  40
ENDBRANCH  31  34
ENDBRANCH  29  30
ENDBRANCH  28  29
ENDBRANCH  27  28
ENDBRANCH   1  27
TORSDOF 21
ENDMDL
MODEL 3
REMARK VINA RESULT:     -10.2      2.816      4.903
REMARK SMILES CC(C)[C@H](NC(=O)OCc1ccccc1)C(=O)NCC(=O)NCCCCNC(=O)c1ccc(-c2c3nc(c(-c4ccc(S(=O)(=O)[O-])cc4)c4ccc([nH]4)c(-c4ccc(S(=O)(=O)[O-])cc4)c4nc(c(-c5ccc(S(=O)(=O)[O-])cc5)c5ccc2[nH]5)C=C4)C=C3)cc1
REMARK SMILES IDX 23 1 22 2 20 3 21 4 19 6 18 7 16 8 17 9 4 11 2 12 1 13 3 14
REMARK SMILES IDX 5 15 6 16 7 18 8 19 9 20 10 21 11 22 15 23 12 24 14 25 13 26
REMARK SMILES IDX 24 27 25 28 26 29 27 30 28 31 29 33 30 34 31 35 89 36 32 37
REMARK SMILES IDX 88 38 33 39 34 40 35 41 82 42 36 43 87 44 81 45 83 46 37 47
REMARK SMILES IDX 86 48 80 49 79 50 38 52 68 53 49 54 67 55 50 56 53 57 66 58
REMARK SMILES IDX 84 59 51 60 52 61 65 63 85 64 54 65 39 66 40 67 48 68 41 69
REMARK SMILES IDX 47 70 42 71 43 72 44 73 45 74 46 75 69 76 70 77 78 78 71 79
REMARK SMILES IDX 77 80 72 81 73 82 74 83 75 84 76 85 55 86 56 87 64 88 57 89
REMARK SMILES IDX 63 90 58 91 59 92 60 93 61 94 62 95
REMARK H PARENT 22 5 18 10 5 17 27 32 83 51 53 62
REMARK Flexibility Score: inf
ROOT
ATOM      1  C   UNL A   1      32.840  25.936  26.374  1.00  0.00     0.116 C 
ENDROOT
BRANCH   1   2
ATOM      2  N   UNL A   1      32.560  24.523  26.584  1.00  0.00    -0.355 N 
ATOM      3  C   UNL A   1      33.399  23.458  26.390  1.00  0.00     0.239 C 
ATOM      4  O   UNL A   1      32.956  22.310  26.450  1.00  0.00    -0.273 OA
ATOM      5  H   UNL A   1      31.655  24.306  26.905  1.00  0.00     0.163 HD
BRANCH   3   6
ATOM      6  C   UNL A   1      34.876  23.727  26.108  1.00  0.00     0.216 C 
BRANCH   6   7
ATOM      7  N   UNL A   1      35.373  23.091  24.913  1.00  0.00    -0.345 N 
ATOM      8  C   UNL A   1      34.986  23.258  23.622  1.00  0.00     0.243 C 
ATOM      9  O   UNL A   1      35.694  22.728  22.756  1.00  0.00    -0.273 OA
ATOM     10  H   UNL A   1      36.100  22.443  25.053  1.00  0.00     0.164 HD
BRANCH   8  11
ATOM     11  C   UNL A   1      33.725  24.070  23.185  1.00  0.00     0.177 C 
BRANCH  11  12
ATOM     12  C   UNL A   1      32.435  23.245  22.827  1.00  0.00     0.015 C 
ATOM     13  C   UNL A   1      32.482  21.711  22.944  1.00  0.00     0.010 C 
ATOM     14  C   UNL A   1      31.176  23.767  23.526  1.00  0.00     0.010 C 
ENDBRANCH  11  12
BRANCH  11  15
ATOM     15  N   UNL A   1      33.962  25.169  22.248  1.00  0.00    -0.309 N 
ATOM     16  C   UNL A   1      33.181  26.282  22.057  1.00  0.00     0.408 C 
ATOM     17  H   UNL A   1      34.772  25.102  21.692  1.00  0.00     0.167 HD
ATOM     18  O   UNL A   1      33.277  26.911  21.010  1.00  0.00    -0.225 OA
BRANCH  16  19
ATOM     19  O   UNL A   1      32.455  26.642  23.137  1.00  0.00    -0.445 OA
BRANCH  19  20
ATOM     20  C   UNL A   1      32.120  28.042  23.274  1.00  0.00     0.270 C 
BRANCH  20  21
ATOM     21  C   UNL A   1      30.619  28.271  23.268  1.00  0.00    -0.011 A 
ATOM     22  C   UNL A   1      29.740  27.222  23.593  1.00  0.00     0.007 A 
ATOM     23  C   UNL A   1      30.066  29.518  22.948  1.00  0.00     0.007 A 
ATOM     24  C   UNL A   1      28.352  27.398  23.510  1.00  0.00     0.000 A 
ATOM     25  C   UNL A   1      28.681  29.691  22.857  1.00  0.00     0.000 A 
ATOM     26  C   UNL A   1      27.824  28.627  23.122  1.00  0.00     0.000 A 
ENDBRANCH  20  21
ENDBRANCH  19  20
ENDBRANCH  16  19
ENDBRANCH  11  15
ENDBRANCH   8  11
ENDBRANCH   6   7
ENDBRANCH   3   6
ENDBRANCH   1   2
BRANCH   1  27
ATOM     27  C   UNL A   1      31.584  26.767  26.586  1.00  0.00     0.023 C 
BRANCH  27  28
ATOM     28  C   UNL A   1      31.831  28.012  27.423  1.00  0.00     0.023 C 
BRANCH  28  29
ATOM     29  C   UNL A   1      33.242  28.548  27.285  1.00  0.00     0.116 C 
BRANCH  29  30
ATOM     30  N   UNL A   1      33.346  29.971  27.604  1.00  0.00    -0.352 N 
ATOM     31  C   UNL A   1      34.399  30.729  28.073  1.00  0.00     0.251 C 
ATOM     32  H   UNL A   1      32.516  30.479  27.459  1.00  0.00     0.163 HD
ATOM     33  O   UNL A   1      34.210  31.913  28.351  1.00  0.00    -0.269 OA
BRANCH  31  34
ATOM     34  C   UNL A   1      35.743  30.141  28.306  1.00  0.00     0.039 A 
ATOM     35  C   UNL A   1      36.675  30.119  27.261  1.00  0.00     0.014 A 
ATOM     36  C   UNL A   1      36.112  29.614  29.539  1.00  0.00     0.014 A 
ATOM     37  C   UNL A   1      37.982  29.663  27.487  1.00  0.00     0.010 A 
ATOM     38  C   UNL A   1      37.444  29.333  29.808  1.00  0.00     0.010 A 
ATOM     39  C   UNL A   1      38.398  29.320  28.783  1.00  0.00    -0.014 A 
BRANCH  39  40
ATOM     40  C   UNL A   1      39.786  28.887  29.109  1.00  0.00     0.031 A 
ATOM     41  C   UNL A   1      40.738  29.869  29.754  1.00  0.00     0.074 A 
ATOM     42  C   UNL A   1      40.236  27.671  28.736  1.00  0.00     0.049 A 
ATOM     43  N   UNL A   1      42.033  29.787  29.918  1.00  0.00    -0.248 NA
ATOM     44  C   UNL A   1      40.161  31.144  30.220  1.00  0.00     0.031 C 
ATOM     45  C   UNL A   1      39.446  26.633  28.068  1.00  0.00     0.029 A 
ATOM     46  N   UNL A   1      41.483  27.107  28.855  1.00  0.00    -0.354 N 
ATOM     47  C   UNL A   1      42.427  31.018  30.435  1.00  0.00     0.074 A 
ATOM     48  C   UNL A   1      41.246  31.848  30.497  1.00  0.00     0.031 C 
ATOM     49  C   UNL A   1      40.214  25.548  27.877  1.00  0.00     0.029 A 
ATOM     50  C   UNL A   1      41.564  25.830  28.350  1.00  0.00     0.049 A 
ATOM     51  H   UNL A   1      42.248  27.574  29.264  1.00  0.00     0.167 HD
ATOM     52  C   UNL A   1      43.653  31.417  30.850  1.00  0.00     0.031 A 
ATOM     53  C   UNL A   1      42.609  24.982  28.271  1.00  0.00     0.031 A 
ATOM     54  C   UNL A   1      44.809  30.564  30.862  1.00  0.00     0.049 A 
ATOM     55  C   UNL A   1      43.952  25.423  28.785  1.00  0.00     0.074 A 
ATOM     56  C   UNL A   1      46.077  30.837  31.342  1.00  0.00     0.029 A 
ATOM     57  N   UNL A   1      44.830  29.259  30.391  1.00  0.00    -0.354 N 
ATOM     58  N   UNL A   1      44.297  26.579  29.302  1.00  0.00    -0.248 NA
ATOM     59  C   UNL A   1      45.044  24.443  28.713  1.00  0.00     0.031 C 
ATOM     60  C   UNL A   1      46.874  29.707  31.130  1.00  0.00     0.029 A 
ATOM     61  C   UNL A   1      46.089  28.716  30.562  1.00  0.00     0.049 A 
ATOM     62  H   UNL A   1      44.061  28.791  29.992  1.00  0.00     0.167 HD
ATOM     63  C   UNL A   1      45.640  26.455  29.643  1.00  0.00     0.074 A 
ATOM     64  C   UNL A   1      46.040  25.110  29.283  1.00  0.00     0.031 C 
ATOM     65  C   UNL A   1      46.465  27.371  30.205  1.00  0.00     0.031 A 
BRANCH  52  66
ATOM     66  C   UNL A   1      43.794  32.839  31.336  1.00  0.00    -0.014 A 
ATOM     67  C   UNL A   1      44.003  33.901  30.437  1.00  0.00     0.010 A 
ATOM     68  C   UNL A   1      43.714  33.117  32.712  1.00  0.00     0.010 A 
ATOM     69  C   UNL A   1      44.202  35.201  30.908  1.00  0.00     0.020 A 
ATOM     70  C   UNL A   1      43.876  34.423  33.186  1.00  0.00     0.020 A 
ATOM     71  C   UNL A   1      44.146  35.453  32.282  1.00  0.00     0.054 A 
BRANCH  71  72
ATOM     72  S   UNL A   1      44.415  37.148  32.868  1.00  0.00     0.124 S 
ATOM     73  O   UNL A   1      45.094  37.755  31.725  1.00  0.00    -0.237 OA
ATOM     74  O   UNL A   1      43.056  37.622  33.114  1.00  0.00    -0.237 OA
ATOM     75  O   UNL A   1      45.239  36.975  34.062  1.00  0.00    -0.744 OA
ENDBRANCH  71  72
ENDBRANCH  52  66
BRANCH  53  76
ATOM     76  C   UNL A   1      42.412  23.615  27.715  1.00  0.00    -0.014 A 
ATOM     77  C   UNL A   1      42.783  23.334  26.389  1.00  0.00     0.010 A 
ATOM     78  C   UNL A   1      41.891  22.580  28.513  1.00  0.00     0.010 A 
ATOM     79  C   UNL A   1      42.628  22.047  25.866  1.00  0.00     0.020 A 
ATOM     80  C   UNL A   1      41.759  21.285  28.002  1.00  0.00     0.020 A 
ATOM     81  C   UNL A   1      42.121  21.029  26.677  1.00  0.00     0.054 A 
BRANCH  81  82
ATOM     82  S   UNL A   1      41.994  19.352  25.996  1.00  0.00     0.124 S 
ATOM     83  O   UNL A   1      42.535  18.540  27.082  1.00  0.00    -0.237 OA
ATOM     84  O   UNL A   1      40.559  19.215  25.758  1.00  0.00    -0.237 OA
ATOM     85  O   UNL A   1      42.815  19.410  24.788  1.00  0.00    -0.744 OA
ENDBRANCH  81  82
ENDBRANCH  53  76
BRANCH  65  86
ATOM     86  C   UNL A   1      47.875  26.942  30.509  1.00  0.00    -0.014 A 
ATOM     87  C   UNL A   1      48.947  27.325  29.684  1.00  0.00     0.010 A 
ATOM     88  C   UNL A   1      48.135  26.206  31.680  1.00  0.00     0.010 A 
ATOM     89  C   UNL A   1      50.254  26.958  30.014  1.00  0.00     0.020 A 
ATOM     90  C   UNL A   1      49.443  25.860  32.025  1.00  0.00     0.020 A 
ATOM     91  C   UNL A   1      50.494  26.231  31.183  1.00  0.00     0.054 A 
BRANCH  91  92
ATOM     92  S   UNL A   1      52.205  25.818  31.620  1.00  0.00     0.124 S 
ATOM     93  O   UNL A   1      52.069  24.455  32.126  1.00  0.00    -0.237 OA
ATOM     94  O   UNL A   1      52.902  25.947  30.342  1.00  0.00    -0.237 OA
ATOM     95  O   UNL A   1      52.559  26.822  32.620  1.00  0.00    -0.744 OA
ENDBRANCH  91  92
ENDBRANCH  65  86
ENDBRANCH  39  40
ENDBRANCH  31  34
ENDBRANCH  29  30
ENDBRANCH  28  29
ENDBRANCH  27  28
ENDBRANCH   1  27
TORSDOF 21
ENDMDL
