MODEL 1
REMARK VINA RESULT:     -13.1      0.000      0.000
REMARK SMILES C/C(=N\Nc1nc(-c2ccc(Cl)cc2)cs1)c1nnn(-c2ccc(C(=O)NCCCCNC(=O)c3ccc(-c4c5nc(c(-c6ccc(S(=O)(=O)[O-])cc6)c6ccc([nH]6)c(-c6ccc(S(=O)(=O)[O-])cc6)c6nc(c(-c7ccc(S(=O)(=O)[O-])cc7)c7ccc4[nH]7)C=C6)C=C5)cc3)cc2)c1C
REMARK SMILES IDX 28 1 27 2 25 3 26 4 24 6 21 7 22 8 96 9 23 10 95 11 20 12
REMARK SMILES IDX 17 13 18 14 97 15 19 16 98 17 2 18 1 19 3 20 4 21 5 23 6 24
REMARK SMILES IDX 16 25 7 26 15 27 8 28 9 29 14 30 10 31 13 32 11 33 12 34
REMARK SMILES IDX 29 35 30 36 31 37 32 38 33 39 34 41 35 42 36 43 94 44 37 45
REMARK SMILES IDX 93 46 38 47 39 48 40 49 87 50 41 51 92 52 86 53 88 54 42 55
REMARK SMILES IDX 91 56 85 57 84 58 43 60 73 61 54 62 72 63 55 64 58 65 71 66
REMARK SMILES IDX 89 67 56 68 57 69 70 71 90 72 59 73 44 74 45 75 53 76 46 77
REMARK SMILES IDX 52 78 47 79 48 80 49 81 50 82 51 83 74 84 75 85 83 86 76 87
REMARK SMILES IDX 82 88 77 89 78 90 79 91 80 92 81 93 60 94 61 95 69 96 62 97
REMARK SMILES IDX 68 98 63 99 64 100 65 101 66 102 67 103
REMARK H PARENT 27 5 4 22 32 40 88 59 58 70
REMARK Flexibility Score: inf
ROOT
ATOM      1  C   UNL A   1      42.715  18.746  25.926  1.00  0.00     0.116 C 
ENDROOT
BRANCH   1   2
ATOM      2  N   UNL A   1      42.675  19.887  26.826  1.00  0.00    -0.352 N 
ATOM      3  C   UNL A   1      41.736  20.861  27.071  1.00  0.00     0.251 C 
ATOM      4  O   UNL A   1      41.992  21.694  27.940  1.00  0.00    -0.269 OA
ATOM      5  H   UNL A   1      43.487  19.981  27.375  1.00  0.00     0.163 HD
BRANCH   3   6
ATOM      6  C   UNL A   1      40.415  20.932  26.381  1.00  0.00     0.039 A 
ATOM      7  C   UNL A   1      37.826  21.143  25.347  1.00  0.00     0.067 A 
ATOM      8  C   UNL A   1      38.442  22.285  25.855  1.00  0.00     0.029 A 
ATOM      9  C   UNL A   1      38.523  19.938  25.246  1.00  0.00     0.029 A 
ATOM     10  C   UNL A   1      39.731  22.165  26.392  1.00  0.00     0.016 A 
ATOM     11  C   UNL A   1      39.825  19.850  25.726  1.00  0.00     0.016 A 
BRANCH   7  12
ATOM     12  N   UNL A   1      36.448  21.135  25.088  1.00  0.00    -0.217 N 
ATOM     13  C   UNL A   1      34.402  21.708  24.631  1.00  0.00     0.132 A 
ATOM     14  N   UNL A   1      34.450  20.350  24.803  1.00  0.00    -0.128 NA
ATOM     15  C   UNL A   1      35.668  22.240  24.817  1.00  0.00     0.071 A 
ATOM     16  N   UNL A   1      35.720  20.005  24.998  1.00  0.00    -0.061 NA
ATOM     17  C   UNL A   1      36.202  23.614  24.616  1.00  0.00     0.069 C 
BRANCH  13  18
ATOM     18  C   UNL A   1      33.237  22.443  24.156  1.00  0.00     0.087 C 
ATOM     19  C   UNL A   1      33.258  22.752  22.680  1.00  0.00     0.071 C 
ATOM     20  N   UNL A   1      32.366  22.801  25.059  1.00  0.00    -0.176 NA
BRANCH  20  21
ATOM     21  N   UNL A   1      31.296  23.639  24.819  1.00  0.00    -0.252 N 
ATOM     22  H   UNL A   1      30.477  23.185  24.516  1.00  0.00     0.193 HD
BRANCH  21  23
ATOM     23  C   UNL A   1      31.189  24.988  24.934  1.00  0.00     0.203 A 
ATOM     24  N   UNL A   1      30.251  25.735  24.400  1.00  0.00    -0.219 NA
ATOM     25  S   UNL A   1      32.410  25.897  25.755  1.00  0.00    -0.103 S 
ATOM     26  C   UNL A   1      30.682  27.042  24.298  1.00  0.00     0.084 A 
ATOM     27  C   UNL A   1      31.845  27.327  24.981  1.00  0.00     0.097 A 
BRANCH  26  28
ATOM     28  C   UNL A   1      29.985  27.956  23.414  1.00  0.00     0.001 A 
ATOM     29  C   UNL A   1      30.717  28.880  22.658  1.00  0.00     0.012 A 
ATOM     30  C   UNL A   1      28.583  28.025  23.416  1.00  0.00     0.012 A 
ATOM     31  C   UNL A   1      30.058  29.839  21.886  1.00  0.00     0.021 A 
ATOM     32  C   UNL A   1      27.925  28.994  22.653  1.00  0.00     0.021 A 
ATOM     33  C   UNL A   1      28.665  29.891  21.886  1.00  0.00     0.041 A 
ATOM     34  Cl  UNL A   1      27.858  31.084  20.944  1.00  0.00    -0.084 Cl
ENDBRANCH  26  28
ENDBRANCH  21  23
ENDBRANCH  20  21
ENDBRANCH  13  18
ENDBRANCH   7  12
ENDBRANCH   3   6
ENDBRANCH   1   2
BRANCH   1  35
ATOM     35  C   UNL A   1      43.907  18.829  24.962  1.00  0.00     0.023 C 
BRANCH  35  36
ATOM     36  C   UNL A   1      45.289  18.902  25.624  1.00  0.00     0.023 C 
BRANCH  36  37
ATOM     37  C   UNL A   1      46.084  20.164  25.311  1.00  0.00     0.116 C 
BRANCH  37  38
ATOM     38  N   UNL A   1      45.744  20.746  24.011  1.00  0.00    -0.352 N 
ATOM     39  C   UNL A   1      44.882  21.798  23.753  1.00  0.00     0.251 C 
ATOM     40  H   UNL A   1      46.181  20.340  23.228  1.00  0.00     0.163 HD
ATOM     41  O   UNL A   1      44.363  21.929  22.654  1.00  0.00    -0.269 OA
BRANCH  39  42
ATOM     42  C   UNL A   1      44.625  22.772  24.829  1.00  0.00     0.039 A 
ATOM     43  C   UNL A   1      45.635  23.200  25.696  1.00  0.00     0.014 A 
ATOM     44  C   UNL A   1      43.336  23.288  24.922  1.00  0.00     0.014 A 
ATOM     45  C   UNL A   1      45.348  24.219  26.604  1.00  0.00     0.010 A 
ATOM     46  C   UNL A   1      43.100  24.389  25.703  1.00  0.00     0.010 A 
ATOM     47  C   UNL A   1      44.080  24.824  26.588  1.00  0.00    -0.014 A 
BRANCH  47  48
ATOM     48  C   UNL A   1      43.798  26.017  27.382  1.00  0.00     0.031 A 
ATOM     49  C   UNL A   1      44.771  27.127  27.182  1.00  0.00     0.074 A 
ATOM     50  C   UNL A   1      42.631  26.205  28.039  1.00  0.00     0.049 A 
ATOM     51  N   UNL A   1      45.632  27.586  28.027  1.00  0.00    -0.248 NA
ATOM     52  C   UNL A   1      44.907  27.695  25.827  1.00  0.00     0.031 C 
ATOM     53  C   UNL A   1      41.444  25.339  28.055  1.00  0.00     0.029 A 
ATOM     54  N   UNL A   1      42.205  27.289  28.740  1.00  0.00    -0.354 N 
ATOM     55  C   UNL A   1      46.250  28.660  27.395  1.00  0.00     0.074 A 
ATOM     56  C   UNL A   1      45.923  28.543  25.996  1.00  0.00     0.031 C 
ATOM     57  C   UNL A   1      40.376  26.034  28.508  1.00  0.00     0.029 A 
ATOM     58  C   UNL A   1      40.833  27.326  28.984  1.00  0.00     0.049 A 
ATOM     59  H   UNL A   1      42.818  27.994  29.052  1.00  0.00     0.167 HD
ATOM     60  C   UNL A   1      46.748  29.713  28.102  1.00  0.00     0.031 A 
ATOM     61  C   UNL A   1      40.127  28.354  29.522  1.00  0.00     0.031 A 
ATOM     62  C   UNL A   1      46.872  29.401  29.504  1.00  0.00     0.049 A 
ATOM     63  C   UNL A   1      41.101  29.214  30.235  1.00  0.00     0.074 A 
ATOM     64  C   UNL A   1      47.536  28.427  30.224  1.00  0.00     0.029 A 
ATOM     65  N   UNL A   1      45.895  29.887  30.342  1.00  0.00    -0.354 N 
ATOM     66  N   UNL A   1      41.762  28.824  31.288  1.00  0.00    -0.248 NA
ATOM     67  C   UNL A   1      41.684  30.328  29.506  1.00  0.00     0.031 C 
ATOM     68  C   UNL A   1      46.614  28.031  31.237  1.00  0.00     0.029 A 
ATOM     69  C   UNL A   1      45.485  28.849  31.142  1.00  0.00     0.049 A 
ATOM     70  H   UNL A   1      45.552  30.810  30.365  1.00  0.00     0.167 HD
ATOM     71  C   UNL A   1      43.042  29.322  31.103  1.00  0.00     0.074 A 
ATOM     72  C   UNL A   1      42.910  30.316  30.037  1.00  0.00     0.031 C 
ATOM     73  C   UNL A   1      44.132  28.687  31.631  1.00  0.00     0.031 A 
BRANCH  60  74
ATOM     74  C   UNL A   1      46.729  31.135  27.590  1.00  0.00    -0.014 A 
ATOM     75  C   UNL A   1      47.739  32.029  27.999  1.00  0.00     0.010 A 
ATOM     76  C   UNL A   1      45.614  31.693  26.930  1.00  0.00     0.010 A 
ATOM     77  C   UNL A   1      47.614  33.412  27.792  1.00  0.00     0.020 A 
ATOM     78  C   UNL A   1      45.499  33.061  26.680  1.00  0.00     0.020 A 
ATOM     79  C   UNL A   1      46.490  33.916  27.136  1.00  0.00     0.054 A 
BRANCH  79  80
ATOM     80  S   UNL A   1      46.306  35.704  26.929  1.00  0.00     0.124 S 
ATOM     81  O   UNL A   1      47.525  36.207  27.554  1.00  0.00    -0.237 OA
ATOM     82  O   UNL A   1      46.234  35.839  25.476  1.00  0.00    -0.237 OA
ATOM     83  O   UNL A   1      45.065  36.005  27.639  1.00  0.00    -0.744 OA
ENDBRANCH  79  80
ENDBRANCH  60  74
BRANCH  61  84
ATOM     84  C   UNL A   1      38.746  28.818  29.225  1.00  0.00    -0.014 A 
ATOM     85  C   UNL A   1      37.845  29.103  30.270  1.00  0.00     0.010 A 
ATOM     86  C   UNL A   1      38.424  29.292  27.937  1.00  0.00     0.010 A 
ATOM     87  C   UNL A   1      36.710  29.904  30.055  1.00  0.00     0.020 A 
ATOM     88  C   UNL A   1      37.291  30.088  27.714  1.00  0.00     0.020 A 
ATOM     89  C   UNL A   1      36.456  30.416  28.781  1.00  0.00     0.054 A 
BRANCH  89  90
ATOM     90  S   UNL A   1      35.112  31.623  28.556  1.00  0.00     0.124 S 
ATOM     91  O   UNL A   1      34.058  30.807  27.960  1.00  0.00    -0.237 OA
ATOM     92  O   UNL A   1      34.864  32.080  29.919  1.00  0.00    -0.237 OA
ATOM     93  O   UNL A   1      35.697  32.625  27.667  1.00  0.00    -0.744 OA
ENDBRANCH  89  90
ENDBRANCH  61  84
BRANCH  73  94
ATOM     94  C   UNL A   1      43.902  27.597  32.658  1.00  0.00    -0.014 A 
ATOM     95  C   UNL A   1      43.962  26.214  32.385  1.00  0.00     0.010 A 
ATOM     96  C   UNL A   1      43.727  28.002  33.992  1.00  0.00     0.010 A 
ATOM     97  C   UNL A   1      43.804  25.269  33.414  1.00  0.00     0.020 A 
ATOM     98  C   UNL A   1      43.589  27.069  35.023  1.00  0.00     0.020 A 
ATOM     99  C   UNL A   1      43.610  25.707  34.728  1.00  0.00     0.054 A 
BRANCH  99 100
ATOM    100  S   UNL A   1      43.398  24.489  36.059  1.00  0.00     0.124 S 
ATOM    101  O   UNL A   1      42.699  23.399  35.385  1.00  0.00    -0.237 OA
ATOM    102  O   UNL A   1      44.773  24.202  36.460  1.00  0.00    -0.237 OA
ATOM    103  O   UNL A   1      42.607  25.203  37.061  1.00  0.00    -0.744 OA
ENDBRANCH  99 100
ENDBRANCH  73  94
ENDBRANCH  47  48
ENDBRANCH  39  42
ENDBRANCH  37  38
ENDBRANCH  36  37
ENDBRANCH  35  36
ENDBRANCH   1  35
TORSDOF 19
ENDMDL
MODEL 2
REMARK VINA RESULT:     -12.0      6.375     13.797
REMARK SMILES C/C(=N\Nc1nc(-c2ccc(Cl)cc2)cs1)c1nnn(-c2ccc(C(=O)NCCCCNC(=O)c3ccc(-c4c5nc(c(-c6ccc(S(=O)(=O)[O-])cc6)c6ccc([nH]6)c(-c6ccc(S(=O)(=O)[O-])cc6)c6nc(c(-c7ccc(S(=O)(=O)[O-])cc7)c7ccc4[nH]7)C=C6)C=C5)cc3)cc2)c1C
REMARK SMILES IDX 28 1 27 2 25 3 26 4 24 6 21 7 22 8 96 9 23 10 95 11 20 12
REMARK SMILES IDX 17 13 18 14 97 15 19 16 98 17 2 18 1 19 3 20 4 21 5 23 6 24
REMARK SMILES IDX 16 25 7 26 15 27 8 28 9 29 14 30 10 31 13 32 11 33 12 34
REMARK SMILES IDX 29 35 30 36 31 37 32 38 33 39 34 41 35 42 36 43 94 44 37 45
REMARK SMILES IDX 93 46 38 47 39 48 40 49 87 50 41 51 92 52 86 53 88 54 42 55
REMARK SMILES IDX 91 56 85 57 84 58 43 60 73 61 54 62 72 63 55 64 58 65 71 66
REMARK SMILES IDX 89 67 56 68 57 69 70 71 90 72 59 73 44 74 45 75 53 76 46 77
REMARK SMILES IDX 52 78 47 79 48 80 49 81 50 82 51 83 74 84 75 85 83 86 76 87
REMARK SMILES IDX 82 88 77 89 78 90 79 91 80 92 81 93 60 94 61 95 69 96 62 97
REMARK SMILES IDX 68 98 63 99 64 100 65 101 66 102 67 103
REMARK H PARENT 27 5 4 22 32 40 88 59 58 70
REMARK Flexibility Score: inf
ROOT
ATOM      1  C   UNL A   1      41.663  40.476  29.267  1.00  0.00     0.116 C 
ENDROOT
BRANCH   1   2
ATOM      2  N   UNL A   1      42.166  40.857  27.958  1.00  0.00    -0.352 N 
ATOM      3  C   UNL A   1      42.764  40.155  26.938  1.00  0.00     0.251 C 
ATOM      4  O   UNL A   1      43.055  40.774  25.914  1.00  0.00    -0.269 OA
ATOM      5  H   UNL A   1      42.054  41.815  27.759  1.00  0.00     0.163 HD
BRANCH   3   6
ATOM      6  C   UNL A   1      43.033  38.689  26.986  1.00  0.00     0.039 A 
ATOM      7  C   UNL A   1      43.708  35.980  26.841  1.00  0.00     0.067 A 
ATOM      8  C   UNL A   1      44.714  36.910  27.092  1.00  0.00     0.029 A 
ATOM      9  C   UNL A   1      42.370  36.371  26.778  1.00  0.00     0.029 A 
ATOM     10  C   UNL A   1      44.371  38.268  27.140  1.00  0.00     0.016 A 
ATOM     11  C   UNL A   1      42.037  37.716  26.890  1.00  0.00     0.016 A 
BRANCH   7  12
ATOM     12  N   UNL A   1      44.032  34.664  26.479  1.00  0.00    -0.217 N 
ATOM     13  C   UNL A   1      44.436  32.529  26.495  1.00  0.00     0.132 A 
ATOM     14  N   UNL A   1      44.601  32.998  25.218  1.00  0.00    -0.128 NA
ATOM     15  C   UNL A   1      44.080  33.578  27.328  1.00  0.00     0.071 A 
ATOM     16  N   UNL A   1      44.269  34.286  25.208  1.00  0.00    -0.061 NA
ATOM     17  C   UNL A   1      43.651  33.607  28.752  1.00  0.00     0.069 C 
BRANCH  13  18
ATOM     18  C   UNL A   1      44.462  31.122  26.870  1.00  0.00     0.087 C 
ATOM     19  C   UNL A   1      45.568  30.755  27.827  1.00  0.00     0.071 C 
ATOM     20  N   UNL A   1      43.586  30.348  26.290  1.00  0.00    -0.176 NA
BRANCH  20  21
ATOM     21  N   UNL A   1      43.572  28.972  26.396  1.00  0.00    -0.252 N 
ATOM     22  H   UNL A   1      44.080  28.500  25.698  1.00  0.00     0.193 HD
BRANCH  21  23
ATOM     23  C   UNL A   1      42.969  28.163  27.306  1.00  0.00     0.203 A 
ATOM     24  N   UNL A   1      43.213  26.886  27.483  1.00  0.00    -0.219 NA
ATOM     25  S   UNL A   1      41.683  28.763  28.295  1.00  0.00    -0.103 S 
ATOM     26  C   UNL A   1      42.145  26.279  28.110  1.00  0.00     0.084 A 
ATOM     27  C   UNL A   1      41.205  27.144  28.628  1.00  0.00     0.097 A 
BRANCH  26  28
ATOM     28  C   UNL A   1      42.022  24.834  28.071  1.00  0.00     0.001 A 
ATOM     29  C   UNL A   1      43.175  24.041  28.103  1.00  0.00     0.012 A 
ATOM     30  C   UNL A   1      40.775  24.227  27.854  1.00  0.00     0.012 A 
ATOM     31  C   UNL A   1      43.083  22.656  27.956  1.00  0.00     0.021 A 
ATOM     32  C   UNL A   1      40.685  22.842  27.693  1.00  0.00     0.021 A 
ATOM     33  C   UNL A   1      41.838  22.062  27.752  1.00  0.00     0.041 A 
ATOM     34  Cl  UNL A   1      41.731  20.356  27.556  1.00  0.00    -0.084 Cl
ENDBRANCH  26  28
ENDBRANCH  21  23
ENDBRANCH  20  21
ENDBRANCH  13  18
ENDBRANCH   7  12
ENDBRANCH   3   6
ENDBRANCH   1   2
BRANCH   1  35
ATOM     35  C   UNL A   1      42.218  41.386  30.372  1.00  0.00     0.023 C 
BRANCH  35  36
ATOM     36  C   UNL A   1      43.293  40.756  31.269  1.00  0.00     0.023 C 
BRANCH  36  37
ATOM     37  C   UNL A   1      44.234  39.791  30.559  1.00  0.00     0.116 C 
BRANCH  37  38
ATOM     38  N   UNL A   1      45.379  39.398  31.385  1.00  0.00    -0.352 N 
ATOM     39  C   UNL A   1      45.375  38.594  32.511  1.00  0.00     0.251 C 
ATOM     40  H   UNL A   1      46.254  39.748  31.104  1.00  0.00     0.163 HD
ATOM     41  O   UNL A   1      46.274  38.665  33.336  1.00  0.00    -0.269 OA
BRANCH  39  42
ATOM     42  C   UNL A   1      44.273  37.630  32.678  1.00  0.00     0.039 A 
ATOM     43  C   UNL A   1      44.011  36.634  31.733  1.00  0.00     0.014 A 
ATOM     44  C   UNL A   1      43.522  37.722  33.846  1.00  0.00     0.014 A 
ATOM     45  C   UNL A   1      43.037  35.678  32.022  1.00  0.00     0.010 A 
ATOM     46  C   UNL A   1      42.679  36.699  34.195  1.00  0.00     0.010 A 
ATOM     47  C   UNL A   1      42.388  35.706  33.268  1.00  0.00    -0.014 A 
BRANCH  47  48
ATOM     48  C   UNL A   1      41.506  34.620  33.689  1.00  0.00     0.031 A 
ATOM     49  C   UNL A   1      41.902  33.279  33.175  1.00  0.00     0.074 A 
ATOM     50  C   UNL A   1      40.574  34.762  34.658  1.00  0.00     0.049 A 
ATOM     51  N   UNL A   1      41.282  32.549  32.309  1.00  0.00    -0.248 NA
ATOM     52  C   UNL A   1      43.227  32.753  33.554  1.00  0.00     0.031 C 
ATOM     53  C   UNL A   1      40.294  35.942  35.488  1.00  0.00     0.029 A 
ATOM     54  N   UNL A   1      39.751  33.827  35.202  1.00  0.00    -0.354 N 
ATOM     55  C   UNL A   1      42.009  31.367  32.218  1.00  0.00     0.074 A 
ATOM     56  C   UNL A   1      43.286  31.634  32.831  1.00  0.00     0.031 C 
ATOM     57  C   UNL A   1      39.566  35.579  36.569  1.00  0.00     0.029 A 
ATOM     58  C   UNL A   1      39.173  34.191  36.416  1.00  0.00     0.049 A 
ATOM     59  H   UNL A   1      39.576  32.958  34.771  1.00  0.00     0.167 HD
ATOM     60  C   UNL A   1      41.411  30.184  31.900  1.00  0.00     0.031 A 
ATOM     61  C   UNL A   1      38.440  33.400  37.242  1.00  0.00     0.031 A 
ATOM     62  C   UNL A   1      40.096  30.386  31.346  1.00  0.00     0.049 A 
ATOM     63  C   UNL A   1      37.961  32.259  36.426  1.00  0.00     0.074 A 
ATOM     64  C   UNL A   1      39.598  31.086  30.264  1.00  0.00     0.029 A 
ATOM     65  N   UNL A   1      39.024  30.180  32.184  1.00  0.00    -0.354 N 
ATOM     66  N   UNL A   1      37.120  32.389  35.440  1.00  0.00    -0.248 NA
ATOM     67  C   UNL A   1      38.772  31.054  36.403  1.00  0.00     0.031 C 
ATOM     68  C   UNL A   1      38.402  31.697  30.745  1.00  0.00     0.029 A 
ATOM     69  C   UNL A   1      38.185  31.259  32.053  1.00  0.00     0.049 A 
ATOM     70  H   UNL A   1      38.884  29.402  32.771  1.00  0.00     0.167 HD
ATOM     71  C   UNL A   1      37.599  31.539  34.455  1.00  0.00     0.074 A 
ATOM     72  C   UNL A   1      38.563  30.676  35.139  1.00  0.00     0.031 C 
ATOM     73  C   UNL A   1      37.381  31.797  33.131  1.00  0.00     0.031 A 
BRANCH  60  74
ATOM     74  C   UNL A   1      41.851  28.856  32.470  1.00  0.00    -0.014 A 
ATOM     75  C   UNL A   1      41.431  28.488  33.764  1.00  0.00     0.010 A 
ATOM     76  C   UNL A   1      42.871  28.075  31.886  1.00  0.00     0.010 A 
ATOM     77  C   UNL A   1      42.032  27.419  34.448  1.00  0.00     0.020 A 
ATOM     78  C   UNL A   1      43.445  26.983  32.539  1.00  0.00     0.020 A 
ATOM     79  C   UNL A   1      43.039  26.678  33.829  1.00  0.00     0.054 A 
BRANCH  79  80
ATOM     80  S   UNL A   1      43.852  25.343  34.739  1.00  0.00     0.124 S 
ATOM     81  O   UNL A   1      45.031  25.092  33.916  1.00  0.00    -0.237 OA
ATOM     82  O   UNL A   1      44.103  25.964  36.037  1.00  0.00    -0.237 OA
ATOM     83  O   UNL A   1      42.853  24.277  34.749  1.00  0.00    -0.744 OA
ENDBRANCH  79  80
ENDBRANCH  60  74
BRANCH  61  84
ATOM     84  C   UNL A   1      38.368  33.382  38.727  1.00  0.00    -0.014 A 
ATOM     85  C   UNL A   1      38.845  34.473  39.481  1.00  0.00     0.010 A 
ATOM     86  C   UNL A   1      37.540  32.448  39.382  1.00  0.00     0.010 A 
ATOM     87  C   UNL A   1      38.439  34.670  40.812  1.00  0.00     0.020 A 
ATOM     88  C   UNL A   1      37.135  32.635  40.711  1.00  0.00     0.020 A 
ATOM     89  C   UNL A   1      37.563  33.763  41.411  1.00  0.00     0.054 A 
BRANCH  89  90
ATOM     90  S   UNL A   1      36.875  34.137  43.054  1.00  0.00     0.124 S 
ATOM     91  O   UNL A   1      37.481  35.430  43.358  1.00  0.00    -0.237 OA
ATOM     92  O   UNL A   1      35.438  34.156  42.800  1.00  0.00    -0.237 OA
ATOM     93  O   UNL A   1      37.339  33.024  43.881  1.00  0.00    -0.744 OA
ENDBRANCH  89  90
ENDBRANCH  61  84
BRANCH  73  94
ATOM     94  C   UNL A   1      36.369  32.863  32.761  1.00  0.00    -0.014 A 
ATOM     95  C   UNL A   1      35.053  32.600  32.327  1.00  0.00     0.010 A 
ATOM     96  C   UNL A   1      36.742  34.201  32.976  1.00  0.00     0.010 A 
ATOM     97  C   UNL A   1      34.156  33.653  32.071  1.00  0.00     0.020 A 
ATOM     98  C   UNL A   1      35.850  35.251  32.742  1.00  0.00     0.020 A 
ATOM     99  C   UNL A   1      34.567  34.974  32.273  1.00  0.00     0.054 A 
BRANCH  99 100
ATOM    100  S   UNL A   1      33.414  36.336  31.937  1.00  0.00     0.124 S 
ATOM    101  O   UNL A   1      32.210  35.916  32.647  1.00  0.00    -0.237 OA
ATOM    102  O   UNL A   1      34.105  37.494  32.499  1.00  0.00    -0.237 OA
ATOM    103  O   UNL A   1      33.300  36.343  30.479  1.00  0.00    -0.744 OA
ENDBRANCH  99 100
ENDBRANCH  73  94
ENDBRANCH  47  48
ENDBRANCH  39  42
ENDBRANCH  37  38
ENDBRANCH  36  37
ENDBRANCH  35  36
ENDBRANCH   1  35
TORSDOF 19
ENDMDL
MODEL 3
REMARK VINA RESULT:     -11.9      3.528      5.020
REMARK SMILES C/C(=N\Nc1nc(-c2ccc(Cl)cc2)cs1)c1nnn(-c2ccc(C(=O)NCCCCNC(=O)c3ccc(-c4c5nc(c(-c6ccc(S(=O)(=O)[O-])cc6)c6ccc([nH]6)c(-c6ccc(S(=O)(=O)[O-])cc6)c6nc(c(-c7ccc(S(=O)(=O)[O-])cc7)c7ccc4[nH]7)C=C6)C=C5)cc3)cc2)c1C
REMARK SMILES IDX 28 1 27 2 25 3 26 4 24 6 21 7 22 8 96 9 23 10 95 11 20 12
REMARK SMILES IDX 17 13 18 14 97 15 19 16 98 17 2 18 1 19 3 20 4 21 5 23 6 24
REMARK SMILES IDX 16 25 7 26 15 27 8 28 9 29 14 30 10 31 13 32 11 33 12 34
REMARK SMILES IDX 29 35 30 36 31 37 32 38 33 39 34 41 35 42 36 43 94 44 37 45
REMARK SMILES IDX 93 46 38 47 39 48 40 49 87 50 41 51 92 52 86 53 88 54 42 55
REMARK SMILES IDX 91 56 85 57 84 58 43 60 73 61 54 62 72 63 55 64 58 65 71 66
REMARK SMILES IDX 89 67 56 68 57 69 70 71 90 72 59 73 44 74 45 75 53 76 46 77
REMARK SMILES IDX 52 78 47 79 48 80 49 81 50 82 51 83 74 84 75 85 83 86 76 87
REMARK SMILES IDX 82 88 77 89 78 90 79 91 80 92 81 93 60 94 61 95 69 96 62 97
REMARK SMILES IDX 68 98 63 99 64 100 65 101 66 102 67 103
REMARK H PARENT 27 5 4 22 32 40 88 59 58 70
REMARK Flexibility Score: inf
ROOT
ATOM      1  C   UNL A   1      45.088  20.305  24.304  1.00  0.00     0.116 C 
ENDROOT
BRANCH   1   2
ATOM      2  N   UNL A   1      44.668  19.096  24.992  1.00  0.00    -0.352 N 
ATOM      3  C   UNL A   1      43.573  18.783  25.762  1.00  0.00     0.251 C 
ATOM      4  O   UNL A   1      43.487  17.631  26.189  1.00  0.00    -0.269 OA
ATOM      5  H   UNL A   1      45.297  18.346  24.885  1.00  0.00     0.163 HD
BRANCH   3   6
ATOM      6  C   UNL A   1      42.468  19.740  26.062  1.00  0.00     0.039 A 
ATOM      7  C   UNL A   1      40.281  21.453  26.367  1.00  0.00     0.067 A 
ATOM      8  C   UNL A   1      40.055  20.080  26.311  1.00  0.00     0.029 A 
ATOM      9  C   UNL A   1      41.578  21.966  26.389  1.00  0.00     0.029 A 
ATOM     10  C   UNL A   1      41.155  19.229  26.134  1.00  0.00     0.016 A 
ATOM     11  C   UNL A   1      42.664  21.104  26.276  1.00  0.00     0.016 A 
BRANCH   7  12
ATOM     12  N   UNL A   1      39.214  22.354  26.232  1.00  0.00    -0.217 N 
ATOM     13  C   UNL A   1      37.326  23.299  25.715  1.00  0.00     0.132 A 
ATOM     14  N   UNL A   1      38.071  24.180  26.455  1.00  0.00    -0.128 NA
ATOM     15  C   UNL A   1      38.039  22.122  25.548  1.00  0.00     0.071 A 
ATOM     16  N   UNL A   1      39.185  23.559  26.834  1.00  0.00    -0.061 NA
ATOM     17  C   UNL A   1      37.656  20.810  24.961  1.00  0.00     0.069 C 
BRANCH  13  18
ATOM     18  C   UNL A   1      35.940  23.511  25.323  1.00  0.00     0.087 C 
ATOM     19  C   UNL A   1      34.959  23.477  26.469  1.00  0.00     0.071 C 
ATOM     20  N   UNL A   1      35.707  23.631  24.045  1.00  0.00    -0.176 NA
BRANCH  20  21
ATOM     21  N   UNL A   1      34.448  23.669  23.483  1.00  0.00    -0.252 N 
ATOM     22  H   UNL A   1      34.207  24.529  23.069  1.00  0.00     0.193 HD
BRANCH  21  23
ATOM     23  C   UNL A   1      33.484  22.714  23.409  1.00  0.00     0.203 A 
ATOM     24  N   UNL A   1      33.410  21.635  24.152  1.00  0.00    -0.219 NA
ATOM     25  S   UNL A   1      32.263  22.796  22.187  1.00  0.00    -0.103 S 
ATOM     26  C   UNL A   1      32.635  20.679  23.529  1.00  0.00     0.084 A 
ATOM     27  C   UNL A   1      31.925  21.127  22.436  1.00  0.00     0.097 A 
BRANCH  26  28
ATOM     28  C   UNL A   1      32.717  19.298  23.966  1.00  0.00     0.001 A 
ATOM     29  C   UNL A   1      32.627  18.999  25.330  1.00  0.00     0.012 A 
ATOM     30  C   UNL A   1      33.032  18.277  23.056  1.00  0.00     0.012 A 
ATOM     31  C   UNL A   1      32.813  17.690  25.779  1.00  0.00     0.021 A 
ATOM     32  C   UNL A   1      33.232  16.969  23.508  1.00  0.00     0.021 A 
ATOM     33  C   UNL A   1      33.114  16.680  24.866  1.00  0.00     0.041 A 
ATOM     34  Cl  UNL A   1      33.357  15.072  25.426  1.00  0.00    -0.084 Cl
ENDBRANCH  26  28
ENDBRANCH  21  23
ENDBRANCH  20  21
ENDBRANCH  13  18
ENDBRANCH   7  12
ENDBRANCH   3   6
ENDBRANCH   1   2
BRANCH   1  35
ATOM     35  C   UNL A   1      45.674  21.336  25.280  1.00  0.00     0.023 C 
BRANCH  35  36
ATOM     36  C   UNL A   1      46.402  22.521  24.630  1.00  0.00     0.023 C 
BRANCH  36  37
ATOM     37  C   UNL A   1      46.178  23.864  25.315  1.00  0.00     0.116 C 
BRANCH  37  38
ATOM     38  N   UNL A   1      47.055  24.920  24.804  1.00  0.00    -0.352 N 
ATOM     39  C   UNL A   1      46.835  26.286  24.818  1.00  0.00     0.251 C 
ATOM     40  H   UNL A   1      47.903  24.620  24.404  1.00  0.00     0.163 HD
ATOM     41  O   UNL A   1      47.404  27.022  24.025  1.00  0.00    -0.269 OA
BRANCH  39  42
ATOM     42  C   UNL A   1      45.914  26.835  25.829  1.00  0.00     0.039 A 
ATOM     43  C   UNL A   1      46.314  27.062  27.149  1.00  0.00     0.014 A 
ATOM     44  C   UNL A   1      44.630  27.164  25.405  1.00  0.00     0.014 A 
ATOM     45  C   UNL A   1      45.429  27.704  28.014  1.00  0.00     0.010 A 
ATOM     46  C   UNL A   1      43.824  27.930  26.207  1.00  0.00     0.010 A 
ATOM     47  C   UNL A   1      44.190  28.155  27.529  1.00  0.00    -0.014 A 
BRANCH  47  48
ATOM     48  C   UNL A   1      43.317  28.998  28.342  1.00  0.00     0.031 A 
ATOM     49  C   UNL A   1      43.775  30.410  28.464  1.00  0.00     0.074 A 
ATOM     50  C   UNL A   1      42.080  28.615  28.733  1.00  0.00     0.049 A 
ATOM     51  N   UNL A   1      44.217  31.009  29.519  1.00  0.00    -0.248 NA
ATOM     52  C   UNL A   1      43.899  31.210  27.231  1.00  0.00     0.031 C 
ATOM     53  C   UNL A   1      41.362  27.376  28.404  1.00  0.00     0.029 A 
ATOM     54  N   UNL A   1      41.137  29.321  29.413  1.00  0.00    -0.354 N 
ATOM     55  C   UNL A   1      44.445  32.328  29.140  1.00  0.00     0.074 A 
ATOM     56  C   UNL A   1      44.438  32.337  27.698  1.00  0.00     0.031 C 
ATOM     57  C   UNL A   1      40.044  27.528  28.664  1.00  0.00     0.029 A 
ATOM     58  C   UNL A   1      39.850  28.794  29.344  1.00  0.00     0.049 A 
ATOM     59  H   UNL A   1      41.349  30.141  29.916  1.00  0.00     0.167 HD
ATOM     60  C   UNL A   1      44.344  33.354  30.031  1.00  0.00     0.031 A 
ATOM     61  C   UNL A   1      38.706  29.371  29.798  1.00  0.00     0.031 A 
ATOM     62  C   UNL A   1      44.341  32.878  31.392  1.00  0.00     0.049 A 
ATOM     63  C   UNL A   1      39.110  30.400  30.785  1.00  0.00     0.074 A 
ATOM     64  C   UNL A   1      45.208  32.120  32.154  1.00  0.00     0.029 A 
ATOM     65  N   UNL A   1      43.123  32.807  32.028  1.00  0.00    -0.354 N 
ATOM     66  N   UNL A   1      39.681  30.115  31.921  1.00  0.00    -0.248 NA
ATOM     67  C   UNL A   1      39.307  31.758  30.307  1.00  0.00     0.031 C 
ATOM     68  C   UNL A   1      44.367  31.237  32.894  1.00  0.00     0.029 A 
ATOM     69  C   UNL A   1      43.039  31.571  32.620  1.00  0.00     0.049 A 
ATOM     70  H   UNL A   1      42.438  33.513  32.055  1.00  0.00     0.167 HD
ATOM     71  C   UNL A   1      40.660  31.085  32.074  1.00  0.00     0.074 A 
ATOM     72  C   UNL A   1      40.322  32.120  31.097  1.00  0.00     0.031 C 
ATOM     73  C   UNL A   1      41.805  30.829  32.775  1.00  0.00     0.031 A 
BRANCH  60  74
ATOM     74  C   UNL A   1      43.838  34.727  29.656  1.00  0.00    -0.014 A 
ATOM     75  C   UNL A   1      42.598  34.849  28.997  1.00  0.00     0.010 A 
ATOM     76  C   UNL A   1      44.655  35.878  29.694  1.00  0.00     0.010 A 
ATOM     77  C   UNL A   1      42.219  36.050  28.376  1.00  0.00     0.020 A 
ATOM     78  C   UNL A   1      44.269  37.089  29.119  1.00  0.00     0.020 A 
ATOM     79  C   UNL A   1      43.062  37.160  28.439  1.00  0.00     0.054 A 
BRANCH  79  80
ATOM     80  S   UNL A   1      42.596  38.684  27.584  1.00  0.00     0.124 S 
ATOM     81  O   UNL A   1      43.878  39.375  27.479  1.00  0.00    -0.237 OA
ATOM     82  O   UNL A   1      42.042  38.177  26.331  1.00  0.00    -0.237 OA
ATOM     83  O   UNL A   1      41.622  39.298  28.484  1.00  0.00    -0.744 OA
ENDBRANCH  79  80
ENDBRANCH  60  74
BRANCH  61  84
ATOM     84  C   UNL A   1      37.329  29.322  29.240  1.00  0.00    -0.014 A 
ATOM     85  C   UNL A   1      36.241  29.846  29.966  1.00  0.00     0.010 A 
ATOM     86  C   UNL A   1      37.133  29.061  27.868  1.00  0.00     0.010 A 
ATOM     87  C   UNL A   1      35.034  30.179  29.329  1.00  0.00     0.020 A 
ATOM     88  C   UNL A   1      35.930  29.386  27.227  1.00  0.00     0.020 A 
ATOM     89  C   UNL A   1      34.895  29.973  27.955  1.00  0.00     0.054 A 
BRANCH  89  90
ATOM     90  S   UNL A   1      33.416  30.602  27.102  1.00  0.00     0.124 S 
ATOM     91  O   UNL A   1      33.726  30.332  25.701  1.00  0.00    -0.237 OA
ATOM     92  O   UNL A   1      32.348  29.793  27.681  1.00  0.00    -0.237 OA
ATOM     93  O   UNL A   1      33.385  32.017  27.468  1.00  0.00    -0.744 OA
ENDBRANCH  89  90
ENDBRANCH  61  84
BRANCH  73  94
ATOM     94  C   UNL A   1      41.865  29.575  33.623  1.00  0.00    -0.014 A 
ATOM     95  C   UNL A   1      42.325  28.321  33.168  1.00  0.00     0.010 A 
ATOM     96  C   UNL A   1      41.541  29.707  34.985  1.00  0.00     0.010 A 
ATOM     97  C   UNL A   1      42.412  27.224  34.045  1.00  0.00     0.020 A 
ATOM     98  C   UNL A   1      41.644  28.627  35.865  1.00  0.00     0.020 A 
ATOM     99  C   UNL A   1      42.061  27.386  35.388  1.00  0.00     0.054 A 
BRANCH  99 100
ATOM    100  S   UNL A   1      42.165  25.970  36.521  1.00  0.00     0.124 S 
ATOM    101  O   UNL A   1      43.334  26.296  37.331  1.00  0.00    -0.237 OA
ATOM    102  O   UNL A   1      40.882  26.016  37.219  1.00  0.00    -0.237 OA
ATOM    103  O   UNL A   1      42.332  24.823  35.629  1.00  0.00    -0.744 OA
ENDBRANCH  99 100
ENDBRANCH  73  94
ENDBRANCH  47  48
ENDBRANCH  39  42
ENDBRANCH  37  38
ENDBRANCH  36  37
ENDBRANCH  35  36
ENDBRANCH   1  35
TORSDOF 19
ENDMDL
