MODEL 1
REMARK VINA RESULT:     -12.1      0.000      0.000
REMARK SMILES CCn1cc(CC(=O)NCCCCNC(=O)c2ccc(-c3c4nc(c(-c5ccc(S(=O)(=O)[O-])cc5)c5ccc([nH]5)c(-c5ccc(S(=O)(=O)[O-])cc5)c5nc(c(-c6ccc(S(=O)(=O)[O-])cc6)c6ccc3[nH]6)C=C5)C=C4)cc2)c2ccccc21
REMARK SMILES IDX 12 1 11 2 10 3 9 4 7 5 8 6 6 8 5 9 3 10 4 11 82 12 77 13
REMARK SMILES IDX 81 14 78 15 80 16 79 17 2 18 1 19 13 20 14 21 15 22 16 24
REMARK SMILES IDX 17 25 18 26 76 27 19 28 75 29 20 30 21 31 22 32 69 33 23 34
REMARK SMILES IDX 74 35 68 36 70 37 24 38 73 39 67 40 66 41 25 43 55 44 36 45
REMARK SMILES IDX 54 46 37 47 40 48 53 49 71 50 38 51 39 52 52 54 72 55 41 56
REMARK SMILES IDX 26 57 27 58 35 59 28 60 34 61 29 62 30 63 31 64 32 65 33 66
REMARK SMILES IDX 56 67 57 68 65 69 58 70 64 71 59 72 60 73 61 74 62 75 63 76
REMARK SMILES IDX 42 77 43 78 51 79 44 80 50 81 45 82 46 83 47 84 48 85 49 86
REMARK H PARENT 9 7 14 23 70 42 40 53
REMARK Flexibility Score: inf
ROOT
ATOM      1  C   UNL A   1      39.639  21.980  26.624  1.00  0.00     0.023 C 
ENDROOT
BRANCH   1   2
ATOM      2  C   UNL A   1      39.160  23.434  26.501  1.00  0.00     0.023 C 
BRANCH   2   3
ATOM      3  C   UNL A   1      37.666  23.599  26.230  1.00  0.00     0.116 C 
BRANCH   3   4
ATOM      4  N   UNL A   1      37.357  23.579  24.813  1.00  0.00    -0.356 N 
ATOM      5  C   UNL A   1      36.928  22.533  24.047  1.00  0.00     0.224 C 
ATOM      6  O   UNL A   1      36.697  22.739  22.852  1.00  0.00    -0.275 OA
ATOM      7  H   UNL A   1      37.471  24.436  24.341  1.00  0.00     0.163 HD
BRANCH   5   8
ATOM      8  C   UNL A   1      36.667  21.173  24.679  1.00  0.00     0.137 C 
BRANCH   8   9
ATOM      9  C   UNL A   1      35.214  20.834  24.784  1.00  0.00    -0.013 A 
ATOM     10  N   UNL A   1      33.012  21.020  25.117  1.00  0.00    -0.347 N 
ATOM     11  C   UNL A   1      34.179  21.728  24.995  1.00  0.00     0.091 A 
ATOM     12  C   UNL A   1      33.248  19.680  24.901  1.00  0.00     0.048 A 
ATOM     13  C   UNL A   1      34.623  19.534  24.696  1.00  0.00     0.003 A 
ATOM     14  C   UNL A   1      32.376  18.579  24.893  1.00  0.00     0.027 A 
ATOM     15  C   UNL A   1      35.143  18.241  24.479  1.00  0.00     0.010 A 
ATOM     16  C   UNL A   1      32.918  17.308  24.687  1.00  0.00     0.002 A 
ATOM     17  C   UNL A   1      34.283  17.139  24.481  1.00  0.00     0.001 A 
BRANCH  10  18
ATOM     18  C   UNL A   1      31.723  21.620  25.422  1.00  0.00     0.119 C 
ATOM     19  C   UNL A   1      31.837  23.007  26.033  1.00  0.00     0.027 C 
ENDBRANCH  10  18
ENDBRANCH   8   9
ENDBRANCH   5   8
ENDBRANCH   3   4
ENDBRANCH   2   3
ENDBRANCH   1   2
BRANCH   1  20
ATOM     20  C   UNL A   1      41.118  21.812  26.984  1.00  0.00     0.116 C 
BRANCH  20  21
ATOM     21  N   UNL A   1      42.026  22.214  25.928  1.00  0.00    -0.352 N 
ATOM     22  C   UNL A   1      42.708  23.359  25.624  1.00  0.00     0.251 C 
ATOM     23  H   UNL A   1      42.191  21.494  25.278  1.00  0.00     0.163 HD
ATOM     24  O   UNL A   1      43.516  23.266  24.694  1.00  0.00    -0.269 OA
BRANCH  22  25
ATOM     25  C   UNL A   1      42.522  24.683  26.283  1.00  0.00     0.039 A 
ATOM     26  C   UNL A   1      42.926  25.012  27.576  1.00  0.00     0.014 A 
ATOM     27  C   UNL A   1      41.823  25.653  25.535  1.00  0.00     0.014 A 
ATOM     28  C   UNL A   1      42.586  26.243  28.130  1.00  0.00     0.010 A 
ATOM     29  C   UNL A   1      41.485  26.888  26.081  1.00  0.00     0.010 A 
ATOM     30  C   UNL A   1      41.837  27.169  27.397  1.00  0.00    -0.014 A 
BRANCH  30  31
ATOM     31  C   UNL A   1      41.524  28.445  28.036  1.00  0.00     0.031 A 
ATOM     32  C   UNL A   1      42.554  29.504  27.874  1.00  0.00     0.074 A 
ATOM     33  C   UNL A   1      40.373  28.715  28.685  1.00  0.00     0.049 A 
ATOM     34  N   UNL A   1      43.283  30.043  28.795  1.00  0.00    -0.248 NA
ATOM     35  C   UNL A   1      42.884  29.944  26.511  1.00  0.00     0.031 C 
ATOM     36  C   UNL A   1      39.150  27.907  28.705  1.00  0.00     0.029 A 
ATOM     37  N   UNL A   1      40.024  29.827  29.399  1.00  0.00    -0.354 N 
ATOM     38  C   UNL A   1      44.043  31.022  28.161  1.00  0.00     0.074 A 
ATOM     39  C   UNL A   1      43.855  30.828  26.744  1.00  0.00     0.031 C 
ATOM     40  C   UNL A   1      38.132  28.652  29.195  1.00  0.00     0.029 A 
ATOM     41  C   UNL A   1      38.668  29.913  29.679  1.00  0.00     0.049 A 
ATOM     42  H   UNL A   1      40.676  30.505  29.689  1.00  0.00     0.167 HD
ATOM     43  C   UNL A   1      44.611  32.048  28.854  1.00  0.00     0.031 A 
ATOM     44  C   UNL A   1      38.015  30.952  30.252  1.00  0.00     0.031 A 
ATOM     45  C   UNL A   1      44.588  31.816  30.271  1.00  0.00     0.049 A 
ATOM     46  C   UNL A   1      38.984  31.723  31.059  1.00  0.00     0.074 A 
ATOM     47  C   UNL A   1      45.329  31.093  31.177  1.00  0.00     0.029 A 
ATOM     48  N   UNL A   1      43.416  32.174  30.886  1.00  0.00    -0.354 N 
ATOM     49  N   UNL A   1      39.572  31.243  32.119  1.00  0.00    -0.248 NA
ATOM     50  C   UNL A   1      39.542  32.968  30.545  1.00  0.00     0.031 C 
ATOM     51  C   UNL A   1      44.468  30.851  32.287  1.00  0.00     0.029 A 
ATOM     52  C   UNL A   1      43.236  31.454  32.041  1.00  0.00     0.049 A 
ATOM     53  H   UNL A   1      42.791  32.853  30.546  1.00  0.00     0.167 HD
ATOM     54  C   UNL A   1      40.800  31.873  32.143  1.00  0.00     0.074 A 
ATOM     55  C   UNL A   1      40.654  33.036  31.280  1.00  0.00     0.031 C 
ATOM     56  C   UNL A   1      41.913  31.229  32.593  1.00  0.00     0.031 A 
BRANCH  43  57
ATOM     57  C   UNL A   1      44.845  33.433  28.299  1.00  0.00    -0.014 A 
ATOM     58  C   UNL A   1      43.798  34.281  27.888  1.00  0.00     0.010 A 
ATOM     59  C   UNL A   1      46.123  34.021  28.432  1.00  0.00     0.010 A 
ATOM     60  C   UNL A   1      44.006  35.634  27.607  1.00  0.00     0.020 A 
ATOM     61  C   UNL A   1      46.336  35.386  28.190  1.00  0.00     0.020 A 
ATOM     62  C   UNL A   1      45.273  36.184  27.773  1.00  0.00     0.054 A 
BRANCH  62  63
ATOM     63  S   UNL A   1      45.475  37.964  27.512  1.00  0.00     0.124 S 
ATOM     64  O   UNL A   1      46.187  38.364  28.727  1.00  0.00    -0.237 OA
ATOM     65  O   UNL A   1      46.268  38.009  26.282  1.00  0.00    -0.237 OA
ATOM     66  O   UNL A   1      44.113  38.455  27.394  1.00  0.00    -0.744 OA
ENDBRANCH  62  63
ENDBRANCH  43  57
BRANCH  44  67
ATOM     67  C   UNL A   1      36.680  31.490  29.908  1.00  0.00    -0.014 A 
ATOM     68  C   UNL A   1      36.375  31.763  28.559  1.00  0.00     0.010 A 
ATOM     69  C   UNL A   1      35.852  32.042  30.902  1.00  0.00     0.010 A 
ATOM     70  C   UNL A   1      35.338  32.637  28.218  1.00  0.00     0.020 A 
ATOM     71  C   UNL A   1      34.810  32.919  30.566  1.00  0.00     0.020 A 
ATOM     72  C   UNL A   1      34.589  33.243  29.226  1.00  0.00     0.054 A 
BRANCH  72  73
ATOM     73  S   UNL A   1      33.401  34.533  28.756  1.00  0.00     0.124 S 
ATOM     74  O   UNL A   1      32.605  33.855  27.737  1.00  0.00    -0.237 OA
ATOM     75  O   UNL A   1      32.710  34.800  30.016  1.00  0.00    -0.237 OA
ATOM     76  O   UNL A   1      34.245  35.621  28.270  1.00  0.00    -0.744 OA
ENDBRANCH  72  73
ENDBRANCH  44  67
BRANCH  56  77
ATOM     77  C   UNL A   1      41.741  30.077  33.547  1.00  0.00    -0.014 A 
ATOM     78  C   UNL A   1      41.891  30.353  34.919  1.00  0.00     0.010 A 
ATOM     79  C   UNL A   1      41.557  28.741  33.145  1.00  0.00     0.010 A 
ATOM     80  C   UNL A   1      41.900  29.326  35.862  1.00  0.00     0.020 A 
ATOM     81  C   UNL A   1      41.537  27.705  34.092  1.00  0.00     0.020 A 
ATOM     82  C   UNL A   1      41.735  28.005  35.442  1.00  0.00     0.054 A 
BRANCH  82  83
ATOM     83  S   UNL A   1      41.802  26.697  36.696  1.00  0.00     0.124 S 
ATOM     84  O   UNL A   1      41.881  25.488  35.878  1.00  0.00    -0.237 OA
ATOM     85  O   UNL A   1      43.017  27.023  37.440  1.00  0.00    -0.237 OA
ATOM     86  O   UNL A   1      40.559  26.859  37.446  1.00  0.00    -0.744 OA
ENDBRANCH  82  83
ENDBRANCH  56  77
ENDBRANCH  30  31
ENDBRANCH  22  25
ENDBRANCH  20  21
ENDBRANCH   1  20
TORSDOF 16
ENDMDL
MODEL 2
REMARK VINA RESULT:     -11.7      1.942      3.380
REMARK SMILES CCn1cc(CC(=O)NCCCCNC(=O)c2ccc(-c3c4nc(c(-c5ccc(S(=O)(=O)[O-])cc5)c5ccc([nH]5)c(-c5ccc(S(=O)(=O)[O-])cc5)c5nc(c(-c6ccc(S(=O)(=O)[O-])cc6)c6ccc3[nH]6)C=C5)C=C4)cc2)c2ccccc21
REMARK SMILES IDX 12 1 11 2 10 3 9 4 7 5 8 6 6 8 5 9 3 10 4 11 82 12 77 13
REMARK SMILES IDX 81 14 78 15 80 16 79 17 2 18 1 19 13 20 14 21 15 22 16 24
REMARK SMILES IDX 17 25 18 26 76 27 19 28 75 29 20 30 21 31 22 32 69 33 23 34
REMARK SMILES IDX 74 35 68 36 70 37 24 38 73 39 67 40 66 41 25 43 55 44 36 45
REMARK SMILES IDX 54 46 37 47 40 48 53 49 71 50 38 51 39 52 52 54 72 55 41 56
REMARK SMILES IDX 26 57 27 58 35 59 28 60 34 61 29 62 30 63 31 64 32 65 33 66
REMARK SMILES IDX 56 67 57 68 65 69 58 70 64 71 59 72 60 73 61 74 62 75 63 76
REMARK SMILES IDX 42 77 43 78 51 79 44 80 50 81 45 82 46 83 47 84 48 85 49 86
REMARK H PARENT 9 7 14 23 70 42 40 53
REMARK Flexibility Score: inf
ROOT
ATOM      1  C   UNL A   1      38.790  22.642  25.982  1.00  0.00     0.023 C 
ENDROOT
BRANCH   1   2
ATOM      2  C   UNL A   1      37.575  21.856  25.466  1.00  0.00     0.023 C 
BRANCH   2   3
ATOM      3  C   UNL A   1      36.477  22.710  24.833  1.00  0.00     0.116 C 
BRANCH   3   4
ATOM      4  N   UNL A   1      35.279  22.759  25.649  1.00  0.00    -0.356 N 
ATOM      5  C   UNL A   1      34.488  23.834  25.942  1.00  0.00     0.224 C 
ATOM      6  O   UNL A   1      33.489  23.652  26.642  1.00  0.00    -0.275 OA
ATOM      7  H   UNL A   1      34.997  21.902  26.042  1.00  0.00     0.163 HD
BRANCH   5   8
ATOM      8  C   UNL A   1      34.797  25.200  25.347  1.00  0.00     0.137 C 
BRANCH   8   9
ATOM      9  C   UNL A   1      33.581  26.041  25.120  1.00  0.00    -0.013 A 
ATOM     10  N   UNL A   1      31.665  26.812  24.266  1.00  0.00    -0.347 N 
ATOM     11  C   UNL A   1      32.544  25.760  24.249  1.00  0.00     0.091 A 
ATOM     12  C   UNL A   1      32.061  27.742  25.202  1.00  0.00     0.048 A 
ATOM     13  C   UNL A   1      33.264  27.286  25.749  1.00  0.00     0.003 A 
ATOM     14  C   UNL A   1      31.480  28.958  25.599  1.00  0.00     0.027 A 
ATOM     15  C   UNL A   1      33.909  28.077  26.724  1.00  0.00     0.010 A 
ATOM     16  C   UNL A   1      32.144  29.727  26.557  1.00  0.00     0.002 A 
ATOM     17  C   UNL A   1      33.342  29.294  27.115  1.00  0.00     0.001 A 
BRANCH  10  18
ATOM     18  C   UNL A   1      30.489  26.905  23.417  1.00  0.00     0.119 C 
ATOM     19  C   UNL A   1      29.227  26.377  24.081  1.00  0.00     0.027 C 
ENDBRANCH  10  18
ENDBRANCH   8   9
ENDBRANCH   5   8
ENDBRANCH   3   4
ENDBRANCH   2   3
ENDBRANCH   1   2
BRANCH   1  20
ATOM     20  C   UNL A   1      39.953  21.782  26.484  1.00  0.00     0.116 C 
BRANCH  20  21
ATOM     21  N   UNL A   1      41.188  21.981  25.751  1.00  0.00    -0.352 N 
ATOM     22  C   UNL A   1      42.139  22.961  25.708  1.00  0.00     0.251 C 
ATOM     23  H   UNL A   1      41.387  21.235  25.141  1.00  0.00     0.163 HD
ATOM     24  O   UNL A   1      43.146  22.696  25.043  1.00  0.00    -0.269 OA
BRANCH  22  25
ATOM     25  C   UNL A   1      42.036  24.302  26.350  1.00  0.00     0.039 A 
ATOM     26  C   UNL A   1      42.458  24.622  27.639  1.00  0.00     0.014 A 
ATOM     27  C   UNL A   1      41.401  25.304  25.588  1.00  0.00     0.014 A 
ATOM     28  C   UNL A   1      42.195  25.879  28.176  1.00  0.00     0.010 A 
ATOM     29  C   UNL A   1      41.140  26.565  26.118  1.00  0.00     0.010 A 
ATOM     30  C   UNL A   1      41.506  26.841  27.430  1.00  0.00    -0.014 A 
BRANCH  30  31
ATOM     31  C   UNL A   1      41.273  28.142  28.052  1.00  0.00     0.031 A 
ATOM     32  C   UNL A   1      42.343  29.149  27.832  1.00  0.00     0.074 A 
ATOM     33  C   UNL A   1      40.159  28.476  28.735  1.00  0.00     0.049 A 
ATOM     34  N   UNL A   1      43.127  29.674  28.715  1.00  0.00    -0.248 NA
ATOM     35  C   UNL A   1      42.643  29.548  26.449  1.00  0.00     0.031 C 
ATOM     36  C   UNL A   1      38.903  27.724  28.814  1.00  0.00     0.029 A 
ATOM     37  N   UNL A   1      39.885  29.616  29.437  1.00  0.00    -0.354 N 
ATOM     38  C   UNL A   1      43.906  30.605  28.034  1.00  0.00     0.074 A 
ATOM     39  C   UNL A   1      43.660  30.391  26.629  1.00  0.00     0.031 C 
ATOM     40  C   UNL A   1      37.937  28.524  29.323  1.00  0.00     0.029 A 
ATOM     41  C   UNL A   1      38.545  29.769  29.761  1.00  0.00     0.049 A 
ATOM     42  H   UNL A   1      40.577  30.270  29.688  1.00  0.00     0.167 HD
ATOM     43  C   UNL A   1      44.543  31.618  28.684  1.00  0.00     0.031 A 
ATOM     44  C   UNL A   1      37.960  30.847  30.334  1.00  0.00     0.031 A 
ATOM     45  C   UNL A   1      44.560  31.415  30.106  1.00  0.00     0.049 A 
ATOM     46  C   UNL A   1      38.990  31.590  31.090  1.00  0.00     0.074 A 
ATOM     47  C   UNL A   1      45.301  30.678  31.001  1.00  0.00     0.029 A 
ATOM     48  N   UNL A   1      43.429  31.838  30.754  1.00  0.00    -0.354 N 
ATOM     49  N   UNL A   1      39.594  31.105  32.139  1.00  0.00    -0.248 NA
ATOM     50  C   UNL A   1      39.583  32.798  30.530  1.00  0.00     0.031 C 
ATOM     51  C   UNL A   1      44.471  30.497  32.146  1.00  0.00     0.029 A 
ATOM     52  C   UNL A   1      43.258  31.150  31.929  1.00  0.00     0.049 A 
ATOM     53  H   UNL A   1      42.822  32.537  30.421  1.00  0.00     0.167 HD
ATOM     54  C   UNL A   1      40.848  31.680  32.107  1.00  0.00     0.074 A 
ATOM     55  C   UNL A   1      40.723  32.831  31.225  1.00  0.00     0.031 C 
ATOM     56  C   UNL A   1      41.947  30.996  32.531  1.00  0.00     0.031 A 
BRANCH  43  57
ATOM     57  C   UNL A   1      44.819  32.980  28.092  1.00  0.00    -0.014 A 
ATOM     58  C   UNL A   1      43.806  33.931  27.853  1.00  0.00     0.010 A 
ATOM     59  C   UNL A   1      46.152  33.439  28.012  1.00  0.00     0.010 A 
ATOM     60  C   UNL A   1      44.098  35.260  27.536  1.00  0.00     0.020 A 
ATOM     61  C   UNL A   1      46.456  34.780  27.732  1.00  0.00     0.020 A 
ATOM     62  C   UNL A   1      45.422  35.682  27.490  1.00  0.00     0.054 A 
BRANCH  62  63
ATOM     63  S   UNL A   1      45.753  37.436  27.191  1.00  0.00     0.124 S 
ATOM     64  O   UNL A   1      46.644  37.378  26.032  1.00  0.00    -0.237 OA
ATOM     65  O   UNL A   1      44.414  37.963  26.922  1.00  0.00    -0.237 OA
ATOM     66  O   UNL A   1      46.364  37.890  28.429  1.00  0.00    -0.744 OA
ENDBRANCH  62  63
ENDBRANCH  43  57
BRANCH  44  67
ATOM     67  C   UNL A   1      36.638  31.438  30.025  1.00  0.00    -0.014 A 
ATOM     68  C   UNL A   1      36.300  31.704  28.683  1.00  0.00     0.010 A 
ATOM     69  C   UNL A   1      35.867  32.039  31.037  1.00  0.00     0.010 A 
ATOM     70  C   UNL A   1      35.291  32.618  28.362  1.00  0.00     0.020 A 
ATOM     71  C   UNL A   1      34.854  32.955  30.721  1.00  0.00     0.020 A 
ATOM     72  C   UNL A   1      34.603  33.270  29.384  1.00  0.00     0.054 A 
BRANCH  72  73
ATOM     73  S   UNL A   1      33.457  34.603  28.933  1.00  0.00     0.124 S 
ATOM     74  O   UNL A   1      34.359  35.596  28.355  1.00  0.00    -0.237 OA
ATOM     75  O   UNL A   1      32.562  33.943  27.984  1.00  0.00    -0.237 OA
ATOM     76  O   UNL A   1      32.843  34.980  30.203  1.00  0.00    -0.744 OA
ENDBRANCH  72  73
ENDBRANCH  44  67
BRANCH  56  77
ATOM     77  C   UNL A   1      41.759  29.872  33.516  1.00  0.00    -0.014 A 
ATOM     78  C   UNL A   1      41.892  30.187  34.881  1.00  0.00     0.010 A 
ATOM     79  C   UNL A   1      41.574  28.526  33.150  1.00  0.00     0.010 A 
ATOM     80  C   UNL A   1      41.885  29.186  35.853  1.00  0.00     0.020 A 
ATOM     81  C   UNL A   1      41.538  27.517  34.125  1.00  0.00     0.020 A 
ATOM     82  C   UNL A   1      41.720  27.854  35.469  1.00  0.00     0.054 A 
BRANCH  82  83
ATOM     83  S   UNL A   1      41.767  26.583  36.760  1.00  0.00     0.124 S 
ATOM     84  O   UNL A   1      40.514  26.822  37.475  1.00  0.00    -0.237 OA
ATOM     85  O   UNL A   1      41.815  25.341  35.991  1.00  0.00    -0.237 OA
ATOM     86  O   UNL A   1      42.979  26.887  37.516  1.00  0.00    -0.744 OA
ENDBRANCH  82  83
ENDBRANCH  56  77
ENDBRANCH  30  31
ENDBRANCH  22  25
ENDBRANCH  20  21
ENDBRANCH   1  20
TORSDOF 16
ENDMDL
MODEL 3
REMARK VINA RESULT:     -11.6      1.839      2.897
REMARK SMILES CCn1cc(CC(=O)NCCCCNC(=O)c2ccc(-c3c4nc(c(-c5ccc(S(=O)(=O)[O-])cc5)c5ccc([nH]5)c(-c5ccc(S(=O)(=O)[O-])cc5)c5nc(c(-c6ccc(S(=O)(=O)[O-])cc6)c6ccc3[nH]6)C=C5)C=C4)cc2)c2ccccc21
REMARK SMILES IDX 12 1 11 2 10 3 9 4 7 5 8 6 6 8 5 9 3 10 4 11 82 12 77 13
REMARK SMILES IDX 81 14 78 15 80 16 79 17 2 18 1 19 13 20 14 21 15 22 16 24
REMARK SMILES IDX 17 25 18 26 76 27 19 28 75 29 20 30 21 31 22 32 69 33 23 34
REMARK SMILES IDX 74 35 68 36 70 37 24 38 73 39 67 40 66 41 25 43 55 44 36 45
REMARK SMILES IDX 54 46 37 47 40 48 53 49 71 50 38 51 39 52 52 54 72 55 41 56
REMARK SMILES IDX 26 57 27 58 35 59 28 60 34 61 29 62 30 63 31 64 32 65 33 66
REMARK SMILES IDX 56 67 57 68 65 69 58 70 64 71 59 72 60 73 61 74 62 75 63 76
REMARK SMILES IDX 42 77 43 78 51 79 44 80 50 81 45 82 46 83 47 84 48 85 49 86
REMARK H PARENT 9 7 14 23 70 42 40 53
REMARK Flexibility Score: inf
ROOT
ATOM      1  C   UNL A   1      38.845  22.514  26.114  1.00  0.00     0.023 C 
ENDROOT
BRANCH   1   2
ATOM      2  C   UNL A   1      37.853  21.561  25.429  1.00  0.00     0.023 C 
BRANCH   2   3
ATOM      3  C   UNL A   1      37.068  22.172  24.270  1.00  0.00     0.116 C 
BRANCH   3   4
ATOM      4  N   UNL A   1      35.636  22.007  24.427  1.00  0.00    -0.356 N 
ATOM      5  C   UNL A   1      34.686  22.963  24.656  1.00  0.00     0.224 C 
ATOM      6  O   UNL A   1      33.507  22.608  24.734  1.00  0.00    -0.275 OA
ATOM      7  H   UNL A   1      35.304  21.083  24.358  1.00  0.00     0.163 HD
BRANCH   5   8
ATOM      8  C   UNL A   1      35.076  24.432  24.730  1.00  0.00     0.137 C 
BRANCH   8   9
ATOM      9  C   UNL A   1      33.907  25.352  24.879  1.00  0.00    -0.013 A 
ATOM     10  N   UNL A   1      32.297  26.605  25.793  1.00  0.00    -0.347 N 
ATOM     11  C   UNL A   1      33.431  25.883  26.064  1.00  0.00     0.091 A 
ATOM     12  C   UNL A   1      32.069  26.631  24.435  1.00  0.00     0.048 A 
ATOM     13  C   UNL A   1      33.061  25.847  23.837  1.00  0.00     0.003 A 
ATOM     14  C   UNL A   1      31.062  27.255  23.679  1.00  0.00     0.027 A 
ATOM     15  C   UNL A   1      33.041  25.680  22.436  1.00  0.00     0.010 A 
ATOM     16  C   UNL A   1      31.058  27.064  22.296  1.00  0.00     0.002 A 
ATOM     17  C   UNL A   1      32.034  26.289  21.680  1.00  0.00     0.001 A 
BRANCH  10  18
ATOM     18  C   UNL A   1      31.477  27.247  26.807  1.00  0.00     0.119 C 
ATOM     19  C   UNL A   1      31.899  28.678  27.100  1.00  0.00     0.027 C 
ENDBRANCH  10  18
ENDBRANCH   8   9
ENDBRANCH   5   8
ENDBRANCH   3   4
ENDBRANCH   2   3
ENDBRANCH   1   2
BRANCH   1  20
ATOM     20  C   UNL A   1      40.095  21.845  26.691  1.00  0.00     0.116 C 
BRANCH  20  21
ATOM     21  N   UNL A   1      41.294  22.070  25.906  1.00  0.00    -0.352 N 
ATOM     22  C   UNL A   1      42.215  23.075  25.816  1.00  0.00     0.251 C 
ATOM     23  H   UNL A   1      41.489  21.323  25.296  1.00  0.00     0.163 HD
ATOM     24  O   UNL A   1      43.201  22.831  25.113  1.00  0.00    -0.269 OA
BRANCH  22  25
ATOM     25  C   UNL A   1      42.100  24.420  26.448  1.00  0.00     0.039 A 
ATOM     26  C   UNL A   1      42.571  24.766  27.713  1.00  0.00     0.014 A 
ATOM     27  C   UNL A   1      41.399  25.393  25.707  1.00  0.00     0.014 A 
ATOM     28  C   UNL A   1      42.295  26.021  28.250  1.00  0.00     0.010 A 
ATOM     29  C   UNL A   1      41.125  26.652  26.236  1.00  0.00     0.010 A 
ATOM     30  C   UNL A   1      41.542  26.953  27.527  1.00  0.00    -0.014 A 
BRANCH  30  31
ATOM     31  C   UNL A   1      41.298  28.254  28.146  1.00  0.00     0.031 A 
ATOM     32  C   UNL A   1      42.358  29.270  27.922  1.00  0.00     0.074 A 
ATOM     33  C   UNL A   1      40.181  28.579  28.829  1.00  0.00     0.049 A 
ATOM     34  N   UNL A   1      43.139  29.804  28.803  1.00  0.00    -0.248 NA
ATOM     35  C   UNL A   1      42.653  29.668  26.538  1.00  0.00     0.031 C 
ATOM     36  C   UNL A   1      38.933  27.816  28.912  1.00  0.00     0.029 A 
ATOM     37  N   UNL A   1      39.898  29.718  29.529  1.00  0.00    -0.354 N 
ATOM     38  C   UNL A   1      43.909  30.741  28.119  1.00  0.00     0.074 A 
ATOM     39  C   UNL A   1      43.662  30.521  26.715  1.00  0.00     0.031 C 
ATOM     40  C   UNL A   1      37.960  28.608  29.420  1.00  0.00     0.029 A 
ATOM     41  C   UNL A   1      38.557  29.859  29.855  1.00  0.00     0.049 A 
ATOM     42  H   UNL A   1      40.584  30.379  29.779  1.00  0.00     0.167 HD
ATOM     43  C   UNL A   1      44.537  31.760  28.767  1.00  0.00     0.031 A 
ATOM     44  C   UNL A   1      37.963  30.933  30.426  1.00  0.00     0.031 A 
ATOM     45  C   UNL A   1      44.558  31.561  30.189  1.00  0.00     0.049 A 
ATOM     46  C   UNL A   1      38.987  31.687  31.179  1.00  0.00     0.074 A 
ATOM     47  C   UNL A   1      45.306  30.833  31.085  1.00  0.00     0.029 A 
ATOM     48  N   UNL A   1      43.423  31.975  30.837  1.00  0.00    -0.354 N 
ATOM     49  N   UNL A   1      39.596  31.211  32.229  1.00  0.00    -0.248 NA
ATOM     50  C   UNL A   1      39.569  32.900  30.616  1.00  0.00     0.031 C 
ATOM     51  C   UNL A   1      44.479  30.647  32.231  1.00  0.00     0.029 A 
ATOM     52  C   UNL A   1      43.260  31.288  32.014  1.00  0.00     0.049 A 
ATOM     53  H   UNL A   1      42.810  32.668  30.504  1.00  0.00     0.167 HD
ATOM     54  C   UNL A   1      40.845  31.797  32.193  1.00  0.00     0.074 A 
ATOM     55  C   UNL A   1      40.709  32.944  31.309  1.00  0.00     0.031 C 
ATOM     56  C   UNL A   1      41.951  31.124  32.618  1.00  0.00     0.031 A 
BRANCH  43  57
ATOM     57  C   UNL A   1      44.799  33.124  28.171  1.00  0.00    -0.014 A 
ATOM     58  C   UNL A   1      43.768  34.020  27.825  1.00  0.00     0.010 A 
ATOM     59  C   UNL A   1      46.112  33.645  28.197  1.00  0.00     0.010 A 
ATOM     60  C   UNL A   1      44.025  35.356  27.506  1.00  0.00     0.020 A 
ATOM     61  C   UNL A   1      46.376  34.994  27.915  1.00  0.00     0.020 A 
ATOM     62  C   UNL A   1      45.326  35.840  27.565  1.00  0.00     0.054 A 
BRANCH  62  63
ATOM     63  S   UNL A   1      45.600  37.603  27.258  1.00  0.00     0.124 S 
ATOM     64  O   UNL A   1      46.552  37.568  26.147  1.00  0.00    -0.237 OA
ATOM     65  O   UNL A   1      44.256  38.071  26.913  1.00  0.00    -0.237 OA
ATOM     66  O   UNL A   1      46.127  38.098  28.518  1.00  0.00    -0.744 OA
ENDBRANCH  62  63
ENDBRANCH  43  57
BRANCH  44  67
ATOM     67  C   UNL A   1      36.635  31.512  30.117  1.00  0.00    -0.014 A 
ATOM     68  C   UNL A   1      36.290  31.762  28.774  1.00  0.00     0.010 A 
ATOM     69  C   UNL A   1      35.865  32.118  31.127  1.00  0.00     0.010 A 
ATOM     70  C   UNL A   1      35.272  32.664  28.448  1.00  0.00     0.020 A 
ATOM     71  C   UNL A   1      34.843  33.023  30.806  1.00  0.00     0.020 A 
ATOM     72  C   UNL A   1      34.584  33.322  29.467  1.00  0.00     0.054 A 
BRANCH  72  73
ATOM     73  S   UNL A   1      33.426  34.642  29.007  1.00  0.00     0.124 S 
ATOM     74  O   UNL A   1      34.325  35.660  28.470  1.00  0.00    -0.237 OA
ATOM     75  O   UNL A   1      32.568  33.982  28.025  1.00  0.00    -0.237 OA
ATOM     76  O   UNL A   1      32.773  34.986  30.267  1.00  0.00    -0.744 OA
ENDBRANCH  72  73
ENDBRANCH  44  67
BRANCH  56  77
ATOM     77  C   UNL A   1      41.774  30.001  33.606  1.00  0.00    -0.014 A 
ATOM     78  C   UNL A   1      42.085  30.274  34.951  1.00  0.00     0.010 A 
ATOM     79  C   UNL A   1      41.431  28.683  33.248  1.00  0.00     0.010 A 
ATOM     80  C   UNL A   1      42.098  29.258  35.906  1.00  0.00     0.020 A 
ATOM     81  C   UNL A   1      41.414  27.662  34.211  1.00  0.00     0.020 A 
ATOM     82  C   UNL A   1      41.774  27.954  35.529  1.00  0.00     0.054 A 
BRANCH  82  83
ATOM     83  S   UNL A   1      41.850  26.657  36.793  1.00  0.00     0.124 S 
ATOM     84  O   UNL A   1      40.557  26.801  37.461  1.00  0.00    -0.237 OA
ATOM     85  O   UNL A   1      42.006  25.439  36.000  1.00  0.00    -0.237 OA
ATOM     86  O   UNL A   1      43.011  27.017  37.603  1.00  0.00    -0.744 OA
ENDBRANCH  82  83
ENDBRANCH  56  77
ENDBRANCH  30  31
ENDBRANCH  22  25
ENDBRANCH  20  21
ENDBRANCH   1  20
TORSDOF 16
ENDMDL
