MODEL 1
REMARK VINA RESULT:     -11.2      0.000      0.000
REMARK SMILES COc1ccc(C[NH2+]Cc2cccn2-c2sc(C)c(C)c2C(=O)NCCCCNC(=O)c2ccc(-c3c4nc(c(-c5ccc(S(=O)(=O)[O-])cc5)c5ccc([nH]5)c(-c5ccc(S(=O)(=O)[O-])cc5)c5nc(c(-c6ccc(S(=O)(=O)[O-])cc6)c6ccc3[nH]6)C=C5)C=C4)cc2)cc1
REMARK SMILES IDX 25 1 24 2 22 3 23 4 21 6 15 7 16 8 17 9 19 10 18 11 20 12
REMARK SMILES IDX 14 13 10 14 11 15 12 16 13 17 9 18 8 19 7 22 6 23 3 24 4 25
REMARK SMILES IDX 93 26 5 27 92 28 2 29 1 30 26 31 27 32 28 33 29 34 30 35
REMARK SMILES IDX 31 37 32 38 33 39 91 40 34 41 90 42 35 43 36 44 37 45 84 46
REMARK SMILES IDX 38 47 89 48 83 49 85 50 39 51 88 52 82 53 81 54 40 56 70 57
REMARK SMILES IDX 51 58 69 59 52 60 55 61 68 62 86 63 53 64 54 65 67 67 87 68
REMARK SMILES IDX 56 69 41 70 42 71 50 72 43 73 49 74 44 75 45 76 46 77 47 78
REMARK SMILES IDX 48 79 71 80 72 81 80 82 73 83 79 84 74 85 75 86 76 87 77 88
REMARK SMILES IDX 78 89 57 90 58 91 66 92 59 93 65 94 60 95 61 96 62 97 63 98
REMARK SMILES IDX 64 99
REMARK H PARENT 24 5 8 20 8 21 29 36 85 55 55 66
REMARK Flexibility Score: inf
ROOT
ATOM      1  C   UNL A   1      37.440  23.732  25.753  1.00  0.00     0.116 C 
ENDROOT
BRANCH   1   2
ATOM      2  N   UNL A   1      37.373  23.442  24.354  1.00  0.00    -0.352 N 
ATOM      3  C   UNL A   1      36.327  22.986  23.580  1.00  0.00     0.254 C 
ATOM      4  O   UNL A   1      36.593  22.922  22.376  1.00  0.00    -0.269 OA
ATOM      5  H   UNL A   1      38.212  23.594  23.862  1.00  0.00     0.163 HD
BRANCH   3   6
ATOM      6  C   UNL A   1      35.007  22.501  24.084  1.00  0.00     0.078 A 
ATOM      7  C   UNL A   1      33.745  23.087  24.099  1.00  0.00     0.113 A 
ATOM      8  S   UNL A   1      32.520  22.130  24.789  1.00  0.00    -0.122 S 
ATOM      9  C   UNL A   1      33.587  20.847  25.085  1.00  0.00     0.007 A 
ATOM     10  C   UNL A   1      34.884  21.153  24.701  1.00  0.00    -0.022 A 
ATOM     11  C   UNL A   1      33.065  19.578  25.680  1.00  0.00     0.057 C 
ATOM     12  C   UNL A   1      36.034  20.197  24.881  1.00  0.00     0.046 C 
BRANCH   7  13
ATOM     13  N   UNL A   1      33.251  24.239  23.479  1.00  0.00    -0.306 N 
ATOM     14  C   UNL A   1      33.051  25.516  24.036  1.00  0.00     0.078 A 
ATOM     15  C   UNL A   1      32.529  26.322  23.032  1.00  0.00     0.029 A 
ATOM     16  C   UNL A   1      32.429  25.560  21.851  1.00  0.00     0.020 A 
ATOM     17  C   UNL A   1      32.881  24.297  22.146  1.00  0.00     0.092 A 
BRANCH  14  18
ATOM     18  C   UNL A   1      33.375  25.896  25.458  1.00  0.00     0.316 C 
BRANCH  18  19
ATOM     19  N   UNL A   1      33.720  27.306  25.668  1.00  0.00    -0.338 N 
ATOM     20  H   UNL A   1      34.737  27.387  25.660  1.00  0.00     0.346 HD
ATOM     21  H   UNL A   1      33.268  27.828  24.916  1.00  0.00     0.346 HD
BRANCH  19  22
ATOM     22  C   UNL A   1      33.230  27.880  26.916  1.00  0.00     0.297 C 
BRANCH  22  23
ATOM     23  C   UNL A   1      33.829  29.249  27.202  1.00  0.00     0.006 A 
ATOM     24  C   UNL A   1      34.990  31.796  27.609  1.00  0.00     0.118 A 
ATOM     25  C   UNL A   1      33.611  31.661  27.445  1.00  0.00     0.047 A 
ATOM     26  C   UNL A   1      35.787  30.657  27.616  1.00  0.00     0.047 A 
ATOM     27  C   UNL A   1      33.033  30.400  27.243  1.00  0.00     0.013 A 
ATOM     28  C   UNL A   1      35.210  29.404  27.390  1.00  0.00     0.013 A 
BRANCH  24  29
ATOM     29  O   UNL A   1      35.460  33.071  27.777  1.00  0.00    -0.497 OA
ATOM     30  C   UNL A   1      34.478  34.017  28.195  1.00  0.00     0.278 C 
ENDBRANCH  24  29
ENDBRANCH  22  23
ENDBRANCH  19  22
ENDBRANCH  18  19
ENDBRANCH  14  18
ENDBRANCH   7  13
ENDBRANCH   3   6
ENDBRANCH   1   2
BRANCH   1  31
ATOM     31  C   UNL A   1      38.542  23.075  26.563  1.00  0.00     0.023 C 
BRANCH  31  32
ATOM     32  C   UNL A   1      39.088  21.735  26.081  1.00  0.00     0.023 C 
BRANCH  32  33
ATOM     33  C   UNL A   1      40.407  21.286  26.714  1.00  0.00     0.116 C 
BRANCH  33  34
ATOM     34  N   UNL A   1      41.561  21.438  25.838  1.00  0.00    -0.352 N 
ATOM     35  C   UNL A   1      42.288  22.581  25.574  1.00  0.00     0.251 C 
ATOM     36  H   UNL A   1      41.861  20.623  25.377  1.00  0.00     0.163 HD
ATOM     37  O   UNL A   1      43.051  22.626  24.628  1.00  0.00    -0.269 OA
BRANCH  35  38
ATOM     38  C   UNL A   1      42.108  23.756  26.454  1.00  0.00     0.039 A 
ATOM     39  C   UNL A   1      41.918  23.562  27.825  1.00  0.00     0.014 A 
ATOM     40  C   UNL A   1      42.134  25.042  25.905  1.00  0.00     0.014 A 
ATOM     41  C   UNL A   1      41.859  24.672  28.663  1.00  0.00     0.010 A 
ATOM     42  C   UNL A   1      42.099  26.149  26.740  1.00  0.00     0.010 A 
ATOM     43  C   UNL A   1      41.991  25.961  28.122  1.00  0.00    -0.014 A 
BRANCH  43  44
ATOM     44  C   UNL A   1      42.192  27.114  29.029  1.00  0.00     0.031 A 
ATOM     45  C   UNL A   1      43.557  27.051  29.745  1.00  0.00     0.074 A 
ATOM     46  C   UNL A   1      41.173  28.024  29.106  1.00  0.00     0.049 A 
ATOM     47  N   UNL A   1      43.907  27.540  30.894  1.00  0.00    -0.248 NA
ATOM     48  C   UNL A   1      44.676  26.265  29.149  1.00  0.00     0.031 C 
ATOM     49  C   UNL A   1      39.919  27.956  28.317  1.00  0.00     0.029 A 
ATOM     50  N   UNL A   1      40.968  29.180  29.834  1.00  0.00    -0.354 N 
ATOM     51  C   UNL A   1      45.283  27.269  31.093  1.00  0.00     0.074 A 
ATOM     52  C   UNL A   1      45.679  26.403  30.025  1.00  0.00     0.031 C 
ATOM     53  C   UNL A   1      39.075  28.957  28.655  1.00  0.00     0.029 A 
ATOM     54  C   UNL A   1      39.690  29.780  29.677  1.00  0.00     0.049 A 
ATOM     55  H   UNL A   1      41.660  29.562  30.421  1.00  0.00     0.167 HD
ATOM     56  C   UNL A   1      46.027  27.877  32.067  1.00  0.00     0.031 A 
ATOM     57  C   UNL A   1      39.143  30.839  30.349  1.00  0.00     0.031 A 
ATOM     58  C   UNL A   1      45.196  28.761  32.811  1.00  0.00     0.049 A 
ATOM     59  C   UNL A   1      40.211  31.374  31.202  1.00  0.00     0.074 A 
ATOM     60  C   UNL A   1      44.185  28.552  33.711  1.00  0.00     0.029 A 
ATOM     61  N   UNL A   1      45.144  30.056  32.352  1.00  0.00    -0.354 N 
ATOM     62  N   UNL A   1      41.227  32.061  30.781  1.00  0.00    -0.248 NA
ATOM     63  C   UNL A   1      40.161  31.104  32.645  1.00  0.00     0.031 C 
ATOM     64  C   UNL A   1      43.254  29.553  33.369  1.00  0.00     0.029 A 
ATOM     65  C   UNL A   1      43.839  30.449  32.465  1.00  0.00     0.049 A 
ATOM     66  H   UNL A   1      45.895  30.592  32.010  1.00  0.00     0.167 HD
ATOM     67  C   UNL A   1      42.107  31.933  31.824  1.00  0.00     0.074 A 
ATOM     68  C   UNL A   1      41.316  31.654  33.006  1.00  0.00     0.031 C 
ATOM     69  C   UNL A   1      43.356  31.470  31.568  1.00  0.00     0.031 A 
BRANCH  56  70
ATOM     70  C   UNL A   1      47.508  27.998  32.328  1.00  0.00    -0.014 A 
ATOM     71  C   UNL A   1      48.280  28.635  31.316  1.00  0.00     0.010 A 
ATOM     72  C   UNL A   1      48.199  27.240  33.280  1.00  0.00     0.010 A 
ATOM     73  C   UNL A   1      49.647  28.395  31.162  1.00  0.00     0.020 A 
ATOM     74  C   UNL A   1      49.587  27.028  33.156  1.00  0.00     0.020 A 
ATOM     75  C   UNL A   1      50.286  27.559  32.067  1.00  0.00     0.054 A 
BRANCH  75  76
ATOM     76  S   UNL A   1      52.019  27.124  31.743  1.00  0.00     0.124 S 
ATOM     77  O   UNL A   1      52.630  28.433  31.528  1.00  0.00    -0.237 OA
ATOM     78  O   UNL A   1      52.412  26.446  32.977  1.00  0.00    -0.237 OA
ATOM     79  O   UNL A   1      51.940  26.263  30.566  1.00  0.00    -0.744 OA
ENDBRANCH  75  76
ENDBRANCH  56  70
BRANCH  57  80
ATOM     80  C   UNL A   1      37.797  31.501  30.555  1.00  0.00    -0.014 A 
ATOM     81  C   UNL A   1      36.658  30.901  31.102  1.00  0.00     0.010 A 
ATOM     82  C   UNL A   1      37.729  32.915  30.376  1.00  0.00     0.010 A 
ATOM     83  C   UNL A   1      35.599  31.694  31.609  1.00  0.00     0.020 A 
ATOM     84  C   UNL A   1      36.726  33.709  30.932  1.00  0.00     0.020 A 
ATOM     85  C   UNL A   1      35.676  33.092  31.584  1.00  0.00     0.054 A 
BRANCH  85  86
ATOM     86  S   UNL A   1      34.519  34.111  32.547  1.00  0.00     0.124 S 
ATOM     87  O   UNL A   1      34.048  33.175  33.563  1.00  0.00    -0.237 OA
ATOM     88  O   UNL A   1      35.370  35.195  33.032  1.00  0.00    -0.237 OA
ATOM     89  O   UNL A   1      33.521  34.518  31.559  1.00  0.00    -0.744 OA
ENDBRANCH  85  86
ENDBRANCH  57  80
BRANCH  69  90
ATOM     90  C   UNL A   1      43.892  31.763  30.172  1.00  0.00    -0.014 A 
ATOM     91  C   UNL A   1      43.936  30.721  29.225  1.00  0.00     0.010 A 
ATOM     92  C   UNL A   1      44.431  33.007  29.783  1.00  0.00     0.010 A 
ATOM     93  C   UNL A   1      44.490  30.903  27.950  1.00  0.00     0.020 A 
ATOM     94  C   UNL A   1      44.988  33.203  28.503  1.00  0.00     0.020 A 
ATOM     95  C   UNL A   1      45.010  32.146  27.590  1.00  0.00     0.054 A 
BRANCH  95  96
ATOM     96  S   UNL A   1      45.707  32.346  25.922  1.00  0.00     0.124 S 
ATOM     97  O   UNL A   1      46.684  33.416  26.107  1.00  0.00    -0.237 OA
ATOM     98  O   UNL A   1      46.271  31.027  25.655  1.00  0.00    -0.237 OA
ATOM     99  O   UNL A   1      44.551  32.705  25.101  1.00  0.00    -0.744 OA
ENDBRANCH  95  96
ENDBRANCH  69  90
ENDBRANCH  43  44
ENDBRANCH  35  38
ENDBRANCH  33  34
ENDBRANCH  32  33
ENDBRANCH  31  32
ENDBRANCH   1  31
TORSDOF 20
ENDMDL
MODEL 2
REMARK VINA RESULT:     -10.9      3.441      9.280
REMARK SMILES COc1ccc(C[NH2+]Cc2cccn2-c2sc(C)c(C)c2C(=O)NCCCCNC(=O)c2ccc(-c3c4nc(c(-c5ccc(S(=O)(=O)[O-])cc5)c5ccc([nH]5)c(-c5ccc(S(=O)(=O)[O-])cc5)c5nc(c(-c6ccc(S(=O)(=O)[O-])cc6)c6ccc3[nH]6)C=C5)C=C4)cc2)cc1
REMARK SMILES IDX 25 1 24 2 22 3 23 4 21 6 15 7 16 8 17 9 19 10 18 11 20 12
REMARK SMILES IDX 14 13 10 14 11 15 12 16 13 17 9 18 8 19 7 22 6 23 3 24 4 25
REMARK SMILES IDX 93 26 5 27 92 28 2 29 1 30 26 31 27 32 28 33 29 34 30 35
REMARK SMILES IDX 31 37 32 38 33 39 91 40 34 41 90 42 35 43 36 44 37 45 84 46
REMARK SMILES IDX 38 47 89 48 83 49 85 50 39 51 88 52 82 53 81 54 40 56 70 57
REMARK SMILES IDX 51 58 69 59 52 60 55 61 68 62 86 63 53 64 54 65 67 67 87 68
REMARK SMILES IDX 56 69 41 70 42 71 50 72 43 73 49 74 44 75 45 76 46 77 47 78
REMARK SMILES IDX 48 79 71 80 72 81 80 82 73 83 79 84 74 85 75 86 76 87 77 88
REMARK SMILES IDX 78 89 57 90 58 91 66 92 59 93 65 94 60 95 61 96 62 97 63 98
REMARK SMILES IDX 64 99
REMARK H PARENT 24 5 8 20 8 21 29 36 85 55 55 66
REMARK Flexibility Score: inf
ROOT
ATOM      1  C   UNL A   1      37.442  23.522  25.772  1.00  0.00     0.116 C 
ENDROOT
BRANCH   1   2
ATOM      2  N   UNL A   1      37.443  23.313  24.357  1.00  0.00    -0.352 N 
ATOM      3  C   UNL A   1      36.411  23.020  23.492  1.00  0.00     0.254 C 
ATOM      4  O   UNL A   1      36.753  22.986  22.306  1.00  0.00    -0.269 OA
ATOM      5  H   UNL A   1      38.327  23.391  23.931  1.00  0.00     0.163 HD
BRANCH   3   6
ATOM      6  C   UNL A   1      35.012  22.666  23.880  1.00  0.00     0.078 A 
ATOM      7  C   UNL A   1      33.800  23.322  23.692  1.00  0.00     0.113 A 
ATOM      8  S   UNL A   1      32.442  22.512  24.318  1.00  0.00    -0.122 S 
ATOM      9  C   UNL A   1      33.378  21.206  24.856  1.00  0.00     0.007 A 
ATOM     10  C   UNL A   1      34.728  21.396  24.601  1.00  0.00    -0.022 A 
ATOM     11  C   UNL A   1      32.705  20.035  25.501  1.00  0.00     0.057 C 
ATOM     12  C   UNL A   1      35.781  20.397  25.002  1.00  0.00     0.046 C 
BRANCH   7  13
ATOM     13  N   UNL A   1      33.460  24.433  22.913  1.00  0.00    -0.306 N 
ATOM     14  C   UNL A   1      33.512  25.796  23.262  1.00  0.00     0.078 A 
ATOM     15  C   UNL A   1      33.060  26.516  22.163  1.00  0.00     0.029 A 
ATOM     16  C   UNL A   1      32.753  25.610  21.128  1.00  0.00     0.020 A 
ATOM     17  C   UNL A   1      33.011  24.349  21.606  1.00  0.00     0.092 A 
BRANCH  14  18
ATOM     18  C   UNL A   1      33.992  26.329  24.588  1.00  0.00     0.316 C 
BRANCH  18  19
ATOM     19  N   UNL A   1      33.359  27.576  25.029  1.00  0.00    -0.338 N 
ATOM     20  H   UNL A   1      33.946  27.991  25.753  1.00  0.00     0.346 HD
ATOM     21  H   UNL A   1      33.268  28.162  24.199  1.00  0.00     0.346 HD
BRANCH  19  22
ATOM     22  C   UNL A   1      32.013  27.424  25.570  1.00  0.00     0.297 C 
BRANCH  22  23
ATOM     23  C   UNL A   1      30.943  27.944  24.623  1.00  0.00     0.006 A 
ATOM     24  C   UNL A   1      28.864  28.904  22.961  1.00  0.00     0.118 A 
ATOM     25  C   UNL A   1      29.847  29.770  23.443  1.00  0.00     0.047 A 
ATOM     26  C   UNL A   1      28.943  27.551  23.269  1.00  0.00     0.047 A 
ATOM     27  C   UNL A   1      30.877  29.296  24.267  1.00  0.00     0.013 A 
ATOM     28  C   UNL A   1      29.958  27.086  24.111  1.00  0.00     0.013 A 
BRANCH  24  29
ATOM     29  O   UNL A   1      27.888  29.466  22.183  1.00  0.00    -0.497 OA
ATOM     30  C   UNL A   1      28.303  30.611  21.440  1.00  0.00     0.278 C 
ENDBRANCH  24  29
ENDBRANCH  22  23
ENDBRANCH  19  22
ENDBRANCH  18  19
ENDBRANCH  14  18
ENDBRANCH   7  13
ENDBRANCH   3   6
ENDBRANCH   1   2
BRANCH   1  31
ATOM     31  C   UNL A   1      38.777  23.513  26.492  1.00  0.00     0.023 C 
BRANCH  31  32
ATOM     32  C   UNL A   1      39.417  22.164  26.805  1.00  0.00     0.023 C 
BRANCH  32  33
ATOM     33  C   UNL A   1      39.483  21.171  25.642  1.00  0.00     0.116 C 
BRANCH  33  34
ATOM     34  N   UNL A   1      40.219  19.952  25.951  1.00  0.00    -0.352 N 
ATOM     35  C   UNL A   1      41.563  19.812  26.228  1.00  0.00     0.251 C 
ATOM     36  H   UNL A   1      39.689  19.123  25.963  1.00  0.00     0.163 HD
ATOM     37  O   UNL A   1      42.091  18.717  26.202  1.00  0.00    -0.269 OA
BRANCH  35  38
ATOM     38  C   UNL A   1      42.353  21.022  26.539  1.00  0.00     0.039 A 
ATOM     39  C   UNL A   1      42.874  21.788  25.492  1.00  0.00     0.014 A 
ATOM     40  C   UNL A   1      42.564  21.387  27.873  1.00  0.00     0.014 A 
ATOM     41  C   UNL A   1      43.522  22.985  25.787  1.00  0.00     0.010 A 
ATOM     42  C   UNL A   1      43.189  22.590  28.168  1.00  0.00     0.010 A 
ATOM     43  C   UNL A   1      43.641  23.402  27.121  1.00  0.00    -0.014 A 
BRANCH  43  44
ATOM     44  C   UNL A   1      44.088  24.782  27.416  1.00  0.00     0.031 A 
ATOM     45  C   UNL A   1      42.897  25.728  27.681  1.00  0.00     0.074 A 
ATOM     46  C   UNL A   1      45.437  25.012  27.399  1.00  0.00     0.049 A 
ATOM     47  N   UNL A   1      42.808  27.009  27.502  1.00  0.00    -0.248 NA
ATOM     48  C   UNL A   1      41.589  25.170  28.130  1.00  0.00     0.031 C 
ATOM     49  C   UNL A   1      46.467  23.974  27.153  1.00  0.00     0.029 A 
ATOM     50  N   UNL A   1      46.225  26.131  27.585  1.00  0.00    -0.354 N 
ATOM     51  C   UNL A   1      41.531  27.433  27.944  1.00  0.00     0.074 A 
ATOM     52  C   UNL A   1      40.793  26.242  28.236  1.00  0.00     0.031 C 
ATOM     53  C   UNL A   1      47.707  24.512  27.133  1.00  0.00     0.029 A 
ATOM     54  C   UNL A   1      47.617  25.937  27.375  1.00  0.00     0.049 A 
ATOM     55  H   UNL A   1      45.848  27.003  27.846  1.00  0.00     0.167 HD
ATOM     56  C   UNL A   1      41.214  28.748  28.148  1.00  0.00     0.031 A 
ATOM     57  C   UNL A   1      48.625  26.863  27.353  1.00  0.00     0.031 A 
ATOM     58  C   UNL A   1      42.338  29.559  27.826  1.00  0.00     0.049 A 
ATOM     59  C   UNL A   1      48.016  28.136  27.753  1.00  0.00     0.074 A 
ATOM     60  C   UNL A   1      42.942  29.886  26.640  1.00  0.00     0.029 A 
ATOM     61  N   UNL A   1      43.192  29.832  28.868  1.00  0.00    -0.354 N 
ATOM     62  N   UNL A   1      47.651  28.442  28.958  1.00  0.00    -0.248 NA
ATOM     63  C   UNL A   1      47.768  29.152  26.721  1.00  0.00     0.031 C 
ATOM     64  C   UNL A   1      44.311  29.849  26.969  1.00  0.00     0.029 A 
ATOM     65  C   UNL A   1      44.458  29.744  28.358  1.00  0.00     0.049 A 
ATOM     66  H   UNL A   1      42.942  30.048  29.795  1.00  0.00     0.167 HD
ATOM     67  C   UNL A   1      46.781  29.477  28.738  1.00  0.00     0.074 A 
ATOM     68  C   UNL A   1      47.142  30.061  27.462  1.00  0.00     0.031 C 
ATOM     69  C   UNL A   1      45.531  29.398  29.258  1.00  0.00     0.031 A 
BRANCH  56  70
ATOM     70  C   UNL A   1      40.080  29.452  28.852  1.00  0.00    -0.014 A 
ATOM     71  C   UNL A   1      38.765  29.141  28.405  1.00  0.00     0.010 A 
ATOM     72  C   UNL A   1      40.239  30.606  29.628  1.00  0.00     0.010 A 
ATOM     73  C   UNL A   1      37.694  30.020  28.579  1.00  0.00     0.020 A 
ATOM     74  C   UNL A   1      39.151  31.476  29.844  1.00  0.00     0.020 A 
ATOM     75  C   UNL A   1      37.906  31.205  29.270  1.00  0.00     0.054 A 
BRANCH  75  76
ATOM     76  S   UNL A   1      36.546  32.407  29.330  1.00  0.00     0.124 S 
ATOM     77  O   UNL A   1      35.818  32.109  28.100  1.00  0.00    -0.237 OA
ATOM     78  O   UNL A   1      35.857  32.045  30.567  1.00  0.00    -0.237 OA
ATOM     79  O   UNL A   1      37.231  33.696  29.362  1.00  0.00    -0.744 OA
ENDBRANCH  75  76
ENDBRANCH  56  70
BRANCH  57  80
ATOM     80  C   UNL A   1      50.076  26.974  26.934  1.00  0.00    -0.014 A 
ATOM     81  C   UNL A   1      51.153  27.292  27.767  1.00  0.00     0.010 A 
ATOM     82  C   UNL A   1      50.416  26.510  25.628  1.00  0.00     0.010 A 
ATOM     83  C   UNL A   1      52.480  26.985  27.379  1.00  0.00     0.020 A 
ATOM     84  C   UNL A   1      51.711  26.139  25.261  1.00  0.00     0.020 A 
ATOM     85  C   UNL A   1      52.739  26.346  26.160  1.00  0.00     0.054 A 
BRANCH  85  86
ATOM     86  S   UNL A   1      54.369  25.619  25.812  1.00  0.00     0.124 S 
ATOM     87  O   UNL A   1      54.752  25.072  27.109  1.00  0.00    -0.237 OA
ATOM     88  O   UNL A   1      54.069  24.635  24.774  1.00  0.00    -0.237 OA
ATOM     89  O   UNL A   1      55.160  26.762  25.355  1.00  0.00    -0.744 OA
ENDBRANCH  85  86
ENDBRANCH  57  80
BRANCH  69  90
ATOM     90  C   UNL A   1      45.401  28.574  30.534  1.00  0.00    -0.014 A 
ATOM     91  C   UNL A   1      44.531  27.465  30.544  1.00  0.00     0.010 A 
ATOM     92  C   UNL A   1      46.040  28.899  31.747  1.00  0.00     0.010 A 
ATOM     93  C   UNL A   1      44.305  26.713  31.705  1.00  0.00     0.020 A 
ATOM     94  C   UNL A   1      45.823  28.149  32.921  1.00  0.00     0.020 A 
ATOM     95  C   UNL A   1      44.956  27.055  32.890  1.00  0.00     0.054 A 
BRANCH  95  96
ATOM     96  S   UNL A   1      44.648  26.046  34.372  1.00  0.00     0.124 S 
ATOM     97  O   UNL A   1      43.355  25.433  34.082  1.00  0.00    -0.237 OA
ATOM     98  O   UNL A   1      45.786  25.131  34.373  1.00  0.00    -0.237 OA
ATOM     99  O   UNL A   1      44.635  27.020  35.462  1.00  0.00    -0.744 OA
ENDBRANCH  95  96
ENDBRANCH  69  90
ENDBRANCH  43  44
ENDBRANCH  35  38
ENDBRANCH  33  34
ENDBRANCH  32  33
ENDBRANCH  31  32
ENDBRANCH   1  31
TORSDOF 20
ENDMDL
MODEL 3
REMARK VINA RESULT:     -10.8      3.187      8.873
REMARK SMILES COc1ccc(C[NH2+]Cc2cccn2-c2sc(C)c(C)c2C(=O)NCCCCNC(=O)c2ccc(-c3c4nc(c(-c5ccc(S(=O)(=O)[O-])cc5)c5ccc([nH]5)c(-c5ccc(S(=O)(=O)[O-])cc5)c5nc(c(-c6ccc(S(=O)(=O)[O-])cc6)c6ccc3[nH]6)C=C5)C=C4)cc2)cc1
REMARK SMILES IDX 25 1 24 2 22 3 23 4 21 6 15 7 16 8 17 9 19 10 18 11 20 12
REMARK SMILES IDX 14 13 10 14 11 15 12 16 13 17 9 18 8 19 7 22 6 23 3 24 4 25
REMARK SMILES IDX 93 26 5 27 92 28 2 29 1 30 26 31 27 32 28 33 29 34 30 35
REMARK SMILES IDX 31 37 32 38 33 39 91 40 34 41 90 42 35 43 36 44 37 45 84 46
REMARK SMILES IDX 38 47 89 48 83 49 85 50 39 51 88 52 82 53 81 54 40 56 70 57
REMARK SMILES IDX 51 58 69 59 52 60 55 61 68 62 86 63 53 64 54 65 67 67 87 68
REMARK SMILES IDX 56 69 41 70 42 71 50 72 43 73 49 74 44 75 45 76 46 77 47 78
REMARK SMILES IDX 48 79 71 80 72 81 80 82 73 83 79 84 74 85 75 86 76 87 77 88
REMARK SMILES IDX 78 89 57 90 58 91 66 92 59 93 65 94 60 95 61 96 62 97 63 98
REMARK SMILES IDX 64 99
REMARK H PARENT 24 5 8 20 8 21 29 36 85 55 55 66
REMARK Flexibility Score: inf
ROOT
ATOM      1  C   UNL A   1      37.424  23.724  25.805  1.00  0.00     0.116 C 
ENDROOT
BRANCH   1   2
ATOM      2  N   UNL A   1      37.417  23.442  24.402  1.00  0.00    -0.352 N 
ATOM      3  C   UNL A   1      36.399  23.018  23.576  1.00  0.00     0.254 C 
ATOM      4  O   UNL A   1      36.721  22.953  22.386  1.00  0.00    -0.269 OA
ATOM      5  H   UNL A   1      38.283  23.574  23.952  1.00  0.00     0.163 HD
BRANCH   3   6
ATOM      6  C   UNL A   1      35.044  22.565  24.013  1.00  0.00     0.078 A 
ATOM      7  C   UNL A   1      33.793  23.169  23.939  1.00  0.00     0.113 A 
ATOM      8  S   UNL A   1      32.514  22.248  24.578  1.00  0.00    -0.122 S 
ATOM      9  C   UNL A   1      33.541  20.958  24.969  1.00  0.00     0.007 A 
ATOM     10  C   UNL A   1      34.863  21.235  24.656  1.00  0.00    -0.022 A 
ATOM     11  C   UNL A   1      32.964  19.712  25.564  1.00  0.00     0.057 C 
ATOM     12  C   UNL A   1      35.985  20.268  24.927  1.00  0.00     0.046 C 
BRANCH   7  13
ATOM     13  N   UNL A   1      33.354  24.311  23.262  1.00  0.00    -0.306 N 
ATOM     14  C   UNL A   1      33.402  25.653  23.686  1.00  0.00     0.078 A 
ATOM     15  C   UNL A   1      32.834  26.420  22.677  1.00  0.00     0.029 A 
ATOM     16  C   UNL A   1      32.459  25.566  21.620  1.00  0.00     0.020 A 
ATOM     17  C   UNL A   1      32.792  24.288  21.996  1.00  0.00     0.092 A 
BRANCH  14  18
ATOM     18  C   UNL A   1      33.985  26.123  24.994  1.00  0.00     0.316 C 
BRANCH  18  19
ATOM     19  N   UNL A   1      33.881  27.565  25.244  1.00  0.00    -0.338 N 
ATOM     20  H   UNL A   1      34.815  27.968  25.168  1.00  0.00     0.346 HD
ATOM     21  H   UNL A   1      33.227  27.931  24.553  1.00  0.00     0.346 HD
BRANCH  19  22
ATOM     22  C   UNL A   1      33.339  27.924  26.550  1.00  0.00     0.297 C 
BRANCH  22  23
ATOM     23  C   UNL A   1      33.867  29.258  27.053  1.00  0.00     0.006 A 
ATOM     24  C   UNL A   1      34.900  31.764  27.866  1.00  0.00     0.118 A 
ATOM     25  C   UNL A   1      33.532  31.595  27.646  1.00  0.00     0.047 A 
ATOM     26  C   UNL A   1      35.748  30.672  27.725  1.00  0.00     0.047 A 
ATOM     27  C   UNL A   1      33.018  30.355  27.243  1.00  0.00     0.013 A 
ATOM     28  C   UNL A   1      35.236  29.443  27.299  1.00  0.00     0.013 A 
BRANCH  24  29
ATOM     29  O   UNL A   1      35.306  33.018  28.235  1.00  0.00    -0.497 OA
ATOM     30  C   UNL A   1      34.655  33.539  29.392  1.00  0.00     0.278 C 
ENDBRANCH  24  29
ENDBRANCH  22  23
ENDBRANCH  19  22
ENDBRANCH  18  19
ENDBRANCH  14  18
ENDBRANCH   7  13
ENDBRANCH   3   6
ENDBRANCH   1   2
BRANCH   1  31
ATOM     31  C   UNL A   1      38.750  23.645  26.538  1.00  0.00     0.023 C 
BRANCH  31  32
ATOM     32  C   UNL A   1      39.324  22.266  26.843  1.00  0.00     0.023 C 
BRANCH  32  33
ATOM     33  C   UNL A   1      39.347  21.280  25.673  1.00  0.00     0.116 C 
BRANCH  33  34
ATOM     34  N   UNL A   1      40.064  20.044  25.959  1.00  0.00    -0.352 N 
ATOM     35  C   UNL A   1      41.413  19.874  26.198  1.00  0.00     0.251 C 
ATOM     36  H   UNL A   1      39.517  19.227  25.985  1.00  0.00     0.163 HD
ATOM     37  O   UNL A   1      41.916  18.768  26.156  1.00  0.00    -0.269 OA
BRANCH  35  38
ATOM     38  C   UNL A   1      42.237  21.067  26.488  1.00  0.00     0.039 A 
ATOM     39  C   UNL A   1      42.660  21.881  25.433  1.00  0.00     0.014 A 
ATOM     40  C   UNL A   1      42.578  21.367  27.811  1.00  0.00     0.014 A 
ATOM     41  C   UNL A   1      43.341  23.060  25.720  1.00  0.00     0.010 A 
ATOM     42  C   UNL A   1      43.237  22.553  28.101  1.00  0.00     0.010 A 
ATOM     43  C   UNL A   1      43.591  23.413  27.055  1.00  0.00    -0.014 A 
BRANCH  43  44
ATOM     44  C   UNL A   1      44.074  24.777  27.370  1.00  0.00     0.031 A 
ATOM     45  C   UNL A   1      42.913  25.731  27.720  1.00  0.00     0.074 A 
ATOM     46  C   UNL A   1      45.424  24.987  27.296  1.00  0.00     0.049 A 
ATOM     47  N   UNL A   1      42.836  27.018  27.584  1.00  0.00    -0.248 NA
ATOM     48  C   UNL A   1      41.618  25.180  28.212  1.00  0.00     0.031 C 
ATOM     49  C   UNL A   1      46.425  23.941  26.970  1.00  0.00     0.029 A 
ATOM     50  N   UNL A   1      46.238  26.088  27.478  1.00  0.00    -0.354 N 
ATOM     51  C   UNL A   1      41.589  27.447  28.099  1.00  0.00     0.074 A 
ATOM     52  C   UNL A   1      40.846  26.259  28.389  1.00  0.00     0.031 C 
ATOM     53  C   UNL A   1      47.671  24.462  26.908  1.00  0.00     0.029 A 
ATOM     54  C   UNL A   1      47.615  25.880  27.197  1.00  0.00     0.049 A 
ATOM     55  H   UNL A   1      45.889  26.956  27.783  1.00  0.00     0.167 HD
ATOM     56  C   UNL A   1      41.302  28.760  28.357  1.00  0.00     0.031 A 
ATOM     57  C   UNL A   1      48.637  26.790  27.155  1.00  0.00     0.031 A 
ATOM     58  C   UNL A   1      42.423  29.564  28.007  1.00  0.00     0.049 A 
ATOM     59  C   UNL A   1      48.068  28.060  27.622  1.00  0.00     0.074 A 
ATOM     60  C   UNL A   1      42.976  29.918  26.805  1.00  0.00     0.029 A 
ATOM     61  N   UNL A   1      43.329  29.792  29.015  1.00  0.00    -0.354 N 
ATOM     62  N   UNL A   1      47.765  28.334  28.852  1.00  0.00    -0.248 NA
ATOM     63  C   UNL A   1      47.788  29.111  26.634  1.00  0.00     0.031 C 
ATOM     64  C   UNL A   1      44.358  29.851  27.067  1.00  0.00     0.029 A 
ATOM     65  C   UNL A   1      44.569  29.701  28.443  1.00  0.00     0.049 A 
ATOM     66  H   UNL A   1      43.127  29.982  29.959  1.00  0.00     0.167 HD
ATOM     67  C   UNL A   1      46.902  29.388  28.705  1.00  0.00     0.074 A 
ATOM     68  C   UNL A   1      47.212  30.006  27.431  1.00  0.00     0.031 C 
ATOM     69  C   UNL A   1      45.676  29.311  29.281  1.00  0.00     0.031 A 
BRANCH  56  70
ATOM     70  C   UNL A   1      40.215  29.459  29.135  1.00  0.00    -0.014 A 
ATOM     71  C   UNL A   1      40.640  30.301  30.202  1.00  0.00     0.010 A 
ATOM     72  C   UNL A   1      38.870  29.072  29.120  1.00  0.00     0.010 A 
ATOM     73  C   UNL A   1      39.812  30.605  31.283  1.00  0.00     0.020 A 
ATOM     74  C   UNL A   1      38.016  29.412  30.188  1.00  0.00     0.020 A 
ATOM     75  C   UNL A   1      38.509  30.124  31.286  1.00  0.00     0.054 A 
BRANCH  75  76
ATOM     76  S   UNL A   1      37.512  30.383  32.780  1.00  0.00     0.124 S 
ATOM     77  O   UNL A   1      37.851  31.756  33.143  1.00  0.00    -0.237 OA
ATOM     78  O   UNL A   1      36.148  30.185  32.291  1.00  0.00    -0.237 OA
ATOM     79  O   UNL A   1      37.992  29.351  33.695  1.00  0.00    -0.744 OA
ENDBRANCH  75  76
ENDBRANCH  56  70
BRANCH  57  80
ATOM     80  C   UNL A   1      50.067  26.893  26.671  1.00  0.00    -0.014 A 
ATOM     81  C   UNL A   1      51.209  26.931  27.477  1.00  0.00     0.010 A 
ATOM     82  C   UNL A   1      50.299  26.723  25.273  1.00  0.00     0.010 A 
ATOM     83  C   UNL A   1      52.484  26.629  26.937  1.00  0.00     0.020 A 
ATOM     84  C   UNL A   1      51.536  26.358  24.741  1.00  0.00     0.020 A 
ATOM     85  C   UNL A   1      52.624  26.276  25.589  1.00  0.00     0.054 A 
BRANCH  85  86
ATOM     86  S   UNL A   1      54.165  25.537  24.970  1.00  0.00     0.124 S 
ATOM     87  O   UNL A   1      53.790  24.139  24.784  1.00  0.00    -0.237 OA
ATOM     88  O   UNL A   1      54.417  26.293  23.745  1.00  0.00    -0.237 OA
ATOM     89  O   UNL A   1      55.121  25.791  26.048  1.00  0.00    -0.744 OA
ENDBRANCH  85  86
ENDBRANCH  57  80
BRANCH  69  90
ATOM     90  C   UNL A   1      45.593  28.450  30.535  1.00  0.00    -0.014 A 
ATOM     91  C   UNL A   1      46.100  28.959  31.747  1.00  0.00     0.010 A 
ATOM     92  C   UNL A   1      45.109  27.126  30.548  1.00  0.00     0.010 A 
ATOM     93  C   UNL A   1      46.127  28.190  32.919  1.00  0.00     0.020 A 
ATOM     94  C   UNL A   1      45.128  26.344  31.721  1.00  0.00     0.020 A 
ATOM     95  C   UNL A   1      45.636  26.885  32.903  1.00  0.00     0.054 A 
BRANCH  95  96
ATOM     96  S   UNL A   1      45.675  25.925  34.447  1.00  0.00     0.124 S 
ATOM     97  O   UNL A   1      44.257  25.750  34.755  1.00  0.00    -0.237 OA
ATOM     98  O   UNL A   1      46.379  24.710  34.047  1.00  0.00    -0.237 OA
ATOM     99  O   UNL A   1      46.403  26.786  35.378  1.00  0.00    -0.744 OA
ENDBRANCH  95  96
ENDBRANCH  69  90
ENDBRANCH  43  44
ENDBRANCH  35  38
ENDBRANCH  33  34
ENDBRANCH  32  33
ENDBRANCH  31  32
ENDBRANCH   1  31
TORSDOF 20
ENDMDL
