MODEL 1
REMARK VINA RESULT:     -11.4      0.000      0.000
REMARK SMILES O=C(CN1CC2(CCC1=O)CC[NH+](Cc1ccc(Cl)c(F)c1)CC2)NCCCCNC(=O)c1ccc(-c2c3nc(c(-c4ccc(S(=O)(=O)[O-])cc4)c4ccc([nH]4)c(-c4ccc(S(=O)(=O)[O-])cc4)c4nc(c(-c5ccc(S(=O)(=O)[O-])cc5)c5ccc2[nH]5)C=C4)C=C3)cc1
REMARK SMILES IDX 27 1 26 2 25 3 1 4 2 5 3 7 4 8 5 9 9 10 6 11 8 12 10 13 7 14
REMARK SMILES IDX 11 15 24 16 12 17 23 18 13 19 14 21 15 22 16 23 22 24 17 25
REMARK SMILES IDX 20 26 18 27 21 28 19 29 28 30 29 31 30 32 31 33 32 35 33 36
REMARK SMILES IDX 34 37 92 38 35 39 91 40 36 41 37 42 38 43 85 44 39 45 90 46
REMARK SMILES IDX 84 47 86 48 40 49 89 50 83 51 82 52 41 54 71 55 52 56 70 57
REMARK SMILES IDX 53 58 56 59 69 60 87 61 54 62 55 63 68 65 88 66 57 67 42 68
REMARK SMILES IDX 43 69 51 70 44 71 50 72 45 73 46 74 47 75 48 76 49 77 72 78
REMARK SMILES IDX 73 79 81 80 74 81 80 82 75 83 76 84 77 85 78 86 79 87 58 88
REMARK SMILES IDX 59 89 67 90 60 91 66 92 61 93 62 94 63 95 64 96 65 97
REMARK H PARENT 25 6 13 20 30 34 86 53 56 64
REMARK Flexibility Score: inf
ROOT
ATOM      1  C   UNL A   1      36.169  23.088  23.818  1.00  0.00     0.023 C 
ENDROOT
BRANCH   1   2
ATOM      2  C   UNL A   1      35.267  21.871  23.989  1.00  0.00     0.116 C 
BRANCH   2   3
ATOM      3  N   UNL A   1      34.058  22.205  24.709  1.00  0.00    -0.355 N 
ATOM      4  O   UNL A   1      32.591  21.103  23.323  1.00  0.00    -0.273 OA
ATOM      5  C   UNL A   1      32.807  21.753  24.341  1.00  0.00     0.239 C 
ATOM      6  H   UNL A   1      34.131  22.784  25.502  1.00  0.00     0.163 HD
BRANCH   5   7
ATOM      7  C   UNL A   1      31.753  21.993  25.426  1.00  0.00     0.219 C 
BRANCH   7   8
ATOM      8  N   UNL A   1      30.949  23.205  25.237  1.00  0.00    -0.333 N 
ATOM      9  C   UNL A   1      30.719  23.782  23.911  1.00  0.00     0.127 C 
ATOM     10  C   UNL A   1      30.346  23.753  26.358  1.00  0.00     0.223 C 
ATOM     11  C   UNL A   1      31.006  25.287  23.932  1.00  0.00    -0.001 C 
ATOM     12  C   UNL A   1      30.024  25.237  26.302  1.00  0.00     0.101 C 
ATOM     13  O   UNL A   1      30.215  23.127  27.409  1.00  0.00    -0.275 OA
ATOM     14  C   UNL A   1      29.970  25.872  24.920  1.00  0.00     0.019 C 
ATOM     15  C   UNL A   1      32.457  25.535  24.416  1.00  0.00     0.070 C 
ATOM     16  C   UNL A   1      30.762  25.922  22.542  1.00  0.00     0.070 C 
ATOM     17  C   UNL A   1      33.521  25.394  23.327  1.00  0.00     0.263 C 
ATOM     18  C   UNL A   1      31.930  25.813  21.555  1.00  0.00     0.263 C 
ATOM     19  N   UNL A   1      33.239  26.134  22.106  1.00  0.00    -0.331 N 
ATOM     20  H   UNL A   1      33.890  25.772  21.409  1.00  0.00     0.348 HD
BRANCH  19  21
ATOM     21  C   UNL A   1      33.683  27.532  22.063  1.00  0.00     0.299 C 
BRANCH  21  22
ATOM     22  C   UNL A   1      33.294  28.409  23.234  1.00  0.00     0.009 A 
ATOM     23  C   UNL A   1      32.009  28.970  23.308  1.00  0.00     0.011 A 
ATOM     24  C   UNL A   1      34.173  28.600  24.309  1.00  0.00     0.050 A 
ATOM     25  C   UNL A   1      31.566  29.578  24.486  1.00  0.00     0.024 A 
ATOM     26  C   UNL A   1      33.717  29.178  25.492  1.00  0.00     0.142 A 
ATOM     27  C   UNL A   1      32.411  29.646  25.592  1.00  0.00     0.076 A 
ATOM     28  F   UNL A   1      34.541  29.209  26.550  1.00  0.00    -0.205 F 
ATOM     29  Cl  UNL A   1      31.812  30.264  27.082  1.00  0.00    -0.081 Cl
ENDBRANCH  21  22
ENDBRANCH  19  21
ENDBRANCH   7   8
ENDBRANCH   5   7
ENDBRANCH   2   3
ENDBRANCH   1   2
BRANCH   1  30
ATOM     30  C   UNL A   1      36.238  24.016  25.037  1.00  0.00     0.023 C 
BRANCH  30  31
ATOM     31  C   UNL A   1      36.682  23.351  26.336  1.00  0.00     0.116 C 
BRANCH  31  32
ATOM     32  N   UNL A   1      37.912  22.593  26.172  1.00  0.00    -0.352 N 
ATOM     33  C   UNL A   1      39.213  22.994  26.351  1.00  0.00     0.251 C 
ATOM     34  H   UNL A   1      37.794  21.658  25.892  1.00  0.00     0.163 HD
ATOM     35  O   UNL A   1      40.130  22.267  25.964  1.00  0.00    -0.269 OA
BRANCH  33  36
ATOM     36  C   UNL A   1      39.521  24.297  26.983  1.00  0.00     0.039 A 
ATOM     37  C   UNL A   1      39.129  24.517  28.306  1.00  0.00     0.014 A 
ATOM     38  C   UNL A   1      40.179  25.306  26.274  1.00  0.00     0.014 A 
ATOM     39  C   UNL A   1      39.457  25.721  28.938  1.00  0.00     0.010 A 
ATOM     40  C   UNL A   1      40.567  26.475  26.927  1.00  0.00     0.010 A 
ATOM     41  C   UNL A   1      40.212  26.697  28.266  1.00  0.00    -0.014 A 
BRANCH  41  42
ATOM     42  C   UNL A   1      40.649  27.943  28.953  1.00  0.00     0.031 A 
ATOM     43  C   UNL A   1      42.017  28.032  29.575  1.00  0.00     0.074 A 
ATOM     44  C   UNL A   1      39.789  28.975  29.072  1.00  0.00     0.049 A 
ATOM     45  N   UNL A   1      42.548  29.013  30.261  1.00  0.00    -0.248 NA
ATOM     46  C   UNL A   1      42.896  26.861  29.427  1.00  0.00     0.031 C 
ATOM     47  C   UNL A   1      38.422  29.007  28.545  1.00  0.00     0.029 A 
ATOM     48  N   UNL A   1      39.935  30.198  29.681  1.00  0.00    -0.354 N 
ATOM     49  C   UNL A   1      43.811  28.572  30.641  1.00  0.00     0.074 A 
ATOM     50  C   UNL A   1      43.948  27.219  30.149  1.00  0.00     0.031 C 
ATOM     51  C   UNL A   1      37.868  30.196  28.827  1.00  0.00     0.029 A 
ATOM     52  C   UNL A   1      38.818  30.997  29.594  1.00  0.00     0.049 A 
ATOM     53  H   UNL A   1      40.761  30.477  30.138  1.00  0.00     0.167 HD
ATOM     54  C   UNL A   1      44.775  29.236  31.323  1.00  0.00     0.031 A 
ATOM     55  C   UNL A   1      38.578  32.230  30.081  1.00  0.00     0.031 A 
ATOM     56  C   UNL A   1      44.641  30.587  31.802  1.00  0.00     0.049 A 
ATOM     57  C   UNL A   1      39.657  32.939  30.853  1.00  0.00     0.074 A 
ATOM     58  C   UNL A   1      45.585  31.366  32.451  1.00  0.00     0.029 A 
ATOM     59  N   UNL A   1      43.495  31.360  31.694  1.00  0.00    -0.354 N 
ATOM     60  N   UNL A   1      40.869  32.529  31.142  1.00  0.00    -0.248 NA
ATOM     61  C   UNL A   1      39.340  34.285  31.355  1.00  0.00     0.031 C 
ATOM     62  C   UNL A   1      44.989  32.586  32.786  1.00  0.00     0.029 A 
ATOM     63  C   UNL A   1      43.697  32.594  32.289  1.00  0.00     0.049 A 
ATOM     64  H   UNL A   1      42.659  31.072  31.258  1.00  0.00     0.167 HD
ATOM     65  C   UNL A   1      41.468  33.578  31.833  1.00  0.00     0.074 A 
ATOM     66  C   UNL A   1      40.492  34.644  31.905  1.00  0.00     0.031 C 
ATOM     67  C   UNL A   1      42.717  33.650  32.355  1.00  0.00     0.031 A 
BRANCH  54  68
ATOM     68  C   UNL A   1      46.064  28.507  31.604  1.00  0.00    -0.014 A 
ATOM     69  C   UNL A   1      46.198  27.666  32.723  1.00  0.00     0.010 A 
ATOM     70  C   UNL A   1      47.142  28.625  30.705  1.00  0.00     0.010 A 
ATOM     71  C   UNL A   1      47.399  26.992  32.962  1.00  0.00     0.020 A 
ATOM     72  C   UNL A   1      48.334  27.930  30.925  1.00  0.00     0.020 A 
ATOM     73  C   UNL A   1      48.461  27.130  32.063  1.00  0.00     0.054 A 
BRANCH  73  74
ATOM     74  S   UNL A   1      50.000  26.228  32.390  1.00  0.00     0.124 S 
ATOM     75  O   UNL A   1      49.786  24.989  31.646  1.00  0.00    -0.237 OA
ATOM     76  O   UNL A   1      51.016  27.122  31.841  1.00  0.00    -0.237 OA
ATOM     77  O   UNL A   1      50.018  26.086  33.844  1.00  0.00    -0.744 OA
ENDBRANCH  73  74
ENDBRANCH  54  68
BRANCH  55  78
ATOM     78  C   UNL A   1      37.260  32.882  29.843  1.00  0.00    -0.014 A 
ATOM     79  C   UNL A   1      37.035  33.630  28.674  1.00  0.00     0.010 A 
ATOM     80  C   UNL A   1      36.220  32.756  30.783  1.00  0.00     0.010 A 
ATOM     81  C   UNL A   1      35.804  34.256  28.458  1.00  0.00     0.020 A 
ATOM     82  C   UNL A   1      34.979  33.356  30.557  1.00  0.00     0.020 A 
ATOM     83  C   UNL A   1      34.783  34.113  29.401  1.00  0.00     0.054 A 
BRANCH  83  84
ATOM     84  S   UNL A   1      33.178  34.896  29.077  1.00  0.00     0.124 S 
ATOM     85  O   UNL A   1      33.575  36.220  28.611  1.00  0.00    -0.237 OA
ATOM     86  O   UNL A   1      32.597  34.015  28.066  1.00  0.00    -0.237 OA
ATOM     87  O   UNL A   1      32.513  34.862  30.378  1.00  0.00    -0.744 OA
ENDBRANCH  83  84
ENDBRANCH  55  78
BRANCH  67  88
ATOM     88  C   UNL A   1      43.120  34.940  33.022  1.00  0.00    -0.014 A 
ATOM     89  C   UNL A   1      42.935  35.142  34.401  1.00  0.00     0.010 A 
ATOM     90  C   UNL A   1      43.745  35.945  32.261  1.00  0.00     0.010 A 
ATOM     91  C   UNL A   1      43.338  36.338  35.000  1.00  0.00     0.020 A 
ATOM     92  C   UNL A   1      44.178  37.130  32.862  1.00  0.00     0.020 A 
ATOM     93  C   UNL A   1      43.958  37.325  34.226  1.00  0.00     0.054 A 
BRANCH  93  94
ATOM     94  S   UNL A   1      44.513  38.849  35.037  1.00  0.00     0.124 S 
ATOM     95  O   UNL A   1      44.202  38.579  36.438  1.00  0.00    -0.237 OA
ATOM     96  O   UNL A   1      45.936  38.887  34.705  1.00  0.00    -0.237 OA
ATOM     97  O   UNL A   1      43.705  39.892  34.409  1.00  0.00    -0.744 OA
ENDBRANCH  93  94
ENDBRANCH  67  88
ENDBRANCH  41  42
ENDBRANCH  33  36
ENDBRANCH  31  32
ENDBRANCH  30  31
ENDBRANCH   1  30
TORSDOF 17
ENDMDL
MODEL 2
REMARK VINA RESULT:     -11.4      3.360      4.434
REMARK SMILES O=C(CN1CC2(CCC1=O)CC[NH+](Cc1ccc(Cl)c(F)c1)CC2)NCCCCNC(=O)c1ccc(-c2c3nc(c(-c4ccc(S(=O)(=O)[O-])cc4)c4ccc([nH]4)c(-c4ccc(S(=O)(=O)[O-])cc4)c4nc(c(-c5ccc(S(=O)(=O)[O-])cc5)c5ccc2[nH]5)C=C4)C=C3)cc1
REMARK SMILES IDX 27 1 26 2 25 3 1 4 2 5 3 7 4 8 5 9 9 10 6 11 8 12 10 13 7 14
REMARK SMILES IDX 11 15 24 16 12 17 23 18 13 19 14 21 15 22 16 23 22 24 17 25
REMARK SMILES IDX 20 26 18 27 21 28 19 29 28 30 29 31 30 32 31 33 32 35 33 36
REMARK SMILES IDX 34 37 92 38 35 39 91 40 36 41 37 42 38 43 85 44 39 45 90 46
REMARK SMILES IDX 84 47 86 48 40 49 89 50 83 51 82 52 41 54 71 55 52 56 70 57
REMARK SMILES IDX 53 58 56 59 69 60 87 61 54 62 55 63 68 65 88 66 57 67 42 68
REMARK SMILES IDX 43 69 51 70 44 71 50 72 45 73 46 74 47 75 48 76 49 77 72 78
REMARK SMILES IDX 73 79 81 80 74 81 80 82 75 83 76 84 77 85 78 86 79 87 58 88
REMARK SMILES IDX 59 89 67 90 60 91 66 92 61 93 62 94 63 95 64 96 65 97
REMARK H PARENT 25 6 13 20 30 34 86 53 56 64
REMARK Flexibility Score: inf
ROOT
ATOM      1  C   UNL A   1      40.274  22.480  27.522  1.00  0.00     0.023 C 
ENDROOT
BRANCH   1   2
ATOM      2  C   UNL A   1      39.539  21.897  26.321  1.00  0.00     0.116 C 
BRANCH   2   3
ATOM      3  N   UNL A   1      38.129  22.222  26.356  1.00  0.00    -0.355 N 
ATOM      4  O   UNL A   1      37.608  21.444  24.255  1.00  0.00    -0.273 OA
ATOM      5  C   UNL A   1      37.258  21.926  25.327  1.00  0.00     0.239 C 
ATOM      6  H   UNL A   1      37.774  22.676  27.154  1.00  0.00     0.163 HD
BRANCH   5   7
ATOM      7  C   UNL A   1      35.790  22.094  25.734  1.00  0.00     0.219 C 
BRANCH   7   8
ATOM      8  N   UNL A   1      34.830  21.904  24.642  1.00  0.00    -0.333 N 
ATOM      9  C   UNL A   1      34.601  22.931  23.624  1.00  0.00     0.127 C 
ATOM     10  C   UNL A   1      34.191  20.676  24.559  1.00  0.00     0.223 C 
ATOM     11  C   UNL A   1      33.099  23.175  23.447  1.00  0.00    -0.001 C 
ATOM     12  C   UNL A   1      32.847  20.654  23.851  1.00  0.00     0.101 C 
ATOM     13  O   UNL A   1      34.598  19.680  25.156  1.00  0.00    -0.275 OA
ATOM     14  C   UNL A   1      32.540  21.828  22.933  1.00  0.00     0.019 C 
ATOM     15  C   UNL A   1      32.470  23.571  24.806  1.00  0.00     0.070 C 
ATOM     16  C   UNL A   1      32.830  24.253  22.370  1.00  0.00     0.070 C 
ATOM     17  C   UNL A   1      32.620  25.049  25.167  1.00  0.00     0.263 C 
ATOM     18  C   UNL A   1      32.908  25.704  22.858  1.00  0.00     0.263 C 
ATOM     19  N   UNL A   1      32.224  25.972  24.115  1.00  0.00    -0.331 N 
ATOM     20  H   UNL A   1      32.586  26.883  24.398  1.00  0.00     0.348 HD
BRANCH  19  21
ATOM     21  C   UNL A   1      30.805  26.346  24.063  1.00  0.00     0.299 C 
BRANCH  21  22
ATOM     22  C   UNL A   1      30.492  27.804  23.802  1.00  0.00     0.009 A 
ATOM     23  C   UNL A   1      29.547  28.166  22.829  1.00  0.00     0.011 A 
ATOM     24  C   UNL A   1      31.065  28.812  24.589  1.00  0.00     0.050 A 
ATOM     25  C   UNL A   1      29.081  29.481  22.745  1.00  0.00     0.024 A 
ATOM     26  C   UNL A   1      30.576  30.114  24.524  1.00  0.00     0.142 A 
ATOM     27  C   UNL A   1      29.570  30.447  23.622  1.00  0.00     0.076 A 
ATOM     28  F   UNL A   1      31.045  31.020  25.396  1.00  0.00    -0.205 F 
ATOM     29  Cl  UNL A   1      28.889  32.027  23.612  1.00  0.00    -0.081 Cl
ENDBRANCH  21  22
ENDBRANCH  19  21
ENDBRANCH   7   8
ENDBRANCH   5   7
ENDBRANCH   2   3
ENDBRANCH   1   2
BRANCH   1  30
ATOM     30  C   UNL A   1      41.790  22.247  27.526  1.00  0.00     0.023 C 
BRANCH  30  31
ATOM     31  C   UNL A   1      42.643  23.511  27.530  1.00  0.00     0.116 C 
BRANCH  31  32
ATOM     32  N   UNL A   1      42.589  24.213  26.258  1.00  0.00    -0.352 N 
ATOM     33  C   UNL A   1      42.133  25.479  25.980  1.00  0.00     0.251 C 
ATOM     34  H   UNL A   1      42.926  23.708  25.484  1.00  0.00     0.163 HD
ATOM     35  O   UNL A   1      41.977  25.823  24.807  1.00  0.00    -0.269 OA
BRANCH  33  36
ATOM     36  C   UNL A   1      41.810  26.421  27.075  1.00  0.00     0.039 A 
ATOM     37  C   UNL A   1      40.775  26.105  27.959  1.00  0.00     0.014 A 
ATOM     38  C   UNL A   1      42.512  27.622  27.225  1.00  0.00     0.014 A 
ATOM     39  C   UNL A   1      40.489  26.957  29.030  1.00  0.00     0.010 A 
ATOM     40  C   UNL A   1      42.273  28.433  28.334  1.00  0.00     0.010 A 
ATOM     41  C   UNL A   1      41.261  28.111  29.250  1.00  0.00    -0.014 A 
BRANCH  41  42
ATOM     42  C   UNL A   1      41.031  28.979  30.437  1.00  0.00     0.031 A 
ATOM     43  C   UNL A   1      41.863  28.809  31.680  1.00  0.00     0.074 A 
ATOM     44  C   UNL A   1      40.028  29.881  30.419  1.00  0.00     0.049 A 
ATOM     45  N   UNL A   1      41.769  29.433  32.827  1.00  0.00    -0.248 NA
ATOM     46  C   UNL A   1      42.925  27.791  31.638  1.00  0.00     0.031 C 
ATOM     47  C   UNL A   1      39.125  30.124  29.291  1.00  0.00     0.029 A 
ATOM     48  N   UNL A   1      39.595  30.760  31.383  1.00  0.00    -0.354 N 
ATOM     49  C   UNL A   1      42.743  28.874  33.646  1.00  0.00     0.074 A 
ATOM     50  C   UNL A   1      43.385  27.828  32.880  1.00  0.00     0.031 C 
ATOM     51  C   UNL A   1      38.267  31.105  29.616  1.00  0.00     0.029 A 
ATOM     52  C   UNL A   1      38.526  31.531  30.989  1.00  0.00     0.049 A 
ATOM     53  H   UNL A   1      40.011  30.831  32.272  1.00  0.00     0.167 HD
ATOM     54  C   UNL A   1      43.083  29.208  34.914  1.00  0.00     0.031 A 
ATOM     55  C   UNL A   1      37.824  32.469  31.655  1.00  0.00     0.031 A 
ATOM     56  C   UNL A   1      42.451  30.257  35.671  1.00  0.00     0.049 A 
ATOM     57  C   UNL A   1      38.209  32.808  33.070  1.00  0.00     0.074 A 
ATOM     58  C   UNL A   1      42.766  30.710  36.941  1.00  0.00     0.029 A 
ATOM     59  N   UNL A   1      41.373  31.013  35.236  1.00  0.00    -0.354 N 
ATOM     60  N   UNL A   1      39.178  32.313  33.801  1.00  0.00    -0.248 NA
ATOM     61  C   UNL A   1      37.411  33.843  33.744  1.00  0.00     0.031 C 
ATOM     62  C   UNL A   1      41.842  31.698  37.295  1.00  0.00     0.029 A 
ATOM     63  C   UNL A   1      40.992  31.907  36.222  1.00  0.00     0.049 A 
ATOM     64  H   UNL A   1      40.941  30.925  34.355  1.00  0.00     0.167 HD
ATOM     65  C   UNL A   1      39.125  32.998  35.011  1.00  0.00     0.074 A 
ATOM     66  C   UNL A   1      38.040  33.950  34.907  1.00  0.00     0.031 C 
ATOM     67  C   UNL A   1      39.909  32.852  36.108  1.00  0.00     0.031 A 
BRANCH  54  68
ATOM     68  C   UNL A   1      44.189  28.423  35.573  1.00  0.00    -0.014 A 
ATOM     69  C   UNL A   1      45.533  28.823  35.466  1.00  0.00     0.010 A 
ATOM     70  C   UNL A   1      43.873  27.295  36.355  1.00  0.00     0.010 A 
ATOM     71  C   UNL A   1      46.544  28.086  36.089  1.00  0.00     0.020 A 
ATOM     72  C   UNL A   1      44.878  26.574  37.005  1.00  0.00     0.020 A 
ATOM     73  C   UNL A   1      46.209  26.964  36.853  1.00  0.00     0.054 A 
BRANCH  73  74
ATOM     74  S   UNL A   1      47.540  26.040  37.667  1.00  0.00     0.124 S 
ATOM     75  O   UNL A   1      48.274  27.104  38.347  1.00  0.00    -0.237 OA
ATOM     76  O   UNL A   1      46.807  25.127  38.541  1.00  0.00    -0.237 OA
ATOM     77  O   UNL A   1      48.250  25.403  36.559  1.00  0.00    -0.744 OA
ENDBRANCH  73  74
ENDBRANCH  54  68
BRANCH  55  78
ATOM     78  C   UNL A   1      36.690  33.166  30.987  1.00  0.00    -0.014 A 
ATOM     79  C   UNL A   1      35.407  33.155  31.563  1.00  0.00     0.010 A 
ATOM     80  C   UNL A   1      36.887  33.847  29.771  1.00  0.00     0.010 A 
ATOM     81  C   UNL A   1      34.339  33.794  30.927  1.00  0.00     0.020 A 
ATOM     82  C   UNL A   1      35.827  34.512  29.148  1.00  0.00     0.020 A 
ATOM     83  C   UNL A   1      34.557  34.471  29.724  1.00  0.00     0.054 A 
BRANCH  83  84
ATOM     84  S   UNL A   1      33.165  35.332  28.942  1.00  0.00     0.124 S 
ATOM     85  O   UNL A   1      32.586  34.283  28.110  1.00  0.00    -0.237 OA
ATOM     86  O   UNL A   1      32.363  35.744  30.092  1.00  0.00    -0.237 OA
ATOM     87  O   UNL A   1      33.806  36.427  28.215  1.00  0.00    -0.744 OA
ENDBRANCH  83  84
ENDBRANCH  55  78
BRANCH  67  88
ATOM     88  C   UNL A   1      39.652  33.769  37.276  1.00  0.00    -0.014 A 
ATOM     89  C   UNL A   1      38.878  33.356  38.375  1.00  0.00     0.010 A 
ATOM     90  C   UNL A   1      40.241  35.046  37.295  1.00  0.00     0.010 A 
ATOM     91  C   UNL A   1      38.672  34.216  39.457  1.00  0.00     0.020 A 
ATOM     92  C   UNL A   1      40.063  35.898  38.388  1.00  0.00     0.020 A 
ATOM     93  C   UNL A   1      39.267  35.482  39.457  1.00  0.00     0.054 A 
BRANCH  93  94
ATOM     94  S   UNL A   1      39.023  36.562  40.893  1.00  0.00     0.124 S 
ATOM     95  O   UNL A   1      38.008  35.834  41.651  1.00  0.00    -0.237 OA
ATOM     96  O   UNL A   1      40.353  36.596  41.497  1.00  0.00    -0.237 OA
ATOM     97  O   UNL A   1      38.577  37.824  40.308  1.00  0.00    -0.744 OA
ENDBRANCH  93  94
ENDBRANCH  67  88
ENDBRANCH  41  42
ENDBRANCH  33  36
ENDBRANCH  31  32
ENDBRANCH  30  31
ENDBRANCH   1  30
TORSDOF 17
ENDMDL
MODEL 3
REMARK VINA RESULT:     -11.0      3.736      4.865
REMARK SMILES O=C(CN1CC2(CCC1=O)CC[NH+](Cc1ccc(Cl)c(F)c1)CC2)NCCCCNC(=O)c1ccc(-c2c3nc(c(-c4ccc(S(=O)(=O)[O-])cc4)c4ccc([nH]4)c(-c4ccc(S(=O)(=O)[O-])cc4)c4nc(c(-c5ccc(S(=O)(=O)[O-])cc5)c5ccc2[nH]5)C=C4)C=C3)cc1
REMARK SMILES IDX 27 1 26 2 25 3 1 4 2 5 3 7 4 8 5 9 9 10 6 11 8 12 10 13 7 14
REMARK SMILES IDX 11 15 24 16 12 17 23 18 13 19 14 21 15 22 16 23 22 24 17 25
REMARK SMILES IDX 20 26 18 27 21 28 19 29 28 30 29 31 30 32 31 33 32 35 33 36
REMARK SMILES IDX 34 37 92 38 35 39 91 40 36 41 37 42 38 43 85 44 39 45 90 46
REMARK SMILES IDX 84 47 86 48 40 49 89 50 83 51 82 52 41 54 71 55 52 56 70 57
REMARK SMILES IDX 53 58 56 59 69 60 87 61 54 62 55 63 68 65 88 66 57 67 42 68
REMARK SMILES IDX 43 69 51 70 44 71 50 72 45 73 46 74 47 75 48 76 49 77 72 78
REMARK SMILES IDX 73 79 81 80 74 81 80 82 75 83 76 84 77 85 78 86 79 87 58 88
REMARK SMILES IDX 59 89 67 90 60 91 66 92 61 93 62 94 63 95 64 96 65 97
REMARK H PARENT 25 6 13 20 30 34 86 53 56 64
REMARK Flexibility Score: inf
ROOT
ATOM      1  C   UNL A   1      36.375  20.768  25.368  1.00  0.00     0.023 C 
ENDROOT
BRANCH   1   2
ATOM      2  C   UNL A   1      35.669  21.937  24.690  1.00  0.00     0.116 C 
BRANCH   2   3
ATOM      3  N   UNL A   1      34.403  22.230  25.325  1.00  0.00    -0.355 N 
ATOM      4  O   UNL A   1      33.098  20.899  23.977  1.00  0.00    -0.273 OA
ATOM      5  C   UNL A   1      33.212  21.647  24.942  1.00  0.00     0.239 C 
ATOM      6  H   UNL A   1      34.390  22.877  26.067  1.00  0.00     0.163 HD
BRANCH   5   7
ATOM      7  C   UNL A   1      32.088  21.889  25.955  1.00  0.00     0.219 C 
BRANCH   7   8
ATOM      8  N   UNL A   1      31.166  22.972  25.595  1.00  0.00    -0.333 N 
ATOM      9  C   UNL A   1      31.092  23.504  24.233  1.00  0.00     0.127 C 
ATOM     10  C   UNL A   1      30.303  23.431  26.578  1.00  0.00     0.223 C 
ATOM     11  C   UNL A   1      31.154  25.034  24.259  1.00  0.00    -0.001 C 
ATOM     12  C   UNL A   1      29.789  24.852  26.423  1.00  0.00     0.101 C 
ATOM     13  O   UNL A   1      30.080  22.796  27.608  1.00  0.00    -0.275 OA
ATOM     14  C   UNL A   1      29.889  25.467  25.035  1.00  0.00     0.019 C 
ATOM     15  C   UNL A   1      32.447  25.492  24.979  1.00  0.00     0.070 C 
ATOM     16  C   UNL A   1      31.070  25.622  22.830  1.00  0.00     0.070 C 
ATOM     17  C   UNL A   1      33.695  25.503  24.095  1.00  0.00     0.263 C 
ATOM     18  C   UNL A   1      32.396  25.680  22.063  1.00  0.00     0.263 C 
ATOM     19  N   UNL A   1      33.529  26.189  22.823  1.00  0.00    -0.331 N 
ATOM     20  H   UNL A   1      34.337  25.923  22.259  1.00  0.00     0.348 HD
BRANCH  19  21
ATOM     21  C   UNL A   1      33.770  27.637  22.817  1.00  0.00     0.299 C 
BRANCH  21  22
ATOM     22  C   UNL A   1      33.087  28.449  23.896  1.00  0.00     0.009 A 
ATOM     23  C   UNL A   1      33.785  28.821  25.056  1.00  0.00     0.011 A 
ATOM     24  C   UNL A   1      31.781  28.923  23.717  1.00  0.00     0.050 A 
ATOM     25  C   UNL A   1      33.245  29.761  25.940  1.00  0.00     0.024 A 
ATOM     26  C   UNL A   1      31.259  29.882  24.582  1.00  0.00     0.142 A 
ATOM     27  C   UNL A   1      31.995  30.320  25.679  1.00  0.00     0.076 A 
ATOM     28  F   UNL A   1      30.066  30.423  24.296  1.00  0.00    -0.205 F 
ATOM     29  Cl  UNL A   1      31.401  31.579  26.689  1.00  0.00    -0.081 Cl
ENDBRANCH  21  22
ENDBRANCH  19  21
ENDBRANCH   7   8
ENDBRANCH   5   7
ENDBRANCH   2   3
ENDBRANCH   1   2
BRANCH   1  30
ATOM     30  C   UNL A   1      37.780  20.465  24.835  1.00  0.00     0.023 C 
BRANCH  30  31
ATOM     31  C   UNL A   1      38.926  20.877  25.754  1.00  0.00     0.116 C 
BRANCH  31  32
ATOM     32  N   UNL A   1      39.875  19.796  25.967  1.00  0.00    -0.352 N 
ATOM     33  C   UNL A   1      41.230  19.855  26.180  1.00  0.00     0.251 C 
ATOM     34  H   UNL A   1      39.490  18.891  25.955  1.00  0.00     0.163 HD
ATOM     35  O   UNL A   1      41.897  18.819  26.134  1.00  0.00    -0.269 OA
BRANCH  33  36
ATOM     36  C   UNL A   1      41.897  21.150  26.443  1.00  0.00     0.039 A 
ATOM     37  C   UNL A   1      42.253  21.961  25.362  1.00  0.00     0.014 A 
ATOM     38  C   UNL A   1      42.187  21.561  27.747  1.00  0.00     0.014 A 
ATOM     39  C   UNL A   1      42.836  23.211  25.592  1.00  0.00     0.010 A 
ATOM     40  C   UNL A   1      42.701  22.837  27.976  1.00  0.00     0.010 A 
ATOM     41  C   UNL A   1      43.031  23.677  26.903  1.00  0.00    -0.014 A 
BRANCH  41  42
ATOM     42  C   UNL A   1      43.565  25.042  27.166  1.00  0.00     0.031 A 
ATOM     43  C   UNL A   1      45.024  25.345  26.953  1.00  0.00     0.074 A 
ATOM     44  C   UNL A   1      42.747  25.993  27.659  1.00  0.00     0.049 A 
ATOM     45  N   UNL A   1      45.677  26.457  27.183  1.00  0.00    -0.248 NA
ATOM     46  C   UNL A   1      45.865  24.254  26.434  1.00  0.00     0.031 C 
ATOM     47  C   UNL A   1      41.320  25.822  27.945  1.00  0.00     0.029 A 
ATOM     48  N   UNL A   1      42.999  27.297  28.015  1.00  0.00    -0.354 N 
ATOM     49  C   UNL A   1      47.003  26.194  26.855  1.00  0.00     0.074 A 
ATOM     50  C   UNL A   1      47.069  24.806  26.456  1.00  0.00     0.031 C 
ATOM     51  C   UNL A   1      40.818  26.981  28.402  1.00  0.00     0.029 A 
ATOM     52  C   UNL A   1      41.893  27.966  28.487  1.00  0.00     0.049 A 
ATOM     53  H   UNL A   1      43.887  27.713  27.940  1.00  0.00     0.167 HD
ATOM     54  C   UNL A   1      48.065  27.035  26.871  1.00  0.00     0.031 A 
ATOM     55  C   UNL A   1      41.756  29.226  28.946  1.00  0.00     0.031 A 
ATOM     56  C   UNL A   1      47.995  28.420  27.258  1.00  0.00     0.049 A 
ATOM     57  C   UNL A   1      42.956  30.133  28.972  1.00  0.00     0.074 A 
ATOM     58  C   UNL A   1      49.006  29.367  27.250  1.00  0.00     0.029 A 
ATOM     59  N   UNL A   1      46.858  29.057  27.730  1.00  0.00    -0.354 N 
ATOM     60  N   UNL A   1      44.186  29.883  28.594  1.00  0.00    -0.248 NA
ATOM     61  C   UNL A   1      42.744  31.498  29.477  1.00  0.00     0.031 C 
ATOM     62  C   UNL A   1      48.493  30.558  27.771  1.00  0.00     0.029 A 
ATOM     63  C   UNL A   1      47.148  30.374  28.043  1.00  0.00     0.049 A 
ATOM     64  H   UNL A   1      45.973  28.634  27.828  1.00  0.00     0.167 HD
ATOM     65  C   UNL A   1      44.888  31.069  28.787  1.00  0.00     0.074 A 
ATOM     66  C   UNL A   1      43.943  32.037  29.301  1.00  0.00     0.031 C 
ATOM     67  C   UNL A   1      46.198  31.331  28.554  1.00  0.00     0.031 A 
BRANCH  54  68
ATOM     68  C   UNL A   1      49.406  26.477  26.465  1.00  0.00    -0.014 A 
ATOM     69  C   UNL A   1      49.846  26.533  25.131  1.00  0.00     0.010 A 
ATOM     70  C   UNL A   1      50.259  25.933  27.444  1.00  0.00     0.010 A 
ATOM     71  C   UNL A   1      51.095  26.016  24.775  1.00  0.00     0.020 A 
ATOM     72  C   UNL A   1      51.521  25.443  27.097  1.00  0.00     0.020 A 
ATOM     73  C   UNL A   1      51.924  25.472  25.760  1.00  0.00     0.054 A 
BRANCH  73  74
ATOM     74  S   UNL A   1      53.548  24.827  25.271  1.00  0.00     0.124 S 
ATOM     75  O   UNL A   1      53.244  23.424  25.001  1.00  0.00    -0.237 OA
ATOM     76  O   UNL A   1      53.872  25.636  24.099  1.00  0.00    -0.237 OA
ATOM     77  O   UNL A   1      54.385  25.069  26.444  1.00  0.00    -0.744 OA
ENDBRANCH  73  74
ENDBRANCH  54  68
BRANCH  55  78
ATOM     78  C   UNL A   1      40.425  29.710  29.408  1.00  0.00    -0.014 A 
ATOM     79  C   UNL A   1      39.449  30.108  28.477  1.00  0.00     0.010 A 
ATOM     80  C   UNL A   1      40.126  29.773  30.781  1.00  0.00     0.010 A 
ATOM     81  C   UNL A   1      38.206  30.579  28.912  1.00  0.00     0.020 A 
ATOM     82  C   UNL A   1      38.874  30.215  31.217  1.00  0.00     0.020 A 
ATOM     83  C   UNL A   1      37.926  30.627  30.280  1.00  0.00     0.054 A 
BRANCH  83  84
ATOM     84  S   UNL A   1      36.290  31.198  30.817  1.00  0.00     0.124 S 
ATOM     85  O   UNL A   1      35.541  31.198  29.564  1.00  0.00    -0.237 OA
ATOM     86  O   UNL A   1      35.903  30.175  31.786  1.00  0.00    -0.237 OA
ATOM     87  O   UNL A   1      36.558  32.516  31.388  1.00  0.00    -0.744 OA
ENDBRANCH  83  84
ENDBRANCH  55  78
BRANCH  67  88
ATOM     88  C   UNL A   1      46.686  32.733  28.816  1.00  0.00    -0.014 A 
ATOM     89  C   UNL A   1      46.579  33.740  27.840  1.00  0.00     0.010 A 
ATOM     90  C   UNL A   1      47.210  33.057  30.080  1.00  0.00     0.010 A 
ATOM     91  C   UNL A   1      47.018  35.038  28.115  1.00  0.00     0.020 A 
ATOM     92  C   UNL A   1      47.621  34.361  30.369  1.00  0.00     0.020 A 
ATOM     93  C   UNL A   1      47.536  35.341  29.378  1.00  0.00     0.054 A 
BRANCH  93  94
ATOM     94  S   UNL A   1      48.054  37.044  29.725  1.00  0.00     0.124 S 
ATOM     95  O   UNL A   1      46.781  37.759  29.705  1.00  0.00    -0.237 OA
ATOM     96  O   UNL A   1      48.688  36.925  31.036  1.00  0.00    -0.237 OA
ATOM     97  O   UNL A   1      48.963  37.361  28.625  1.00  0.00    -0.744 OA
ENDBRANCH  93  94
ENDBRANCH  67  88
ENDBRANCH  41  42
ENDBRANCH  33  36
ENDBRANCH  31  32
ENDBRANCH  30  31
ENDBRANCH   1  30
TORSDOF 17
ENDMDL
