MODEL 1
REMARK VINA RESULT:     -11.6      0.000      0.000
REMARK SMILES O=C(NCCCCNC(=O)c1ccc(-c2c3nc(c(-c4ccc(S(=O)(=O)[O-])cc4)c4ccc([nH]4)c(-c4ccc(S(=O)(=O)[O-])cc4)c4nc(c(-c5ccc(S(=O)(=O)[O-])cc5)c5ccc2[nH]5)C=C4)C=C3)cc1)c1ccc(N[C@H]2OC[C@@H](O)[C@@H](O)[C@H]2O)cc1
REMARK SMILES IDX 5 1 4 2 3 3 1 4 2 5 71 7 72 8 86 9 73 10 85 11 74 12 75 13
REMARK SMILES IDX 76 15 77 16 83 17 78 18 81 19 79 20 84 21 82 23 80 25 6 27
REMARK SMILES IDX 7 28 8 29 9 30 10 32 11 33 12 34 70 35 13 36 69 37 14 38
REMARK SMILES IDX 15 39 16 40 63 41 17 42 68 43 62 44 64 45 18 46 67 47 61 48
REMARK SMILES IDX 60 49 19 51 49 52 30 53 48 54 31 55 34 56 47 57 65 58 32 59
REMARK SMILES IDX 33 60 46 62 66 63 35 64 20 65 21 66 29 67 22 68 28 69 23 70
REMARK SMILES IDX 24 71 25 72 26 73 27 74 50 75 51 76 59 77 52 78 58 79 53 80
REMARK SMILES IDX 54 81 55 82 56 83 57 84 36 85 37 86 45 87 38 88 44 89 39 90
REMARK SMILES IDX 40 91 41 92 42 93 43 94
REMARK H PARENT 3 6 75 14 84 22 82 24 80 26 8 31 64 50 34 61
REMARK Flexibility Score: inf
ROOT
ATOM      1  C   UNL A   1      33.162  29.444  24.953  1.00  0.00     0.023 C 
ENDROOT
BRANCH   1   2
ATOM      2  C   UNL A   1      33.084  29.042  23.485  1.00  0.00     0.116 C 
BRANCH   2   3
ATOM      3  N   UNL A   1      31.835  29.439  22.852  1.00  0.00    -0.352 N 
ATOM      4  O   UNL A   1      29.848  29.106  21.810  1.00  0.00    -0.269 OA
ATOM      5  C   UNL A   1      30.795  28.641  22.436  1.00  0.00     0.251 C 
ATOM      6  H   UNL A   1      31.719  30.405  22.704  1.00  0.00     0.163 HD
BRANCH   5   7
ATOM      7  C   UNL A   1      30.846  27.196  22.724  1.00  0.00     0.039 A 
ATOM      8  C   UNL A   1      30.058  26.653  23.736  1.00  0.00     0.016 A 
ATOM      9  C   UNL A   1      31.719  26.384  22.005  1.00  0.00     0.016 A 
ATOM     10  C   UNL A   1      30.240  25.323  24.111  1.00  0.00     0.026 A 
ATOM     11  C   UNL A   1      31.873  25.044  22.375  1.00  0.00     0.026 A 
ATOM     12  C   UNL A   1      31.180  24.504  23.472  1.00  0.00     0.036 A 
BRANCH  12  13
ATOM     13  N   UNL A   1      31.423  23.187  23.840  1.00  0.00    -0.358 N 
ATOM     14  H   UNL A   1      30.812  22.484  23.519  1.00  0.00     0.163 HD
BRANCH  13  15
ATOM     15  C   UNL A   1      32.549  22.805  24.684  1.00  0.00     0.244 C 
ATOM     16  O   UNL A   1      32.656  23.727  25.770  1.00  0.00    -0.353 OA
ATOM     17  C   UNL A   1      32.275  21.403  25.281  1.00  0.00     0.195 C 
ATOM     18  C   UNL A   1      33.797  23.475  26.597  1.00  0.00     0.197 C 
ATOM     19  C   UNL A   1      33.440  21.023  26.207  1.00  0.00     0.178 C 
ATOM     20  C   UNL A   1      33.685  22.107  27.270  1.00  0.00     0.171 C 
BRANCH  17  21
ATOM     21  O   UNL A   1      31.043  21.438  26.043  1.00  0.00    -0.386 OA
ATOM     22  H   UNL A   1      30.287  21.422  25.437  1.00  0.00     0.211 HD
ENDBRANCH  17  21
BRANCH  19  23
ATOM     23  O   UNL A   1      33.173  19.770  26.842  1.00  0.00    -0.387 OA
ATOM     24  H   UNL A   1      33.395  19.046  26.235  1.00  0.00     0.211 HD
ENDBRANCH  19  23
BRANCH  20  25
ATOM     25  O   UNL A   1      32.601  22.120  28.212  1.00  0.00    -0.388 OA
ATOM     26  H   UNL A   1      31.767  22.281  27.743  1.00  0.00     0.211 HD
ENDBRANCH  20  25
ENDBRANCH  13  15
ENDBRANCH  12  13
ENDBRANCH   5   7
ENDBRANCH   2   3
ENDBRANCH   1   2
BRANCH   1  27
ATOM     27  C   UNL A   1      33.436  28.304  25.932  1.00  0.00     0.023 C 
BRANCH  27  28
ATOM     28  C   UNL A   1      33.342  28.665  27.411  1.00  0.00     0.116 C 
BRANCH  28  29
ATOM     29  N   UNL A   1      33.468  30.095  27.665  1.00  0.00    -0.352 N 
ATOM     30  C   UNL A   1      34.544  30.810  28.138  1.00  0.00     0.251 C 
ATOM     31  H   UNL A   1      32.663  30.628  27.470  1.00  0.00     0.163 HD
ATOM     32  O   UNL A   1      34.422  32.006  28.386  1.00  0.00    -0.269 OA
BRANCH  30  33
ATOM     33  C   UNL A   1      35.833  30.127  28.387  1.00  0.00     0.039 A 
ATOM     34  C   UNL A   1      36.781  30.087  27.361  1.00  0.00     0.014 A 
ATOM     35  C   UNL A   1      36.122  29.569  29.634  1.00  0.00     0.014 A 
ATOM     36  C   UNL A   1      38.058  29.581  27.619  1.00  0.00     0.010 A 
ATOM     37  C   UNL A   1      37.413  29.126  29.909  1.00  0.00     0.010 A 
ATOM     38  C   UNL A   1      38.399  29.149  28.911  1.00  0.00    -0.014 A 
BRANCH  38  39
ATOM     39  C   UNL A   1      39.797  28.787  29.259  1.00  0.00     0.031 A 
ATOM     40  C   UNL A   1      40.719  29.795  29.882  1.00  0.00     0.074 A 
ATOM     41  C   UNL A   1      40.266  27.571  28.915  1.00  0.00     0.049 A 
ATOM     42  N   UNL A   1      41.992  29.681  30.166  1.00  0.00    -0.248 NA
ATOM     43  C   UNL A   1      40.142  31.109  30.202  1.00  0.00     0.031 C 
ATOM     44  C   UNL A   1      39.490  26.520  28.252  1.00  0.00     0.029 A 
ATOM     45  N   UNL A   1      41.517  27.022  29.054  1.00  0.00    -0.354 N 
ATOM     46  C   UNL A   1      42.374  30.912  30.683  1.00  0.00     0.074 A 
ATOM     47  C   UNL A   1      41.207  31.770  30.635  1.00  0.00     0.031 C 
ATOM     48  C   UNL A   1      40.279  25.453  28.050  1.00  0.00     0.029 A 
ATOM     49  C   UNL A   1      41.622  25.754  28.533  1.00  0.00     0.049 A 
ATOM     50  H   UNL A   1      42.266  27.491  29.487  1.00  0.00     0.167 HD
ATOM     51  C   UNL A   1      43.581  31.292  31.166  1.00  0.00     0.031 A 
ATOM     52  C   UNL A   1      42.682  24.929  28.435  1.00  0.00     0.031 A 
ATOM     53  C   UNL A   1      44.742  30.443  31.213  1.00  0.00     0.049 A 
ATOM     54  C   UNL A   1      44.012  25.369  28.970  1.00  0.00     0.074 A 
ATOM     55  C   UNL A   1      45.988  30.714  31.749  1.00  0.00     0.029 A 
ATOM     56  N   UNL A   1      44.802  29.158  30.690  1.00  0.00    -0.354 N 
ATOM     57  N   UNL A   1      44.334  26.510  29.530  1.00  0.00    -0.248 NA
ATOM     58  C   UNL A   1      45.121  24.410  28.864  1.00  0.00     0.031 C 
ATOM     59  C   UNL A   1      46.816  29.611  31.510  1.00  0.00     0.029 A 
ATOM     60  C   UNL A   1      46.073  28.636  30.864  1.00  0.00     0.049 A 
ATOM     61  H   UNL A   1      44.052  28.688  30.260  1.00  0.00     0.167 HD
ATOM     62  C   UNL A   1      45.683  26.407  29.847  1.00  0.00     0.074 A 
ATOM     63  C   UNL A   1      46.111  25.085  29.435  1.00  0.00     0.031 C 
ATOM     64  C   UNL A   1      46.494  27.328  30.426  1.00  0.00     0.031 A 
BRANCH  51  65
ATOM     65  C   UNL A   1      43.700  32.707  31.669  1.00  0.00    -0.014 A 
ATOM     66  C   UNL A   1      44.006  33.763  30.792  1.00  0.00     0.010 A 
ATOM     67  C   UNL A   1      43.511  32.982  33.035  1.00  0.00     0.010 A 
ATOM     68  C   UNL A   1      44.188  35.058  31.282  1.00  0.00     0.020 A 
ATOM     69  C   UNL A   1      43.666  34.282  33.525  1.00  0.00     0.020 A 
ATOM     70  C   UNL A   1      44.030  35.307  32.649  1.00  0.00     0.054 A 
BRANCH  70  71
ATOM     71  S   UNL A   1      44.296  36.991  33.267  1.00  0.00     0.124 S 
ATOM     72  O   UNL A   1      44.973  37.621  32.136  1.00  0.00    -0.237 OA
ATOM     73  O   UNL A   1      42.936  37.461  33.524  1.00  0.00    -0.237 OA
ATOM     74  O   UNL A   1      45.118  36.797  34.457  1.00  0.00    -0.744 OA
ENDBRANCH  70  71
ENDBRANCH  51  65
BRANCH  52  75
ATOM     75  C   UNL A   1      42.507  23.598  27.798  1.00  0.00    -0.014 A 
ATOM     76  C   UNL A   1      42.863  23.400  26.454  1.00  0.00     0.010 A 
ATOM     77  C   UNL A   1      42.053  22.504  28.558  1.00  0.00     0.010 A 
ATOM     78  C   UNL A   1      42.780  22.128  25.882  1.00  0.00     0.020 A 
ATOM     79  C   UNL A   1      41.987  21.226  27.994  1.00  0.00     0.020 A 
ATOM     80  C   UNL A   1      42.350  21.047  26.658  1.00  0.00     0.054 A 
BRANCH  80  81
ATOM     81  S   UNL A   1      42.356  19.385  25.928  1.00  0.00     0.124 S 
ATOM     82  O   UNL A   1      40.938  19.170  25.654  1.00  0.00    -0.237 OA
ATOM     83  O   UNL A   1      43.209  19.556  24.755  1.00  0.00    -0.237 OA
ATOM     84  O   UNL A   1      42.926  18.552  26.985  1.00  0.00    -0.744 OA
ENDBRANCH  80  81
ENDBRANCH  52  75
BRANCH  64  85
ATOM     85  C   UNL A   1      47.930  26.941  30.642  1.00  0.00    -0.014 A 
ATOM     86  C   UNL A   1      48.933  27.382  29.760  1.00  0.00     0.010 A 
ATOM     87  C   UNL A   1      48.290  26.175  31.765  1.00  0.00     0.010 A 
ATOM     88  C   UNL A   1      50.269  27.044  29.986  1.00  0.00     0.020 A 
ATOM     89  C   UNL A   1      49.629  25.853  32.005  1.00  0.00     0.020 A 
ATOM     90  C   UNL A   1      50.609  26.280  31.107  1.00  0.00     0.054 A 
BRANCH  90  91
ATOM     91  S   UNL A   1      52.357  25.898  31.409  1.00  0.00     0.124 S 
ATOM     92  O   UNL A   1      52.912  25.932  30.059  1.00  0.00    -0.237 OA
ATOM     93  O   UNL A   1      52.778  26.984  32.291  1.00  0.00    -0.237 OA
ATOM     94  O   UNL A   1      52.317  24.578  32.034  1.00  0.00    -0.744 OA
ENDBRANCH  90  91
ENDBRANCH  64  85
ENDBRANCH  38  39
ENDBRANCH  30  33
ENDBRANCH  28  29
ENDBRANCH  27  28
ENDBRANCH   1  27
TORSDOF 19
ENDMDL
MODEL 2
REMARK VINA RESULT:     -11.4      2.700      9.503
REMARK SMILES O=C(NCCCCNC(=O)c1ccc(-c2c3nc(c(-c4ccc(S(=O)(=O)[O-])cc4)c4ccc([nH]4)c(-c4ccc(S(=O)(=O)[O-])cc4)c4nc(c(-c5ccc(S(=O)(=O)[O-])cc5)c5ccc2[nH]5)C=C4)C=C3)cc1)c1ccc(N[C@H]2OC[C@@H](O)[C@@H](O)[C@H]2O)cc1
REMARK SMILES IDX 5 1 4 2 3 3 1 4 2 5 71 7 72 8 86 9 73 10 85 11 74 12 75 13
REMARK SMILES IDX 76 15 77 16 83 17 78 18 81 19 79 20 84 21 82 23 80 25 6 27
REMARK SMILES IDX 7 28 8 29 9 30 10 32 11 33 12 34 70 35 13 36 69 37 14 38
REMARK SMILES IDX 15 39 16 40 63 41 17 42 68 43 62 44 64 45 18 46 67 47 61 48
REMARK SMILES IDX 60 49 19 51 49 52 30 53 48 54 31 55 34 56 47 57 65 58 32 59
REMARK SMILES IDX 33 60 46 62 66 63 35 64 20 65 21 66 29 67 22 68 28 69 23 70
REMARK SMILES IDX 24 71 25 72 26 73 27 74 50 75 51 76 59 77 52 78 58 79 53 80
REMARK SMILES IDX 54 81 55 82 56 83 57 84 36 85 37 86 45 87 38 88 44 89 39 90
REMARK SMILES IDX 40 91 41 92 42 93 43 94
REMARK H PARENT 3 6 75 14 84 22 82 24 80 26 8 31 64 50 34 61
REMARK Flexibility Score: inf
ROOT
ATOM      1  C   UNL A   1      35.887  21.269  24.462  1.00  0.00     0.023 C 
ENDROOT
BRANCH   1   2
ATOM      2  C   UNL A   1      35.059  21.170  25.738  1.00  0.00     0.116 C 
BRANCH   2   3
ATOM      3  N   UNL A   1      34.173  20.016  25.753  1.00  0.00    -0.352 N 
ATOM      4  O   UNL A   1      32.203  18.918  25.512  1.00  0.00    -0.269 OA
ATOM      5  C   UNL A   1      32.867  19.934  25.333  1.00  0.00     0.251 C 
ATOM      6  H   UNL A   1      34.561  19.184  26.110  1.00  0.00     0.163 HD
BRANCH   5   7
ATOM      7  C   UNL A   1      32.252  21.108  24.684  1.00  0.00     0.039 A 
ATOM      8  C   UNL A   1      32.366  21.289  23.308  1.00  0.00     0.016 A 
ATOM      9  C   UNL A   1      31.594  22.055  25.463  1.00  0.00     0.016 A 
ATOM     10  C   UNL A   1      31.931  22.482  22.733  1.00  0.00     0.026 A 
ATOM     11  C   UNL A   1      31.139  23.236  24.869  1.00  0.00     0.026 A 
ATOM     12  C   UNL A   1      31.351  23.498  23.504  1.00  0.00     0.036 A 
BRANCH  12  13
ATOM     13  N   UNL A   1      30.942  24.718  22.981  1.00  0.00    -0.358 N 
ATOM     14  H   UNL A   1      30.203  24.730  22.329  1.00  0.00     0.163 HD
BRANCH  13  15
ATOM     15  C   UNL A   1      31.565  25.981  23.359  1.00  0.00     0.244 C 
ATOM     16  O   UNL A   1      32.983  25.862  23.230  1.00  0.00    -0.353 OA
ATOM     17  C   UNL A   1      31.093  27.084  22.383  1.00  0.00     0.195 C 
ATOM     18  C   UNL A   1      33.676  27.034  23.672  1.00  0.00     0.197 C 
ATOM     19  C   UNL A   1      31.787  28.403  22.753  1.00  0.00     0.178 C 
ATOM     20  C   UNL A   1      33.314  28.237  22.801  1.00  0.00     0.171 C 
BRANCH  17  21
ATOM     21  O   UNL A   1      31.452  26.714  21.028  1.00  0.00    -0.386 OA
ATOM     22  H   UNL A   1      31.171  27.411  20.416  1.00  0.00     0.211 HD
ENDBRANCH  17  21
BRANCH  19  23
ATOM     23  O   UNL A   1      31.437  29.423  21.813  1.00  0.00    -0.387 OA
ATOM     24  H   UNL A   1      30.474  29.435  21.692  1.00  0.00     0.211 HD
ENDBRANCH  19  23
BRANCH  20  25
ATOM     25  O   UNL A   1      33.825  28.043  21.474  1.00  0.00    -0.388 OA
ATOM     26  H   UNL A   1      33.624  28.822  20.931  1.00  0.00     0.211 HD
ENDBRANCH  20  25
ENDBRANCH  13  15
ENDBRANCH  12  13
ENDBRANCH   5   7
ENDBRANCH   2   3
ENDBRANCH   1   2
BRANCH   1  27
ATOM     27  C   UNL A   1      36.505  22.638  24.187  1.00  0.00     0.023 C 
BRANCH  27  28
ATOM     28  C   UNL A   1      37.308  23.244  25.333  1.00  0.00     0.116 C 
BRANCH  28  29
ATOM     29  N   UNL A   1      38.472  22.450  25.706  1.00  0.00    -0.352 N 
ATOM     30  C   UNL A   1      39.611  22.827  26.380  1.00  0.00     0.251 C 
ATOM     31  H   UNL A   1      38.438  21.504  25.436  1.00  0.00     0.163 HD
ATOM     32  O   UNL A   1      40.536  22.030  26.511  1.00  0.00    -0.269 OA
BRANCH  30  33
ATOM     33  C   UNL A   1      39.736  24.203  26.908  1.00  0.00     0.039 A 
ATOM     34  C   UNL A   1      39.409  24.442  28.246  1.00  0.00     0.014 A 
ATOM     35  C   UNL A   1      40.213  25.242  26.104  1.00  0.00     0.014 A 
ATOM     36  C   UNL A   1      39.659  25.698  28.805  1.00  0.00     0.010 A 
ATOM     37  C   UNL A   1      40.523  26.472  26.678  1.00  0.00     0.010 A 
ATOM     38  C   UNL A   1      40.271  26.704  28.039  1.00  0.00    -0.014 A 
BRANCH  38  39
ATOM     39  C   UNL A   1      40.721  27.977  28.656  1.00  0.00     0.031 A 
ATOM     40  C   UNL A   1      42.093  28.098  29.256  1.00  0.00     0.074 A 
ATOM     41  C   UNL A   1      39.849  28.998  28.768  1.00  0.00     0.049 A 
ATOM     42  N   UNL A   1      42.618  29.099  29.915  1.00  0.00    -0.248 NA
ATOM     43  C   UNL A   1      42.978  26.931  29.120  1.00  0.00     0.031 C 
ATOM     44  C   UNL A   1      38.467  28.990  28.279  1.00  0.00     0.029 A 
ATOM     45  N   UNL A   1      39.987  30.235  29.349  1.00  0.00    -0.354 N 
ATOM     46  C   UNL A   1      43.888  28.680  30.288  1.00  0.00     0.074 A 
ATOM     47  C   UNL A   1      44.038  27.318  29.815  1.00  0.00     0.031 C 
ATOM     48  C   UNL A   1      37.889  30.165  28.574  1.00  0.00     0.029 A 
ATOM     49  C   UNL A   1      38.842  30.995  29.303  1.00  0.00     0.049 A 
ATOM     50  H   UNL A   1      40.825  30.547  29.759  1.00  0.00     0.167 HD
ATOM     51  C   UNL A   1      44.849  29.368  30.951  1.00  0.00     0.031 A 
ATOM     52  C   UNL A   1      38.577  32.216  29.805  1.00  0.00     0.031 A 
ATOM     53  C   UNL A   1      44.701  30.719  31.423  1.00  0.00     0.049 A 
ATOM     54  C   UNL A   1      39.651  32.961  30.541  1.00  0.00     0.074 A 
ATOM     55  C   UNL A   1      45.641  31.524  32.041  1.00  0.00     0.029 A 
ATOM     56  N   UNL A   1      43.532  31.462  31.340  1.00  0.00    -0.354 N 
ATOM     57  N   UNL A   1      40.875  32.578  30.814  1.00  0.00    -0.248 NA
ATOM     58  C   UNL A   1      39.311  34.303  31.035  1.00  0.00     0.031 C 
ATOM     59  C   UNL A   1      45.027  32.737  32.373  1.00  0.00     0.029 A 
ATOM     60  C   UNL A   1      43.717  32.704  31.923  1.00  0.00     0.049 A 
ATOM     61  H   UNL A   1      42.693  31.151  30.928  1.00  0.00     0.167 HD
ATOM     62  C   UNL A   1      41.455  33.633  31.508  1.00  0.00     0.074 A 
ATOM     63  C   UNL A   1      40.454  34.677  31.597  1.00  0.00     0.031 C 
ATOM     64  C   UNL A   1      42.704  33.725  32.028  1.00  0.00     0.031 A 
BRANCH  51  65
ATOM     65  C   UNL A   1      46.145  28.647  31.215  1.00  0.00    -0.014 A 
ATOM     66  C   UNL A   1      46.343  27.932  32.410  1.00  0.00     0.010 A 
ATOM     67  C   UNL A   1      47.178  28.693  30.262  1.00  0.00     0.010 A 
ATOM     68  C   UNL A   1      47.576  27.331  32.677  1.00  0.00     0.020 A 
ATOM     69  C   UNL A   1      48.403  28.070  30.514  1.00  0.00     0.020 A 
ATOM     70  C   UNL A   1      48.603  27.416  31.732  1.00  0.00     0.054 A 
BRANCH  70  71
ATOM     71  S   UNL A   1      50.203  26.650  32.110  1.00  0.00     0.124 S 
ATOM     72  O   UNL A   1      51.140  27.639  31.582  1.00  0.00    -0.237 OA
ATOM     73  O   UNL A   1      50.171  26.533  33.567  1.00  0.00    -0.237 OA
ATOM     74  O   UNL A   1      50.159  25.383  31.387  1.00  0.00    -0.744 OA
ENDBRANCH  70  71
ENDBRANCH  51  65
BRANCH  52  75
ATOM     75  C   UNL A   1      37.223  32.799  29.616  1.00  0.00    -0.014 A 
ATOM     76  C   UNL A   1      36.279  32.757  30.655  1.00  0.00     0.010 A 
ATOM     77  C   UNL A   1      36.901  33.466  28.419  1.00  0.00     0.010 A 
ATOM     78  C   UNL A   1      35.038  33.381  30.506  1.00  0.00     0.020 A 
ATOM     79  C   UNL A   1      35.668  34.109  28.275  1.00  0.00     0.020 A 
ATOM     80  C   UNL A   1      34.743  34.061  29.320  1.00  0.00     0.054 A 
BRANCH  80  81
ATOM     81  S   UNL A   1      33.171  34.958  29.190  1.00  0.00     0.124 S 
ATOM     82  O   UNL A   1      33.611  36.278  28.747  1.00  0.00    -0.237 OA
ATOM     83  O   UNL A   1      32.435  34.171  28.204  1.00  0.00    -0.237 OA
ATOM     84  O   UNL A   1      32.632  34.897  30.548  1.00  0.00    -0.744 OA
ENDBRANCH  80  81
ENDBRANCH  52  75
BRANCH  64  85
ATOM     85  C   UNL A   1      43.058  34.997  32.747  1.00  0.00    -0.014 A 
ATOM     86  C   UNL A   1      42.789  35.145  34.120  1.00  0.00     0.010 A 
ATOM     87  C   UNL A   1      43.713  36.033  32.059  1.00  0.00     0.010 A 
ATOM     88  C   UNL A   1      43.151  36.318  34.787  1.00  0.00     0.020 A 
ATOM     89  C   UNL A   1      44.094  37.200  32.728  1.00  0.00     0.020 A 
ATOM     90  C   UNL A   1      43.800  37.340  34.086  1.00  0.00     0.054 A 
BRANCH  90  91
ATOM     91  S   UNL A   1      44.306  38.832  34.984  1.00  0.00     0.124 S 
ATOM     92  O   UNL A   1      43.418  39.842  34.419  1.00  0.00    -0.237 OA
ATOM     93  O   UNL A   1      44.047  38.475  36.377  1.00  0.00    -0.237 OA
ATOM     94  O   UNL A   1      45.719  38.979  34.639  1.00  0.00    -0.744 OA
ENDBRANCH  90  91
ENDBRANCH  64  85
ENDBRANCH  38  39
ENDBRANCH  30  33
ENDBRANCH  28  29
ENDBRANCH  27  28
ENDBRANCH   1  27
TORSDOF 19
ENDMDL
MODEL 3
REMARK VINA RESULT:     -11.1      3.446      8.113
REMARK SMILES O=C(NCCCCNC(=O)c1ccc(-c2c3nc(c(-c4ccc(S(=O)(=O)[O-])cc4)c4ccc([nH]4)c(-c4ccc(S(=O)(=O)[O-])cc4)c4nc(c(-c5ccc(S(=O)(=O)[O-])cc5)c5ccc2[nH]5)C=C4)C=C3)cc1)c1ccc(N[C@H]2OC[C@@H](O)[C@@H](O)[C@H]2O)cc1
REMARK SMILES IDX 5 1 4 2 3 3 1 4 2 5 71 7 72 8 86 9 73 10 85 11 74 12 75 13
REMARK SMILES IDX 76 15 77 16 83 17 78 18 81 19 79 20 84 21 82 23 80 25 6 27
REMARK SMILES IDX 7 28 8 29 9 30 10 32 11 33 12 34 70 35 13 36 69 37 14 38
REMARK SMILES IDX 15 39 16 40 63 41 17 42 68 43 62 44 64 45 18 46 67 47 61 48
REMARK SMILES IDX 60 49 19 51 49 52 30 53 48 54 31 55 34 56 47 57 65 58 32 59
REMARK SMILES IDX 33 60 46 62 66 63 35 64 20 65 21 66 29 67 22 68 28 69 23 70
REMARK SMILES IDX 24 71 25 72 26 73 27 74 50 75 51 76 59 77 52 78 58 79 53 80
REMARK SMILES IDX 54 81 55 82 56 83 57 84 36 85 37 86 45 87 38 88 44 89 39 90
REMARK SMILES IDX 40 91 41 92 42 93 43 94
REMARK H PARENT 3 6 75 14 84 22 82 24 80 26 8 31 64 50 34 61
REMARK Flexibility Score: inf
ROOT
ATOM      1  C   UNL A   1      36.627  20.619  25.022  1.00  0.00     0.023 C 
ENDROOT
BRANCH   1   2
ATOM      2  C   UNL A   1      35.170  21.047  25.160  1.00  0.00     0.116 C 
BRANCH   2   3
ATOM      3  N   UNL A   1      34.254  19.920  25.263  1.00  0.00    -0.352 N 
ATOM      4  O   UNL A   1      32.230  18.897  25.283  1.00  0.00    -0.269 OA
ATOM      5  C   UNL A   1      32.896  19.899  25.047  1.00  0.00     0.251 C 
ATOM      6  H   UNL A   1      34.660  19.061  25.519  1.00  0.00     0.163 HD
BRANCH   5   7
ATOM      7  C   UNL A   1      32.234  21.121  24.552  1.00  0.00     0.039 A 
ATOM      8  C   UNL A   1      32.327  21.475  23.208  1.00  0.00     0.016 A 
ATOM      9  C   UNL A   1      31.552  21.941  25.447  1.00  0.00     0.016 A 
ATOM     10  C   UNL A   1      31.844  22.713  22.788  1.00  0.00     0.026 A 
ATOM     11  C   UNL A   1      31.050  23.170  25.006  1.00  0.00     0.026 A 
ATOM     12  C   UNL A   1      31.238  23.605  23.683  1.00  0.00     0.036 A 
BRANCH  12  13
ATOM     13  N   UNL A   1      30.781  24.864  23.316  1.00  0.00    -0.358 N 
ATOM     14  H   UNL A   1      29.922  24.937  22.840  1.00  0.00     0.163 HD
BRANCH  13  15
ATOM     15  C   UNL A   1      31.524  26.083  23.610  1.00  0.00     0.244 C 
ATOM     16  O   UNL A   1      32.919  25.842  23.414  1.00  0.00    -0.353 OA
ATOM     17  C   UNL A   1      31.092  27.187  22.616  1.00  0.00     0.195 C 
ATOM     18  C   UNL A   1      33.730  26.967  23.772  1.00  0.00     0.197 C 
ATOM     19  C   UNL A   1      31.911  28.455  22.896  1.00  0.00     0.178 C 
ATOM     20  C   UNL A   1      33.420  28.163  22.873  1.00  0.00     0.171 C 
BRANCH  17  21
ATOM     21  O   UNL A   1      31.345  26.739  21.261  1.00  0.00    -0.386 OA
ATOM     22  H   UNL A   1      30.542  26.336  20.898  1.00  0.00     0.211 HD
ENDBRANCH  17  21
BRANCH  19  23
ATOM     23  O   UNL A   1      31.595  29.466  21.936  1.00  0.00    -0.387 OA
ATOM     24  H   UNL A   1      30.838  29.986  22.250  1.00  0.00     0.211 HD
ENDBRANCH  19  23
BRANCH  20  25
ATOM     25  O   UNL A   1      33.840  27.879  21.529  1.00  0.00    -0.388 OA
ATOM     26  H   UNL A   1      34.809  27.859  21.490  1.00  0.00     0.211 HD
ENDBRANCH  20  25
ENDBRANCH  13  15
ENDBRANCH  12  13
ENDBRANCH   5   7
ENDBRANCH   2   3
ENDBRANCH   1   2
BRANCH   1  27
ATOM     27  C   UNL A   1      37.642  21.758  24.963  1.00  0.00     0.023 C 
BRANCH  27  28
ATOM     28  C   UNL A   1      38.782  21.681  25.973  1.00  0.00     0.116 C 
BRANCH  28  29
ATOM     29  N   UNL A   1      39.507  20.417  25.930  1.00  0.00    -0.352 N 
ATOM     30  C   UNL A   1      40.850  20.170  26.093  1.00  0.00     0.251 C 
ATOM     31  H   UNL A   1      38.952  19.621  25.759  1.00  0.00     0.163 HD
ATOM     32  O   UNL A   1      41.290  19.038  25.918  1.00  0.00    -0.269 OA
BRANCH  30  33
ATOM     33  C   UNL A   1      41.768  21.279  26.437  1.00  0.00     0.039 A 
ATOM     34  C   UNL A   1      42.261  22.087  25.409  1.00  0.00     0.014 A 
ATOM     35  C   UNL A   1      42.106  21.547  27.766  1.00  0.00     0.014 A 
ATOM     36  C   UNL A   1      43.007  23.227  25.723  1.00  0.00     0.010 A 
ATOM     37  C   UNL A   1      42.792  22.717  28.081  1.00  0.00     0.010 A 
ATOM     38  C   UNL A   1      43.229  23.579  27.063  1.00  0.00    -0.014 A 
BRANCH  38  39
ATOM     39  C   UNL A   1      43.850  24.878  27.427  1.00  0.00     0.031 A 
ATOM     40  C   UNL A   1      43.022  25.993  27.997  1.00  0.00     0.074 A 
ATOM     41  C   UNL A   1      45.151  25.087  27.143  1.00  0.00     0.049 A 
ATOM     42  N   UNL A   1      43.378  27.219  28.284  1.00  0.00    -0.248 NA
ATOM     43  C   UNL A   1      41.604  25.699  28.252  1.00  0.00     0.031 C 
ATOM     44  C   UNL A   1      46.054  24.105  26.535  1.00  0.00     0.029 A 
ATOM     45  N   UNL A   1      45.936  26.202  27.308  1.00  0.00    -0.354 N 
ATOM     46  C   UNL A   1      42.227  27.850  28.738  1.00  0.00     0.074 A 
ATOM     47  C   UNL A   1      41.153  26.880  28.650  1.00  0.00     0.031 C 
ATOM     48  C   UNL A   1      47.268  24.659  26.385  1.00  0.00     0.029 A 
ATOM     49  C   UNL A   1      47.223  26.041  26.850  1.00  0.00     0.049 A 
ATOM     50  H   UNL A   1      45.609  27.036  27.715  1.00  0.00     0.167 HD
ATOM     51  C   UNL A   1      42.077  29.115  29.199  1.00  0.00     0.031 A 
ATOM     52  C   UNL A   1      48.250  26.910  26.792  1.00  0.00     0.031 A 
ATOM     53  C   UNL A   1      43.141  30.079  29.286  1.00  0.00     0.049 A 
ATOM     54  C   UNL A   1      48.064  28.308  27.302  1.00  0.00     0.074 A 
ATOM     55  C   UNL A   1      43.103  31.361  29.806  1.00  0.00     0.029 A 
ATOM     56  N   UNL A   1      44.435  29.871  28.829  1.00  0.00    -0.354 N 
ATOM     57  N   UNL A   1      46.986  28.862  27.803  1.00  0.00    -0.248 NA
ATOM     58  C   UNL A   1      49.232  29.198  27.242  1.00  0.00     0.031 C 
ATOM     59  C   UNL A   1      44.362  31.944  29.621  1.00  0.00     0.029 A 
ATOM     60  C   UNL A   1      45.196  31.012  29.026  1.00  0.00     0.049 A 
ATOM     61  H   UNL A   1      44.764  29.036  28.424  1.00  0.00     0.167 HD
ATOM     62  C   UNL A   1      47.346  30.166  28.123  1.00  0.00     0.074 A 
ATOM     63  C   UNL A   1      48.745  30.311  27.777  1.00  0.00     0.031 C 
ATOM     64  C   UNL A   1      46.582  31.153  28.654  1.00  0.00     0.031 A 
BRANCH  51  65
ATOM     65  C   UNL A   1      40.693  29.524  29.631  1.00  0.00    -0.014 A 
ATOM     66  C   UNL A   1      39.718  29.886  28.684  1.00  0.00     0.010 A 
ATOM     67  C   UNL A   1      40.367  29.555  30.999  1.00  0.00     0.010 A 
ATOM     68  C   UNL A   1      38.463  30.336  29.099  1.00  0.00     0.020 A 
ATOM     69  C   UNL A   1      39.102  29.979  31.417  1.00  0.00     0.020 A 
ATOM     70  C   UNL A   1      38.168  30.393  30.465  1.00  0.00     0.054 A 
BRANCH  70  71
ATOM     71  S   UNL A   1      36.541  31.004  30.983  1.00  0.00     0.124 S 
ATOM     72  O   UNL A   1      36.865  32.346  31.463  1.00  0.00    -0.237 OA
ATOM     73  O   UNL A   1      35.765  30.953  29.745  1.00  0.00    -0.237 OA
ATOM     74  O   UNL A   1      36.127  30.055  32.011  1.00  0.00    -0.744 OA
ENDBRANCH  70  71
ENDBRANCH  51  65
BRANCH  52  75
ATOM     75  C   UNL A   1      49.547  26.461  26.223  1.00  0.00    -0.014 A 
ATOM     76  C   UNL A   1      49.911  26.818  24.913  1.00  0.00     0.010 A 
ATOM     77  C   UNL A   1      50.456  25.737  27.017  1.00  0.00     0.010 A 
ATOM     78  C   UNL A   1      51.167  26.469  24.411  1.00  0.00     0.020 A 
ATOM     79  C   UNL A   1      51.720  25.404  26.523  1.00  0.00     0.020 A 
ATOM     80  C   UNL A   1      52.067  25.771  25.222  1.00  0.00     0.054 A 
BRANCH  80  81
ATOM     81  S   UNL A   1      53.733  25.425  24.589  1.00  0.00     0.124 S 
ATOM     82  O   UNL A   1      53.609  25.805  23.185  1.00  0.00    -0.237 OA
ATOM     83  O   UNL A   1      54.572  26.295  25.409  1.00  0.00    -0.237 OA
ATOM     84  O   UNL A   1      53.902  23.996  24.841  1.00  0.00    -0.744 OA
ENDBRANCH  80  81
ENDBRANCH  52  75
BRANCH  64  85
ATOM     85  C   UNL A   1      47.241  32.483  28.886  1.00  0.00    -0.014 A 
ATOM     86  C   UNL A   1      47.921  32.749  30.089  1.00  0.00     0.010 A 
ATOM     87  C   UNL A   1      47.229  33.459  27.874  1.00  0.00     0.010 A 
ATOM     88  C   UNL A   1      48.558  33.976  30.283  1.00  0.00     0.020 A 
ATOM     89  C   UNL A   1      47.883  34.681  28.058  1.00  0.00     0.020 A 
ATOM     90  C   UNL A   1      48.534  34.936  29.266  1.00  0.00     0.054 A 
BRANCH  90  91
ATOM     91  S   UNL A   1      49.412  36.503  29.520  1.00  0.00     0.124 S 
ATOM     92  O   UNL A   1      50.622  36.305  28.729  1.00  0.00    -0.237 OA
ATOM     93  O   UNL A   1      48.472  37.490  28.995  1.00  0.00    -0.237 OA
ATOM     94  O   UNL A   1      49.613  36.554  30.967  1.00  0.00    -0.744 OA
ENDBRANCH  90  91
ENDBRANCH  64  85
ENDBRANCH  38  39
ENDBRANCH  30  33
ENDBRANCH  28  29
ENDBRANCH  27  28
ENDBRANCH   1  27
TORSDOF 19
ENDMDL
