MODEL 1
REMARK VINA RESULT:     -11.3      0.000      0.000
REMARK SMILES [NH3+][C@H](CS[C@@H]1CC(=O)N(c2ccc3ccccc3c2)C1=O)C(=O)NCCCCNC(=O)c1ccc(-c2c3nc(c(-c4ccc(S(=O)(=O)[O-])cc4)c4ccc([nH]4)c(-c4ccc(S(=O)(=O)[O-])cc4)c4nc(c(-c5ccc(S(=O)(=O)[O-])cc5)c5ccc2[nH]5)C=C4)C=C3)cc1
REMARK SMILES IDX 26 1 25 2 24 3 22 4 23 5 2 7 1 8 3 12 4 13 5 14 6 15 20 16
REMARK SMILES IDX 7 17 9 18 21 19 8 20 10 21 11 22 19 23 12 24 18 25 13 26
REMARK SMILES IDX 17 27 14 28 16 29 15 30 27 31 28 32 29 33 30 34 31 36 32 37
REMARK SMILES IDX 33 38 91 39 34 40 90 41 35 42 36 43 37 44 84 45 38 46 89 47
REMARK SMILES IDX 83 48 85 49 39 50 88 51 82 52 81 53 40 55 70 56 51 57 69 58
REMARK SMILES IDX 52 59 55 60 68 61 86 62 53 63 54 64 67 66 87 67 56 68 41 69
REMARK SMILES IDX 42 70 50 71 43 72 49 73 44 74 45 75 46 76 47 77 48 78 71 79
REMARK SMILES IDX 72 80 80 81 73 82 79 83 74 84 75 85 76 86 77 87 78 88 57 89
REMARK SMILES IDX 58 90 66 91 59 92 65 93 60 94 61 95 62 96 63 97 64 98
REMARK H PARENT 24 6 1 9 1 10 1 11 29 35 85 54 55 65
REMARK Flexibility Score: inf
ROOT
ATOM      1  C   UNL A   1      39.149  21.887  25.972  1.00  0.00     0.023 C 
ENDROOT
BRANCH   1   2
ATOM      2  C   UNL A   1      37.786  21.870  25.288  1.00  0.00     0.116 C 
BRANCH   2   3
ATOM      3  N   UNL A   1      36.719  22.041  26.252  1.00  0.00    -0.351 N 
ATOM      4  C   UNL A   1      35.535  22.709  26.142  1.00  0.00     0.279 C 
ATOM      5  O   UNL A   1      34.780  22.701  27.118  1.00  0.00    -0.268 OA
ATOM      6  H   UNL A   1      36.871  21.606  27.123  1.00  0.00     0.163 HD
BRANCH   4   7
ATOM      7  C   UNL A   1      35.162  23.475  24.857  1.00  0.00     0.280 C 
BRANCH   7   8
ATOM      8  N   UNL A   1      34.621  24.800  25.239  1.00  0.00    -0.347 N 
ATOM      9  H   UNL A   1      35.016  25.082  26.137  1.00  0.00     0.345 HD
ATOM     10  H   UNL A   1      33.606  24.743  25.316  1.00  0.00     0.345 HD
ATOM     11  H   UNL A   1      34.871  25.487  24.528  1.00  0.00     0.345 HD
ENDBRANCH   7   8
BRANCH   7  12
ATOM     12  C   UNL A   1      34.268  22.610  23.943  1.00  0.00     0.145 C 
BRANCH  12  13
ATOM     13  S   UNL A   1      32.481  22.438  24.383  1.00  0.00    -0.141 SA
BRANCH  13  14
ATOM     14  C   UNL A   1      31.715  23.676  23.303  1.00  0.00     0.146 C 
ATOM     15  C   UNL A   1      32.653  24.224  22.249  1.00  0.00     0.125 C 
ATOM     16  C   UNL A   1      31.305  24.923  24.050  1.00  0.00     0.247 C 
ATOM     17  C   UNL A   1      32.129  25.620  22.052  1.00  0.00     0.235 C 
ATOM     18  N   UNL A   1      31.470  25.996  23.201  1.00  0.00    -0.250 N 
ATOM     19  O   UNL A   1      30.782  24.920  25.157  1.00  0.00    -0.273 OA
ATOM     20  O   UNL A   1      32.362  26.274  21.046  1.00  0.00    -0.274 OA
BRANCH  18  21
ATOM     21  C   UNL A   1      30.949  27.290  23.473  1.00  0.00     0.052 A 
ATOM     22  C   UNL A   1      31.618  28.179  24.321  1.00  0.00     0.027 A 
ATOM     23  C   UNL A   1      29.761  27.728  22.863  1.00  0.00     0.035 A 
ATOM     24  C   UNL A   1      31.141  29.482  24.513  1.00  0.00     0.011 A 
ATOM     25  C   UNL A   1      29.252  29.020  23.067  1.00  0.00    -0.016 A 
ATOM     26  C   UNL A   1      29.960  29.917  23.893  1.00  0.00    -0.018 A 
ATOM     27  C   UNL A   1      28.055  29.435  22.461  1.00  0.00     0.009 A 
ATOM     28  C   UNL A   1      29.465  31.219  24.071  1.00  0.00     0.009 A 
ATOM     29  C   UNL A   1      27.567  30.727  22.659  1.00  0.00     0.001 A 
ATOM     30  C   UNL A   1      28.275  31.619  23.459  1.00  0.00     0.001 A 
ENDBRANCH  18  21
ENDBRANCH  13  14
ENDBRANCH  12  13
ENDBRANCH   7  12
ENDBRANCH   4   7
ENDBRANCH   2   3
ENDBRANCH   1   2
BRANCH   1  31
ATOM     31  C   UNL A   1      39.296  22.957  27.054  1.00  0.00     0.023 C 
BRANCH  31  32
ATOM     32  C   UNL A   1      39.416  24.384  26.529  1.00  0.00     0.116 C 
BRANCH  32  33
ATOM     33  N   UNL A   1      40.608  24.581  25.719  1.00  0.00    -0.352 N 
ATOM     34  C   UNL A   1      41.600  25.521  25.874  1.00  0.00     0.251 C 
ATOM     35  H   UNL A   1      40.721  23.961  24.963  1.00  0.00     0.163 HD
ATOM     36  O   UNL A   1      42.466  25.658  25.015  1.00  0.00    -0.269 OA
BRANCH  34  37
ATOM     37  C   UNL A   1      41.586  26.381  27.073  1.00  0.00     0.039 A 
ATOM     38  C   UNL A   1      42.259  27.604  27.040  1.00  0.00     0.014 A 
ATOM     39  C   UNL A   1      40.864  25.997  28.207  1.00  0.00     0.014 A 
ATOM     40  C   UNL A   1      42.151  28.477  28.125  1.00  0.00     0.010 A 
ATOM     41  C   UNL A   1      40.701  26.896  29.255  1.00  0.00     0.010 A 
ATOM     42  C   UNL A   1      41.342  28.143  29.225  1.00  0.00    -0.014 A 
BRANCH  42  43
ATOM     43  C   UNL A   1      41.151  29.088  30.354  1.00  0.00     0.031 A 
ATOM     44  C   UNL A   1      42.049  29.011  31.557  1.00  0.00     0.074 A 
ATOM     45  C   UNL A   1      40.126  29.962  30.327  1.00  0.00     0.049 A 
ATOM     46  N   UNL A   1      41.998  29.700  32.668  1.00  0.00    -0.248 NA
ATOM     47  C   UNL A   1      43.129  28.012  31.518  1.00  0.00     0.031 C 
ATOM     48  C   UNL A   1      39.155  30.100  29.238  1.00  0.00     0.029 A 
ATOM     49  N   UNL A   1      39.724  30.896  31.248  1.00  0.00    -0.354 N 
ATOM     50  C   UNL A   1      43.023  29.206  33.465  1.00  0.00     0.074 A 
ATOM     51  C   UNL A   1      43.648  28.128  32.731  1.00  0.00     0.031 C 
ATOM     52  C   UNL A   1      38.285  31.076  29.546  1.00  0.00     0.029 A 
ATOM     53  C   UNL A   1      38.612  31.608  30.864  1.00  0.00     0.049 A 
ATOM     54  H   UNL A   1      40.188  31.043  32.103  1.00  0.00     0.167 HD
ATOM     55  C   UNL A   1      43.424  29.626  34.689  1.00  0.00     0.031 A 
ATOM     56  C   UNL A   1      37.928  32.576  31.504  1.00  0.00     0.031 A 
ATOM     57  C   UNL A   1      42.810  30.707  35.412  1.00  0.00     0.049 A 
ATOM     58  C   UNL A   1      38.396  33.033  32.858  1.00  0.00     0.074 A 
ATOM     59  C   UNL A   1      43.173  31.241  36.635  1.00  0.00     0.029 A 
ATOM     60  N   UNL A   1      41.702  31.420  34.976  1.00  0.00    -0.354 N 
ATOM     61  N   UNL A   1      39.408  32.596  33.568  1.00  0.00    -0.248 NA
ATOM     62  C   UNL A   1      37.639  34.122  33.489  1.00  0.00     0.031 C 
ATOM     63  C   UNL A   1      42.261  32.253  36.957  1.00  0.00     0.029 A 
ATOM     64  C   UNL A   1      41.361  32.379  35.912  1.00  0.00     0.049 A 
ATOM     65  H   UNL A   1      41.230  31.265  34.126  1.00  0.00     0.167 HD
ATOM     66  C   UNL A   1      39.423  33.372  34.722  1.00  0.00     0.074 A 
ATOM     67  C   UNL A   1      38.330  34.315  34.606  1.00  0.00     0.031 C 
ATOM     68  C   UNL A   1      40.268  33.310  35.780  1.00  0.00     0.031 A 
BRANCH  55  69
ATOM     69  C   UNL A   1      44.588  28.907  35.318  1.00  0.00    -0.014 A 
ATOM     70  C   UNL A   1      45.910  29.334  35.094  1.00  0.00     0.010 A 
ATOM     71  C   UNL A   1      44.359  27.802  36.158  1.00  0.00     0.010 A 
ATOM     72  C   UNL A   1      46.983  28.641  35.658  1.00  0.00     0.020 A 
ATOM     73  C   UNL A   1      45.429  27.123  36.748  1.00  0.00     0.020 A 
ATOM     74  C   UNL A   1      46.736  27.535  36.477  1.00  0.00     0.054 A 
BRANCH  74  75
ATOM     75  S   UNL A   1      48.148  26.660  37.204  1.00  0.00     0.124 S 
ATOM     76  O   UNL A   1      47.704  26.466  38.582  1.00  0.00    -0.237 OA
ATOM     77  O   UNL A   1      48.227  25.447  36.394  1.00  0.00    -0.237 OA
ATOM     78  O   UNL A   1      49.260  27.593  37.033  1.00  0.00    -0.744 OA
ENDBRANCH  74  75
ENDBRANCH  55  69
BRANCH  56  79
ATOM     79  C   UNL A   1      36.739  33.194  30.856  1.00  0.00    -0.014 A 
ATOM     80  C   UNL A   1      35.445  32.915  31.329  1.00  0.00     0.010 A 
ATOM     81  C   UNL A   1      36.897  34.085  29.779  1.00  0.00     0.010 A 
ATOM     82  C   UNL A   1      34.329  33.502  30.727  1.00  0.00     0.020 A 
ATOM     83  C   UNL A   1      35.785  34.694  29.190  1.00  0.00     0.020 A 
ATOM     84  C   UNL A   1      34.507  34.390  29.662  1.00  0.00     0.054 A 
BRANCH  84  85
ATOM     85  S   UNL A   1      33.048  35.190  28.936  1.00  0.00     0.124 S 
ATOM     86  O   UNL A   1      33.628  36.379  28.321  1.00  0.00    -0.237 OA
ATOM     87  O   UNL A   1      32.557  34.173  28.009  1.00  0.00    -0.237 OA
ATOM     88  O   UNL A   1      32.186  35.436  30.090  1.00  0.00    -0.744 OA
ENDBRANCH  84  85
ENDBRANCH  56  79
BRANCH  68  89
ATOM     89  C   UNL A   1      40.064  34.309  36.888  1.00  0.00    -0.014 A 
ATOM     90  C   UNL A   1      40.652  35.585  36.832  1.00  0.00     0.010 A 
ATOM     91  C   UNL A   1      39.225  33.983  37.969  1.00  0.00     0.010 A 
ATOM     92  C   UNL A   1      40.425  36.508  37.856  1.00  0.00     0.020 A 
ATOM     93  C   UNL A   1      38.977  34.912  38.981  1.00  0.00     0.020 A 
ATOM     94  C   UNL A   1      39.590  36.166  38.925  1.00  0.00     0.054 A 
BRANCH  94  95
ATOM     95  S   UNL A   1      39.274  37.397  40.218  1.00  0.00     0.124 S 
ATOM     96  O   UNL A   1      40.613  37.919  40.474  1.00  0.00    -0.237 OA
ATOM     97  O   UNL A   1      38.353  38.324  39.563  1.00  0.00    -0.237 OA
ATOM     98  O   UNL A   1      38.691  36.616  41.306  1.00  0.00    -0.744 OA
ENDBRANCH  94  95
ENDBRANCH  68  89
ENDBRANCH  42  43
ENDBRANCH  34  37
ENDBRANCH  32  33
ENDBRANCH  31  32
ENDBRANCH   1  31
TORSDOF 19
ENDMDL
MODEL 2
REMARK VINA RESULT:     -11.1      3.091      3.888
REMARK SMILES [NH3+][C@H](CS[C@@H]1CC(=O)N(c2ccc3ccccc3c2)C1=O)C(=O)NCCCCNC(=O)c1ccc(-c2c3nc(c(-c4ccc(S(=O)(=O)[O-])cc4)c4ccc([nH]4)c(-c4ccc(S(=O)(=O)[O-])cc4)c4nc(c(-c5ccc(S(=O)(=O)[O-])cc5)c5ccc2[nH]5)C=C4)C=C3)cc1
REMARK SMILES IDX 26 1 25 2 24 3 22 4 23 5 2 7 1 8 3 12 4 13 5 14 6 15 20 16
REMARK SMILES IDX 7 17 9 18 21 19 8 20 10 21 11 22 19 23 12 24 18 25 13 26
REMARK SMILES IDX 17 27 14 28 16 29 15 30 27 31 28 32 29 33 30 34 31 36 32 37
REMARK SMILES IDX 33 38 91 39 34 40 90 41 35 42 36 43 37 44 84 45 38 46 89 47
REMARK SMILES IDX 83 48 85 49 39 50 88 51 82 52 81 53 40 55 70 56 51 57 69 58
REMARK SMILES IDX 52 59 55 60 68 61 86 62 53 63 54 64 67 66 87 67 56 68 41 69
REMARK SMILES IDX 42 70 50 71 43 72 49 73 44 74 45 75 46 76 47 77 48 78 71 79
REMARK SMILES IDX 72 80 80 81 73 82 79 83 74 84 75 85 76 86 77 87 78 88 57 89
REMARK SMILES IDX 58 90 66 91 59 92 65 93 60 94 61 95 62 96 63 97 64 98
REMARK H PARENT 24 6 1 9 1 10 1 11 29 35 85 54 55 65
REMARK Flexibility Score: inf
ROOT
ATOM      1  C   UNL A   1      36.562  21.676  24.072  1.00  0.00     0.023 C 
ENDROOT
BRANCH   1   2
ATOM      2  C   UNL A   1      35.608  20.649  24.672  1.00  0.00     0.116 C 
BRANCH   2   3
ATOM      3  N   UNL A   1      35.117  21.088  25.962  1.00  0.00    -0.351 N 
ATOM      4  C   UNL A   1      33.865  21.014  26.496  1.00  0.00     0.279 C 
ATOM      5  O   UNL A   1      33.700  21.459  27.635  1.00  0.00    -0.268 OA
ATOM      6  H   UNL A   1      35.793  21.504  26.545  1.00  0.00     0.163 HD
BRANCH   4   7
ATOM      7  C   UNL A   1      32.685  20.425  25.697  1.00  0.00     0.280 C 
BRANCH   7   8
ATOM      8  N   UNL A   1      33.216  19.420  24.747  1.00  0.00    -0.347 N 
ATOM      9  H   UNL A   1      32.666  19.440  23.888  1.00  0.00     0.345 HD
ATOM     10  H   UNL A   1      33.159  18.492  25.166  1.00  0.00     0.345 HD
ATOM     11  H   UNL A   1      34.190  19.637  24.532  1.00  0.00     0.345 HD
ENDBRANCH   7   8
BRANCH   7  12
ATOM     12  C   UNL A   1      31.819  21.548  25.089  1.00  0.00     0.145 C 
BRANCH  12  13
ATOM     13  S   UNL A   1      32.543  22.567  23.727  1.00  0.00    -0.141 SA
BRANCH  13  14
ATOM     14  C   UNL A   1      32.717  24.184  24.528  1.00  0.00     0.146 C 
ATOM     15  C   UNL A   1      32.172  24.221  25.940  1.00  0.00     0.125 C 
ATOM     16  C   UNL A   1      31.910  25.261  23.842  1.00  0.00     0.247 C 
ATOM     17  C   UNL A   1      31.730  25.653  26.072  1.00  0.00     0.235 C 
ATOM     18  N   UNL A   1      31.472  26.139  24.810  1.00  0.00    -0.250 N 
ATOM     19  O   UNL A   1      31.816  25.379  22.628  1.00  0.00    -0.273 OA
ATOM     20  O   UNL A   1      31.571  26.194  27.156  1.00  0.00    -0.274 OA
BRANCH  18  21
ATOM     21  C   UNL A   1      30.902  27.405  24.509  1.00  0.00     0.052 A 
ATOM     22  C   UNL A   1      31.505  28.594  24.935  1.00  0.00     0.027 A 
ATOM     23  C   UNL A   1      29.731  27.501  23.738  1.00  0.00     0.035 A 
ATOM     24  C   UNL A   1      30.982  29.837  24.559  1.00  0.00     0.011 A 
ATOM     25  C   UNL A   1      29.176  28.738  23.376  1.00  0.00    -0.016 A 
ATOM     26  C   UNL A   1      29.819  29.926  23.780  1.00  0.00    -0.018 A 
ATOM     27  C   UNL A   1      27.996  28.813  22.618  1.00  0.00     0.009 A 
ATOM     28  C   UNL A   1      29.278  31.162  23.391  1.00  0.00     0.009 A 
ATOM     29  C   UNL A   1      27.463  30.049  22.252  1.00  0.00     0.001 A 
ATOM     30  C   UNL A   1      28.107  31.222  22.633  1.00  0.00     0.001 A 
ENDBRANCH  18  21
ENDBRANCH  13  14
ENDBRANCH  12  13
ENDBRANCH   7  12
ENDBRANCH   4   7
ENDBRANCH   2   3
ENDBRANCH   1   2
BRANCH   1  31
ATOM     31  C   UNL A   1      36.279  23.118  24.493  1.00  0.00     0.023 C 
BRANCH  31  32
ATOM     32  C   UNL A   1      37.233  23.675  25.546  1.00  0.00     0.116 C 
BRANCH  32  33
ATOM     33  N   UNL A   1      38.341  22.775  25.825  1.00  0.00    -0.352 N 
ATOM     34  C   UNL A   1      39.548  23.065  26.416  1.00  0.00     0.251 C 
ATOM     35  H   UNL A   1      38.211  21.837  25.558  1.00  0.00     0.163 HD
ATOM     36  O   UNL A   1      40.444  22.226  26.444  1.00  0.00    -0.269 OA
BRANCH  34  37
ATOM     37  C   UNL A   1      39.757  24.409  26.988  1.00  0.00     0.039 A 
ATOM     38  C   UNL A   1      39.336  24.665  28.294  1.00  0.00     0.014 A 
ATOM     39  C   UNL A   1      40.417  25.394  26.247  1.00  0.00     0.014 A 
ATOM     40  C   UNL A   1      39.638  25.895  28.885  1.00  0.00     0.010 A 
ATOM     41  C   UNL A   1      40.776  26.590  26.860  1.00  0.00     0.010 A 
ATOM     42  C   UNL A   1      40.391  26.851  28.183  1.00  0.00    -0.014 A 
BRANCH  42  43
ATOM     43  C   UNL A   1      40.790  28.133  28.817  1.00  0.00     0.031 A 
ATOM     44  C   UNL A   1      42.165  28.283  29.408  1.00  0.00     0.074 A 
ATOM     45  C   UNL A   1      39.892  29.132  28.925  1.00  0.00     0.049 A 
ATOM     46  N   UNL A   1      42.674  29.295  30.062  1.00  0.00    -0.248 NA
ATOM     47  C   UNL A   1      43.077  27.136  29.269  1.00  0.00     0.031 C 
ATOM     48  C   UNL A   1      38.511  29.090  28.436  1.00  0.00     0.029 A 
ATOM     49  N   UNL A   1      40.005  30.377  29.491  1.00  0.00    -0.354 N 
ATOM     50  C   UNL A   1      43.955  28.901  30.427  1.00  0.00     0.074 A 
ATOM     51  C   UNL A   1      44.128  27.541  29.967  1.00  0.00     0.031 C 
ATOM     52  C   UNL A   1      37.914  30.263  28.704  1.00  0.00     0.029 A 
ATOM     53  C   UNL A   1      38.854  31.125  29.413  1.00  0.00     0.049 A 
ATOM     54  H   UNL A   1      40.832  30.704  29.913  1.00  0.00     0.167 HD
ATOM     55  C   UNL A   1      44.911  29.614  31.071  1.00  0.00     0.031 A 
ATOM     56  C   UNL A   1      38.583  32.364  29.868  1.00  0.00     0.031 A 
ATOM     57  C   UNL A   1      44.742  30.970  31.517  1.00  0.00     0.049 A 
ATOM     58  C   UNL A   1      39.662  33.141  30.570  1.00  0.00     0.074 A 
ATOM     59  C   UNL A   1      45.666  31.795  32.132  1.00  0.00     0.029 A 
ATOM     60  N   UNL A   1      43.569  31.702  31.395  1.00  0.00    -0.354 N 
ATOM     61  N   UNL A   1      40.889  32.773  30.851  1.00  0.00    -0.248 NA
ATOM     62  C   UNL A   1      39.324  34.503  31.004  1.00  0.00     0.031 C 
ATOM     63  C   UNL A   1      45.040  33.015  32.418  1.00  0.00     0.029 A 
ATOM     64  C   UNL A   1      43.742  32.963  31.936  1.00  0.00     0.049 A 
ATOM     65  H   UNL A   1      42.738  31.371  30.984  1.00  0.00     0.167 HD
ATOM     66  C   UNL A   1      41.478  33.867  31.476  1.00  0.00     0.074 A 
ATOM     67  C   UNL A   1      40.477  34.913  31.517  1.00  0.00     0.031 C 
ATOM     68  C   UNL A   1      42.734  33.993  31.969  1.00  0.00     0.031 A 
BRANCH  55  69
ATOM     69  C   UNL A   1      46.228  28.929  31.325  1.00  0.00    -0.014 A 
ATOM     70  C   UNL A   1      46.455  28.216  32.517  1.00  0.00     0.010 A 
ATOM     71  C   UNL A   1      47.244  28.982  30.354  1.00  0.00     0.010 A 
ATOM     72  C   UNL A   1      47.691  27.610  32.754  1.00  0.00     0.020 A 
ATOM     73  C   UNL A   1      48.473  28.352  30.576  1.00  0.00     0.020 A 
ATOM     74  C   UNL A   1      48.695  27.687  31.785  1.00  0.00     0.054 A 
BRANCH  74  75
ATOM     75  S   UNL A   1      50.286  26.884  32.115  1.00  0.00     0.124 S 
ATOM     76  O   UNL A   1      51.182  27.612  31.220  1.00  0.00    -0.237 OA
ATOM     77  O   UNL A   1      50.484  27.134  33.541  1.00  0.00    -0.237 OA
ATOM     78  O   UNL A   1      50.049  25.487  31.759  1.00  0.00    -0.744 OA
ENDBRANCH  74  75
ENDBRANCH  55  69
BRANCH  56  79
ATOM     79  C   UNL A   1      37.234  32.954  29.649  1.00  0.00    -0.014 A 
ATOM     80  C   UNL A   1      36.289  32.979  30.690  1.00  0.00     0.010 A 
ATOM     81  C   UNL A   1      36.896  33.516  28.404  1.00  0.00     0.010 A 
ATOM     82  C   UNL A   1      35.027  33.541  30.487  1.00  0.00     0.020 A 
ATOM     83  C   UNL A   1      35.643  34.102  28.205  1.00  0.00     0.020 A 
ATOM     84  C   UNL A   1      34.712  34.101  29.246  1.00  0.00     0.054 A 
BRANCH  84  85
ATOM     85  S   UNL A   1      33.088  34.882  29.024  1.00  0.00     0.124 S 
ATOM     86  O   UNL A   1      32.531  34.813  30.370  1.00  0.00    -0.237 OA
ATOM     87  O   UNL A   1      33.442  36.219  28.553  1.00  0.00    -0.237 OA
ATOM     88  O   UNL A   1      32.436  34.034  28.029  1.00  0.00    -0.744 OA
ENDBRANCH  84  85
ENDBRANCH  56  79
BRANCH  68  89
ATOM     89  C   UNL A   1      43.111  35.320  32.570  1.00  0.00    -0.014 A 
ATOM     90  C   UNL A   1      43.746  36.312  31.802  1.00  0.00     0.010 A 
ATOM     91  C   UNL A   1      42.772  35.597  33.907  1.00  0.00     0.010 A 
ATOM     92  C   UNL A   1      44.060  37.549  32.371  1.00  0.00     0.020 A 
ATOM     93  C   UNL A   1      43.063  36.840  34.471  1.00  0.00     0.020 A 
ATOM     94  C   UNL A   1      43.718  37.805  33.703  1.00  0.00     0.054 A 
BRANCH  94  95
ATOM     95  S   UNL A   1      44.094  39.434  34.406  1.00  0.00     0.124 S 
ATOM     96  O   UNL A   1      42.946  40.224  33.972  1.00  0.00    -0.237 OA
ATOM     97  O   UNL A   1      44.162  39.159  35.839  1.00  0.00    -0.237 OA
ATOM     98  O   UNL A   1      45.369  39.792  33.788  1.00  0.00    -0.744 OA
ENDBRANCH  94  95
ENDBRANCH  68  89
ENDBRANCH  42  43
ENDBRANCH  34  37
ENDBRANCH  32  33
ENDBRANCH  31  32
ENDBRANCH   1  31
TORSDOF 19
ENDMDL
MODEL 3
REMARK VINA RESULT:     -10.8      4.635      5.604
REMARK SMILES [NH3+][C@H](CS[C@@H]1CC(=O)N(c2ccc3ccccc3c2)C1=O)C(=O)NCCCCNC(=O)c1ccc(-c2c3nc(c(-c4ccc(S(=O)(=O)[O-])cc4)c4ccc([nH]4)c(-c4ccc(S(=O)(=O)[O-])cc4)c4nc(c(-c5ccc(S(=O)(=O)[O-])cc5)c5ccc2[nH]5)C=C4)C=C3)cc1
REMARK SMILES IDX 26 1 25 2 24 3 22 4 23 5 2 7 1 8 3 12 4 13 5 14 6 15 20 16
REMARK SMILES IDX 7 17 9 18 21 19 8 20 10 21 11 22 19 23 12 24 18 25 13 26
REMARK SMILES IDX 17 27 14 28 16 29 15 30 27 31 28 32 29 33 30 34 31 36 32 37
REMARK SMILES IDX 33 38 91 39 34 40 90 41 35 42 36 43 37 44 84 45 38 46 89 47
REMARK SMILES IDX 83 48 85 49 39 50 88 51 82 52 81 53 40 55 70 56 51 57 69 58
REMARK SMILES IDX 52 59 55 60 68 61 86 62 53 63 54 64 67 66 87 67 56 68 41 69
REMARK SMILES IDX 42 70 50 71 43 72 49 73 44 74 45 75 46 76 47 77 48 78 71 79
REMARK SMILES IDX 72 80 80 81 73 82 79 83 74 84 75 85 76 86 77 87 78 88 57 89
REMARK SMILES IDX 58 90 66 91 59 92 65 93 60 94 61 95 62 96 63 97 64 98
REMARK H PARENT 24 6 1 9 1 10 1 11 29 35 85 54 55 65
REMARK Flexibility Score: inf
ROOT
ATOM      1  C   UNL A   1      36.928  21.786  24.377  1.00  0.00     0.023 C 
ENDROOT
BRANCH   1   2
ATOM      2  C   UNL A   1      36.049  20.711  25.006  1.00  0.00     0.116 C 
BRANCH   2   3
ATOM      3  N   UNL A   1      35.371  21.216  26.182  1.00  0.00    -0.351 N 
ATOM      4  C   UNL A   1      34.106  20.984  26.634  1.00  0.00     0.279 C 
ATOM      5  O   UNL A   1      33.761  21.535  27.683  1.00  0.00    -0.268 OA
ATOM      6  H   UNL A   1      35.907  21.822  26.743  1.00  0.00     0.163 HD
BRANCH   4   7
ATOM      7  C   UNL A   1      33.126  20.088  25.850  1.00  0.00     0.280 C 
BRANCH   7   8
ATOM      8  N   UNL A   1      33.907  19.058  25.125  1.00  0.00    -0.347 N 
ATOM      9  H   UNL A   1      33.531  18.948  24.183  1.00  0.00     0.345 HD
ATOM     10  H   UNL A   1      33.844  18.171  25.623  1.00  0.00     0.345 HD
ATOM     11  H   UNL A   1      34.883  19.349  25.069  1.00  0.00     0.345 HD
ENDBRANCH   7   8
BRANCH   7  12
ATOM     12  C   UNL A   1      32.164  20.942  24.997  1.00  0.00     0.145 C 
BRANCH  12  13
ATOM     13  S   UNL A   1      32.878  21.933  23.609  1.00  0.00    -0.141 SA
BRANCH  13  14
ATOM     14  C   UNL A   1      32.875  23.605  24.310  1.00  0.00     0.146 C 
ATOM     15  C   UNL A   1      32.044  23.732  25.569  1.00  0.00     0.125 C 
ATOM     16  C   UNL A   1      32.230  24.618  23.393  1.00  0.00     0.247 C 
ATOM     17  C   UNL A   1      31.581  25.162  25.501  1.00  0.00     0.235 C 
ATOM     18  N   UNL A   1      31.595  25.553  24.181  1.00  0.00    -0.250 N 
ATOM     19  O   UNL A   1      32.395  24.649  22.181  1.00  0.00    -0.273 OA
ATOM     20  O   UNL A   1      31.196  25.775  26.485  1.00  0.00    -0.274 OA
BRANCH  18  21
ATOM     21  C   UNL A   1      31.099  26.786  23.676  1.00  0.00     0.052 A 
ATOM     22  C   UNL A   1      31.959  27.752  23.144  1.00  0.00     0.027 A 
ATOM     23  C   UNL A   1      29.720  27.053  23.662  1.00  0.00     0.035 A 
ATOM     24  C   UNL A   1      31.452  28.925  22.571  1.00  0.00     0.011 A 
ATOM     25  C   UNL A   1      29.195  28.235  23.118  1.00  0.00    -0.016 A 
ATOM     26  C   UNL A   1      30.073  29.181  22.550  1.00  0.00    -0.018 A 
ATOM     27  C   UNL A   1      27.814  28.491  23.127  1.00  0.00     0.009 A 
ATOM     28  C   UNL A   1      29.543  30.349  21.979  1.00  0.00     0.009 A 
ATOM     29  C   UNL A   1      27.303  29.664  22.570  1.00  0.00     0.001 A 
ATOM     30  C   UNL A   1      28.167  30.589  21.992  1.00  0.00     0.001 A 
ENDBRANCH  18  21
ENDBRANCH  13  14
ENDBRANCH  12  13
ENDBRANCH   7  12
ENDBRANCH   4   7
ENDBRANCH   2   3
ENDBRANCH   1   2
BRANCH   1  31
ATOM     31  C   UNL A   1      36.767  23.173  24.999  1.00  0.00     0.023 C 
BRANCH  31  32
ATOM     32  C   UNL A   1      37.797  23.517  26.070  1.00  0.00     0.116 C 
BRANCH  32  33
ATOM     33  N   UNL A   1      38.961  22.645  26.025  1.00  0.00    -0.352 N 
ATOM     34  C   UNL A   1      40.272  22.957  26.297  1.00  0.00     0.251 C 
ATOM     35  H   UNL A   1      38.788  21.711  25.768  1.00  0.00     0.163 HD
ATOM     36  O   UNL A   1      41.164  22.146  26.065  1.00  0.00    -0.269 OA
BRANCH  34  37
ATOM     37  C   UNL A   1      40.590  24.291  26.842  1.00  0.00     0.039 A 
ATOM     38  C   UNL A   1      40.980  24.404  28.178  1.00  0.00     0.014 A 
ATOM     39  C   UNL A   1      40.551  25.417  26.014  1.00  0.00     0.014 A 
ATOM     40  C   UNL A   1      41.398  25.643  28.668  1.00  0.00     0.010 A 
ATOM     41  C   UNL A   1      41.033  26.633  26.485  1.00  0.00     0.010 A 
ATOM     42  C   UNL A   1      41.462  26.758  27.815  1.00  0.00    -0.014 A 
BRANCH  42  43
ATOM     43  C   UNL A   1      41.976  28.065  28.295  1.00  0.00     0.031 A 
ATOM     44  C   UNL A   1      43.455  28.334  28.300  1.00  0.00     0.074 A 
ATOM     45  C   UNL A   1      41.119  28.979  28.791  1.00  0.00     0.049 A 
ATOM     46  N   UNL A   1      44.100  29.382  28.743  1.00  0.00    -0.248 NA
ATOM     47  C   UNL A   1      44.325  27.274  27.764  1.00  0.00     0.031 C 
ATOM     48  C   UNL A   1      39.665  28.817  28.885  1.00  0.00     0.029 A 
ATOM     49  N   UNL A   1      41.347  30.224  29.318  1.00  0.00    -0.354 N 
ATOM     50  C   UNL A   1      45.448  29.102  28.556  1.00  0.00     0.074 A 
ATOM     51  C   UNL A   1      45.531  27.767  28.006  1.00  0.00     0.031 C 
ATOM     52  C   UNL A   1      39.132  29.929  29.417  1.00  0.00     0.029 A 
ATOM     53  C   UNL A   1      40.204  30.867  29.734  1.00  0.00     0.049 A 
ATOM     54  H   UNL A   1      42.245  30.621  29.393  1.00  0.00     0.167 HD
ATOM     55  C   UNL A   1      46.521  29.893  28.799  1.00  0.00     0.031 A 
ATOM     56  C   UNL A   1      40.038  32.073  30.310  1.00  0.00     0.031 A 
ATOM     57  C   UNL A   1      46.436  31.226  29.333  1.00  0.00     0.049 A 
ATOM     58  C   UNL A   1      41.242  32.938  30.563  1.00  0.00     0.074 A 
ATOM     59  C   UNL A   1      47.459  32.126  29.568  1.00  0.00     0.029 A 
ATOM     60  N   UNL A   1      45.257  31.850  29.715  1.00  0.00    -0.354 N 
ATOM     61  N   UNL A   1      42.505  32.679  30.320  1.00  0.00    -0.248 NA
ATOM     62  C   UNL A   1      40.997  34.260  31.152  1.00  0.00     0.031 C 
ATOM     63  C   UNL A   1      46.903  33.282  30.129  1.00  0.00     0.029 A 
ATOM     64  C   UNL A   1      45.529  33.118  30.197  1.00  0.00     0.049 A 
ATOM     65  H   UNL A   1      44.360  31.449  29.652  1.00  0.00     0.167 HD
ATOM     66  C   UNL A   1      43.204  33.817  30.707  1.00  0.00     0.074 A 
ATOM     67  C   UNL A   1      42.222  34.769  31.185  1.00  0.00     0.031 C 
ATOM     68  C   UNL A   1      44.539  34.052  30.669  1.00  0.00     0.031 A 
BRANCH  55  69
ATOM     69  C   UNL A   1      47.880  29.328  28.483  1.00  0.00    -0.014 A 
ATOM     70  C   UNL A   1      48.443  29.469  27.201  1.00  0.00     0.010 A 
ATOM     71  C   UNL A   1      48.613  28.664  29.483  1.00  0.00     0.010 A 
ATOM     72  C   UNL A   1      49.692  28.914  26.911  1.00  0.00     0.020 A 
ATOM     73  C   UNL A   1      49.876  28.132  29.205  1.00  0.00     0.020 A 
ATOM     74  C   UNL A   1      50.398  28.243  27.914  1.00  0.00     0.054 A 
BRANCH  74  75
ATOM     75  S   UNL A   1      52.021  27.541  27.512  1.00  0.00     0.124 S 
ATOM     76  O   UNL A   1      52.406  28.325  26.341  1.00  0.00    -0.237 OA
ATOM     77  O   UNL A   1      52.794  27.802  28.724  1.00  0.00    -0.237 OA
ATOM     78  O   UNL A   1      51.733  26.132  27.252  1.00  0.00    -0.744 OA
ENDBRANCH  74  75
ENDBRANCH  55  69
BRANCH  56  79
ATOM     79  C   UNL A   1      38.671  32.540  30.667  1.00  0.00    -0.014 A 
ATOM     80  C   UNL A   1      38.167  32.344  31.965  1.00  0.00     0.010 A 
ATOM     81  C   UNL A   1      37.876  33.207  29.717  1.00  0.00     0.010 A 
ATOM     82  C   UNL A   1      36.887  32.791  32.302  1.00  0.00     0.020 A 
ATOM     83  C   UNL A   1      36.605  33.679  30.058  1.00  0.00     0.020 A 
ATOM     84  C   UNL A   1      36.114  33.458  31.347  1.00  0.00     0.054 A 
BRANCH  84  85
ATOM     85  S   UNL A   1      34.480  34.087  31.825  1.00  0.00     0.124 S 
ATOM     86  O   UNL A   1      33.856  34.328  30.529  1.00  0.00    -0.237 OA
ATOM     87  O   UNL A   1      33.927  32.977  32.597  1.00  0.00    -0.237 OA
ATOM     88  O   UNL A   1      34.791  35.283  32.606  1.00  0.00    -0.744 OA
ENDBRANCH  84  85
ENDBRANCH  56  79
BRANCH  68  89
ATOM     89  C   UNL A   1      45.016  35.403  31.129  1.00  0.00    -0.014 A 
ATOM     90  C   UNL A   1      45.418  35.618  32.460  1.00  0.00     0.010 A 
ATOM     91  C   UNL A   1      45.117  36.456  30.202  1.00  0.00     0.010 A 
ATOM     92  C   UNL A   1      45.887  36.872  32.859  1.00  0.00     0.020 A 
ATOM     93  C   UNL A   1      45.608  37.703  30.593  1.00  0.00     0.020 A 
ATOM     94  C   UNL A   1      45.977  37.907  31.923  1.00  0.00     0.054 A 
BRANCH  94  95
ATOM     95  S   UNL A   1      46.632  39.513  32.455  1.00  0.00     0.124 S 
ATOM     96  O   UNL A   1      46.646  39.369  33.908  1.00  0.00    -0.237 OA
ATOM     97  O   UNL A   1      47.946  39.553  31.815  1.00  0.00    -0.237 OA
ATOM     98  O   UNL A   1      45.663  40.473  31.932  1.00  0.00    -0.744 OA
ENDBRANCH  94  95
ENDBRANCH  68  89
ENDBRANCH  42  43
ENDBRANCH  34  37
ENDBRANCH  32  33
ENDBRANCH  31  32
ENDBRANCH   1  31
TORSDOF 19
ENDMDL
