MODEL 1
REMARK VINA RESULT:     -11.0      0.000      0.000
REMARK SMILES COc1ccccc1NC(=O)N[C@@](C)(C(=O)NCCCCNC(=O)c1ccc(-c2c3nc(c(-c4ccc(S(=O)(=O)[O-])cc4)c4ccc([nH]4)c(-c4ccc(S(=O)(=O)[O-])cc4)c4nc(c(-c5ccc(S(=O)(=O)[O-])cc5)c5ccc2[nH]5)C=C4)C=C3)cc1)C(F)(F)F
REMARK SMILES IDX 19 1 18 2 17 3 15 4 16 5 13 7 14 8 12 9 9 10 10 11 11 13
REMARK SMILES IDX 8 15 3 16 4 17 5 18 7 19 6 20 2 21 1 22 85 23 86 24 87 25
REMARK SMILES IDX 88 26 20 27 21 28 22 29 23 30 24 32 25 33 26 34 84 35 27 36
REMARK SMILES IDX 83 37 28 38 29 39 30 40 77 41 31 42 82 43 76 44 78 45 32 46
REMARK SMILES IDX 81 47 75 48 74 49 33 51 63 52 44 53 62 54 45 55 48 56 61 57
REMARK SMILES IDX 79 58 46 59 47 60 60 62 80 63 49 64 34 65 35 66 43 67 36 68
REMARK SMILES IDX 42 69 37 70 38 71 39 72 40 73 41 74 64 75 65 76 73 77 66 78
REMARK SMILES IDX 72 79 67 80 68 81 69 82 70 83 71 84 50 85 51 86 59 87 52 88
REMARK SMILES IDX 58 89 53 90 54 91 55 92 56 93 57 94
REMARK H PARENT 17 6 9 12 12 14 22 31 78 50 48 61
REMARK Flexibility Score: inf
ROOT
ATOM      1  C   UNL A   1      34.409  24.179  25.005  1.00  0.00     0.023 C 
ENDROOT
BRANCH   1   2
ATOM      2  C   UNL A   1      34.459  25.670  25.359  1.00  0.00     0.116 C 
BRANCH   2   3
ATOM      3  N   UNL A   1      33.135  26.134  25.717  1.00  0.00    -0.354 N 
ATOM      4  C   UNL A   1      32.513  27.314  25.920  1.00  0.00     0.255 C 
ATOM      5  O   UNL A   1      31.339  27.152  26.279  1.00  0.00    -0.272 OA
ATOM      6  H   UNL A   1      32.517  25.379  25.848  1.00  0.00     0.163 HD
BRANCH   4   7
ATOM      7  C   UNL A   1      33.052  28.693  25.461  1.00  0.00     0.213 C 
ATOM      8  C   UNL A   1      31.766  29.499  25.204  1.00  0.00     0.056 C 
BRANCH   7   9
ATOM      9  N   UNL A   1      33.853  28.605  24.194  1.00  0.00    -0.316 N 
ATOM     10  N   UNL A   1      32.486  28.063  22.298  1.00  0.00    -0.305 N 
ATOM     11  C   UNL A   1      33.653  28.344  22.895  1.00  0.00     0.320 C 
ATOM     12  H   UNL A   1      32.486  28.329  21.350  1.00  0.00     0.172 HD
ATOM     13  O   UNL A   1      34.628  28.536  22.158  1.00  0.00    -0.248 OA
ATOM     14  H   UNL A   1      34.803  28.796  24.368  1.00  0.00     0.166 HD
BRANCH  10  15
ATOM     15  C   UNL A   1      31.266  27.488  22.679  1.00  0.00     0.085 A 
ATOM     16  C   UNL A   1      30.101  28.280  22.690  1.00  0.00     0.142 A 
ATOM     17  C   UNL A   1      28.947  27.815  23.327  1.00  0.00     0.048 A 
ATOM     18  C   UNL A   1      28.908  26.522  23.848  1.00  0.00     0.004 A 
ATOM     19  C   UNL A   1      31.170  26.157  23.072  1.00  0.00     0.030 A 
ATOM     20  C   UNL A   1      30.002  25.678  23.676  1.00  0.00     0.002 A 
BRANCH  16  21
ATOM     21  O   UNL A   1      30.089  29.598  22.309  1.00  0.00    -0.495 OA
ATOM     22  C   UNL A   1      28.829  30.018  21.792  1.00  0.00     0.278 C 
ENDBRANCH  16  21
ENDBRANCH  10  15
ENDBRANCH   7   9
BRANCH   7  23
ATOM     23  C   UNL A   1      33.855  29.127  26.719  1.00  0.00     0.420 C 
ATOM     24  F   UNL A   1      33.268  28.672  27.856  1.00  0.00    -0.168 F 
ATOM     25  F   UNL A   1      35.106  28.648  26.753  1.00  0.00    -0.168 F 
ATOM     26  F   UNL A   1      33.988  30.470  26.816  1.00  0.00    -0.168 F 
ENDBRANCH   7  23
ENDBRANCH   4   7
ENDBRANCH   2   3
ENDBRANCH   1   2
BRANCH   1  27
ATOM     27  C   UNL A   1      35.516  23.318  25.639  1.00  0.00     0.023 C 
BRANCH  27  28
ATOM     28  C   UNL A   1      36.945  23.626  25.200  1.00  0.00     0.116 C 
BRANCH  28  29
ATOM     29  N   UNL A   1      37.904  22.635  25.647  1.00  0.00    -0.352 N 
ATOM     30  C   UNL A   1      39.036  22.843  26.400  1.00  0.00     0.251 C 
ATOM     31  H   UNL A   1      37.723  21.704  25.382  1.00  0.00     0.163 HD
ATOM     32  O   UNL A   1      39.811  21.920  26.629  1.00  0.00    -0.269 OA
BRANCH  30  33
ATOM     33  C   UNL A   1      39.323  24.205  26.894  1.00  0.00     0.039 A 
ATOM     34  C   UNL A   1      38.929  24.552  28.188  1.00  0.00     0.014 A 
ATOM     35  C   UNL A   1      40.035  25.108  26.099  1.00  0.00     0.014 A 
ATOM     36  C   UNL A   1      39.302  25.793  28.713  1.00  0.00     0.010 A 
ATOM     37  C   UNL A   1      40.449  26.320  26.643  1.00  0.00     0.010 A 
ATOM     38  C   UNL A   1      40.090  26.673  27.955  1.00  0.00    -0.014 A 
BRANCH  38  39
ATOM     39  C   UNL A   1      40.547  27.979  28.498  1.00  0.00     0.031 A 
ATOM     40  C   UNL A   1      41.960  28.122  28.989  1.00  0.00     0.074 A 
ATOM     41  C   UNL A   1      39.674  28.996  28.636  1.00  0.00     0.049 A 
ATOM     42  N   UNL A   1      42.514  29.119  29.631  1.00  0.00    -0.248 NA
ATOM     43  C   UNL A   1      42.858  26.982  28.752  1.00  0.00     0.031 C 
ATOM     44  C   UNL A   1      38.274  28.978  28.209  1.00  0.00     0.029 A 
ATOM     45  N   UNL A   1      39.837  30.240  29.192  1.00  0.00    -0.354 N 
ATOM     46  C   UNL A   1      43.812  28.708  29.912  1.00  0.00     0.074 A 
ATOM     47  C   UNL A   1      43.952  27.364  29.395  1.00  0.00     0.031 C 
ATOM     48  C   UNL A   1      37.711  30.163  28.503  1.00  0.00     0.029 A 
ATOM     49  C   UNL A   1      38.694  31.005  29.179  1.00  0.00     0.049 A 
ATOM     50  H   UNL A   1      40.691  30.556  29.566  1.00  0.00     0.167 HD
ATOM     51  C   UNL A   1      44.801  29.390  30.539  1.00  0.00     0.031 A 
ATOM     52  C   UNL A   1      38.459  32.238  29.668  1.00  0.00     0.031 A 
ATOM     53  C   UNL A   1      44.664  30.733  31.031  1.00  0.00     0.049 A 
ATOM     54  C   UNL A   1      39.569  32.977  30.365  1.00  0.00     0.074 A 
ATOM     55  C   UNL A   1      45.622  31.533  31.628  1.00  0.00     0.029 A 
ATOM     56  N   UNL A   1      43.493  31.477  30.981  1.00  0.00    -0.354 N 
ATOM     57  N   UNL A   1      40.802  32.590  30.588  1.00  0.00    -0.248 NA
ATOM     58  C   UNL A   1      39.257  34.322  30.871  1.00  0.00     0.031 C 
ATOM     59  C   UNL A   1      45.020  32.748  31.975  1.00  0.00     0.029 A 
ATOM     60  C   UNL A   1      43.701  32.722  31.550  1.00  0.00     0.049 A 
ATOM     61  H   UNL A   1      42.642  31.165  30.597  1.00  0.00     0.167 HD
ATOM     62  C   UNL A   1      41.424  33.655  31.229  1.00  0.00     0.074 A 
ATOM     63  C   UNL A   1      40.431  34.703  31.360  1.00  0.00     0.031 C 
ATOM     64  C   UNL A   1      42.705  33.758  31.660  1.00  0.00     0.031 A 
BRANCH  51  65
ATOM     65  C   UNL A   1      46.106  28.670  30.749  1.00  0.00    -0.014 A 
ATOM     66  C   UNL A   1      47.118  28.689  29.774  1.00  0.00     0.010 A 
ATOM     67  C   UNL A   1      46.318  27.954  31.942  1.00  0.00     0.010 A 
ATOM     68  C   UNL A   1      48.291  27.951  29.955  1.00  0.00     0.020 A 
ATOM     69  C   UNL A   1      47.503  27.238  32.141  1.00  0.00     0.020 A 
ATOM     70  C   UNL A   1      48.469  27.220  31.134  1.00  0.00     0.054 A 
BRANCH  70  71
ATOM     71  S   UNL A   1      49.989  26.250  31.339  1.00  0.00     0.124 S 
ATOM     72  O   UNL A   1      49.463  24.961  31.783  1.00  0.00    -0.237 OA
ATOM     73  O   UNL A   1      50.563  26.262  29.995  1.00  0.00    -0.237 OA
ATOM     74  O   UNL A   1      50.743  26.996  32.342  1.00  0.00    -0.744 OA
ENDBRANCH  70  71
ENDBRANCH  51  65
BRANCH  52  75
ATOM     75  C   UNL A   1      37.121  32.863  29.484  1.00  0.00    -0.014 A 
ATOM     76  C   UNL A   1      36.211  32.902  30.555  1.00  0.00     0.010 A 
ATOM     77  C   UNL A   1      36.764  33.457  28.260  1.00  0.00     0.010 A 
ATOM     78  C   UNL A   1      34.967  33.521  30.406  1.00  0.00     0.020 A 
ATOM     79  C   UNL A   1      35.529  34.097  28.114  1.00  0.00     0.020 A 
ATOM     80  C   UNL A   1      34.636  34.121  29.187  1.00  0.00     0.054 A 
BRANCH  80  81
ATOM     81  S   UNL A   1      33.048  34.986  29.045  1.00  0.00     0.124 S 
ATOM     82  O   UNL A   1      32.539  34.916  30.411  1.00  0.00    -0.237 OA
ATOM     83  O   UNL A   1      33.450  36.313  28.586  1.00  0.00    -0.237 OA
ATOM     84  O   UNL A   1      32.313  34.193  28.061  1.00  0.00    -0.744 OA
ENDBRANCH  80  81
ENDBRANCH  52  75
BRANCH  64  85
ATOM     85  C   UNL A   1      43.135  35.065  32.267  1.00  0.00    -0.014 A 
ATOM     86  C   UNL A   1      43.773  36.054  31.500  1.00  0.00     0.010 A 
ATOM     87  C   UNL A   1      42.806  35.340  33.608  1.00  0.00     0.010 A 
ATOM     88  C   UNL A   1      44.083  37.294  32.065  1.00  0.00     0.020 A 
ATOM     89  C   UNL A   1      43.095  36.585  34.170  1.00  0.00     0.020 A 
ATOM     90  C   UNL A   1      43.738  37.553  33.396  1.00  0.00     0.054 A 
BRANCH  90  91
ATOM     91  S   UNL A   1      44.075  39.197  34.085  1.00  0.00     0.124 S 
ATOM     92  O   UNL A   1      44.363  38.888  35.483  1.00  0.00    -0.237 OA
ATOM     93  O   UNL A   1      45.218  39.649  33.295  1.00  0.00    -0.237 OA
ATOM     94  O   UNL A   1      42.835  39.932  33.851  1.00  0.00    -0.744 OA
ENDBRANCH  90  91
ENDBRANCH  64  85
ENDBRANCH  38  39
ENDBRANCH  30  33
ENDBRANCH  28  29
ENDBRANCH  27  28
ENDBRANCH   1  27
TORSDOF 18
ENDMDL
MODEL 2
REMARK VINA RESULT:     -10.5      2.080      2.889
REMARK SMILES COc1ccccc1NC(=O)N[C@@](C)(C(=O)NCCCCNC(=O)c1ccc(-c2c3nc(c(-c4ccc(S(=O)(=O)[O-])cc4)c4ccc([nH]4)c(-c4ccc(S(=O)(=O)[O-])cc4)c4nc(c(-c5ccc(S(=O)(=O)[O-])cc5)c5ccc2[nH]5)C=C4)C=C3)cc1)C(F)(F)F
REMARK SMILES IDX 19 1 18 2 17 3 15 4 16 5 13 7 14 8 12 9 9 10 10 11 11 13
REMARK SMILES IDX 8 15 3 16 4 17 5 18 7 19 6 20 2 21 1 22 85 23 86 24 87 25
REMARK SMILES IDX 88 26 20 27 21 28 22 29 23 30 24 32 25 33 26 34 84 35 27 36
REMARK SMILES IDX 83 37 28 38 29 39 30 40 77 41 31 42 82 43 76 44 78 45 32 46
REMARK SMILES IDX 81 47 75 48 74 49 33 51 63 52 44 53 62 54 45 55 48 56 61 57
REMARK SMILES IDX 79 58 46 59 47 60 60 62 80 63 49 64 34 65 35 66 43 67 36 68
REMARK SMILES IDX 42 69 37 70 38 71 39 72 40 73 41 74 64 75 65 76 73 77 66 78
REMARK SMILES IDX 72 79 67 80 68 81 69 82 70 83 71 84 50 85 51 86 59 87 52 88
REMARK SMILES IDX 58 89 53 90 54 91 55 92 56 93 57 94
REMARK H PARENT 17 6 9 12 12 14 22 31 78 50 48 61
REMARK Flexibility Score: inf
ROOT
ATOM      1  C   UNL A   1      34.768  22.043  24.589  1.00  0.00     0.023 C 
ENDROOT
BRANCH   1   2
ATOM      2  C   UNL A   1      33.611  22.239  23.602  1.00  0.00     0.116 C 
BRANCH   2   3
ATOM      3  N   UNL A   1      32.377  22.450  24.329  1.00  0.00    -0.354 N 
ATOM      4  C   UNL A   1      31.733  23.476  24.926  1.00  0.00     0.255 C 
ATOM      5  O   UNL A   1      30.692  23.098  25.478  1.00  0.00    -0.272 OA
ATOM      6  H   UNL A   1      31.865  21.614  24.410  1.00  0.00     0.163 HD
BRANCH   4   7
ATOM      7  C   UNL A   1      32.045  24.976  24.693  1.00  0.00     0.213 C 
ATOM      8  C   UNL A   1      30.656  25.634  24.772  1.00  0.00     0.056 C 
BRANCH   7   9
ATOM      9  N   UNL A   1      32.651  25.236  23.344  1.00  0.00    -0.316 N 
ATOM     10  N   UNL A   1      33.362  27.514  23.100  1.00  0.00    -0.305 N 
ATOM     11  C   UNL A   1      33.188  26.258  22.665  1.00  0.00     0.320 C 
ATOM     12  H   UNL A   1      34.120  27.955  22.653  1.00  0.00     0.172 HD
ATOM     13  O   UNL A   1      33.712  25.962  21.584  1.00  0.00    -0.248 OA
ATOM     14  H   UNL A   1      32.655  24.416  22.800  1.00  0.00     0.166 HD
BRANCH  10  15
ATOM     15  C   UNL A   1      32.741  28.360  24.029  1.00  0.00     0.085 A 
ATOM     16  C   UNL A   1      31.420  28.790  23.798  1.00  0.00     0.142 A 
ATOM     17  C   UNL A   1      30.887  29.842  24.549  1.00  0.00     0.048 A 
ATOM     18  C   UNL A   1      31.616  30.388  25.605  1.00  0.00     0.004 A 
ATOM     19  C   UNL A   1      33.398  28.811  25.169  1.00  0.00     0.030 A 
ATOM     20  C   UNL A   1      32.849  29.838  25.945  1.00  0.00     0.002 A 
BRANCH  16  21
ATOM     21  O   UNL A   1      30.684  28.393  22.710  1.00  0.00    -0.495 OA
ATOM     22  C   UNL A   1      29.377  28.962  22.683  1.00  0.00     0.278 C 
ENDBRANCH  16  21
ENDBRANCH  10  15
ENDBRANCH   7   9
BRANCH   7  23
ATOM     23  C   UNL A   1      32.978  25.271  25.902  1.00  0.00     0.420 C 
ATOM     24  F   UNL A   1      32.438  26.210  26.720  1.00  0.00    -0.168 F 
ATOM     25  F   UNL A   1      33.200  24.206  26.685  1.00  0.00    -0.168 F 
ATOM     26  F   UNL A   1      34.207  25.692  25.521  1.00  0.00    -0.168 F 
ENDBRANCH   7  23
ENDBRANCH   4   7
ENDBRANCH   2   3
ENDBRANCH   1   2
BRANCH   1  27
ATOM     27  C   UNL A   1      35.815  23.172  24.603  1.00  0.00     0.023 C 
BRANCH  27  28
ATOM     28  C   UNL A   1      36.622  23.327  25.889  1.00  0.00     0.116 C 
BRANCH  28  29
ATOM     29  N   UNL A   1      37.660  22.325  26.034  1.00  0.00    -0.352 N 
ATOM     30  C   UNL A   1      38.966  22.520  26.419  1.00  0.00     0.251 C 
ATOM     31  H   UNL A   1      37.400  21.397  25.834  1.00  0.00     0.163 HD
ATOM     32  O   UNL A   1      39.765  21.588  26.410  1.00  0.00    -0.269 OA
BRANCH  30  33
ATOM     33  C   UNL A   1      39.400  23.878  26.805  1.00  0.00     0.039 A 
ATOM     34  C   UNL A   1      39.297  24.266  28.143  1.00  0.00     0.014 A 
ATOM     35  C   UNL A   1      39.963  24.735  25.856  1.00  0.00     0.014 A 
ATOM     36  C   UNL A   1      39.816  25.499  28.545  1.00  0.00     0.010 A 
ATOM     37  C   UNL A   1      40.527  25.939  26.269  1.00  0.00     0.010 A 
ATOM     38  C   UNL A   1      40.462  26.331  27.617  1.00  0.00    -0.014 A 
BRANCH  38  39
ATOM     39  C   UNL A   1      41.070  27.626  28.018  1.00  0.00     0.031 A 
ATOM     40  C   UNL A   1      42.562  27.795  27.954  1.00  0.00     0.074 A 
ATOM     41  C   UNL A   1      40.297  28.608  28.524  1.00  0.00     0.049 A 
ATOM     42  N   UNL A   1      43.302  28.780  28.394  1.00  0.00    -0.248 NA
ATOM     43  C   UNL A   1      43.323  26.696  27.341  1.00  0.00     0.031 C 
ATOM     44  C   UNL A   1      38.840  28.563  28.649  1.00  0.00     0.029 A 
ATOM     45  N   UNL A   1      40.639  29.832  29.043  1.00  0.00    -0.354 N 
ATOM     46  C   UNL A   1      44.616  28.400  28.150  1.00  0.00     0.074 A 
ATOM     47  C   UNL A   1      44.572  27.084  27.549  1.00  0.00     0.031 C 
ATOM     48  C   UNL A   1      38.411  29.715  29.192  1.00  0.00     0.029 A 
ATOM     49  C   UNL A   1      39.563  30.559  29.496  1.00  0.00     0.049 A 
ATOM     50  H   UNL A   1      41.566  30.159  29.087  1.00  0.00     0.167 HD
ATOM     51  C   UNL A   1      45.758  29.086  28.397  1.00  0.00     0.031 A 
ATOM     52  C   UNL A   1      39.510  31.762  30.100  1.00  0.00     0.031 A 
ATOM     53  C   UNL A   1      45.795  30.403  28.974  1.00  0.00     0.049 A 
ATOM     54  C   UNL A   1      40.789  32.506  30.370  1.00  0.00     0.074 A 
ATOM     55  C   UNL A   1      46.895  31.207  29.212  1.00  0.00     0.029 A 
ATOM     56  N   UNL A   1      44.681  31.109  29.402  1.00  0.00    -0.354 N 
ATOM     57  N   UNL A   1      42.022  32.150  30.098  1.00  0.00    -0.248 NA
ATOM     58  C   UNL A   1      40.670  33.817  31.026  1.00  0.00     0.031 C 
ATOM     59  C   UNL A   1      46.450  32.386  29.821  1.00  0.00     0.029 A 
ATOM     60  C   UNL A   1      45.068  32.335  29.917  1.00  0.00     0.049 A 
ATOM     61  H   UNL A   1      43.752  30.787  29.348  1.00  0.00     0.167 HD
ATOM     62  C   UNL A   1      42.823  33.206  30.516  1.00  0.00     0.074 A 
ATOM     63  C   UNL A   1      41.936  34.215  31.062  1.00  0.00     0.031 C 
ATOM     64  C   UNL A   1      44.171  33.333  30.443  1.00  0.00     0.031 A 
BRANCH  51  65
ATOM     65  C   UNL A   1      47.057  28.401  28.069  1.00  0.00    -0.014 A 
ATOM     66  C   UNL A   1      47.551  28.361  26.754  1.00  0.00     0.010 A 
ATOM     67  C   UNL A   1      47.791  27.778  29.096  1.00  0.00     0.010 A 
ATOM     68  C   UNL A   1      48.720  27.654  26.457  1.00  0.00     0.020 A 
ATOM     69  C   UNL A   1      48.976  27.095  28.809  1.00  0.00     0.020 A 
ATOM     70  C   UNL A   1      49.418  27.014  27.487  1.00  0.00     0.054 A 
BRANCH  70  71
ATOM     71  S   UNL A   1      50.919  26.082  27.076  1.00  0.00     0.124 S 
ATOM     72  O   UNL A   1      51.065  26.364  25.650  1.00  0.00    -0.237 OA
ATOM     73  O   UNL A   1      51.925  26.691  27.942  1.00  0.00    -0.237 OA
ATOM     74  O   UNL A   1      50.570  24.702  27.406  1.00  0.00    -0.744 OA
ENDBRANCH  70  71
ENDBRANCH  51  65
BRANCH  52  75
ATOM     75  C   UNL A   1      38.192  32.350  30.461  1.00  0.00    -0.014 A 
ATOM     76  C   UNL A   1      37.652  32.133  31.740  1.00  0.00     0.010 A 
ATOM     77  C   UNL A   1      37.490  33.161  29.550  1.00  0.00     0.010 A 
ATOM     78  C   UNL A   1      36.434  32.714  32.104  1.00  0.00     0.020 A 
ATOM     79  C   UNL A   1      36.281  33.761  29.917  1.00  0.00     0.020 A 
ATOM     80  C   UNL A   1      35.758  33.529  31.191  1.00  0.00     0.054 A 
BRANCH  80  81
ATOM     81  S   UNL A   1      34.218  34.333  31.715  1.00  0.00     0.124 S 
ATOM     82  O   UNL A   1      33.536  34.545  30.442  1.00  0.00    -0.237 OA
ATOM     83  O   UNL A   1      33.622  33.331  32.595  1.00  0.00    -0.237 OA
ATOM     84  O   UNL A   1      34.678  35.546  32.389  1.00  0.00    -0.744 OA
ENDBRANCH  80  81
ENDBRANCH  52  75
BRANCH  64  85
ATOM     85  C   UNL A   1      44.778  34.625  30.913  1.00  0.00    -0.014 A 
ATOM     86  C   UNL A   1      45.301  34.758  32.211  1.00  0.00     0.010 A 
ATOM     87  C   UNL A   1      44.910  35.694  30.005  1.00  0.00     0.010 A 
ATOM     88  C   UNL A   1      45.940  35.941  32.594  1.00  0.00     0.020 A 
ATOM     89  C   UNL A   1      45.566  36.868  30.379  1.00  0.00     0.020 A 
ATOM     90  C   UNL A   1      46.072  36.987  31.675  1.00  0.00     0.054 A 
BRANCH  90  91
ATOM     91  S   UNL A   1      46.976  38.480  32.169  1.00  0.00     0.124 S 
ATOM     92  O   UNL A   1      47.136  38.277  33.606  1.00  0.00    -0.237 OA
ATOM     93  O   UNL A   1      48.203  38.388  31.381  1.00  0.00    -0.237 OA
ATOM     94  O   UNL A   1      46.080  39.569  31.788  1.00  0.00    -0.744 OA
ENDBRANCH  90  91
ENDBRANCH  64  85
ENDBRANCH  38  39
ENDBRANCH  30  33
ENDBRANCH  28  29
ENDBRANCH  27  28
ENDBRANCH   1  27
TORSDOF 18
ENDMDL
MODEL 3
REMARK VINA RESULT:     -10.5      2.951      9.439
REMARK SMILES COc1ccccc1NC(=O)N[C@@](C)(C(=O)NCCCCNC(=O)c1ccc(-c2c3nc(c(-c4ccc(S(=O)(=O)[O-])cc4)c4ccc([nH]4)c(-c4ccc(S(=O)(=O)[O-])cc4)c4nc(c(-c5ccc(S(=O)(=O)[O-])cc5)c5ccc2[nH]5)C=C4)C=C3)cc1)C(F)(F)F
REMARK SMILES IDX 19 1 18 2 17 3 15 4 16 5 13 7 14 8 12 9 9 10 10 11 11 13
REMARK SMILES IDX 8 15 3 16 4 17 5 18 7 19 6 20 2 21 1 22 85 23 86 24 87 25
REMARK SMILES IDX 88 26 20 27 21 28 22 29 23 30 24 32 25 33 26 34 84 35 27 36
REMARK SMILES IDX 83 37 28 38 29 39 30 40 77 41 31 42 82 43 76 44 78 45 32 46
REMARK SMILES IDX 81 47 75 48 74 49 33 51 63 52 44 53 62 54 45 55 48 56 61 57
REMARK SMILES IDX 79 58 46 59 47 60 60 62 80 63 49 64 34 65 35 66 43 67 36 68
REMARK SMILES IDX 42 69 37 70 38 71 39 72 40 73 41 74 64 75 65 76 73 77 66 78
REMARK SMILES IDX 72 79 67 80 68 81 69 82 70 83 71 84 50 85 51 86 59 87 52 88
REMARK SMILES IDX 58 89 53 90 54 91 55 92 56 93 57 94
REMARK H PARENT 17 6 9 12 12 14 22 31 78 50 48 61
REMARK Flexibility Score: inf
ROOT
ATOM      1  C   UNL A   1      32.409  26.724  26.146  1.00  0.00     0.023 C 
ENDROOT
BRANCH   1   2
ATOM      2  C   UNL A   1      31.073  26.346  25.496  1.00  0.00     0.116 C 
BRANCH   2   3
ATOM      3  N   UNL A   1      31.305  25.828  24.164  1.00  0.00    -0.354 N 
ATOM      4  C   UNL A   1      32.116  24.927  23.571  1.00  0.00     0.255 C 
ATOM      5  O   UNL A   1      31.945  24.900  22.345  1.00  0.00    -0.272 OA
ATOM      6  H   UNL A   1      30.703  26.250  23.509  1.00  0.00     0.163 HD
BRANCH   4   7
ATOM      7  C   UNL A   1      32.921  23.831  24.315  1.00  0.00     0.213 C 
ATOM      8  C   UNL A   1      32.782  22.611  23.387  1.00  0.00     0.056 C 
BRANCH   7   9
ATOM      9  N   UNL A   1      32.343  23.508  25.663  1.00  0.00    -0.316 N 
ATOM     10  N   UNL A   1      33.706  21.949  26.875  1.00  0.00    -0.305 N 
ATOM     11  C   UNL A   1      32.635  22.741  26.722  1.00  0.00     0.320 C 
ATOM     12  H   UNL A   1      33.944  21.834  27.823  1.00  0.00     0.172 HD
ATOM     13  O   UNL A   1      31.915  22.909  27.714  1.00  0.00    -0.248 OA
ATOM     14  H   UNL A   1      31.507  24.005  25.812  1.00  0.00     0.166 HD
BRANCH  10  15
ATOM     15  C   UNL A   1      34.571  21.241  26.030  1.00  0.00     0.085 A 
ATOM     16  C   UNL A   1      34.095  20.104  25.348  1.00  0.00     0.142 A 
ATOM     17  C   UNL A   1      34.998  19.231  24.734  1.00  0.00     0.048 A 
ATOM     18  C   UNL A   1      36.356  19.543  24.693  1.00  0.00     0.004 A 
ATOM     19  C   UNL A   1      35.901  21.612  25.860  1.00  0.00     0.030 A 
ATOM     20  C   UNL A   1      36.799  20.757  25.212  1.00  0.00     0.002 A 
BRANCH  16  21
ATOM     21  O   UNL A   1      32.799  19.663  25.441  1.00  0.00    -0.495 OA
ATOM     22  C   UNL A   1      32.698  18.245  25.539  1.00  0.00     0.278 C 
ENDBRANCH  16  21
ENDBRANCH  10  15
ENDBRANCH   7   9
BRANCH   7  23
ATOM     23  C   UNL A   1      34.336  24.475  24.342  1.00  0.00     0.420 C 
ATOM     24  F   UNL A   1      35.227  23.730  23.639  1.00  0.00    -0.168 F 
ATOM     25  F   UNL A   1      34.384  25.695  23.789  1.00  0.00    -0.168 F 
ATOM     26  F   UNL A   1      34.811  24.637  25.599  1.00  0.00    -0.168 F 
ENDBRANCH   7  23
ENDBRANCH   4   7
ENDBRANCH   2   3
ENDBRANCH   1   2
BRANCH   1  27
ATOM     27  C   UNL A   1      32.684  28.236  26.246  1.00  0.00     0.023 C 
BRANCH  27  28
ATOM     28  C   UNL A   1      33.783  28.659  27.216  1.00  0.00     0.116 C 
BRANCH  28  29
ATOM     29  N   UNL A   1      33.629  30.019  27.693  1.00  0.00    -0.352 N 
ATOM     30  C   UNL A   1      34.567  30.796  28.332  1.00  0.00     0.251 C 
ATOM     31  H   UNL A   1      32.750  30.436  27.542  1.00  0.00     0.163 HD
ATOM     32  O   UNL A   1      34.269  31.904  28.766  1.00  0.00    -0.269 OA
BRANCH  30  33
ATOM     33  C   UNL A   1      35.929  30.255  28.522  1.00  0.00     0.039 A 
ATOM     34  C   UNL A   1      36.830  30.305  27.456  1.00  0.00     0.014 A 
ATOM     35  C   UNL A   1      36.325  29.763  29.769  1.00  0.00     0.014 A 
ATOM     36  C   UNL A   1      38.157  29.912  27.657  1.00  0.00     0.010 A 
ATOM     37  C   UNL A   1      37.658  29.423  29.978  1.00  0.00     0.010 A 
ATOM     38  C   UNL A   1      38.587  29.498  28.927  1.00  0.00    -0.014 A 
BRANCH  38  39
ATOM     39  C   UNL A   1      40.000  29.121  29.189  1.00  0.00     0.031 A 
ATOM     40  C   UNL A   1      40.948  30.144  29.749  1.00  0.00     0.074 A 
ATOM     41  C   UNL A   1      40.450  27.900  28.838  1.00  0.00     0.049 A 
ATOM     42  N   UNL A   1      42.244  30.069  29.911  1.00  0.00    -0.248 NA
ATOM     43  C   UNL A   1      40.362  31.432  30.152  1.00  0.00     0.031 C 
ATOM     44  C   UNL A   1      39.635  26.823  28.276  1.00  0.00     0.029 A 
ATOM     45  N   UNL A   1      41.714  27.368  28.891  1.00  0.00    -0.354 N 
ATOM     46  C   UNL A   1      42.634  31.313  30.393  1.00  0.00     0.074 A 
ATOM     47  C   UNL A   1      41.442  32.130  30.471  1.00  0.00     0.031 C 
ATOM     48  C   UNL A   1      40.416  25.752  28.052  1.00  0.00     0.029 A 
ATOM     49  C   UNL A   1      41.793  26.081  28.411  1.00  0.00     0.049 A 
ATOM     50  H   UNL A   1      42.493  27.860  29.240  1.00  0.00     0.167 HD
ATOM     51  C   UNL A   1      43.872  31.736  30.746  1.00  0.00     0.031 A 
ATOM     52  C   UNL A   1      42.853  25.264  28.263  1.00  0.00     0.031 A 
ATOM     53  C   UNL A   1      45.049  30.914  30.688  1.00  0.00     0.049 A 
ATOM     54  C   UNL A   1      44.220  25.754  28.656  1.00  0.00     0.074 A 
ATOM     55  C   UNL A   1      46.339  31.228  31.077  1.00  0.00     0.029 A 
ATOM     56  N   UNL A   1      45.080  29.611  30.212  1.00  0.00    -0.354 N 
ATOM     57  N   UNL A   1      44.566  26.920  29.147  1.00  0.00    -0.248 NA
ATOM     58  C   UNL A   1      45.339  24.817  28.479  1.00  0.00     0.031 C 
ATOM     59  C   UNL A   1      47.159  30.129  30.799  1.00  0.00     0.029 A 
ATOM     60  C   UNL A   1      46.369  29.112  30.283  1.00  0.00     0.049 A 
ATOM     61  H   UNL A   1      44.300  29.115  29.873  1.00  0.00     0.167 HD
ATOM     62  C   UNL A   1      45.937  26.845  29.371  1.00  0.00     0.074 A 
ATOM     63  C   UNL A   1      46.357  25.521  28.960  1.00  0.00     0.031 C 
ATOM     64  C   UNL A   1      46.768  27.786  29.882  1.00  0.00     0.031 A 
BRANCH  51  65
ATOM     65  C   UNL A   1      44.007  33.167  31.196  1.00  0.00    -0.014 A 
ATOM     66  C   UNL A   1      43.734  33.545  32.522  1.00  0.00     0.010 A 
ATOM     67  C   UNL A   1      44.408  34.149  30.271  1.00  0.00     0.010 A 
ATOM     68  C   UNL A   1      43.791  34.890  32.900  1.00  0.00     0.020 A 
ATOM     69  C   UNL A   1      44.495  35.491  30.652  1.00  0.00     0.020 A 
ATOM     70  C   UNL A   1      44.160  35.855  31.958  1.00  0.00     0.054 A 
BRANCH  70  71
ATOM     71  S   UNL A   1      44.204  37.597  32.464  1.00  0.00     0.124 S 
ATOM     72  O   UNL A   1      43.270  37.606  33.588  1.00  0.00    -0.237 OA
ATOM     73  O   UNL A   1      45.608  37.796  32.815  1.00  0.00    -0.237 OA
ATOM     74  O   UNL A   1      43.755  38.314  31.274  1.00  0.00    -0.744 OA
ENDBRANCH  70  71
ENDBRANCH  51  65
BRANCH  52  75
ATOM     75  C   UNL A   1      42.655  23.883  27.746  1.00  0.00    -0.014 A 
ATOM     76  C   UNL A   1      42.470  22.817  28.644  1.00  0.00     0.010 A 
ATOM     77  C   UNL A   1      42.609  23.629  26.363  1.00  0.00     0.010 A 
ATOM     78  C   UNL A   1      42.243  21.522  28.170  1.00  0.00     0.020 A 
ATOM     79  C   UNL A   1      42.360  22.339  25.885  1.00  0.00     0.020 A 
ATOM     80  C   UNL A   1      42.184  21.292  26.792  1.00  0.00     0.054 A 
BRANCH  80  81
ATOM     81  S   UNL A   1      41.811  19.617  26.204  1.00  0.00     0.124 S 
ATOM     82  O   UNL A   1      42.632  19.525  25.001  1.00  0.00    -0.237 OA
ATOM     83  O   UNL A   1      42.237  18.785  27.327  1.00  0.00    -0.237 OA
ATOM     84  O   UNL A   1      40.367  19.648  25.977  1.00  0.00    -0.744 OA
ENDBRANCH  80  81
ENDBRANCH  52  75
BRANCH  64  85
ATOM     85  C   UNL A   1      48.210  27.411  30.081  1.00  0.00    -0.014 A 
ATOM     86  C   UNL A   1      49.219  27.915  29.244  1.00  0.00     0.010 A 
ATOM     87  C   UNL A   1      48.567  26.614  31.186  1.00  0.00     0.010 A 
ATOM     88  C   UNL A   1      50.561  27.623  29.503  1.00  0.00     0.020 A 
ATOM     89  C   UNL A   1      49.907  26.338  31.460  1.00  0.00     0.020 A 
ATOM     90  C   UNL A   1      50.897  26.839  30.612  1.00  0.00     0.054 A 
BRANCH  90  91
ATOM     91  S   UNL A   1      52.649  26.540  30.977  1.00  0.00     0.124 S 
ATOM     92  O   UNL A   1      52.572  25.565  32.061  1.00  0.00    -0.237 OA
ATOM     93  O   UNL A   1      53.160  26.029  29.707  1.00  0.00    -0.237 OA
ATOM     94  O   UNL A   1      53.153  27.857  31.358  1.00  0.00    -0.744 OA
ENDBRANCH  90  91
ENDBRANCH  64  85
ENDBRANCH  38  39
ENDBRANCH  30  33
ENDBRANCH  28  29
ENDBRANCH  27  28
ENDBRANCH   1  27
TORSDOF 18
ENDMDL
