MODEL 1
REMARK VINA RESULT:     -10.3      0.000      0.000
REMARK SMILES CC1(C)C[C@@H]([NH2+]C[C@@H]2CCCC[C@@H]2C(=O)NCCCCNC(=O)c2ccc(-c3c4nc(c(-c5ccc(S(=O)(=O)[O-])cc5)c5ccc([nH]5)c(-c5ccc(S(=O)(=O)[O-])cc5)c5nc(c(-c6ccc(S(=O)(=O)[O-])cc6)c6ccc3[nH]6)C=C5)C=C4)cc2)C(C)(C)O1
REMARK SMILES IDX 18 1 17 2 16 3 14 4 15 5 13 7 8 8 9 9 10 10 12 11 11 12 7 13
REMARK SMILES IDX 6 14 5 17 1 18 2 19 3 20 4 21 87 22 84 23 85 24 86 25 19 26
REMARK SMILES IDX 20 27 21 28 22 29 23 31 24 32 25 33 83 34 26 35 82 36 27 37
REMARK SMILES IDX 28 38 29 39 76 40 30 41 81 42 75 43 77 44 31 45 80 46 74 47
REMARK SMILES IDX 73 48 32 50 62 51 43 52 61 53 44 54 47 55 60 56 78 57 45 58
REMARK SMILES IDX 46 59 59 61 79 62 48 63 33 64 34 65 42 66 35 67 41 68 36 69
REMARK SMILES IDX 37 70 38 71 39 72 40 73 63 74 64 75 72 76 65 77 71 78 66 79
REMARK SMILES IDX 67 80 68 81 69 82 70 83 49 84 50 85 58 86 51 87 57 88 52 89
REMARK SMILES IDX 53 90 54 91 55 92 56 93
REMARK H PARENT 16 6 6 15 6 16 21 30 77 49 47 60
REMARK Flexibility Score: inf
ROOT
ATOM      1  C   UNL A   1      39.237  22.871  26.463  1.00  0.00     0.023 C 
ENDROOT
BRANCH   1   2
ATOM      2  C   UNL A   1      38.068  23.678  25.898  1.00  0.00     0.116 C 
BRANCH   2   3
ATOM      3  N   UNL A   1      36.842  23.369  26.599  1.00  0.00    -0.356 N 
ATOM      4  C   UNL A   1      35.623  22.995  26.142  1.00  0.00     0.223 C 
ATOM      5  O   UNL A   1      34.725  23.000  26.981  1.00  0.00    -0.275 OA
ATOM      6  H   UNL A   1      36.905  23.444  27.579  1.00  0.00     0.163 HD
BRANCH   4   7
ATOM      7  C   UNL A   1      35.444  22.485  24.715  1.00  0.00     0.087 C 
ATOM      8  C   UNL A   1      34.294  23.098  23.857  1.00  0.00     0.056 C 
ATOM      9  C   UNL A   1      33.069  22.211  23.524  1.00  0.00     0.010 C 
ATOM     10  C   UNL A   1      32.926  20.848  24.201  1.00  0.00     0.001 C 
ATOM     11  C   UNL A   1      35.369  20.952  24.774  1.00  0.00     0.014 C 
ATOM     12  C   UNL A   1      33.994  20.479  25.214  1.00  0.00     0.001 C 
BRANCH   8  13
ATOM     13  C   UNL A   1      34.011  24.622  24.076  1.00  0.00     0.265 C 
BRANCH  13  14
ATOM     14  N   UNL A   1      33.341  25.122  25.284  1.00  0.00    -0.341 N 
ATOM     15  H   UNL A   1      33.145  24.323  25.886  1.00  0.00     0.346 HD
ATOM     16  H   UNL A   1      33.979  25.803  25.694  1.00  0.00     0.346 HD
BRANCH  14  17
ATOM     17  C   UNL A   1      32.082  25.838  25.060  1.00  0.00     0.217 C 
ATOM     18  C   UNL A   1      30.487  27.792  22.325  1.00  0.00     0.042 C 
ATOM     19  C   UNL A   1      30.613  27.073  23.664  1.00  0.00     0.069 C 
ATOM     20  C   UNL A   1      29.252  26.478  24.050  1.00  0.00     0.042 C 
ATOM     21  C   UNL A   1      31.737  26.055  23.601  1.00  0.00     0.103 C 
ATOM     22  O   UNL A   1      31.023  27.988  24.699  1.00  0.00    -0.363 OA
ATOM     23  C   UNL A   1      31.991  27.314  25.563  1.00  0.00     0.115 C 
ATOM     24  C   UNL A   1      33.303  28.094  25.422  1.00  0.00     0.048 C 
ATOM     25  C   UNL A   1      31.489  27.407  27.002  1.00  0.00     0.048 C 
ENDBRANCH  14  17
ENDBRANCH  13  14
ENDBRANCH   8  13
ENDBRANCH   4   7
ENDBRANCH   2   3
ENDBRANCH   1   2
BRANCH   1  26
ATOM     26  C   UNL A   1      39.363  21.438  25.924  1.00  0.00     0.023 C 
BRANCH  26  27
ATOM     27  C   UNL A   1      40.051  20.431  26.844  1.00  0.00     0.116 C 
BRANCH  27  28
ATOM     28  N   UNL A   1      41.017  19.598  26.148  1.00  0.00    -0.352 N 
ATOM     29  C   UNL A   1      42.282  19.902  25.715  1.00  0.00     0.251 C 
ATOM     30  H   UNL A   1      40.719  18.679  25.961  1.00  0.00     0.163 HD
ATOM     31  O   UNL A   1      42.895  19.083  25.029  1.00  0.00    -0.269 OA
BRANCH  29  32
ATOM     32  C   UNL A   1      42.899  21.208  26.035  1.00  0.00     0.039 A 
ATOM     33  C   UNL A   1      43.067  22.136  25.003  1.00  0.00     0.014 A 
ATOM     34  C   UNL A   1      43.326  21.520  27.329  1.00  0.00     0.014 A 
ATOM     35  C   UNL A   1      43.605  23.396  25.280  1.00  0.00     0.010 A 
ATOM     36  C   UNL A   1      43.803  22.800  27.615  1.00  0.00     0.010 A 
ATOM     37  C   UNL A   1      43.945  23.752  26.595  1.00  0.00    -0.014 A 
BRANCH  37  38
ATOM     38  C   UNL A   1      44.436  25.118  26.916  1.00  0.00     0.031 A 
ATOM     39  C   UNL A   1      43.491  26.165  27.445  1.00  0.00     0.074 A 
ATOM     40  C   UNL A   1      45.727  25.435  26.683  1.00  0.00     0.049 A 
ATOM     41  N   UNL A   1      43.728  27.419  27.735  1.00  0.00    -0.248 NA
ATOM     42  C   UNL A   1      42.093  25.755  27.658  1.00  0.00     0.031 C 
ATOM     43  C   UNL A   1      46.737  24.523  26.142  1.00  0.00     0.029 A 
ATOM     44  N   UNL A   1      46.409  26.613  26.867  1.00  0.00    -0.354 N 
ATOM     45  C   UNL A   1      42.513  27.950  28.151  1.00  0.00     0.074 A 
ATOM     46  C   UNL A   1      41.529  26.895  28.033  1.00  0.00     0.031 C 
ATOM     47  C   UNL A   1      47.913  25.168  26.061  1.00  0.00     0.029 A 
ATOM     48  C   UNL A   1      47.733  26.547  26.502  1.00  0.00     0.049 A 
ATOM     49  H   UNL A   1      45.989  27.428  27.227  1.00  0.00     0.167 HD
ATOM     50  C   UNL A   1      42.241  29.196  28.608  1.00  0.00     0.031 A 
ATOM     51  C   UNL A   1      48.695  27.491  26.512  1.00  0.00     0.031 A 
ATOM     52  C   UNL A   1      43.221  30.243  28.732  1.00  0.00     0.049 A 
ATOM     53  C   UNL A   1      48.362  28.875  27.001  1.00  0.00     0.074 A 
ATOM     54  C   UNL A   1      43.052  31.524  29.231  1.00  0.00     0.029 A 
ATOM     55  N   UNL A   1      44.550  30.136  28.353  1.00  0.00    -0.354 N 
ATOM     56  N   UNL A   1      47.220  29.337  27.450  1.00  0.00    -0.248 NA
ATOM     57  C   UNL A   1      49.452  29.860  26.995  1.00  0.00     0.031 C 
ATOM     58  C   UNL A   1      44.266  32.207  29.104  1.00  0.00     0.029 A 
ATOM     59  C   UNL A   1      45.207  31.334  28.583  1.00  0.00     0.049 A 
ATOM     60  H   UNL A   1      44.967  29.327  27.975  1.00  0.00     0.167 HD
ATOM     61  C   UNL A   1      47.461  30.659  27.806  1.00  0.00     0.074 A 
ATOM     62  C   UNL A   1      48.861  30.917  27.536  1.00  0.00     0.031 C 
ATOM     63  C   UNL A   1      46.601  31.577  28.312  1.00  0.00     0.031 A 
BRANCH  50  64
ATOM     64  C   UNL A   1      40.821  29.501  29.007  1.00  0.00    -0.014 A 
ATOM     65  C   UNL A   1      39.820  29.695  28.038  1.00  0.00     0.010 A 
ATOM     66  C   UNL A   1      40.468  29.540  30.369  1.00  0.00     0.010 A 
ATOM     67  C   UNL A   1      38.503  29.960  28.422  1.00  0.00     0.020 A 
ATOM     68  C   UNL A   1      39.146  29.777  30.758  1.00  0.00     0.020 A 
ATOM     69  C   UNL A   1      38.174  30.002  29.781  1.00  0.00     0.054 A 
BRANCH  69  70
ATOM     70  S   UNL A   1      36.451  30.319  30.248  1.00  0.00     0.124 S 
ATOM     71  O   UNL A   1      35.726  29.802  29.091  1.00  0.00    -0.237 OA
ATOM     72  O   UNL A   1      36.305  29.542  31.478  1.00  0.00    -0.237 OA
ATOM     73  O   UNL A   1      36.398  31.768  30.420  1.00  0.00    -0.744 OA
ENDBRANCH  69  70
ENDBRANCH  50  64
BRANCH  51  74
ATOM     74  C   UNL A   1      50.070  27.160  26.045  1.00  0.00    -0.014 A 
ATOM     75  C   UNL A   1      50.408  27.267  24.684  1.00  0.00     0.010 A 
ATOM     76  C   UNL A   1      51.049  26.731  26.960  1.00  0.00     0.010 A 
ATOM     77  C   UNL A   1      51.692  26.929  24.244  1.00  0.00     0.020 A 
ATOM     78  C   UNL A   1      52.342  26.420  26.528  1.00  0.00     0.020 A 
ATOM     79  C   UNL A   1      52.650  26.508  25.169  1.00  0.00     0.054 A 
BRANCH  79  80
ATOM     80  S   UNL A   1      54.320  26.112  24.580  1.00  0.00     0.124 S 
ATOM     81  O   UNL A   1      54.421  24.690  24.888  1.00  0.00    -0.237 OA
ATOM     82  O   UNL A   1      54.243  26.449  23.161  1.00  0.00    -0.237 OA
ATOM     83  O   UNL A   1      55.179  26.988  25.374  1.00  0.00    -0.744 OA
ENDBRANCH  79  80
ENDBRANCH  51  74
BRANCH  63  84
ATOM     84  C   UNL A   1      47.154  32.939  28.641  1.00  0.00    -0.014 A 
ATOM     85  C   UNL A   1      47.136  33.983  27.700  1.00  0.00     0.010 A 
ATOM     86  C   UNL A   1      47.652  33.191  29.933  1.00  0.00     0.010 A 
ATOM     87  C   UNL A   1      47.633  35.246  28.034  1.00  0.00     0.020 A 
ATOM     88  C   UNL A   1      48.123  34.459  30.281  1.00  0.00     0.020 A 
ATOM     89  C   UNL A   1      48.125  35.475  29.324  1.00  0.00     0.054 A 
BRANCH  89  90
ATOM     90  S   UNL A   1      48.724  37.134  29.747  1.00  0.00     0.124 S 
ATOM     91  O   UNL A   1      49.477  36.881  30.973  1.00  0.00    -0.237 OA
ATOM     92  O   UNL A   1      49.525  37.494  28.580  1.00  0.00    -0.237 OA
ATOM     93  O   UNL A   1      47.499  37.912  29.918  1.00  0.00    -0.744 OA
ENDBRANCH  89  90
ENDBRANCH  63  84
ENDBRANCH  37  38
ENDBRANCH  29  32
ENDBRANCH  27  28
ENDBRANCH  26  27
ENDBRANCH   1  26
TORSDOF 17
ENDMDL
MODEL 2
REMARK VINA RESULT:     -10.2      0.593      8.202
REMARK SMILES CC1(C)C[C@@H]([NH2+]C[C@@H]2CCCC[C@@H]2C(=O)NCCCCNC(=O)c2ccc(-c3c4nc(c(-c5ccc(S(=O)(=O)[O-])cc5)c5ccc([nH]5)c(-c5ccc(S(=O)(=O)[O-])cc5)c5nc(c(-c6ccc(S(=O)(=O)[O-])cc6)c6ccc3[nH]6)C=C5)C=C4)cc2)C(C)(C)O1
REMARK SMILES IDX 18 1 17 2 16 3 14 4 15 5 13 7 8 8 9 9 10 10 12 11 11 12 7 13
REMARK SMILES IDX 6 14 5 17 1 18 2 19 3 20 4 21 87 22 84 23 85 24 86 25 19 26
REMARK SMILES IDX 20 27 21 28 22 29 23 31 24 32 25 33 83 34 26 35 82 36 27 37
REMARK SMILES IDX 28 38 29 39 76 40 30 41 81 42 75 43 77 44 31 45 80 46 74 47
REMARK SMILES IDX 73 48 32 50 62 51 43 52 61 53 44 54 47 55 60 56 78 57 45 58
REMARK SMILES IDX 46 59 59 61 79 62 48 63 33 64 34 65 42 66 35 67 41 68 36 69
REMARK SMILES IDX 37 70 38 71 39 72 40 73 63 74 64 75 72 76 65 77 71 78 66 79
REMARK SMILES IDX 67 80 68 81 69 82 70 83 49 84 50 85 58 86 51 87 57 88 52 89
REMARK SMILES IDX 53 90 54 91 55 92 56 93
REMARK H PARENT 16 6 6 15 6 16 21 30 77 49 47 60
REMARK Flexibility Score: inf
ROOT
ATOM      1  C   UNL A   1      39.362  22.847  26.370  1.00  0.00     0.023 C 
ENDROOT
BRANCH   1   2
ATOM      2  C   UNL A   1      38.171  23.689  25.911  1.00  0.00     0.116 C 
BRANCH   2   3
ATOM      3  N   UNL A   1      36.964  23.289  26.598  1.00  0.00    -0.356 N 
ATOM      4  C   UNL A   1      35.770  22.858  26.125  1.00  0.00     0.223 C 
ATOM      5  O   UNL A   1      34.871  22.786  26.959  1.00  0.00    -0.275 OA
ATOM      6  H   UNL A   1      37.019  23.339  27.580  1.00  0.00     0.163 HD
BRANCH   4   7
ATOM      7  C   UNL A   1      35.625  22.380  24.683  1.00  0.00     0.087 C 
ATOM      8  C   UNL A   1      34.560  23.080  23.782  1.00  0.00     0.056 C 
ATOM      9  C   UNL A   1      33.297  22.282  23.379  1.00  0.00     0.010 C 
ATOM     10  C   UNL A   1      33.031  20.922  24.026  1.00  0.00     0.001 C 
ATOM     11  C   UNL A   1      35.446  20.854  24.714  1.00  0.00     0.014 C 
ATOM     12  C   UNL A   1      34.022  20.469  25.081  1.00  0.00     0.001 C 
BRANCH   8  13
ATOM     13  C   UNL A   1      34.369  24.617  24.014  1.00  0.00     0.265 C 
BRANCH  13  14
ATOM     14  N   UNL A   1      33.696  25.145  25.207  1.00  0.00    -0.341 N 
ATOM     15  H   UNL A   1      32.991  24.467  25.495  1.00  0.00     0.346 HD
ATOM     16  H   UNL A   1      34.432  25.295  25.897  1.00  0.00     0.346 HD
BRANCH  14  17
ATOM     17  C   UNL A   1      33.034  26.442  25.040  1.00  0.00     0.217 C 
ATOM     18  C   UNL A   1      31.928  29.255  27.209  1.00  0.00     0.042 C 
ATOM     19  C   UNL A   1      32.219  28.488  25.923  1.00  0.00     0.069 C 
ATOM     20  C   UNL A   1      32.622  29.478  24.823  1.00  0.00     0.042 C 
ATOM     21  C   UNL A   1      33.250  27.406  26.188  1.00  0.00     0.103 C 
ATOM     22  O   UNL A   1      31.053  27.765  25.484  1.00  0.00    -0.363 OA
ATOM     23  C   UNL A   1      31.473  26.455  24.989  1.00  0.00     0.115 C 
ATOM     24  C   UNL A   1      30.818  25.420  25.912  1.00  0.00     0.048 C 
ATOM     25  C   UNL A   1      30.938  26.289  23.569  1.00  0.00     0.048 C 
ENDBRANCH  14  17
ENDBRANCH  13  14
ENDBRANCH   8  13
ENDBRANCH   4   7
ENDBRANCH   2   3
ENDBRANCH   1   2
BRANCH   1  26
ATOM     26  C   UNL A   1      39.300  21.362  25.983  1.00  0.00     0.023 C 
BRANCH  26  27
ATOM     27  C   UNL A   1      40.034  20.394  26.909  1.00  0.00     0.116 C 
BRANCH  27  28
ATOM     28  N   UNL A   1      41.025  19.589  26.214  1.00  0.00    -0.352 N 
ATOM     29  C   UNL A   1      42.272  19.936  25.762  1.00  0.00     0.251 C 
ATOM     30  H   UNL A   1      40.761  18.656  26.044  1.00  0.00     0.163 HD
ATOM     31  O   UNL A   1      42.910  19.132  25.081  1.00  0.00    -0.269 OA
BRANCH  29  32
ATOM     32  C   UNL A   1      42.841  21.270  26.055  1.00  0.00     0.039 A 
ATOM     33  C   UNL A   1      42.978  22.181  25.004  1.00  0.00     0.014 A 
ATOM     34  C   UNL A   1      43.251  21.625  27.343  1.00  0.00     0.014 A 
ATOM     35  C   UNL A   1      43.469  23.465  25.255  1.00  0.00     0.010 A 
ATOM     36  C   UNL A   1      43.680  22.927  27.603  1.00  0.00     0.010 A 
ATOM     37  C   UNL A   1      43.792  23.862  26.562  1.00  0.00    -0.014 A 
BRANCH  37  38
ATOM     38  C   UNL A   1      44.231  25.252  26.855  1.00  0.00     0.031 A 
ATOM     39  C   UNL A   1      45.663  25.662  26.637  1.00  0.00     0.074 A 
ATOM     40  C   UNL A   1      43.349  26.136  27.366  1.00  0.00     0.049 A 
ATOM     41  N   UNL A   1      46.237  26.813  26.880  1.00  0.00    -0.248 NA
ATOM     42  C   UNL A   1      46.575  24.642  26.093  1.00  0.00     0.031 C 
ATOM     43  C   UNL A   1      41.941  25.855  27.655  1.00  0.00     0.029 A 
ATOM     44  N   UNL A   1      43.508  27.448  27.740  1.00  0.00    -0.354 N 
ATOM     45  C   UNL A   1      47.574  26.654  26.534  1.00  0.00     0.074 A 
ATOM     46  C   UNL A   1      47.737  25.281  26.105  1.00  0.00     0.031 C 
ATOM     47  C   UNL A   1      41.360  26.967  28.136  1.00  0.00     0.029 A 
ATOM     48  C   UNL A   1      42.361  28.025  28.232  1.00  0.00     0.049 A 
ATOM     49  H   UNL A   1      44.363  27.930  27.662  1.00  0.00     0.167 HD
ATOM     50  C   UNL A   1      48.572  27.569  26.551  1.00  0.00     0.031 A 
ATOM     51  C   UNL A   1      42.138  29.263  28.714  1.00  0.00     0.031 A 
ATOM     52  C   UNL A   1      48.408  28.937  26.970  1.00  0.00     0.049 A 
ATOM     53  C   UNL A   1      43.269  30.255  28.746  1.00  0.00     0.074 A 
ATOM     54  C   UNL A   1      49.349  29.953  26.977  1.00  0.00     0.029 A 
ATOM     55  N   UNL A   1      47.231  29.481  27.461  1.00  0.00    -0.354 N 
ATOM     56  N   UNL A   1      44.511  30.101  28.353  1.00  0.00    -0.248 NA
ATOM     57  C   UNL A   1      42.965  31.591  29.276  1.00  0.00     0.031 C 
ATOM     58  C   UNL A   1      48.755  31.096  27.521  1.00  0.00     0.029 A 
ATOM     59  C   UNL A   1      47.427  30.811  27.796  1.00  0.00     0.049 A 
ATOM     60  H   UNL A   1      46.380  28.994  27.557  1.00  0.00     0.167 HD
ATOM     61  C   UNL A   1      45.129  31.328  28.562  1.00  0.00     0.074 A 
ATOM     62  C   UNL A   1      44.121  32.218  29.100  1.00  0.00     0.031 C 
ATOM     63  C   UNL A   1      46.415  31.687  28.329  1.00  0.00     0.031 A 
BRANCH  50  64
ATOM     64  C   UNL A   1      49.940  27.122  26.105  1.00  0.00    -0.014 A 
ATOM     65  C   UNL A   1      50.338  27.233  24.760  1.00  0.00     0.010 A 
ATOM     66  C   UNL A   1      50.861  26.634  27.051  1.00  0.00     0.010 A 
ATOM     67  C   UNL A   1      51.615  26.829  24.363  1.00  0.00     0.020 A 
ATOM     68  C   UNL A   1      52.150  26.256  26.664  1.00  0.00     0.020 A 
ATOM     69  C   UNL A   1      52.514  26.342  25.318  1.00  0.00     0.054 A 
BRANCH  69  70
ATOM     70  S   UNL A   1      54.175  25.854  24.777  1.00  0.00     0.124 S 
ATOM     71  O   UNL A   1      54.107  24.398  24.876  1.00  0.00    -0.237 OA
ATOM     72  O   UNL A   1      54.239  26.388  23.419  1.00  0.00    -0.237 OA
ATOM     73  O   UNL A   1      55.059  26.503  25.742  1.00  0.00    -0.744 OA
ENDBRANCH  69  70
ENDBRANCH  50  64
BRANCH  51  74
ATOM     74  C   UNL A   1      40.783  29.639  29.206  1.00  0.00    -0.014 A 
ATOM     75  C   UNL A   1      39.686  29.667  28.326  1.00  0.00     0.010 A 
ATOM     76  C   UNL A   1      40.583  29.975  30.557  1.00  0.00     0.010 A 
ATOM     77  C   UNL A   1      38.420  30.047  28.783  1.00  0.00     0.020 A 
ATOM     78  C   UNL A   1      39.313  30.327  31.025  1.00  0.00     0.020 A 
ATOM     79  C   UNL A   1      38.242  30.375  30.129  1.00  0.00     0.054 A 
BRANCH  79  80
ATOM     80  S   UNL A   1      36.583  30.827  30.708  1.00  0.00     0.124 S 
ATOM     81  O   UNL A   1      35.891  31.109  29.455  1.00  0.00    -0.237 OA
ATOM     82  O   UNL A   1      36.154  29.621  31.411  1.00  0.00    -0.237 OA
ATOM     83  O   UNL A   1      36.824  31.986  31.565  1.00  0.00    -0.744 OA
ENDBRANCH  79  80
ENDBRANCH  51  74
BRANCH  63  84
ATOM     84  C   UNL A   1      46.803  33.112  28.622  1.00  0.00    -0.014 A 
ATOM     85  C   UNL A   1      46.662  34.122  27.654  1.00  0.00     0.010 A 
ATOM     86  C   UNL A   1      47.266  33.455  29.906  1.00  0.00     0.010 A 
ATOM     87  C   UNL A   1      47.007  35.443  27.954  1.00  0.00     0.020 A 
ATOM     88  C   UNL A   1      47.584  34.779  30.219  1.00  0.00     0.020 A 
ATOM     89  C   UNL A   1      47.466  35.763  29.236  1.00  0.00     0.054 A 
BRANCH  89  90
ATOM     90  S   UNL A   1      47.865  37.491  29.615  1.00  0.00     0.124 S 
ATOM     91  O   UNL A   1      47.136  38.206  28.570  1.00  0.00    -0.237 OA
ATOM     92  O   UNL A   1      47.343  37.653  30.968  1.00  0.00    -0.237 OA
ATOM     93  O   UNL A   1      49.321  37.543  29.504  1.00  0.00    -0.744 OA
ENDBRANCH  89  90
ENDBRANCH  63  84
ENDBRANCH  37  38
ENDBRANCH  29  32
ENDBRANCH  27  28
ENDBRANCH  26  27
ENDBRANCH   1  26
TORSDOF 17
ENDMDL
MODEL 3
REMARK VINA RESULT:     -10.1      5.110      9.342
REMARK SMILES CC1(C)C[C@@H]([NH2+]C[C@@H]2CCCC[C@@H]2C(=O)NCCCCNC(=O)c2ccc(-c3c4nc(c(-c5ccc(S(=O)(=O)[O-])cc5)c5ccc([nH]5)c(-c5ccc(S(=O)(=O)[O-])cc5)c5nc(c(-c6ccc(S(=O)(=O)[O-])cc6)c6ccc3[nH]6)C=C5)C=C4)cc2)C(C)(C)O1
REMARK SMILES IDX 18 1 17 2 16 3 14 4 15 5 13 7 8 8 9 9 10 10 12 11 11 12 7 13
REMARK SMILES IDX 6 14 5 17 1 18 2 19 3 20 4 21 87 22 84 23 85 24 86 25 19 26
REMARK SMILES IDX 20 27 21 28 22 29 23 31 24 32 25 33 83 34 26 35 82 36 27 37
REMARK SMILES IDX 28 38 29 39 76 40 30 41 81 42 75 43 77 44 31 45 80 46 74 47
REMARK SMILES IDX 73 48 32 50 62 51 43 52 61 53 44 54 47 55 60 56 78 57 45 58
REMARK SMILES IDX 46 59 59 61 79 62 48 63 33 64 34 65 42 66 35 67 41 68 36 69
REMARK SMILES IDX 37 70 38 71 39 72 40 73 63 74 64 75 72 76 65 77 71 78 66 79
REMARK SMILES IDX 67 80 68 81 69 82 70 83 49 84 50 85 58 86 51 87 57 88 52 89
REMARK SMILES IDX 53 90 54 91 55 92 56 93
REMARK H PARENT 16 6 6 15 6 16 21 30 77 49 47 60
REMARK Flexibility Score: inf
ROOT
ATOM      1  C   UNL A   1      38.430  23.174  26.339  1.00  0.00     0.023 C 
ENDROOT
BRANCH   1   2
ATOM      2  C   UNL A   1      37.298  23.774  25.506  1.00  0.00     0.116 C 
BRANCH   2   3
ATOM      3  N   UNL A   1      36.028  23.626  26.180  1.00  0.00    -0.356 N 
ATOM      4  C   UNL A   1      34.853  23.097  25.762  1.00  0.00     0.223 C 
ATOM      5  O   UNL A   1      33.894  23.299  26.503  1.00  0.00    -0.275 OA
ATOM      6  H   UNL A   1      36.015  23.968  27.103  1.00  0.00     0.163 HD
BRANCH   4   7
ATOM      7  C   UNL A   1      34.790  22.209  24.522  1.00  0.00     0.087 C 
ATOM      8  C   UNL A   1      33.639  22.459  23.499  1.00  0.00     0.056 C 
ATOM      9  C   UNL A   1      32.511  21.405  23.387  1.00  0.00     0.010 C 
ATOM     10  C   UNL A   1      32.447  20.265  24.403  1.00  0.00     0.001 C 
ATOM     11  C   UNL A   1      34.841  20.748  24.993  1.00  0.00     0.014 C 
ATOM     12  C   UNL A   1      33.488  20.282  25.507  1.00  0.00     0.001 C 
BRANCH   8  13
ATOM     13  C   UNL A   1      33.219  23.953  23.290  1.00  0.00     0.265 C 
BRANCH  13  14
ATOM     14  N   UNL A   1      32.154  24.579  24.083  1.00  0.00    -0.341 N 
ATOM     15  H   UNL A   1      31.262  24.351  23.645  1.00  0.00     0.346 HD
ATOM     16  H   UNL A   1      32.256  24.209  25.028  1.00  0.00     0.346 HD
BRANCH  14  17
ATOM     17  C   UNL A   1      32.233  26.036  24.214  1.00  0.00     0.217 C 
ATOM     18  C   UNL A   1      33.680  28.500  26.597  1.00  0.00     0.042 C 
ATOM     19  C   UNL A   1      32.997  27.984  25.335  1.00  0.00     0.069 C 
ATOM     20  C   UNL A   1      33.360  28.894  24.154  1.00  0.00     0.042 C 
ATOM     21  C   UNL A   1      33.347  26.523  25.119  1.00  0.00     0.103 C 
ATOM     22  O   UNL A   1      31.565  27.985  25.492  1.00  0.00    -0.363 OA
ATOM     23  C   UNL A   1      31.027  26.769  24.883  1.00  0.00     0.115 C 
ATOM     24  C   UNL A   1      30.378  25.974  26.022  1.00  0.00     0.048 C 
ATOM     25  C   UNL A   1      29.961  27.177  23.869  1.00  0.00     0.048 C 
ENDBRANCH  14  17
ENDBRANCH  13  14
ENDBRANCH   8  13
ENDBRANCH   4   7
ENDBRANCH   2   3
ENDBRANCH   1   2
BRANCH   1  26
ATOM     26  C   UNL A   1      38.973  21.829  25.833  1.00  0.00     0.023 C 
BRANCH  26  27
ATOM     27  C   UNL A   1      40.295  21.365  26.439  1.00  0.00     0.116 C 
BRANCH  27  28
ATOM     28  N   UNL A   1      41.428  21.574  25.552  1.00  0.00    -0.352 N 
ATOM     29  C   UNL A   1      42.285  22.640  25.465  1.00  0.00     0.251 C 
ATOM     30  H   UNL A   1      41.604  20.840  24.920  1.00  0.00     0.163 HD
ATOM     31  O   UNL A   1      43.111  22.674  24.552  1.00  0.00    -0.269 OA
BRANCH  29  32
ATOM     32  C   UNL A   1      42.207  23.756  26.432  1.00  0.00     0.039 A 
ATOM     33  C   UNL A   1      41.795  23.478  27.739  1.00  0.00     0.014 A 
ATOM     34  C   UNL A   1      42.520  25.068  26.065  1.00  0.00     0.014 A 
ATOM     35  C   UNL A   1      41.754  24.501  28.689  1.00  0.00     0.010 A 
ATOM     36  C   UNL A   1      42.540  26.076  27.030  1.00  0.00     0.010 A 
ATOM     37  C   UNL A   1      42.159  25.803  28.353  1.00  0.00    -0.014 A 
BRANCH  37  38
ATOM     38  C   UNL A   1      42.204  26.880  29.377  1.00  0.00     0.031 A 
ATOM     39  C   UNL A   1      43.286  26.895  30.423  1.00  0.00     0.074 A 
ATOM     40  C   UNL A   1      41.238  27.822  29.396  1.00  0.00     0.049 A 
ATOM     41  N   UNL A   1      43.458  27.726  31.420  1.00  0.00    -0.248 NA
ATOM     42  C   UNL A   1      44.298  25.828  30.353  1.00  0.00     0.031 C 
ATOM     43  C   UNL A   1      40.115  27.902  28.459  1.00  0.00     0.029 A 
ATOM     44  N   UNL A   1      41.041  28.889  30.239  1.00  0.00    -0.354 N 
ATOM     45  C   UNL A   1      44.583  27.276  32.102  1.00  0.00     0.074 A 
ATOM     46  C   UNL A   1      45.029  26.073  31.431  1.00  0.00     0.031 C 
ATOM     47  C   UNL A   1      39.363  28.972  28.763  1.00  0.00     0.029 A 
ATOM     48  C   UNL A   1      39.922  29.630  29.940  1.00  0.00     0.049 A 
ATOM     49  H   UNL A   1      41.646  29.102  30.986  1.00  0.00     0.167 HD
ATOM     50  C   UNL A   1      45.203  27.823  33.175  1.00  0.00     0.031 A 
ATOM     51  C   UNL A   1      39.398  30.712  30.547  1.00  0.00     0.031 A 
ATOM     52  C   UNL A   1      44.763  29.024  33.837  1.00  0.00     0.049 A 
ATOM     53  C   UNL A   1      40.091  31.288  31.753  1.00  0.00     0.074 A 
ATOM     54  C   UNL A   1      45.353  29.683  34.903  1.00  0.00     0.029 A 
ATOM     55  N   UNL A   1      43.627  29.744  33.503  1.00  0.00    -0.354 N 
ATOM     56  N   UNL A   1      41.191  30.883  32.341  1.00  0.00    -0.248 NA
ATOM     57  C   UNL A   1      39.477  32.471  32.369  1.00  0.00     0.031 C 
ATOM     58  C   UNL A   1      44.544  30.771  35.246  1.00  0.00     0.029 A 
ATOM     59  C   UNL A   1      43.484  30.826  34.357  1.00  0.00     0.049 A 
ATOM     60  H   UNL A   1      43.011  29.520  32.768  1.00  0.00     0.167 HD
ATOM     61  C   UNL A   1      41.416  31.779  33.380  1.00  0.00     0.074 A 
ATOM     62  C   UNL A   1      40.348  32.756  33.328  1.00  0.00     0.031 C 
ATOM     63  C   UNL A   1      42.417  31.793  34.294  1.00  0.00     0.031 A 
BRANCH  50  64
ATOM     64  C   UNL A   1      46.427  27.125  33.708  1.00  0.00    -0.014 A 
ATOM     65  C   UNL A   1      46.322  26.128  34.695  1.00  0.00     0.010 A 
ATOM     66  C   UNL A   1      47.694  27.429  33.177  1.00  0.00     0.010 A 
ATOM     67  C   UNL A   1      47.464  25.477  35.168  1.00  0.00     0.020 A 
ATOM     68  C   UNL A   1      48.836  26.760  33.627  1.00  0.00     0.020 A 
ATOM     69  C   UNL A   1      48.715  25.798  34.632  1.00  0.00     0.054 A 
BRANCH  69  70
ATOM     70  S   UNL A   1      50.175  24.914  35.246  1.00  0.00     0.124 S 
ATOM     71  O   UNL A   1      49.771  23.519  35.086  1.00  0.00    -0.237 OA
ATOM     72  O   UNL A   1      51.228  25.370  34.340  1.00  0.00    -0.237 OA
ATOM     73  O   UNL A   1      50.304  25.371  36.627  1.00  0.00    -0.744 OA
ENDBRANCH  69  70
ENDBRANCH  50  64
BRANCH  51  74
ATOM     74  C   UNL A   1      38.148  31.330  30.022  1.00  0.00    -0.014 A 
ATOM     75  C   UNL A   1      36.890  30.812  30.380  1.00  0.00     0.010 A 
ATOM     76  C   UNL A   1      38.209  32.438  29.158  1.00  0.00     0.010 A 
ATOM     77  C   UNL A   1      35.718  31.375  29.865  1.00  0.00     0.020 A 
ATOM     78  C   UNL A   1      37.039  33.023  28.664  1.00  0.00     0.020 A 
ATOM     79  C   UNL A   1      35.801  32.477  29.010  1.00  0.00     0.054 A 
BRANCH  79  80
ATOM     80  S   UNL A   1      34.266  33.216  28.384  1.00  0.00     0.124 S 
ATOM     81  O   UNL A   1      33.580  32.059  27.820  1.00  0.00    -0.237 OA
ATOM     82  O   UNL A   1      33.671  33.778  29.593  1.00  0.00    -0.237 OA
ATOM     83  O   UNL A   1      34.733  34.203  27.413  1.00  0.00    -0.744 OA
ENDBRANCH  79  80
ENDBRANCH  51  74
BRANCH  63  84
ATOM     84  C   UNL A   1      42.429  32.918  35.294  1.00  0.00    -0.014 A 
ATOM     85  C   UNL A   1      43.073  34.137  35.018  1.00  0.00     0.010 A 
ATOM     86  C   UNL A   1      41.736  32.771  36.512  1.00  0.00     0.010 A 
ATOM     87  C   UNL A   1      43.052  35.175  35.953  1.00  0.00     0.020 A 
ATOM     88  C   UNL A   1      41.688  33.817  37.435  1.00  0.00     0.020 A 
ATOM     89  C   UNL A   1      42.359  35.009  37.157  1.00  0.00     0.054 A 
BRANCH  89  90
ATOM     90  S   UNL A   1      42.309  36.388  38.333  1.00  0.00     0.124 S 
ATOM     91  O   UNL A   1      43.350  37.270  37.812  1.00  0.00    -0.237 OA
ATOM     92  O   UNL A   1      40.941  36.879  38.195  1.00  0.00    -0.237 OA
ATOM     93  O   UNL A   1      42.613  35.759  39.617  1.00  0.00    -0.744 OA
ENDBRANCH  89  90
ENDBRANCH  63  84
ENDBRANCH  37  38
ENDBRANCH  29  32
ENDBRANCH  27  28
ENDBRANCH  26  27
ENDBRANCH   1  26
TORSDOF 17
ENDMDL
