MODEL 1
REMARK VINA RESULT:     -11.1      0.000      0.000
REMARK SMILES O=CN1CC[NH+](C[C@@H](CC(=O)Nc2ccc(C(F)(F)F)nc2)C(=O)NCCCCNC(=O)c2ccc(-c3c4nc(c(-c5ccc(S(=O)(=O)[O-])cc5)c5ccc([nH]5)c(-c5ccc(S(=O)(=O)[O-])cc5)c5nc(c(-c6ccc(S(=O)(=O)[O-])cc6)c6ccc3[nH]6)C=C5)C=C4)cc2)CC1
REMARK SMILES IDX 27 1 26 2 25 3 23 4 24 5 8 7 7 8 6 9 1 10 2 11 3 12 4 13
REMARK SMILES IDX 94 14 5 15 93 16 9 18 10 19 11 20 12 21 13 23 14 24 22 25
REMARK SMILES IDX 15 26 21 27 16 28 17 29 18 30 19 31 20 32 28 33 29 34 30 35
REMARK SMILES IDX 31 36 32 38 33 39 34 40 92 41 35 42 91 43 36 44 37 45 38 46
REMARK SMILES IDX 85 47 39 48 90 49 84 50 86 51 40 52 89 53 83 54 82 55 41 57
REMARK SMILES IDX 71 58 52 59 70 60 53 61 56 62 69 63 87 64 54 65 55 66 68 68
REMARK SMILES IDX 88 69 57 70 42 71 43 72 51 73 44 74 50 75 45 76 46 77 47 78
REMARK SMILES IDX 48 79 49 80 72 81 73 82 81 83 74 84 80 85 75 86 76 87 77 88
REMARK SMILES IDX 78 89 79 90 58 91 59 92 67 93 60 94 66 95 61 96 62 97 63 98
REMARK SMILES IDX 64 99 65 100
REMARK H PARENT 25 6 6 17 12 22 30 37 86 56 56 67
REMARK Flexibility Score: inf
ROOT
ATOM      1  C   UNL A   1      31.818  26.898  26.599  1.00  0.00     0.023 C 
ENDROOT
BRANCH   1   2
ATOM      2  C   UNL A   1      30.451  26.500  26.082  1.00  0.00     0.116 C 
BRANCH   2   3
ATOM      3  N   UNL A   1      29.839  25.336  26.646  1.00  0.00    -0.356 N 
ATOM      4  C   UNL A   1      30.248  24.046  26.467  1.00  0.00     0.229 C 
ATOM      5  O   UNL A   1      29.697  23.175  27.145  1.00  0.00    -0.275 OA
ATOM      6  H   UNL A   1      29.050  25.479  27.217  1.00  0.00     0.163 HD
BRANCH   4   7
ATOM      7  C   UNL A   1      31.277  23.639  25.379  1.00  0.00     0.142 C 
BRANCH   7   8
ATOM      8  C   UNL A   1      31.654  22.168  25.615  1.00  0.00     0.276 C 
BRANCH   8   9
ATOM      9  N   UNL A   1      32.933  21.546  25.235  1.00  0.00    -0.331 N 
ATOM     10  O   UNL A   1      32.403  17.493  22.159  1.00  0.00    -0.279 OA
ATOM     11  C   UNL A   1      32.604  17.693  23.342  1.00  0.00     0.340 C 
ATOM     12  N   UNL A   1      32.651  18.926  23.959  1.00  0.00    -0.334 N 
ATOM     13  C   UNL A   1      32.695  19.027  25.406  1.00  0.00     0.180 C 
ATOM     14  C   UNL A   1      32.338  20.144  23.213  1.00  0.00     0.180 C 
ATOM     15  C   UNL A   1      33.385  20.312  25.881  1.00  0.00     0.284 C 
ATOM     16  C   UNL A   1      33.072  21.383  23.768  1.00  0.00     0.284 C 
ATOM     17  H   UNL A   1      33.557  22.253  25.624  1.00  0.00     0.348 HD
ENDBRANCH   8   9
ENDBRANCH   7   8
BRANCH   7  18
ATOM     18  C   UNL A   1      31.096  24.293  24.002  1.00  0.00     0.119 C 
BRANCH  18  19
ATOM     19  C   UNL A   1      32.002  25.157  23.106  1.00  0.00     0.225 C 
ATOM     20  O   UNL A   1      31.427  26.007  22.404  1.00  0.00    -0.275 OA
ATOM     21  N   UNL A   1      33.353  25.255  23.077  1.00  0.00    -0.325 N 
ATOM     22  H   UNL A   1      33.653  26.078  22.627  1.00  0.00     0.169 HD
BRANCH  21  23
ATOM     23  C   UNL A   1      34.428  24.482  23.524  1.00  0.00     0.059 A 
ATOM     24  C   UNL A   1      35.309  23.801  22.699  1.00  0.00     0.030 A 
ATOM     25  C   UNL A   1      34.733  24.488  24.880  1.00  0.00     0.137 A 
ATOM     26  C   UNL A   1      36.311  23.001  23.248  1.00  0.00     0.035 A 
ATOM     27  N   UNL A   1      35.687  23.717  25.453  1.00  0.00    -0.250 NA
ATOM     28  C   UNL A   1      36.428  22.919  24.631  1.00  0.00     0.144 A 
BRANCH  28  29
ATOM     29  C   UNL A   1      37.395  21.904  25.223  1.00  0.00     0.433 C 
ATOM     30  F   UNL A   1      36.934  21.337  26.374  1.00  0.00    -0.165 F 
ATOM     31  F   UNL A   1      37.693  20.872  24.383  1.00  0.00    -0.165 F 
ATOM     32  F   UNL A   1      38.602  22.459  25.551  1.00  0.00    -0.165 F 
ENDBRANCH  28  29
ENDBRANCH  21  23
ENDBRANCH  18  19
ENDBRANCH   7  18
ENDBRANCH   4   7
ENDBRANCH   2   3
ENDBRANCH   1   2
BRANCH   1  33
ATOM     33  C   UNL A   1      31.996  28.383  26.842  1.00  0.00     0.023 C 
BRANCH  33  34
ATOM     34  C   UNL A   1      33.386  28.808  27.300  1.00  0.00     0.116 C 
BRANCH  34  35
ATOM     35  N   UNL A   1      33.479  30.190  27.764  1.00  0.00    -0.352 N 
ATOM     36  C   UNL A   1      34.572  30.826  28.320  1.00  0.00     0.251 C 
ATOM     37  H   UNL A   1      32.665  30.734  27.669  1.00  0.00     0.163 HD
ATOM     38  O   UNL A   1      34.493  31.974  28.740  1.00  0.00    -0.269 OA
BRANCH  36  39
ATOM     39  C   UNL A   1      35.829  30.060  28.438  1.00  0.00     0.039 A 
ATOM     40  C   UNL A   1      36.763  30.117  27.403  1.00  0.00     0.014 A 
ATOM     41  C   UNL A   1      36.140  29.439  29.649  1.00  0.00     0.014 A 
ATOM     42  C   UNL A   1      38.056  29.645  27.629  1.00  0.00     0.010 A 
ATOM     43  C   UNL A   1      37.456  29.082  29.907  1.00  0.00     0.010 A 
ATOM     44  C   UNL A   1      38.431  29.184  28.902  1.00  0.00    -0.014 A 
BRANCH  44  45
ATOM     45  C   UNL A   1      39.834  28.808  29.216  1.00  0.00     0.031 A 
ATOM     46  C   UNL A   1      40.733  29.793  29.915  1.00  0.00     0.074 A 
ATOM     47  C   UNL A   1      40.327  27.621  28.805  1.00  0.00     0.049 A 
ATOM     48  N   UNL A   1      42.001  29.683  30.220  1.00  0.00    -0.248 NA
ATOM     49  C   UNL A   1      40.138  31.088  30.283  1.00  0.00     0.031 C 
ATOM     50  C   UNL A   1      39.580  26.597  28.070  1.00  0.00     0.029 A 
ATOM     51  N   UNL A   1      41.579  27.076  28.947  1.00  0.00    -0.354 N 
ATOM     52  C   UNL A   1      42.355  30.899  30.791  1.00  0.00     0.074 A 
ATOM     53  C   UNL A   1      41.193  31.754  30.722  1.00  0.00     0.031 C 
ATOM     54  C   UNL A   1      40.372  25.531  27.872  1.00  0.00     0.029 A 
ATOM     55  C   UNL A   1      41.694  25.809  28.424  1.00  0.00     0.049 A 
ATOM     56  H   UNL A   1      42.325  27.547  29.383  1.00  0.00     0.167 HD
ATOM     57  C   UNL A   1      43.532  31.266  31.352  1.00  0.00     0.031 A 
ATOM     58  C   UNL A   1      42.743  24.963  28.396  1.00  0.00     0.031 A 
ATOM     59  C   UNL A   1      44.683  30.409  31.433  1.00  0.00     0.049 A 
ATOM     60  C   UNL A   1      44.045  25.389  29.017  1.00  0.00     0.074 A 
ATOM     61  C   UNL A   1      45.903  30.659  32.033  1.00  0.00     0.029 A 
ATOM     62  N   UNL A   1      44.757  29.133  30.891  1.00  0.00    -0.354 N 
ATOM     63  N   UNL A   1      44.341  26.518  29.615  1.00  0.00    -0.248 NA
ATOM     64  C   UNL A   1      45.149  24.422  28.968  1.00  0.00     0.031 C 
ATOM     65  C   UNL A   1      46.733  29.555  31.811  1.00  0.00     0.029 A 
ATOM     66  C   UNL A   1      46.010  28.593  31.122  1.00  0.00     0.049 A 
ATOM     67  H   UNL A   1      44.025  28.680  30.412  1.00  0.00     0.167 HD
ATOM     68  C   UNL A   1      45.658  26.387  30.039  1.00  0.00     0.074 A 
ATOM     69  C   UNL A   1      46.097  25.066  29.636  1.00  0.00     0.031 C 
ATOM     70  C   UNL A   1      46.433  27.279  30.706  1.00  0.00     0.031 A 
BRANCH  57  71
ATOM     71  C   UNL A   1      43.616  32.664  31.908  1.00  0.00    -0.014 A 
ATOM     72  C   UNL A   1      44.065  33.737  31.115  1.00  0.00     0.010 A 
ATOM     73  C   UNL A   1      43.271  32.904  33.250  1.00  0.00     0.010 A 
ATOM     74  C   UNL A   1      44.238  35.006  31.672  1.00  0.00     0.020 A 
ATOM     75  C   UNL A   1      43.409  34.182  33.802  1.00  0.00     0.020 A 
ATOM     76  C   UNL A   1      43.921  35.216  33.017  1.00  0.00     0.054 A 
BRANCH  76  77
ATOM     77  S   UNL A   1      44.185  36.865  33.724  1.00  0.00     0.124 S 
ATOM     78  O   UNL A   1      44.251  36.571  35.153  1.00  0.00    -0.237 OA
ATOM     79  O   UNL A   1      45.442  37.283  33.110  1.00  0.00    -0.237 OA
ATOM     80  O   UNL A   1      43.006  37.616  33.297  1.00  0.00    -0.744 OA
ENDBRANCH  76  77
ENDBRANCH  57  71
BRANCH  58  81
ATOM     81  C   UNL A   1      42.582  23.607  27.801  1.00  0.00    -0.014 A 
ATOM     82  C   UNL A   1      42.865  23.396  26.440  1.00  0.00     0.010 A 
ATOM     83  C   UNL A   1      42.190  22.513  28.594  1.00  0.00     0.010 A 
ATOM     84  C   UNL A   1      42.763  22.119  25.883  1.00  0.00     0.020 A 
ATOM     85  C   UNL A   1      42.109  21.229  28.046  1.00  0.00     0.020 A 
ATOM     86  C   UNL A   1      42.393  21.041  26.692  1.00  0.00     0.054 A 
BRANCH  86  87
ATOM     87  S   UNL A   1      42.353  19.378  25.966  1.00  0.00     0.124 S 
ATOM     88  O   UNL A   1      42.845  18.554  27.064  1.00  0.00    -0.237 OA
ATOM     89  O   UNL A   1      40.939  19.215  25.634  1.00  0.00    -0.237 OA
ATOM     90  O   UNL A   1      43.246  19.486  24.813  1.00  0.00    -0.744 OA
ENDBRANCH  86  87
ENDBRANCH  58  81
BRANCH  70  91
ATOM     91  C   UNL A   1      47.830  26.849  31.067  1.00  0.00    -0.014 A 
ATOM     92  C   UNL A   1      48.077  26.030  32.182  1.00  0.00     0.010 A 
ATOM     93  C   UNL A   1      48.905  27.225  30.239  1.00  0.00     0.010 A 
ATOM     94  C   UNL A   1      49.378  25.617  32.480  1.00  0.00     0.020 A 
ATOM     95  C   UNL A   1      50.203  26.792  30.519  1.00  0.00     0.020 A 
ATOM     96  C   UNL A   1      50.433  26.000  31.646  1.00  0.00     0.054 A 
BRANCH  96  97
ATOM     97  S   UNL A   1      52.106  25.411  32.026  1.00  0.00     0.124 S 
ATOM     98  O   UNL A   1      52.461  26.233  33.178  1.00  0.00    -0.237 OA
ATOM     99  O   UNL A   1      51.890  23.994  32.307  1.00  0.00    -0.237 OA
ATOM    100  O   UNL A   1      52.858  25.691  30.805  1.00  0.00    -0.744 OA
ENDBRANCH  96  97
ENDBRANCH  70  91
ENDBRANCH  44  45
ENDBRANCH  36  39
ENDBRANCH  34  35
ENDBRANCH  33  34
ENDBRANCH   1  33
TORSDOF 20
ENDMDL
MODEL 2
REMARK VINA RESULT:     -10.7      4.770      9.513
REMARK SMILES O=CN1CC[NH+](C[C@@H](CC(=O)Nc2ccc(C(F)(F)F)nc2)C(=O)NCCCCNC(=O)c2ccc(-c3c4nc(c(-c5ccc(S(=O)(=O)[O-])cc5)c5ccc([nH]5)c(-c5ccc(S(=O)(=O)[O-])cc5)c5nc(c(-c6ccc(S(=O)(=O)[O-])cc6)c6ccc3[nH]6)C=C5)C=C4)cc2)CC1
REMARK SMILES IDX 27 1 26 2 25 3 23 4 24 5 8 7 7 8 6 9 1 10 2 11 3 12 4 13
REMARK SMILES IDX 94 14 5 15 93 16 9 18 10 19 11 20 12 21 13 23 14 24 22 25
REMARK SMILES IDX 15 26 21 27 16 28 17 29 18 30 19 31 20 32 28 33 29 34 30 35
REMARK SMILES IDX 31 36 32 38 33 39 34 40 92 41 35 42 91 43 36 44 37 45 38 46
REMARK SMILES IDX 85 47 39 48 90 49 84 50 86 51 40 52 89 53 83 54 82 55 41 57
REMARK SMILES IDX 71 58 52 59 70 60 53 61 56 62 69 63 87 64 54 65 55 66 68 68
REMARK SMILES IDX 88 69 57 70 42 71 43 72 51 73 44 74 50 75 45 76 46 77 47 78
REMARK SMILES IDX 48 79 49 80 72 81 73 82 81 83 74 84 80 85 75 86 76 87 77 88
REMARK SMILES IDX 78 89 79 90 58 91 59 92 67 93 60 94 66 95 61 96 62 97 63 98
REMARK SMILES IDX 64 99 65 100
REMARK H PARENT 25 6 6 17 12 22 30 37 86 56 56 67
REMARK Flexibility Score: inf
ROOT
ATOM      1  C   UNL A   1      33.238  28.489  27.308  1.00  0.00     0.023 C 
ENDROOT
BRANCH   1   2
ATOM      2  C   UNL A   1      32.405  27.647  26.363  1.00  0.00     0.116 C 
BRANCH   2   3
ATOM      3  N   UNL A   1      31.695  26.535  26.914  1.00  0.00    -0.356 N 
ATOM      4  C   UNL A   1      31.751  25.244  26.470  1.00  0.00     0.229 C 
ATOM      5  O   UNL A   1      31.189  24.383  27.151  1.00  0.00    -0.275 OA
ATOM      6  H   UNL A   1      31.110  26.716  27.685  1.00  0.00     0.163 HD
BRANCH   4   7
ATOM      7  C   UNL A   1      32.384  24.858  25.106  1.00  0.00     0.142 C 
BRANCH   7   8
ATOM      8  C   UNL A   1      33.197  23.570  25.314  1.00  0.00     0.276 C 
BRANCH   8   9
ATOM      9  N   UNL A   1      33.594  22.634  24.249  1.00  0.00    -0.331 N 
ATOM     10  O   UNL A   1      32.096  17.817  25.102  1.00  0.00    -0.279 OA
ATOM     11  C   UNL A   1      33.121  18.464  25.211  1.00  0.00     0.340 C 
ATOM     12  N   UNL A   1      33.258  19.813  24.960  1.00  0.00    -0.334 N 
ATOM     13  C   UNL A   1      34.478  20.512  25.321  1.00  0.00     0.180 C 
ATOM     14  C   UNL A   1      32.092  20.631  24.627  1.00  0.00     0.180 C 
ATOM     15  C   UNL A   1      34.735  21.735  24.431  1.00  0.00     0.284 C 
ATOM     16  C   UNL A   1      32.451  21.839  23.737  1.00  0.00     0.284 C 
ATOM     17  H   UNL A   1      33.942  23.319  23.579  1.00  0.00     0.348 HD
ENDBRANCH   8   9
ENDBRANCH   7   8
BRANCH   7  18
ATOM     18  C   UNL A   1      31.549  25.182  23.859  1.00  0.00     0.119 C 
BRANCH  18  19
ATOM     19  C   UNL A   1      31.860  25.877  22.521  1.00  0.00     0.225 C 
ATOM     20  O   UNL A   1      32.671  25.296  21.778  1.00  0.00    -0.275 OA
ATOM     21  N   UNL A   1      31.265  26.946  21.941  1.00  0.00    -0.325 N 
ATOM     22  H   UNL A   1      31.458  26.997  20.977  1.00  0.00     0.169 HD
BRANCH  21  23
ATOM     23  C   UNL A   1      30.447  27.996  22.367  1.00  0.00     0.059 A 
ATOM     24  C   UNL A   1      29.209  27.839  22.968  1.00  0.00     0.030 A 
ATOM     25  C   UNL A   1      30.946  29.292  22.313  1.00  0.00     0.137 A 
ATOM     26  C   UNL A   1      28.439  28.955  23.296  1.00  0.00     0.035 A 
ATOM     27  N   UNL A   1      30.227  30.402  22.609  1.00  0.00    -0.250 NA
ATOM     28  C   UNL A   1      28.944  30.224  23.034  1.00  0.00     0.144 A 
BRANCH  28  29
ATOM     29  C   UNL A   1      28.029  31.426  23.218  1.00  0.00     0.433 C 
ATOM     30  F   UNL A   1      28.700  32.556  23.580  1.00  0.00    -0.165 F 
ATOM     31  F   UNL A   1      27.313  31.750  22.103  1.00  0.00    -0.165 F 
ATOM     32  F   UNL A   1      27.095  31.229  24.199  1.00  0.00    -0.165 F 
ENDBRANCH  28  29
ENDBRANCH  21  23
ENDBRANCH  18  19
ENDBRANCH   7  18
ENDBRANCH   4   7
ENDBRANCH   2   3
ENDBRANCH   1   2
BRANCH   1  33
ATOM     33  C   UNL A   1      33.796  29.760  26.700  1.00  0.00     0.023 C 
BRANCH  33  34
ATOM     34  C   UNL A   1      34.228  30.827  27.698  1.00  0.00     0.116 C 
BRANCH  34  35
ATOM     35  N   UNL A   1      33.503  32.090  27.595  1.00  0.00    -0.352 N 
ATOM     36  C   UNL A   1      33.692  33.240  28.335  1.00  0.00     0.251 C 
ATOM     37  H   UNL A   1      32.792  32.126  26.915  1.00  0.00     0.163 HD
ATOM     38  O   UNL A   1      32.959  34.212  28.199  1.00  0.00    -0.269 OA
BRANCH  36  39
ATOM     39  C   UNL A   1      34.780  33.246  29.335  1.00  0.00     0.039 A 
ATOM     40  C   UNL A   1      34.678  32.426  30.459  1.00  0.00     0.014 A 
ATOM     41  C   UNL A   1      35.963  33.932  29.054  1.00  0.00     0.014 A 
ATOM     42  C   UNL A   1      35.810  32.206  31.244  1.00  0.00     0.010 A 
ATOM     43  C   UNL A   1      37.112  33.616  29.766  1.00  0.00     0.010 A 
ATOM     44  C   UNL A   1      37.051  32.747  30.867  1.00  0.00    -0.014 A 
BRANCH  44  45
ATOM     45  C   UNL A   1      38.302  32.418  31.598  1.00  0.00     0.031 A 
ATOM     46  C   UNL A   1      39.269  31.423  31.013  1.00  0.00     0.074 A 
ATOM     47  C   UNL A   1      38.534  32.945  32.818  1.00  0.00     0.049 A 
ATOM     48  N   UNL A   1      40.380  30.954  31.520  1.00  0.00    -0.248 NA
ATOM     49  C   UNL A   1      38.919  30.851  29.703  1.00  0.00     0.031 C 
ATOM     50  C   UNL A   1      37.653  33.879  33.524  1.00  0.00     0.029 A 
ATOM     51  N   UNL A   1      39.585  32.767  33.683  1.00  0.00    -0.354 N 
ATOM     52  C   UNL A   1      40.845  30.018  30.604  1.00  0.00     0.074 A 
ATOM     53  C   UNL A   1      39.860  29.933  29.550  1.00  0.00     0.031 C 
ATOM     54  C   UNL A   1      38.224  34.229  34.688  1.00  0.00     0.029 A 
ATOM     55  C   UNL A   1      39.488  33.515  34.834  1.00  0.00     0.049 A 
ATOM     56  H   UNL A   1      40.339  32.162  33.497  1.00  0.00     0.167 HD
ATOM     57  C   UNL A   1      42.001  29.313  30.619  1.00  0.00     0.031 A 
ATOM     58  C   UNL A   1      40.324  33.618  35.885  1.00  0.00     0.031 A 
ATOM     59  C   UNL A   1      42.986  29.409  31.661  1.00  0.00     0.049 A 
ATOM     60  C   UNL A   1      41.601  32.823  35.889  1.00  0.00     0.074 A 
ATOM     61  C   UNL A   1      44.218  28.787  31.743  1.00  0.00     0.029 A 
ATOM     62  N   UNL A   1      42.848  30.179  32.808  1.00  0.00    -0.354 N 
ATOM     63  N   UNL A   1      42.057  31.995  34.980  1.00  0.00    -0.248 NA
ATOM     64  C   UNL A   1      42.478  32.985  37.055  1.00  0.00     0.031 C 
ATOM     65  C   UNL A   1      44.803  29.139  32.963  1.00  0.00     0.029 A 
ATOM     66  C   UNL A   1      43.962  30.028  33.615  1.00  0.00     0.049 A 
ATOM     67  H   UNL A   1      42.072  30.748  33.016  1.00  0.00     0.167 HD
ATOM     68  C   UNL A   1      43.289  31.557  35.451  1.00  0.00     0.074 A 
ATOM     69  C   UNL A   1      43.509  32.219  36.721  1.00  0.00     0.031 C 
ATOM     70  C   UNL A   1      44.162  30.688  34.881  1.00  0.00     0.031 A 
BRANCH  57  71
ATOM     71  C   UNL A   1      42.240  28.371  29.467  1.00  0.00    -0.014 A 
ATOM     72  C   UNL A   1      43.015  28.761  28.357  1.00  0.00     0.010 A 
ATOM     73  C   UNL A   1      41.659  27.091  29.478  1.00  0.00     0.010 A 
ATOM     74  C   UNL A   1      43.140  27.919  27.250  1.00  0.00     0.020 A 
ATOM     75  C   UNL A   1      41.813  26.230  28.387  1.00  0.00     0.020 A 
ATOM     76  C   UNL A   1      42.527  26.663  27.268  1.00  0.00     0.054 A 
BRANCH  76  77
ATOM     77  S   UNL A   1      42.680  25.601  25.806  1.00  0.00     0.124 S 
ATOM     78  O   UNL A   1      44.121  25.365  25.758  1.00  0.00    -0.237 OA
ATOM     79  O   UNL A   1      41.867  24.442  26.161  1.00  0.00    -0.237 OA
ATOM     80  O   UNL A   1      42.148  26.425  24.723  1.00  0.00    -0.744 OA
ENDBRANCH  76  77
ENDBRANCH  57  71
BRANCH  58  81
ATOM     81  C   UNL A   1      39.999  34.554  36.998  1.00  0.00    -0.014 A 
ATOM     82  C   UNL A   1      39.310  34.089  38.132  1.00  0.00     0.010 A 
ATOM     83  C   UNL A   1      40.410  35.898  36.953  1.00  0.00     0.010 A 
ATOM     84  C   UNL A   1      39.041  34.947  39.201  1.00  0.00     0.020 A 
ATOM     85  C   UNL A   1      40.164  36.755  38.031  1.00  0.00     0.020 A 
ATOM     86  C   UNL A   1      39.477  36.273  39.148  1.00  0.00     0.054 A 
BRANCH  86  87
ATOM     87  S   UNL A   1      39.194  37.344  40.586  1.00  0.00     0.124 S 
ATOM     88  O   UNL A   1      40.539  37.824  40.879  1.00  0.00    -0.237 OA
ATOM     89  O   UNL A   1      38.266  38.341  40.055  1.00  0.00    -0.237 OA
ATOM     90  O   UNL A   1      38.620  36.438  41.579  1.00  0.00    -0.744 OA
ENDBRANCH  86  87
ENDBRANCH  58  81
BRANCH  70  91
ATOM     91  C   UNL A   1      45.450  30.421  35.612  1.00  0.00    -0.014 A 
ATOM     92  C   UNL A   1      46.589  31.215  35.399  1.00  0.00     0.010 A 
ATOM     93  C   UNL A   1      45.499  29.393  36.572  1.00  0.00     0.010 A 
ATOM     94  C   UNL A   1      47.765  30.969  36.112  1.00  0.00     0.020 A 
ATOM     95  C   UNL A   1      46.665  29.161  37.306  1.00  0.00     0.020 A 
ATOM     96  C   UNL A   1      47.795  29.943  37.062  1.00  0.00     0.054 A 
BRANCH  96  97
ATOM     97  S   UNL A   1      49.319  29.674  38.010  1.00  0.00     0.124 S 
ATOM     98  O   UNL A   1      49.051  30.425  39.232  1.00  0.00    -0.237 OA
ATOM     99  O   UNL A   1      49.351  28.221  38.158  1.00  0.00    -0.237 OA
ATOM    100  O   UNL A   1      50.363  30.230  37.152  1.00  0.00    -0.744 OA
ENDBRANCH  96  97
ENDBRANCH  70  91
ENDBRANCH  44  45
ENDBRANCH  36  39
ENDBRANCH  34  35
ENDBRANCH  33  34
ENDBRANCH   1  33
TORSDOF 20
ENDMDL
MODEL 3
REMARK VINA RESULT:     -10.6      3.706      4.694
REMARK SMILES O=CN1CC[NH+](C[C@@H](CC(=O)Nc2ccc(C(F)(F)F)nc2)C(=O)NCCCCNC(=O)c2ccc(-c3c4nc(c(-c5ccc(S(=O)(=O)[O-])cc5)c5ccc([nH]5)c(-c5ccc(S(=O)(=O)[O-])cc5)c5nc(c(-c6ccc(S(=O)(=O)[O-])cc6)c6ccc3[nH]6)C=C5)C=C4)cc2)CC1
REMARK SMILES IDX 27 1 26 2 25 3 23 4 24 5 8 7 7 8 6 9 1 10 2 11 3 12 4 13
REMARK SMILES IDX 94 14 5 15 93 16 9 18 10 19 11 20 12 21 13 23 14 24 22 25
REMARK SMILES IDX 15 26 21 27 16 28 17 29 18 30 19 31 20 32 28 33 29 34 30 35
REMARK SMILES IDX 31 36 32 38 33 39 34 40 92 41 35 42 91 43 36 44 37 45 38 46
REMARK SMILES IDX 85 47 39 48 90 49 84 50 86 51 40 52 89 53 83 54 82 55 41 57
REMARK SMILES IDX 71 58 52 59 70 60 53 61 56 62 69 63 87 64 54 65 55 66 68 68
REMARK SMILES IDX 88 69 57 70 42 71 43 72 51 73 44 74 50 75 45 76 46 77 47 78
REMARK SMILES IDX 48 79 49 80 72 81 73 82 81 83 74 84 80 85 75 86 76 87 77 88
REMARK SMILES IDX 78 89 79 90 58 91 59 92 67 93 60 94 66 95 61 96 62 97 63 98
REMARK SMILES IDX 64 99 65 100
REMARK H PARENT 25 6 6 17 12 22 30 37 86 56 56 67
REMARK Flexibility Score: inf
ROOT
ATOM      1  C   UNL A   1      32.780  28.332  26.980  1.00  0.00     0.023 C 
ENDROOT
BRANCH   1   2
ATOM      2  C   UNL A   1      31.737  27.896  25.971  1.00  0.00     0.116 C 
BRANCH   2   3
ATOM      3  N   UNL A   1      30.870  26.818  26.334  1.00  0.00    -0.356 N 
ATOM      4  C   UNL A   1      31.126  25.487  26.162  1.00  0.00     0.229 C 
ATOM      5  O   UNL A   1      30.334  24.686  26.666  1.00  0.00    -0.275 OA
ATOM      6  H   UNL A   1      30.008  27.057  26.747  1.00  0.00     0.163 HD
BRANCH   4   7
ATOM      7  C   UNL A   1      32.288  24.969  25.273  1.00  0.00     0.142 C 
BRANCH   7   8
ATOM      8  C   UNL A   1      33.104  23.966  26.105  1.00  0.00     0.276 C 
BRANCH   8   9
ATOM      9  N   UNL A   1      32.604  22.678  26.614  1.00  0.00    -0.331 N 
ATOM     10  O   UNL A   1      34.974  18.622  24.590  1.00  0.00    -0.279 OA
ATOM     11  C   UNL A   1      33.922  19.211  24.429  1.00  0.00     0.340 C 
ATOM     12  N   UNL A   1      33.525  20.356  25.087  1.00  0.00    -0.334 N 
ATOM     13  C   UNL A   1      32.341  21.079  24.664  1.00  0.00     0.180 C 
ATOM     14  C   UNL A   1      34.438  21.044  26.001  1.00  0.00     0.180 C 
ATOM     15  C   UNL A   1      31.691  21.861  25.813  1.00  0.00     0.284 C 
ATOM     16  C   UNL A   1      33.692  21.806  27.117  1.00  0.00     0.284 C 
ATOM     17  H   UNL A   1      32.003  23.041  27.354  1.00  0.00     0.348 HD
ENDBRANCH   8   9
ENDBRANCH   7   8
BRANCH   7  18
ATOM     18  C   UNL A   1      31.981  24.828  23.776  1.00  0.00     0.119 C 
BRANCH  18  19
ATOM     19  C   UNL A   1      32.353  25.654  22.530  1.00  0.00     0.225 C 
ATOM     20  O   UNL A   1      33.259  25.189  21.817  1.00  0.00    -0.275 OA
ATOM     21  N   UNL A   1      31.738  26.732  21.989  1.00  0.00    -0.325 N 
ATOM     22  H   UNL A   1      32.005  26.878  21.053  1.00  0.00     0.169 HD
BRANCH  21  23
ATOM     23  C   UNL A   1      30.818  27.690  22.426  1.00  0.00     0.059 A 
ATOM     24  C   UNL A   1      29.583  27.402  22.984  1.00  0.00     0.030 A 
ATOM     25  C   UNL A   1      31.201  29.026  22.430  1.00  0.00     0.137 A 
ATOM     26  C   UNL A   1      28.709  28.434  23.326  1.00  0.00     0.035 A 
ATOM     27  N   UNL A   1      30.379  30.057  22.741  1.00  0.00    -0.250 NA
ATOM     28  C   UNL A   1      29.105  29.752  23.123  1.00  0.00     0.144 A 
BRANCH  28  29
ATOM     29  C   UNL A   1      28.083  30.860  23.319  1.00  0.00     0.433 C 
ATOM     30  F   UNL A   1      26.983  30.454  24.016  1.00  0.00    -0.165 F 
ATOM     31  F   UNL A   1      28.570  31.949  23.980  1.00  0.00    -0.165 F 
ATOM     32  F   UNL A   1      27.601  31.346  22.134  1.00  0.00    -0.165 F 
ENDBRANCH  28  29
ENDBRANCH  21  23
ENDBRANCH  18  19
ENDBRANCH   7  18
ENDBRANCH   4   7
ENDBRANCH   2   3
ENDBRANCH   1   2
BRANCH   1  33
ATOM     33  C   UNL A   1      34.194  28.403  26.439  1.00  0.00     0.023 C 
BRANCH  33  34
ATOM     34  C   UNL A   1      35.106  29.413  27.124  1.00  0.00     0.116 C 
BRANCH  34  35
ATOM     35  N   UNL A   1      34.550  30.758  27.239  1.00  0.00    -0.352 N 
ATOM     36  C   UNL A   1      34.935  31.764  28.103  1.00  0.00     0.251 C 
ATOM     37  H   UNL A   1      33.811  30.975  26.626  1.00  0.00     0.163 HD
ATOM     38  O   UNL A   1      34.331  32.829  28.149  1.00  0.00    -0.269 OA
BRANCH  36  39
ATOM     39  C   UNL A   1      36.072  31.499  29.008  1.00  0.00     0.039 A 
ATOM     40  C   UNL A   1      35.948  30.517  29.991  1.00  0.00     0.014 A 
ATOM     41  C   UNL A   1      37.304  32.106  28.755  1.00  0.00     0.014 A 
ATOM     42  C   UNL A   1      37.093  30.061  30.645  1.00  0.00     0.010 A 
ATOM     43  C   UNL A   1      38.451  31.567  29.320  1.00  0.00     0.010 A 
ATOM     44  C   UNL A   1      38.361  30.536  30.269  1.00  0.00    -0.014 A 
BRANCH  44  45
ATOM     45  C   UNL A   1      39.610  29.971  30.843  1.00  0.00     0.031 A 
ATOM     46  C   UNL A   1      40.195  30.570  32.094  1.00  0.00     0.074 A 
ATOM     47  C   UNL A   1      40.262  28.978  30.203  1.00  0.00     0.049 A 
ATOM     48  N   UNL A   1      41.305  30.265  32.715  1.00  0.00    -0.248 NA
ATOM     49  C   UNL A   1      39.454  31.687  32.703  1.00  0.00     0.031 C 
ATOM     50  C   UNL A   1      39.834  28.344  28.953  1.00  0.00     0.029 A 
ATOM     51  N   UNL A   1      41.430  28.328  30.518  1.00  0.00    -0.354 N 
ATOM     52  C   UNL A   1      41.404  31.166  33.769  1.00  0.00     0.074 A 
ATOM     53  C   UNL A   1      40.283  32.072  33.658  1.00  0.00     0.031 C 
ATOM     54  C   UNL A   1      40.697  27.365  28.638  1.00  0.00     0.029 A 
ATOM     55  C   UNL A   1      41.763  27.328  29.634  1.00  0.00     0.049 A 
ATOM     56  H   UNL A   1      41.977  28.555  31.304  1.00  0.00     0.167 HD
ATOM     57  C   UNL A   1      42.326  31.220  34.759  1.00  0.00     0.031 A 
ATOM     58  C   UNL A   1      42.806  26.475  29.627  1.00  0.00     0.031 A 
ATOM     59  C   UNL A   1      43.432  30.309  34.876  1.00  0.00     0.049 A 
ATOM     60  C   UNL A   1      43.824  26.552  30.731  1.00  0.00     0.074 A 
ATOM     61  C   UNL A   1      44.387  30.237  35.873  1.00  0.00     0.029 A 
ATOM     62  N   UNL A   1      43.732  29.311  33.959  1.00  0.00    -0.354 N 
ATOM     63  N   UNL A   1      43.863  27.367  31.759  1.00  0.00    -0.248 NA
ATOM     64  C   UNL A   1      44.931  25.590  30.679  1.00  0.00     0.031 C 
ATOM     65  C   UNL A   1      45.295  29.229  35.534  1.00  0.00     0.029 A 
ATOM     66  C   UNL A   1      44.872  28.634  34.355  1.00  0.00     0.049 A 
ATOM     67  H   UNL A   1      43.211  29.116  33.147  1.00  0.00     0.167 HD
ATOM     68  C   UNL A   1      44.984  26.996  32.492  1.00  0.00     0.074 A 
ATOM     69  C   UNL A   1      45.589  25.880  31.794  1.00  0.00     0.031 C 
ATOM     70  C   UNL A   1      45.466  27.529  33.643  1.00  0.00     0.031 A 
BRANCH  57  71
ATOM     71  C   UNL A   1      42.164  32.314  35.782  1.00  0.00    -0.014 A 
ATOM     72  C   UNL A   1      42.784  33.567  35.612  1.00  0.00     0.010 A 
ATOM     73  C   UNL A   1      41.407  32.080  36.944  1.00  0.00     0.010 A 
ATOM     74  C   UNL A   1      42.714  34.535  36.616  1.00  0.00     0.020 A 
ATOM     75  C   UNL A   1      41.304  33.060  37.936  1.00  0.00     0.020 A 
ATOM     76  C   UNL A   1      41.984  34.269  37.778  1.00  0.00     0.054 A 
BRANCH  76  77
ATOM     77  S   UNL A   1      41.934  35.531  39.079  1.00  0.00     0.124 S 
ATOM     78  O   UNL A   1      41.982  36.766  38.300  1.00  0.00    -0.237 OA
ATOM     79  O   UNL A   1      40.664  35.258  39.745  1.00  0.00    -0.237 OA
ATOM     80  O   UNL A   1      43.126  35.252  39.877  1.00  0.00    -0.744 OA
ENDBRANCH  76  77
ENDBRANCH  57  71
BRANCH  58  81
ATOM     81  C   UNL A   1      42.904  25.438  28.562  1.00  0.00    -0.014 A 
ATOM     82  C   UNL A   1      43.592  25.719  27.368  1.00  0.00     0.010 A 
ATOM     83  C   UNL A   1      42.355  24.157  28.749  1.00  0.00     0.010 A 
ATOM     84  C   UNL A   1      43.731  24.738  26.382  1.00  0.00     0.020 A 
ATOM     85  C   UNL A   1      42.512  23.166  27.774  1.00  0.00     0.020 A 
ATOM     86  C   UNL A   1      43.197  23.464  26.595  1.00  0.00     0.054 A 
BRANCH  86  87
ATOM     87  S   UNL A   1      43.467  22.183  25.338  1.00  0.00     0.124 S 
ATOM     88  O   UNL A   1      44.784  21.674  25.700  1.00  0.00    -0.237 OA
ATOM     89  O   UNL A   1      42.348  21.273  25.574  1.00  0.00    -0.237 OA
ATOM     90  O   UNL A   1      43.403  22.921  24.078  1.00  0.00    -0.744 OA
ENDBRANCH  86  87
ENDBRANCH  58  81
BRANCH  70  91
ATOM     91  C   UNL A   1      46.697  26.898  34.237  1.00  0.00    -0.014 A 
ATOM     92  C   UNL A   1      47.984  27.344  33.896  1.00  0.00     0.010 A 
ATOM     93  C   UNL A   1      46.555  25.879  35.199  1.00  0.00     0.010 A 
ATOM     94  C   UNL A   1      49.111  26.764  34.485  1.00  0.00     0.020 A 
ATOM     95  C   UNL A   1      47.677  25.316  35.810  1.00  0.00     0.020 A 
ATOM     96  C   UNL A   1      48.950  25.754  35.439  1.00  0.00     0.054 A 
BRANCH  96  97
ATOM     97  S   UNL A   1      50.427  25.051  36.224  1.00  0.00     0.124 S 
ATOM     98  O   UNL A   1      49.863  23.944  36.991  1.00  0.00    -0.237 OA
ATOM     99  O   UNL A   1      51.247  24.668  35.078  1.00  0.00    -0.237 OA
ATOM    100  O   UNL A   1      50.955  26.156  37.020  1.00  0.00    -0.744 OA
ENDBRANCH  96  97
ENDBRANCH  70  91
ENDBRANCH  44  45
ENDBRANCH  36  39
ENDBRANCH  34  35
ENDBRANCH  33  34
ENDBRANCH   1  33
TORSDOF 20
ENDMDL
