MODEL 1
REMARK VINA RESULT:     -11.2      0.000      0.000
REMARK SMILES Cc1ncn(CC[C@@H]2CCC[C@@]2([NH3+])C(=O)NCCCCNC(=O)c2ccc(-c3c4nc(c(-c5ccc(S(=O)(=O)[O-])cc5)c5ccc([nH]5)c(-c5ccc(S(=O)(=O)[O-])cc5)c5nc(c(-c6ccc(S(=O)(=O)[O-])cc6)c6ccc3[nH]6)C=C5)C=C4)cc2)c1C
REMARK SMILES IDX 18 1 17 2 16 3 14 4 15 5 12 7 8 8 9 9 10 10 11 11 7 12 6 13
REMARK SMILES IDX 5 14 1 15 2 16 3 17 84 18 4 19 85 20 13 21 19 25 20 26 21 27
REMARK SMILES IDX 22 28 23 30 24 31 25 32 83 33 26 34 82 35 27 36 28 37 29 38
REMARK SMILES IDX 76 39 30 40 81 41 75 42 77 43 31 44 80 45 74 46 73 47 32 49
REMARK SMILES IDX 62 50 43 51 61 52 44 53 47 54 60 55 78 56 45 57 46 58 59 60
REMARK SMILES IDX 79 61 48 62 33 63 34 64 42 65 35 66 41 67 36 68 37 69 38 70
REMARK SMILES IDX 39 71 40 72 63 73 64 74 72 75 65 76 71 77 66 78 67 79 68 80
REMARK SMILES IDX 69 81 70 82 49 83 50 84 58 85 51 86 57 87 52 88 53 89 54 90
REMARK SMILES IDX 55 91 56 92
REMARK H PARENT 16 6 13 22 13 23 13 24 21 29 77 48 47 59
REMARK Flexibility Score: inf
ROOT
ATOM      1  C   UNL A   1      33.150  28.447  25.133  1.00  0.00     0.023 C 
ENDROOT
BRANCH   1   2
ATOM      2  C   UNL A   1      32.132  28.140  24.029  1.00  0.00     0.116 C 
BRANCH   2   3
ATOM      3  N   UNL A   1      32.709  27.416  22.926  1.00  0.00    -0.351 N 
ATOM      4  C   UNL A   1      33.207  26.173  22.754  1.00  0.00     0.281 C 
ATOM      5  O   UNL A   1      33.786  26.033  21.663  1.00  0.00    -0.268 OA
ATOM      6  H   UNL A   1      32.750  27.955  22.102  1.00  0.00     0.163 HD
BRANCH   4   7
ATOM      7  C   UNL A   1      33.212  24.985  23.791  1.00  0.00     0.176 C 
ATOM      8  C   UNL A   1      34.195  24.914  24.994  1.00  0.00     0.062 C 
ATOM      9  C   UNL A   1      33.393  24.099  26.046  1.00  0.00     0.011 C 
ATOM     10  C   UNL A   1      31.944  24.487  25.900  1.00  0.00     0.008 C 
ATOM     11  C   UNL A   1      31.865  25.208  24.574  1.00  0.00     0.079 C 
BRANCH   8  12
ATOM     12  C   UNL A   1      35.574  24.229  24.821  1.00  0.00     0.032 C 
BRANCH  12  13
ATOM     13  C   UNL A   1      36.288  23.975  26.170  1.00  0.00     0.124 C 
BRANCH  13  14
ATOM     14  N   UNL A   1      37.564  23.298  26.011  1.00  0.00    -0.335 N 
ATOM     15  C   UNL A   1      40.749  22.092  27.222  1.00  0.00     0.069 C 
ATOM     16  C   UNL A   1      39.496  22.443  26.518  1.00  0.00     0.058 A 
ATOM     17  N   UNL A   1      38.841  21.509  25.751  1.00  0.00    -0.242 NA
ATOM     18  C   UNL A   1      38.781  23.632  26.560  1.00  0.00     0.037 A 
ATOM     19  C   UNL A   1      37.703  22.071  25.421  1.00  0.00     0.199 A 
ATOM     20  C   UNL A   1      39.118  24.939  27.179  1.00  0.00     0.066 C 
ENDBRANCH  13  14
ENDBRANCH  12  13
ENDBRANCH   8  12
BRANCH   7  21
ATOM     21  N   UNL A   1      33.179  23.706  23.048  1.00  0.00    -0.345 N 
ATOM     22  H   UNL A   1      32.239  23.548  22.684  1.00  0.00     0.345 HD
ATOM     23  H   UNL A   1      33.436  22.942  23.673  1.00  0.00     0.345 HD
ATOM     24  H   UNL A   1      33.841  23.747  22.272  1.00  0.00     0.345 HD
ENDBRANCH   7  21
ENDBRANCH   4   7
ENDBRANCH   2   3
ENDBRANCH   1   2
BRANCH   1  25
ATOM     25  C   UNL A   1      32.610  28.419  26.577  1.00  0.00     0.023 C 
BRANCH  25  26
ATOM     26  C   UNL A   1      33.479  29.125  27.611  1.00  0.00     0.116 C 
BRANCH  26  27
ATOM     27  N   UNL A   1      33.683  30.552  27.333  1.00  0.00    -0.352 N 
ATOM     28  C   UNL A   1      34.735  31.364  27.746  1.00  0.00     0.251 C 
ATOM     29  H   UNL A   1      32.991  30.988  26.786  1.00  0.00     0.163 HD
ATOM     30  O   UNL A   1      34.611  32.576  27.802  1.00  0.00    -0.269 OA
BRANCH  28  31
ATOM     31  C   UNL A   1      36.018  30.718  28.089  1.00  0.00     0.039 A 
ATOM     32  C   UNL A   1      36.427  29.485  27.567  1.00  0.00     0.014 A 
ATOM     33  C   UNL A   1      36.841  31.425  28.954  1.00  0.00     0.014 A 
ATOM     34  C   UNL A   1      37.706  29.018  27.877  1.00  0.00     0.010 A 
ATOM     35  C   UNL A   1      38.158  31.093  29.053  1.00  0.00     0.010 A 
ATOM     36  C   UNL A   1      38.567  29.841  28.618  1.00  0.00    -0.014 A 
BRANCH  36  37
ATOM     37  C   UNL A   1      39.939  29.481  28.943  1.00  0.00     0.031 A 
ATOM     38  C   UNL A   1      40.179  29.176  30.379  1.00  0.00     0.074 A 
ATOM     39  C   UNL A   1      40.811  29.135  27.966  1.00  0.00     0.049 A 
ATOM     40  N   UNL A   1      40.895  29.841  31.222  1.00  0.00    -0.248 NA
ATOM     41  C   UNL A   1      39.410  28.080  30.994  1.00  0.00     0.031 C 
ATOM     42  C   UNL A   1      40.565  29.027  26.517  1.00  0.00     0.029 A 
ATOM     43  N   UNL A   1      42.073  28.652  28.074  1.00  0.00    -0.354 N 
ATOM     44  C   UNL A   1      40.853  29.123  32.415  1.00  0.00     0.074 A 
ATOM     45  C   UNL A   1      39.768  28.187  32.274  1.00  0.00     0.031 C 
ATOM     46  C   UNL A   1      41.533  28.276  25.944  1.00  0.00     0.029 A 
ATOM     47  C   UNL A   1      42.555  28.009  26.936  1.00  0.00     0.049 A 
ATOM     48  H   UNL A   1      42.608  28.747  28.895  1.00  0.00     0.167 HD
ATOM     49  C   UNL A   1      41.875  29.177  33.318  1.00  0.00     0.031 A 
ATOM     50  C   UNL A   1      43.697  27.279  26.837  1.00  0.00     0.031 A 
ATOM     51  C   UNL A   1      42.804  30.227  32.985  1.00  0.00     0.049 A 
ATOM     52  C   UNL A   1      44.542  27.658  27.998  1.00  0.00     0.074 A 
ATOM     53  C   UNL A   1      42.723  31.600  32.866  1.00  0.00     0.029 A 
ATOM     54  N   UNL A   1      43.938  29.849  32.302  1.00  0.00    -0.354 N 
ATOM     55  N   UNL A   1      45.026  28.858  28.170  1.00  0.00    -0.248 NA
ATOM     56  C   UNL A   1      44.430  26.854  29.205  1.00  0.00     0.031 C 
ATOM     57  C   UNL A   1      43.521  31.911  31.727  1.00  0.00     0.029 A 
ATOM     58  C   UNL A   1      44.117  30.732  31.270  1.00  0.00     0.049 A 
ATOM     59  H   UNL A   1      44.517  29.082  32.517  1.00  0.00     0.167 HD
ATOM     60  C   UNL A   1      44.875  29.114  29.527  1.00  0.00     0.074 A 
ATOM     61  C   UNL A   1      44.583  27.810  30.126  1.00  0.00     0.031 C 
ATOM     62  C   UNL A   1      44.713  30.387  29.995  1.00  0.00     0.031 A 
BRANCH  49  63
ATOM     63  C   UNL A   1      42.276  28.047  34.242  1.00  0.00    -0.014 A 
ATOM     64  C   UNL A   1      42.319  28.306  35.630  1.00  0.00     0.010 A 
ATOM     65  C   UNL A   1      42.871  26.849  33.803  1.00  0.00     0.010 A 
ATOM     66  C   UNL A   1      43.016  27.469  36.510  1.00  0.00     0.020 A 
ATOM     67  C   UNL A   1      43.533  25.984  34.678  1.00  0.00     0.020 A 
ATOM     68  C   UNL A   1      43.638  26.322  36.020  1.00  0.00     0.054 A 
BRANCH  68  69
ATOM     69  S   UNL A   1      44.649  25.321  37.137  1.00  0.00     0.124 S 
ATOM     70  O   UNL A   1      44.062  25.637  38.435  1.00  0.00    -0.237 OA
ATOM     71  O   UNL A   1      44.409  23.969  36.642  1.00  0.00    -0.237 OA
ATOM     72  O   UNL A   1      46.002  25.829  36.920  1.00  0.00    -0.744 OA
ENDBRANCH  68  69
ENDBRANCH  49  63
BRANCH  50  73
ATOM     73  C   UNL A   1      43.955  26.066  26.016  1.00  0.00    -0.014 A 
ATOM     74  C   UNL A   1      45.265  25.608  25.773  1.00  0.00     0.010 A 
ATOM     75  C   UNL A   1      42.894  25.189  25.706  1.00  0.00     0.010 A 
ATOM     76  C   UNL A   1      45.505  24.305  25.293  1.00  0.00     0.020 A 
ATOM     77  C   UNL A   1      43.125  23.892  25.226  1.00  0.00     0.020 A 
ATOM     78  C   UNL A   1      44.431  23.447  25.043  1.00  0.00     0.054 A 
BRANCH  78  79
ATOM     79  S   UNL A   1      44.751  21.712  24.591  1.00  0.00     0.124 S 
ATOM     80  O   UNL A   1      44.652  21.745  23.135  1.00  0.00    -0.237 OA
ATOM     81  O   UNL A   1      46.089  21.484  25.128  1.00  0.00    -0.237 OA
ATOM     82  O   UNL A   1      43.682  20.979  25.268  1.00  0.00    -0.744 OA
ENDBRANCH  78  79
ENDBRANCH  50  73
BRANCH  62  83
ATOM     83  C   UNL A   1      44.961  31.548  29.059  1.00  0.00    -0.014 A 
ATOM     84  C   UNL A   1      46.186  32.238  28.965  1.00  0.00     0.010 A 
ATOM     85  C   UNL A   1      43.972  31.803  28.093  1.00  0.00     0.010 A 
ATOM     86  C   UNL A   1      46.409  33.160  27.928  1.00  0.00     0.020 A 
ATOM     87  C   UNL A   1      44.194  32.704  27.052  1.00  0.00     0.020 A 
ATOM     88  C   UNL A   1      45.410  33.383  26.975  1.00  0.00     0.054 A 
BRANCH  88  89
ATOM     89  S   UNL A   1      45.722  34.515  25.590  1.00  0.00     0.124 S 
ATOM     90  O   UNL A   1      45.306  35.804  26.135  1.00  0.00    -0.237 OA
ATOM     91  O   UNL A   1      47.157  34.362  25.360  1.00  0.00    -0.237 OA
ATOM     92  O   UNL A   1      44.874  33.995  24.518  1.00  0.00    -0.744 OA
ENDBRANCH  88  89
ENDBRANCH  62  83
ENDBRANCH  36  37
ENDBRANCH  28  31
ENDBRANCH  26  27
ENDBRANCH  25  26
ENDBRANCH   1  25
TORSDOF 18
ENDMDL
MODEL 2
REMARK VINA RESULT:     -11.0      1.869      3.068
REMARK SMILES Cc1ncn(CC[C@@H]2CCC[C@@]2([NH3+])C(=O)NCCCCNC(=O)c2ccc(-c3c4nc(c(-c5ccc(S(=O)(=O)[O-])cc5)c5ccc([nH]5)c(-c5ccc(S(=O)(=O)[O-])cc5)c5nc(c(-c6ccc(S(=O)(=O)[O-])cc6)c6ccc3[nH]6)C=C5)C=C4)cc2)c1C
REMARK SMILES IDX 18 1 17 2 16 3 14 4 15 5 12 7 8 8 9 9 10 10 11 11 7 12 6 13
REMARK SMILES IDX 5 14 1 15 2 16 3 17 84 18 4 19 85 20 13 21 19 25 20 26 21 27
REMARK SMILES IDX 22 28 23 30 24 31 25 32 83 33 26 34 82 35 27 36 28 37 29 38
REMARK SMILES IDX 76 39 30 40 81 41 75 42 77 43 31 44 80 45 74 46 73 47 32 49
REMARK SMILES IDX 62 50 43 51 61 52 44 53 47 54 60 55 78 56 45 57 46 58 59 60
REMARK SMILES IDX 79 61 48 62 33 63 34 64 42 65 35 66 41 67 36 68 37 69 38 70
REMARK SMILES IDX 39 71 40 72 63 73 64 74 72 75 65 76 71 77 66 78 67 79 68 80
REMARK SMILES IDX 69 81 70 82 49 83 50 84 58 85 51 86 57 87 52 88 53 89 54 90
REMARK SMILES IDX 55 91 56 92
REMARK H PARENT 16 6 13 22 13 23 13 24 21 29 77 48 47 59
REMARK Flexibility Score: inf
ROOT
ATOM      1  C   UNL A   1      34.629  29.943  27.527  1.00  0.00     0.023 C 
ENDROOT
BRANCH   1   2
ATOM      2  C   UNL A   1      33.867  29.070  26.524  1.00  0.00     0.116 C 
BRANCH   2   3
ATOM      3  N   UNL A   1      32.680  29.709  26.019  1.00  0.00    -0.351 N 
ATOM      4  C   UNL A   1      31.654  29.331  25.226  1.00  0.00     0.281 C 
ATOM      5  O   UNL A   1      30.930  30.284  24.889  1.00  0.00    -0.268 OA
ATOM      6  H   UNL A   1      32.596  30.642  26.322  1.00  0.00     0.163 HD
BRANCH   4   7
ATOM      7  C   UNL A   1      31.368  27.895  24.641  1.00  0.00     0.176 C 
ATOM      8  C   UNL A   1      31.056  26.662  25.536  1.00  0.00     0.062 C 
ATOM      9  C   UNL A   1      30.166  25.783  24.614  1.00  0.00     0.011 C 
ATOM     10  C   UNL A   1      29.319  26.719  23.790  1.00  0.00     0.008 C 
ATOM     11  C   UNL A   1      29.962  28.077  23.957  1.00  0.00     0.079 C 
BRANCH   8  12
ATOM     12  C   UNL A   1      32.217  25.774  26.052  1.00  0.00     0.032 C 
BRANCH  12  13
ATOM     13  C   UNL A   1      32.327  24.432  25.288  1.00  0.00     0.124 C 
BRANCH  13  14
ATOM     14  N   UNL A   1      33.697  23.964  25.170  1.00  0.00    -0.335 N 
ATOM     15  C   UNL A   1      36.515  22.667  23.313  1.00  0.00     0.069 C 
ATOM     16  C   UNL A   1      35.532  23.234  24.264  1.00  0.00     0.058 A 
ATOM     17  N   UNL A   1      35.892  24.247  25.120  1.00  0.00    -0.242 NA
ATOM     18  C   UNL A   1      34.184  22.934  24.399  1.00  0.00     0.037 A 
ATOM     19  C   UNL A   1      34.774  24.633  25.686  1.00  0.00     0.199 A 
ATOM     20  C   UNL A   1      33.363  21.872  23.760  1.00  0.00     0.066 C 
ENDBRANCH  13  14
ENDBRANCH  12  13
ENDBRANCH   8  12
BRANCH   7  21
ATOM     21  N   UNL A   1      32.403  27.578  23.631  1.00  0.00    -0.345 N 
ATOM     22  H   UNL A   1      32.011  26.952  22.927  1.00  0.00     0.345 HD
ATOM     23  H   UNL A   1      33.195  27.126  24.086  1.00  0.00     0.345 HD
ATOM     24  H   UNL A   1      32.715  28.440  23.182  1.00  0.00     0.345 HD
ENDBRANCH   7  21
ENDBRANCH   4   7
ENDBRANCH   2   3
ENDBRANCH   1   2
BRANCH   1  25
ATOM     25  C   UNL A   1      34.031  31.337  27.801  1.00  0.00     0.023 C 
BRANCH  25  26
ATOM     26  C   UNL A   1      34.997  32.353  28.401  1.00  0.00     0.116 C 
BRANCH  26  27
ATOM     27  N   UNL A   1      34.643  32.769  29.763  1.00  0.00    -0.352 N 
ATOM     28  C   UNL A   1      35.026  32.185  30.966  1.00  0.00     0.251 C 
ATOM     29  H   UNL A   1      34.062  33.561  29.834  1.00  0.00     0.163 HD
ATOM     30  O   UNL A   1      34.378  32.354  31.984  1.00  0.00    -0.269 OA
BRANCH  28  31
ATOM     31  C   UNL A   1      36.260  31.372  30.981  1.00  0.00     0.039 A 
ATOM     32  C   UNL A   1      36.263  29.972  30.965  1.00  0.00     0.014 A 
ATOM     33  C   UNL A   1      37.453  32.079  30.979  1.00  0.00     0.014 A 
ATOM     34  C   UNL A   1      37.488  29.306  30.874  1.00  0.00     0.010 A 
ATOM     35  C   UNL A   1      38.611  31.446  30.645  1.00  0.00     0.010 A 
ATOM     36  C   UNL A   1      38.657  30.061  30.705  1.00  0.00    -0.014 A 
BRANCH  36  37
ATOM     37  C   UNL A   1      39.977  29.469  30.537  1.00  0.00     0.031 A 
ATOM     38  C   UNL A   1      40.767  29.343  31.790  1.00  0.00     0.074 A 
ATOM     39  C   UNL A   1      40.292  28.800  29.402  1.00  0.00     0.049 A 
ATOM     40  N   UNL A   1      41.855  29.961  32.108  1.00  0.00    -0.248 NA
ATOM     41  C   UNL A   1      40.200  28.544  32.892  1.00  0.00     0.031 C 
ATOM     42  C   UNL A   1      39.437  28.527  28.234  1.00  0.00     0.029 A 
ATOM     43  N   UNL A   1      41.404  28.080  29.112  1.00  0.00    -0.354 N 
ATOM     44  C   UNL A   1      42.236  29.459  33.350  1.00  0.00     0.074 A 
ATOM     45  C   UNL A   1      41.083  28.767  33.866  1.00  0.00     0.031 C 
ATOM     46  C   UNL A   1      39.958  27.507  27.515  1.00  0.00     0.029 A 
ATOM     47  C   UNL A   1      41.262  27.182  28.057  1.00  0.00     0.049 A 
ATOM     48  H   UNL A   1      42.246  28.183  29.611  1.00  0.00     0.167 HD
ATOM     49  C   UNL A   1      43.544  29.431  33.740  1.00  0.00     0.031 A 
ATOM     50  C   UNL A   1      42.146  26.218  27.685  1.00  0.00     0.031 A 
ATOM     51  C   UNL A   1      44.368  30.194  32.837  1.00  0.00     0.049 A 
ATOM     52  C   UNL A   1      43.448  26.581  28.300  1.00  0.00     0.074 A 
ATOM     53  C   UNL A   1      44.423  31.517  32.449  1.00  0.00     0.029 A 
ATOM     54  N   UNL A   1      45.040  29.481  31.869  1.00  0.00    -0.354 N 
ATOM     55  N   UNL A   1      44.111  27.661  27.987  1.00  0.00    -0.248 NA
ATOM     56  C   UNL A   1      43.761  26.013  29.602  1.00  0.00     0.031 C 
ATOM     57  C   UNL A   1      44.690  31.473  31.050  1.00  0.00     0.029 A 
ATOM     58  C   UNL A   1      44.873  30.138  30.678  1.00  0.00     0.049 A 
ATOM     59  H   UNL A   1      45.549  28.650  32.007  1.00  0.00     0.167 HD
ATOM     60  C   UNL A   1      44.591  28.148  29.197  1.00  0.00     0.074 A 
ATOM     61  C   UNL A   1      44.417  27.044  30.143  1.00  0.00     0.031 C 
ATOM     62  C   UNL A   1      44.813  29.482  29.387  1.00  0.00     0.031 A 
BRANCH  49  63
ATOM     63  C   UNL A   1      44.151  28.396  34.662  1.00  0.00    -0.014 A 
ATOM     64  C   UNL A   1      44.814  27.293  34.080  1.00  0.00     0.010 A 
ATOM     65  C   UNL A   1      43.865  28.308  36.039  1.00  0.00     0.010 A 
ATOM     66  C   UNL A   1      45.073  26.126  34.809  1.00  0.00     0.020 A 
ATOM     67  C   UNL A   1      44.158  27.165  36.787  1.00  0.00     0.020 A 
ATOM     68  C   UNL A   1      44.721  26.064  36.156  1.00  0.00     0.054 A 
BRANCH  68  69
ATOM     69  S   UNL A   1      44.935  24.509  37.054  1.00  0.00     0.124 S 
ATOM     70  O   UNL A   1      44.160  23.582  36.235  1.00  0.00    -0.237 OA
ATOM     71  O   UNL A   1      46.383  24.329  37.019  1.00  0.00    -0.237 OA
ATOM     72  O   UNL A   1      44.378  24.798  38.374  1.00  0.00    -0.744 OA
ENDBRANCH  68  69
ENDBRANCH  49  63
BRANCH  50  73
ATOM     73  C   UNL A   1      41.866  24.867  27.129  1.00  0.00    -0.014 A 
ATOM     74  C   UNL A   1      42.679  24.302  26.128  1.00  0.00     0.010 A 
ATOM     75  C   UNL A   1      40.961  24.010  27.790  1.00  0.00     0.010 A 
ATOM     76  C   UNL A   1      42.629  22.924  25.839  1.00  0.00     0.020 A 
ATOM     77  C   UNL A   1      40.904  22.638  27.507  1.00  0.00     0.020 A 
ATOM     78  C   UNL A   1      41.755  22.096  26.547  1.00  0.00     0.054 A 
BRANCH  78  79
ATOM     79  S   UNL A   1      41.818  20.294  26.294  1.00  0.00     0.124 S 
ATOM     80  O   UNL A   1      42.823  20.160  25.244  1.00  0.00    -0.237 OA
ATOM     81  O   UNL A   1      42.209  19.800  27.611  1.00  0.00    -0.237 OA
ATOM     82  O   UNL A   1      40.453  19.957  25.890  1.00  0.00    -0.744 OA
ENDBRANCH  78  79
ENDBRANCH  50  73
BRANCH  62  83
ATOM     83  C   UNL A   1      44.786  30.406  28.190  1.00  0.00    -0.014 A 
ATOM     84  C   UNL A   1      43.612  30.771  27.501  1.00  0.00     0.010 A 
ATOM     85  C   UNL A   1      45.977  31.091  27.895  1.00  0.00     0.010 A 
ATOM     86  C   UNL A   1      43.636  31.795  26.540  1.00  0.00     0.020 A 
ATOM     87  C   UNL A   1      46.004  32.120  26.953  1.00  0.00     0.020 A 
ATOM     88  C   UNL A   1      44.835  32.467  26.276  1.00  0.00     0.054 A 
BRANCH  88  89
ATOM     89  S   UNL A   1      44.855  33.842  25.092  1.00  0.00     0.124 S 
ATOM     90  O   UNL A   1      44.460  33.193  23.845  1.00  0.00    -0.237 OA
ATOM     91  O   UNL A   1      43.879  34.773  25.655  1.00  0.00    -0.237 OA
ATOM     92  O   UNL A   1      46.239  34.314  25.129  1.00  0.00    -0.744 OA
ENDBRANCH  88  89
ENDBRANCH  62  83
ENDBRANCH  36  37
ENDBRANCH  28  31
ENDBRANCH  26  27
ENDBRANCH  25  26
ENDBRANCH   1  25
TORSDOF 18
ENDMDL
MODEL 3
REMARK VINA RESULT:     -11.0      3.771     10.713
REMARK SMILES Cc1ncn(CC[C@@H]2CCC[C@@]2([NH3+])C(=O)NCCCCNC(=O)c2ccc(-c3c4nc(c(-c5ccc(S(=O)(=O)[O-])cc5)c5ccc([nH]5)c(-c5ccc(S(=O)(=O)[O-])cc5)c5nc(c(-c6ccc(S(=O)(=O)[O-])cc6)c6ccc3[nH]6)C=C5)C=C4)cc2)c1C
REMARK SMILES IDX 18 1 17 2 16 3 14 4 15 5 12 7 8 8 9 9 10 10 11 11 7 12 6 13
REMARK SMILES IDX 5 14 1 15 2 16 3 17 84 18 4 19 85 20 13 21 19 25 20 26 21 27
REMARK SMILES IDX 22 28 23 30 24 31 25 32 83 33 26 34 82 35 27 36 28 37 29 38
REMARK SMILES IDX 76 39 30 40 81 41 75 42 77 43 31 44 80 45 74 46 73 47 32 49
REMARK SMILES IDX 62 50 43 51 61 52 44 53 47 54 60 55 78 56 45 57 46 58 59 60
REMARK SMILES IDX 79 61 48 62 33 63 34 64 42 65 35 66 41 67 36 68 37 69 38 70
REMARK SMILES IDX 39 71 40 72 63 73 64 74 72 75 65 76 71 77 66 78 67 79 68 80
REMARK SMILES IDX 69 81 70 82 49 83 50 84 58 85 51 86 57 87 52 88 53 89 54 90
REMARK SMILES IDX 55 91 56 92
REMARK H PARENT 16 6 13 22 13 23 13 24 21 29 77 48 47 59
REMARK Flexibility Score: inf
ROOT
ATOM      1  C   UNL A   1      43.251  21.107  26.401  1.00  0.00     0.023 C 
ENDROOT
BRANCH   1   2
ATOM      2  C   UNL A   1      43.782  21.710  25.095  1.00  0.00     0.116 C 
BRANCH   2   3
ATOM      3  N   UNL A   1      43.279  23.036  24.850  1.00  0.00    -0.351 N 
ATOM      4  C   UNL A   1      43.723  24.287  25.098  1.00  0.00     0.281 C 
ATOM      5  O   UNL A   1      42.860  25.155  24.879  1.00  0.00    -0.268 OA
ATOM      6  H   UNL A   1      42.406  23.030  24.394  1.00  0.00     0.163 HD
BRANCH   4   7
ATOM      7  C   UNL A   1      45.116  24.714  25.700  1.00  0.00     0.176 C 
ATOM      8  C   UNL A   1      45.559  26.198  25.842  1.00  0.00     0.062 C 
ATOM      9  C   UNL A   1      46.520  26.156  27.062  1.00  0.00     0.011 C 
ATOM     10  C   UNL A   1      45.976  25.129  28.022  1.00  0.00     0.008 C 
ATOM     11  C   UNL A   1      44.960  24.346  27.222  1.00  0.00     0.079 C 
BRANCH   8  12
ATOM     12  C   UNL A   1      46.309  26.892  24.677  1.00  0.00     0.032 C 
BRANCH  12  13
ATOM     13  C   UNL A   1      47.594  27.618  25.143  1.00  0.00     0.124 C 
BRANCH  13  14
ATOM     14  N   UNL A   1      48.783  27.157  24.447  1.00  0.00    -0.335 N 
ATOM     15  C   UNL A   1      51.522  27.561  22.122  1.00  0.00     0.069 C 
ATOM     16  C   UNL A   1      50.525  27.182  23.148  1.00  0.00     0.058 A 
ATOM     17  N   UNL A   1      50.924  26.606  24.331  1.00  0.00    -0.242 NA
ATOM     18  C   UNL A   1      49.152  27.388  23.142  1.00  0.00     0.037 A 
ATOM     19  C   UNL A   1      49.844  26.560  25.073  1.00  0.00     0.199 A 
ATOM     20  C   UNL A   1      48.258  27.896  22.070  1.00  0.00     0.066 C 
ENDBRANCH  13  14
ENDBRANCH  12  13
ENDBRANCH   8  12
BRANCH   7  21
ATOM     21  N   UNL A   1      46.176  23.895  25.070  1.00  0.00    -0.345 N 
ATOM     22  H   UNL A   1      45.889  22.916  25.060  1.00  0.00     0.345 HD
ATOM     23  H   UNL A   1      47.041  23.991  25.602  1.00  0.00     0.345 HD
ATOM     24  H   UNL A   1      46.329  24.214  24.113  1.00  0.00     0.345 HD
ENDBRANCH   7  21
ENDBRANCH   4   7
ENDBRANCH   2   3
ENDBRANCH   1   2
BRANCH   1  25
ATOM     25  C   UNL A   1      42.039  20.164  26.266  1.00  0.00     0.023 C 
BRANCH  25  26
ATOM     26  C   UNL A   1      40.765  20.639  26.955  1.00  0.00     0.116 C 
BRANCH  26  27
ATOM     27  N   UNL A   1      39.763  21.181  26.029  1.00  0.00    -0.352 N 
ATOM     28  C   UNL A   1      39.026  22.356  26.153  1.00  0.00     0.251 C 
ATOM     29  H   UNL A   1      39.589  20.648  25.221  1.00  0.00     0.163 HD
ATOM     30  O   UNL A   1      37.973  22.505  25.559  1.00  0.00    -0.269 OA
BRANCH  28  31
ATOM     31  C   UNL A   1      39.572  23.431  27.007  1.00  0.00     0.039 A 
ATOM     32  C   UNL A   1      40.842  23.382  27.593  1.00  0.00     0.014 A 
ATOM     33  C   UNL A   1      38.757  24.540  27.182  1.00  0.00     0.014 A 
ATOM     34  C   UNL A   1      41.299  24.501  28.294  1.00  0.00     0.010 A 
ATOM     35  C   UNL A   1      39.293  25.702  27.646  1.00  0.00     0.010 A 
ATOM     36  C   UNL A   1      40.513  25.661  28.305  1.00  0.00    -0.014 A 
BRANCH  36  37
ATOM     37  C   UNL A   1      40.919  26.901  28.950  1.00  0.00     0.031 A 
ATOM     38  C   UNL A   1      42.019  27.628  28.264  1.00  0.00     0.074 A 
ATOM     39  C   UNL A   1      40.130  27.481  29.886  1.00  0.00     0.049 A 
ATOM     40  N   UNL A   1      43.221  27.834  28.689  1.00  0.00    -0.248 NA
ATOM     41  C   UNL A   1      41.807  28.053  26.868  1.00  0.00     0.031 C 
ATOM     42  C   UNL A   1      38.811  27.040  30.371  1.00  0.00     0.029 A 
ATOM     43  N   UNL A   1      40.268  28.683  30.499  1.00  0.00    -0.354 N 
ATOM     44  C   UNL A   1      43.847  28.611  27.716  1.00  0.00     0.074 A 
ATOM     45  C   UNL A   1      43.011  28.527  26.546  1.00  0.00     0.031 C 
ATOM     46  C   UNL A   1      38.178  28.071  30.976  1.00  0.00     0.029 A 
ATOM     47  C   UNL A   1      39.107  29.178  31.087  1.00  0.00     0.049 A 
ATOM     48  H   UNL A   1      41.124  29.169  30.524  1.00  0.00     0.167 HD
ATOM     49  C   UNL A   1      44.862  29.467  28.029  1.00  0.00     0.031 A 
ATOM     50  C   UNL A   1      38.921  30.425  31.595  1.00  0.00     0.031 A 
ATOM     51  C   UNL A   1      45.323  29.250  29.377  1.00  0.00     0.049 A 
ATOM     52  C   UNL A   1      40.274  30.997  31.815  1.00  0.00     0.074 A 
ATOM     53  C   UNL A   1      45.892  28.192  30.055  1.00  0.00     0.029 A 
ATOM     54  N   UNL A   1      44.824  30.099  30.340  1.00  0.00    -0.354 N 
ATOM     55  N   UNL A   1      41.129  30.505  32.669  1.00  0.00    -0.248 NA
ATOM     56  C   UNL A   1      40.852  31.792  30.742  1.00  0.00     0.031 C 
ATOM     57  C   UNL A   1      45.282  28.216  31.342  1.00  0.00     0.029 A 
ATOM     58  C   UNL A   1      44.447  29.335  31.413  1.00  0.00     0.049 A 
ATOM     59  H   UNL A   1      44.752  31.078  30.271  1.00  0.00     0.167 HD
ATOM     60  C   UNL A   1      42.355  30.557  32.017  1.00  0.00     0.074 A 
ATOM     61  C   UNL A   1      42.135  31.438  30.870  1.00  0.00     0.031 C 
ATOM     62  C   UNL A   1      43.346  29.660  32.298  1.00  0.00     0.031 A 
BRANCH  49  63
ATOM     63  C   UNL A   1      45.159  30.761  27.304  1.00  0.00    -0.014 A 
ATOM     64  C   UNL A   1      46.489  31.004  26.893  1.00  0.00     0.010 A 
ATOM     65  C   UNL A   1      44.272  31.854  27.254  1.00  0.00     0.010 A 
ATOM     66  C   UNL A   1      46.929  32.291  26.561  1.00  0.00     0.020 A 
ATOM     67  C   UNL A   1      44.690  33.134  26.882  1.00  0.00     0.020 A 
ATOM     68  C   UNL A   1      46.027  33.353  26.581  1.00  0.00     0.054 A 
BRANCH  68  69
ATOM     69  S   UNL A   1      46.632  35.032  26.283  1.00  0.00     0.124 S 
ATOM     70  O   UNL A   1      47.508  34.834  25.133  1.00  0.00    -0.237 OA
ATOM     71  O   UNL A   1      45.396  35.763  26.023  1.00  0.00    -0.237 OA
ATOM     72  O   UNL A   1      47.306  35.377  27.533  1.00  0.00    -0.744 OA
ENDBRANCH  68  69
ENDBRANCH  49  63
BRANCH  50  73
ATOM     73  C   UNL A   1      37.687  31.256  31.586  1.00  0.00    -0.014 A 
ATOM     74  C   UNL A   1      36.792  31.254  32.674  1.00  0.00     0.010 A 
ATOM     75  C   UNL A   1      37.533  32.275  30.623  1.00  0.00     0.010 A 
ATOM     76  C   UNL A   1      35.820  32.263  32.821  1.00  0.00     0.020 A 
ATOM     77  C   UNL A   1      36.567  33.282  30.762  1.00  0.00     0.020 A 
ATOM     78  C   UNL A   1      35.729  33.284  31.873  1.00  0.00     0.054 A 
BRANCH  78  79
ATOM     79  S   UNL A   1      34.592  34.678  32.157  1.00  0.00     0.124 S 
ATOM     80  O   UNL A   1      33.503  34.048  32.896  1.00  0.00    -0.237 OA
ATOM     81  O   UNL A   1      35.416  35.612  32.919  1.00  0.00    -0.237 OA
ATOM     82  O   UNL A   1      34.247  35.120  30.806  1.00  0.00    -0.744 OA
ENDBRANCH  78  79
ENDBRANCH  50  73
BRANCH  62  83
ATOM     83  C   UNL A   1      43.204  28.768  33.511  1.00  0.00    -0.014 A 
ATOM     84  C   UNL A   1      43.624  29.125  34.808  1.00  0.00     0.010 A 
ATOM     85  C   UNL A   1      42.421  27.611  33.354  1.00  0.00     0.010 A 
ATOM     86  C   UNL A   1      43.267  28.339  35.917  1.00  0.00     0.020 A 
ATOM     87  C   UNL A   1      42.049  26.836  34.453  1.00  0.00     0.020 A 
ATOM     88  C   UNL A   1      42.476  27.200  35.730  1.00  0.00     0.054 A 
BRANCH  88  89
ATOM     89  S   UNL A   1      41.948  26.225  37.168  1.00  0.00     0.124 S 
ATOM     90  O   UNL A   1      40.655  26.819  37.495  1.00  0.00    -0.237 OA
ATOM     91  O   UNL A   1      41.901  24.863  36.639  1.00  0.00    -0.237 OA
ATOM     92  O   UNL A   1      43.002  26.459  38.154  1.00  0.00    -0.744 OA
ENDBRANCH  88  89
ENDBRANCH  62  83
ENDBRANCH  36  37
ENDBRANCH  28  31
ENDBRANCH  26  27
ENDBRANCH  25  26
ENDBRANCH   1  25
TORSDOF 18
ENDMDL
