MODEL 1
REMARK VINA RESULT:     -11.7      0.000      0.000
REMARK SMILES COc1ccc(-c2cc(Cl)cc3c2O[C@@H](C(F)(F)F)C(C(=O)NCCCCNC(=O)c2ccc(-c4c5nc(c(-c6ccc(S(=O)(=O)[O-])cc6)c6ccc([nH]6)c(-c6ccc(S(=O)(=O)[O-])cc6)c6nc(c(-c7ccc(S(=O)(=O)[O-])cc7)c7ccc4[nH]7)C=C6)C=C5)cc2)=C3)cc1C
REMARK SMILES IDX 26 1 25 2 24 3 23 4 21 5 22 6 20 8 7 9 8 10 13 11 9 12 12 13
REMARK SMILES IDX 14 14 10 15 11 16 91 17 15 18 6 19 3 20 4 21 93 22 5 23
REMARK SMILES IDX 92 24 94 25 2 26 1 27 16 28 17 29 18 30 19 31 27 32 28 33
REMARK SMILES IDX 29 34 30 36 31 37 32 38 90 39 33 40 89 41 34 42 35 43 36 44
REMARK SMILES IDX 83 45 37 46 88 47 82 48 84 49 38 50 87 51 81 52 80 53 39 55
REMARK SMILES IDX 69 56 50 57 68 58 51 59 54 60 67 61 85 62 52 63 53 64 66 66
REMARK SMILES IDX 86 67 55 68 40 69 41 70 49 71 42 72 48 73 43 74 44 75 45 76
REMARK SMILES IDX 46 77 47 78 70 79 71 80 79 81 72 82 78 83 73 84 74 85 75 86
REMARK SMILES IDX 76 87 77 88 56 89 57 90 65 91 58 92 64 93 59 94 60 95 61 96
REMARK SMILES IDX 62 97 63 98
REMARK H PARENT 23 7 28 35 84 54 54 65
REMARK Flexibility Score: inf
ROOT
ATOM      1  C   UNL A   1      37.660  24.343  26.548  1.00  0.00     0.023 C 
ENDROOT
BRANCH   1   2
ATOM      2  C   UNL A   1      36.845  23.358  25.740  1.00  0.00     0.023 C 
BRANCH   2   3
ATOM      3  C   UNL A   1      35.548  23.797  25.052  1.00  0.00     0.116 C 
BRANCH   3   4
ATOM      4  N   UNL A   1      34.549  24.651  25.690  1.00  0.00    -0.352 N 
ATOM      5  C   UNL A   1      33.159  24.679  25.645  1.00  0.00     0.251 C 
ATOM      6  O   UNL A   1      32.577  25.273  26.556  1.00  0.00    -0.270 OA
ATOM      7  H   UNL A   1      34.938  25.345  26.270  1.00  0.00     0.163 HD
BRANCH   5   8
ATOM      8  C   UNL A   1      32.309  24.150  24.456  1.00  0.00     0.067 C 
ATOM      9  C   UNL A   1      31.897  27.986  24.196  1.00  0.00     0.026 A 
ATOM     10  C   UNL A   1      30.665  28.582  23.818  1.00  0.00     0.033 A 
ATOM     11  C   UNL A   1      32.029  26.638  23.842  1.00  0.00     0.135 A 
ATOM     12  C   UNL A   1      29.592  27.816  23.356  1.00  0.00     0.042 A 
ATOM     13  C   UNL A   1      30.848  25.864  23.877  1.00  0.00     0.019 A 
ATOM     14  O   UNL A   1      33.219  25.981  23.355  1.00  0.00    -0.475 OA
ATOM     15  Cl  UNL A   1      28.124  28.580  22.892  1.00  0.00    -0.084 Cl
ATOM     16  C   UNL A   1      29.652  26.433  23.459  1.00  0.00     0.032 A 
ATOM     17  C   UNL A   1      30.988  24.449  24.370  1.00  0.00     0.025 C 
ATOM     18  C   UNL A   1      32.892  24.536  23.132  1.00  0.00     0.314 C 
BRANCH   9  19
ATOM     19  C   UNL A   1      32.480  28.601  25.447  1.00  0.00    -0.014 A 
ATOM     20  C   UNL A   1      33.750  30.240  27.423  1.00  0.00     0.121 A 
ATOM     21  C   UNL A   1      34.335  29.051  26.960  1.00  0.00     0.047 A 
ATOM     22  C   UNL A   1      32.508  30.633  26.926  1.00  0.00    -0.008 A 
ATOM     23  C   UNL A   1      33.712  28.238  25.987  1.00  0.00     0.013 A 
ATOM     24  C   UNL A   1      31.873  29.780  25.987  1.00  0.00     0.016 A 
ATOM     25  C   UNL A   1      31.872  31.949  27.291  1.00  0.00     0.048 C 
BRANCH  20  26
ATOM     26  O   UNL A   1      34.541  31.030  28.220  1.00  0.00    -0.496 OA
ATOM     27  C   UNL A   1      34.961  32.253  27.615  1.00  0.00     0.278 C 
ENDBRANCH  20  26
ENDBRANCH   9  19
BRANCH  18  28
ATOM     28  C   UNL A   1      33.677  23.268  22.664  1.00  0.00     0.429 C 
ATOM     29  F   UNL A   1      33.367  22.230  23.497  1.00  0.00    -0.167 F 
ATOM     30  F   UNL A   1      33.368  22.865  21.417  1.00  0.00    -0.167 F 
ATOM     31  F   UNL A   1      35.028  23.378  22.757  1.00  0.00    -0.167 F 
ENDBRANCH  18  28
ENDBRANCH   5   8
ENDBRANCH   3   4
ENDBRANCH   2   3
ENDBRANCH   1   2
BRANCH   1  32
ATOM     32  C   UNL A   1      39.147  24.192  26.392  1.00  0.00     0.116 C 
BRANCH  32  33
ATOM     33  N   UNL A   1      39.823  24.641  27.572  1.00  0.00    -0.352 N 
ATOM     34  C   UNL A   1      40.256  25.869  27.966  1.00  0.00     0.251 C 
ATOM     35  H   UNL A   1      40.009  23.925  28.222  1.00  0.00     0.163 HD
ATOM     36  O   UNL A   1      40.724  25.878  29.091  1.00  0.00    -0.269 OA
BRANCH  34  37
ATOM     37  C   UNL A   1      39.940  27.127  27.183  1.00  0.00     0.039 A 
ATOM     38  C   UNL A   1      41.056  27.974  27.164  1.00  0.00     0.014 A 
ATOM     39  C   UNL A   1      38.710  27.687  27.527  1.00  0.00     0.014 A 
ATOM     40  C   UNL A   1      41.090  29.016  28.070  1.00  0.00     0.010 A 
ATOM     41  C   UNL A   1      38.733  28.617  28.521  1.00  0.00     0.010 A 
ATOM     42  C   UNL A   1      39.961  29.182  28.852  1.00  0.00    -0.014 A 
BRANCH  42  43
ATOM     43  C   UNL A   1      39.943  29.856  30.122  1.00  0.00     0.031 A 
ATOM     44  C   UNL A   1      39.307  31.172  30.100  1.00  0.00     0.074 A 
ATOM     45  C   UNL A   1      40.304  29.065  31.157  1.00  0.00     0.049 A 
ATOM     46  N   UNL A   1      39.461  32.092  30.976  1.00  0.00    -0.248 NA
ATOM     47  C   UNL A   1      38.483  31.606  28.961  1.00  0.00     0.031 C 
ATOM     48  C   UNL A   1      40.088  29.180  32.592  1.00  0.00     0.029 A 
ATOM     49  N   UNL A   1      41.198  27.999  31.054  1.00  0.00    -0.354 N 
ATOM     50  C   UNL A   1      38.452  33.006  30.742  1.00  0.00     0.074 A 
ATOM     51  C   UNL A   1      38.035  32.787  29.386  1.00  0.00     0.031 C 
ATOM     52  C   UNL A   1      41.019  28.432  33.227  1.00  0.00     0.029 A 
ATOM     53  C   UNL A   1      41.963  27.948  32.213  1.00  0.00     0.049 A 
ATOM     54  H   UNL A   1      41.275  27.386  30.288  1.00  0.00     0.167 HD
ATOM     55  C   UNL A   1      37.911  33.647  31.814  1.00  0.00     0.031 A 
ATOM     56  C   UNL A   1      43.265  28.374  32.125  1.00  0.00     0.031 A 
ATOM     57  C   UNL A   1      38.677  33.304  33.017  1.00  0.00     0.049 A 
ATOM     58  C   UNL A   1      43.416  29.729  32.815  1.00  0.00     0.074 A 
ATOM     59  C   UNL A   1      38.456  32.372  34.019  1.00  0.00     0.029 A 
ATOM     60  N   UNL A   1      40.043  33.587  33.042  1.00  0.00    -0.354 N 
ATOM     61  N   UNL A   1      42.497  30.662  32.852  1.00  0.00    -0.248 NA
ATOM     62  C   UNL A   1      44.596  30.071  33.603  1.00  0.00     0.031 C 
ATOM     63  C   UNL A   1      39.728  31.992  34.542  1.00  0.00     0.029 A 
ATOM     64  C   UNL A   1      40.713  32.702  33.871  1.00  0.00     0.049 A 
ATOM     65  H   UNL A   1      40.471  34.317  32.540  1.00  0.00     0.167 HD
ATOM     66  C   UNL A   1      42.910  31.676  33.678  1.00  0.00     0.074 A 
ATOM     67  C   UNL A   1      44.239  31.263  34.110  1.00  0.00     0.031 C 
ATOM     68  C   UNL A   1      42.165  32.779  33.990  1.00  0.00     0.031 A 
BRANCH  55  69
ATOM     69  C   UNL A   1      36.531  34.271  31.825  1.00  0.00    -0.014 A 
ATOM     70  C   UNL A   1      36.132  35.019  32.951  1.00  0.00     0.010 A 
ATOM     71  C   UNL A   1      35.557  34.120  30.815  1.00  0.00     0.010 A 
ATOM     72  C   UNL A   1      34.838  35.549  33.076  1.00  0.00     0.020 A 
ATOM     73  C   UNL A   1      34.255  34.633  30.930  1.00  0.00     0.020 A 
ATOM     74  C   UNL A   1      33.902  35.347  32.066  1.00  0.00     0.054 A 
BRANCH  74  75
ATOM     75  S   UNL A   1      32.240  36.044  32.240  1.00  0.00     0.124 S 
ATOM     76  O   UNL A   1      32.448  37.113  33.212  1.00  0.00    -0.237 OA
ATOM     77  O   UNL A   1      31.939  36.477  30.879  1.00  0.00    -0.237 OA
ATOM     78  O   UNL A   1      31.439  34.919  32.723  1.00  0.00    -0.744 OA
ENDBRANCH  74  75
ENDBRANCH  55  69
BRANCH  56  79
ATOM     79  C   UNL A   1      43.975  27.981  30.846  1.00  0.00    -0.014 A 
ATOM     80  C   UNL A   1      43.970  26.627  30.426  1.00  0.00     0.010 A 
ATOM     81  C   UNL A   1      44.387  28.940  29.906  1.00  0.00     0.010 A 
ATOM     82  C   UNL A   1      44.256  26.261  29.092  1.00  0.00     0.020 A 
ATOM     83  C   UNL A   1      44.668  28.578  28.568  1.00  0.00     0.020 A 
ATOM     84  C   UNL A   1      44.546  27.247  28.151  1.00  0.00     0.054 A 
BRANCH  84  85
ATOM     85  S   UNL A   1      44.719  26.800  26.377  1.00  0.00     0.124 S 
ATOM     86  O   UNL A   1      46.106  26.349  26.291  1.00  0.00    -0.237 OA
ATOM     87  O   UNL A   1      43.721  25.759  26.149  1.00  0.00    -0.237 OA
ATOM     88  O   UNL A   1      44.435  28.057  25.686  1.00  0.00    -0.744 OA
ENDBRANCH  84  85
ENDBRANCH  56  79
BRANCH  68  89
ATOM     89  C   UNL A   1      42.763  34.071  34.497  1.00  0.00    -0.014 A 
ATOM     90  C   UNL A   1      42.889  34.376  35.861  1.00  0.00     0.010 A 
ATOM     91  C   UNL A   1      43.394  34.948  33.582  1.00  0.00     0.010 A 
ATOM     92  C   UNL A   1      43.531  35.543  36.288  1.00  0.00     0.020 A 
ATOM     93  C   UNL A   1      44.102  36.074  34.001  1.00  0.00     0.020 A 
ATOM     94  C   UNL A   1      44.131  36.385  35.353  1.00  0.00     0.054 A 
BRANCH  94  95
ATOM     95  S   UNL A   1      44.975  37.874  35.927  1.00  0.00     0.124 S 
ATOM     96  O   UNL A   1      46.202  37.842  35.134  1.00  0.00    -0.237 OA
ATOM     97  O   UNL A   1      44.032  38.935  35.582  1.00  0.00    -0.237 OA
ATOM     98  O   UNL A   1      45.149  37.644  37.359  1.00  0.00    -0.744 OA
ENDBRANCH  94  95
ENDBRANCH  68  89
ENDBRANCH  42  43
ENDBRANCH  34  37
ENDBRANCH  32  33
ENDBRANCH   1  32
TORSDOF 17
ENDMDL
MODEL 2
REMARK VINA RESULT:     -11.5      3.338      8.679
REMARK SMILES COc1ccc(-c2cc(Cl)cc3c2O[C@@H](C(F)(F)F)C(C(=O)NCCCCNC(=O)c2ccc(-c4c5nc(c(-c6ccc(S(=O)(=O)[O-])cc6)c6ccc([nH]6)c(-c6ccc(S(=O)(=O)[O-])cc6)c6nc(c(-c7ccc(S(=O)(=O)[O-])cc7)c7ccc4[nH]7)C=C6)C=C5)cc2)=C3)cc1C
REMARK SMILES IDX 26 1 25 2 24 3 23 4 21 5 22 6 20 8 7 9 8 10 13 11 9 12 12 13
REMARK SMILES IDX 14 14 10 15 11 16 91 17 15 18 6 19 3 20 4 21 93 22 5 23
REMARK SMILES IDX 92 24 94 25 2 26 1 27 16 28 17 29 18 30 19 31 27 32 28 33
REMARK SMILES IDX 29 34 30 36 31 37 32 38 90 39 33 40 89 41 34 42 35 43 36 44
REMARK SMILES IDX 83 45 37 46 88 47 82 48 84 49 38 50 87 51 81 52 80 53 39 55
REMARK SMILES IDX 69 56 50 57 68 58 51 59 54 60 67 61 85 62 52 63 53 64 66 66
REMARK SMILES IDX 86 67 55 68 40 69 41 70 49 71 42 72 48 73 43 74 44 75 45 76
REMARK SMILES IDX 46 77 47 78 70 79 71 80 79 81 72 82 78 83 73 84 74 85 75 86
REMARK SMILES IDX 76 87 77 88 56 89 57 90 65 91 58 92 64 93 59 94 60 95 61 96
REMARK SMILES IDX 62 97 63 98
REMARK H PARENT 23 7 28 35 84 54 54 65
REMARK Flexibility Score: inf
ROOT
ATOM      1  C   UNL A   1      33.263  29.155  25.861  1.00  0.00     0.023 C 
ENDROOT
BRANCH   1   2
ATOM      2  C   UNL A   1      32.610  27.902  26.403  1.00  0.00     0.023 C 
BRANCH   2   3
ATOM      3  C   UNL A   1      33.362  26.567  26.400  1.00  0.00     0.116 C 
BRANCH   3   4
ATOM      4  N   UNL A   1      34.307  26.178  25.356  1.00  0.00    -0.352 N 
ATOM      5  C   UNL A   1      34.759  24.946  24.899  1.00  0.00     0.251 C 
ATOM      6  O   UNL A   1      35.276  24.914  23.779  1.00  0.00    -0.270 OA
ATOM      7  H   UNL A   1      34.702  26.944  24.880  1.00  0.00     0.163 HD
BRANCH   5   8
ATOM      8  C   UNL A   1      34.793  23.650  25.758  1.00  0.00     0.067 C 
ATOM      9  C   UNL A   1      31.125  23.809  24.542  1.00  0.00     0.026 A 
ATOM     10  C   UNL A   1      30.043  23.421  25.376  1.00  0.00     0.033 A 
ATOM     11  C   UNL A   1      32.373  23.310  24.933  1.00  0.00     0.135 A 
ATOM     12  C   UNL A   1      30.256  22.804  26.611  1.00  0.00     0.042 A 
ATOM     13  C   UNL A   1      32.587  23.177  26.323  1.00  0.00     0.019 A 
ATOM     14  O   UNL A   1      33.426  22.831  24.068  1.00  0.00    -0.475 OA
ATOM     15  Cl  UNL A   1      28.917  22.335  27.582  1.00  0.00    -0.084 Cl
ATOM     16  C   UNL A   1      31.542  22.750  27.131  1.00  0.00     0.032 A 
ATOM     17  C   UNL A   1      33.966  23.512  26.825  1.00  0.00     0.025 C 
ATOM     18  C   UNL A   1      34.583  22.421  24.929  1.00  0.00     0.314 C 
BRANCH   9  19
ATOM     19  C   UNL A   1      30.908  25.158  23.898  1.00  0.00    -0.014 A 
ATOM     20  C   UNL A   1      30.957  27.903  23.081  1.00  0.00     0.121 A 
ATOM     21  C   UNL A   1      29.897  27.373  23.833  1.00  0.00     0.047 A 
ATOM     22  C   UNL A   1      32.011  27.073  22.702  1.00  0.00    -0.008 A 
ATOM     23  C   UNL A   1      29.867  26.019  24.238  1.00  0.00     0.013 A 
ATOM     24  C   UNL A   1      31.942  25.706  23.072  1.00  0.00     0.016 A 
ATOM     25  C   UNL A   1      33.234  27.595  21.992  1.00  0.00     0.048 C 
BRANCH  20  26
ATOM     26  O   UNL A   1      30.958  29.266  22.920  1.00  0.00    -0.496 OA
ATOM     27  C   UNL A   1      29.952  29.761  22.036  1.00  0.00     0.278 C 
ENDBRANCH  20  26
ENDBRANCH   9  19
BRANCH  18  28
ATOM     28  C   UNL A   1      36.021  21.863  24.682  1.00  0.00     0.429 C 
ATOM     29  F   UNL A   1      35.981  20.500  24.768  1.00  0.00    -0.167 F 
ATOM     30  F   UNL A   1      36.517  22.155  23.464  1.00  0.00    -0.167 F 
ATOM     31  F   UNL A   1      36.935  22.231  25.617  1.00  0.00    -0.167 F 
ENDBRANCH  18  28
ENDBRANCH   5   8
ENDBRANCH   3   4
ENDBRANCH   2   3
ENDBRANCH   1   2
BRANCH   1  32
ATOM     32  C   UNL A   1      34.055  29.930  26.875  1.00  0.00     0.116 C 
BRANCH  32  33
ATOM     33  N   UNL A   1      35.435  29.547  26.832  1.00  0.00    -0.352 N 
ATOM     34  C   UNL A   1      36.523  29.970  27.531  1.00  0.00     0.251 C 
ATOM     35  H   UNL A   1      35.634  28.845  26.171  1.00  0.00     0.163 HD
ATOM     36  O   UNL A   1      37.536  29.344  27.272  1.00  0.00    -0.269 OA
BRANCH  34  37
ATOM     37  C   UNL A   1      36.412  30.935  28.693  1.00  0.00     0.039 A 
ATOM     38  C   UNL A   1      37.264  32.029  28.492  1.00  0.00     0.014 A 
ATOM     39  C   UNL A   1      36.457  30.301  29.933  1.00  0.00     0.014 A 
ATOM     40  C   UNL A   1      38.490  32.016  29.128  1.00  0.00     0.010 A 
ATOM     41  C   UNL A   1      37.691  30.168  30.492  1.00  0.00     0.010 A 
ATOM     42  C   UNL A   1      38.720  30.959  29.989  1.00  0.00    -0.014 A 
BRANCH  42  43
ATOM     43  C   UNL A   1      40.024  30.495  30.378  1.00  0.00     0.031 A 
ATOM     44  C   UNL A   1      40.302  29.103  30.026  1.00  0.00     0.074 A 
ATOM     45  C   UNL A   1      40.848  31.485  30.787  1.00  0.00     0.049 A 
ATOM     46  N   UNL A   1      41.212  28.368  30.544  1.00  0.00    -0.248 NA
ATOM     47  C   UNL A   1      39.447  28.367  29.081  1.00  0.00     0.031 C 
ATOM     48  C   UNL A   1      42.297  31.557  30.909  1.00  0.00     0.029 A 
ATOM     49  N   UNL A   1      40.417  32.657  31.407  1.00  0.00    -0.354 N 
ATOM     50  C   UNL A   1      41.329  27.273  29.711  1.00  0.00     0.074 A 
ATOM     51  C   UNL A   1      40.096  27.207  28.979  1.00  0.00     0.031 C 
ATOM     52  C   UNL A   1      42.604  32.541  31.787  1.00  0.00     0.029 A 
ATOM     53  C   UNL A   1      41.347  33.014  32.376  1.00  0.00     0.049 A 
ATOM     54  H   UNL A   1      39.591  33.150  31.195  1.00  0.00     0.167 HD
ATOM     55  C   UNL A   1      42.564  26.723  29.550  1.00  0.00     0.031 A 
ATOM     56  C   UNL A   1      40.999  32.805  33.688  1.00  0.00     0.031 A 
ATOM     57  C   UNL A   1      43.503  27.371  30.472  1.00  0.00     0.049 A 
ATOM     58  C   UNL A   1      41.779  31.618  34.249  1.00  0.00     0.074 A 
ATOM     59  C   UNL A   1      44.419  28.395  30.289  1.00  0.00     0.029 A 
ATOM     60  N   UNL A   1      43.233  27.328  31.839  1.00  0.00    -0.354 N 
ATOM     61  N   UNL A   1      42.138  30.560  33.564  1.00  0.00    -0.248 NA
ATOM     62  C   UNL A   1      42.295  31.605  35.615  1.00  0.00     0.031 C 
ATOM     63  C   UNL A   1      44.577  29.059  31.542  1.00  0.00     0.029 A 
ATOM     64  C   UNL A   1      43.774  28.431  32.481  1.00  0.00     0.049 A 
ATOM     65  H   UNL A   1      42.727  26.612  32.287  1.00  0.00     0.167 HD
ATOM     66  C   UNL A   1      42.949  29.770  34.338  1.00  0.00     0.074 A 
ATOM     67  C   UNL A   1      43.002  30.461  35.618  1.00  0.00     0.031 C 
ATOM     68  C   UNL A   1      43.551  28.618  33.911  1.00  0.00     0.031 A 
BRANCH  55  69
ATOM     69  C   UNL A   1      42.974  25.885  28.357  1.00  0.00    -0.014 A 
ATOM     70  C   UNL A   1      42.772  24.491  28.403  1.00  0.00     0.010 A 
ATOM     71  C   UNL A   1      43.611  26.372  27.195  1.00  0.00     0.010 A 
ATOM     72  C   UNL A   1      43.211  23.637  27.378  1.00  0.00     0.020 A 
ATOM     73  C   UNL A   1      44.065  25.531  26.167  1.00  0.00     0.020 A 
ATOM     74  C   UNL A   1      43.862  24.163  26.266  1.00  0.00     0.054 A 
BRANCH  74  75
ATOM     75  S   UNL A   1      44.413  23.049  24.949  1.00  0.00     0.124 S 
ATOM     76  O   UNL A   1      43.172  22.770  24.233  1.00  0.00    -0.237 OA
ATOM     77  O   UNL A   1      45.385  23.869  24.232  1.00  0.00    -0.237 OA
ATOM     78  O   UNL A   1      44.978  21.909  25.671  1.00  0.00    -0.744 OA
ENDBRANCH  74  75
ENDBRANCH  55  69
BRANCH  56  79
ATOM     79  C   UNL A   1      39.551  33.110  34.015  1.00  0.00    -0.014 A 
ATOM     80  C   UNL A   1      39.121  34.457  34.113  1.00  0.00     0.010 A 
ATOM     81  C   UNL A   1      38.553  32.125  33.938  1.00  0.00     0.010 A 
ATOM     82  C   UNL A   1      37.756  34.810  34.023  1.00  0.00     0.020 A 
ATOM     83  C   UNL A   1      37.187  32.475  33.841  1.00  0.00     0.020 A 
ATOM     84  C   UNL A   1      36.796  33.818  33.826  1.00  0.00     0.054 A 
BRANCH  84  85
ATOM     85  S   UNL A   1      35.048  34.285  33.506  1.00  0.00     0.124 S 
ATOM     86  O   UNL A   1      34.308  33.130  34.010  1.00  0.00    -0.237 OA
ATOM     87  O   UNL A   1      34.840  35.520  34.257  1.00  0.00    -0.237 OA
ATOM     88  O   UNL A   1      35.009  34.457  32.055  1.00  0.00    -0.744 OA
ENDBRANCH  84  85
ENDBRANCH  56  79
BRANCH  68  89
ATOM     89  C   UNL A   1      44.041  27.539  34.849  1.00  0.00    -0.014 A 
ATOM     90  C   UNL A   1      43.184  26.641  35.502  1.00  0.00     0.010 A 
ATOM     91  C   UNL A   1      45.431  27.287  34.949  1.00  0.00     0.010 A 
ATOM     92  C   UNL A   1      43.685  25.601  36.291  1.00  0.00     0.020 A 
ATOM     93  C   UNL A   1      45.940  26.208  35.669  1.00  0.00     0.020 A 
ATOM     94  C   UNL A   1      45.061  25.394  36.370  1.00  0.00     0.054 A 
BRANCH  94  95
ATOM     95  S   UNL A   1      45.687  24.030  37.374  1.00  0.00     0.124 S 
ATOM     96  O   UNL A   1      45.035  24.284  38.657  1.00  0.00    -0.237 OA
ATOM     97  O   UNL A   1      45.215  22.852  36.652  1.00  0.00    -0.237 OA
ATOM     98  O   UNL A   1      47.135  24.225  37.359  1.00  0.00    -0.744 OA
ENDBRANCH  94  95
ENDBRANCH  68  89
ENDBRANCH  42  43
ENDBRANCH  34  37
ENDBRANCH  32  33
ENDBRANCH   1  32
TORSDOF 17
ENDMDL
MODEL 3
REMARK VINA RESULT:     -10.9      6.255     11.126
REMARK SMILES COc1ccc(-c2cc(Cl)cc3c2O[C@@H](C(F)(F)F)C(C(=O)NCCCCNC(=O)c2ccc(-c4c5nc(c(-c6ccc(S(=O)(=O)[O-])cc6)c6ccc([nH]6)c(-c6ccc(S(=O)(=O)[O-])cc6)c6nc(c(-c7ccc(S(=O)(=O)[O-])cc7)c7ccc4[nH]7)C=C6)C=C5)cc2)=C3)cc1C
REMARK SMILES IDX 26 1 25 2 24 3 23 4 21 5 22 6 20 8 7 9 8 10 13 11 9 12 12 13
REMARK SMILES IDX 14 14 10 15 11 16 91 17 15 18 6 19 3 20 4 21 93 22 5 23
REMARK SMILES IDX 92 24 94 25 2 26 1 27 16 28 17 29 18 30 19 31 27 32 28 33
REMARK SMILES IDX 29 34 30 36 31 37 32 38 90 39 33 40 89 41 34 42 35 43 36 44
REMARK SMILES IDX 83 45 37 46 88 47 82 48 84 49 38 50 87 51 81 52 80 53 39 55
REMARK SMILES IDX 69 56 50 57 68 58 51 59 54 60 67 61 85 62 52 63 53 64 66 66
REMARK SMILES IDX 86 67 55 68 40 69 41 70 49 71 42 72 48 73 43 74 44 75 45 76
REMARK SMILES IDX 46 77 47 78 70 79 71 80 79 81 72 82 78 83 73 84 74 85 75 86
REMARK SMILES IDX 76 87 77 88 56 89 57 90 65 91 58 92 64 93 59 94 60 95 61 96
REMARK SMILES IDX 62 97 63 98
REMARK H PARENT 23 7 28 35 84 54 54 65
REMARK Flexibility Score: inf
ROOT
ATOM      1  C   UNL A   1      37.847  29.538  32.355  1.00  0.00     0.023 C 
ENDROOT
BRANCH   1   2
ATOM      2  C   UNL A   1      37.229  30.892  32.088  1.00  0.00     0.023 C 
BRANCH   2   3
ATOM      3  C   UNL A   1      35.956  31.016  31.243  1.00  0.00     0.116 C 
BRANCH   3   4
ATOM      4  N   UNL A   1      35.647  32.183  30.421  1.00  0.00    -0.352 N 
ATOM      5  C   UNL A   1      35.135  33.441  30.717  1.00  0.00     0.251 C 
ATOM      6  O   UNL A   1      35.316  34.334  29.885  1.00  0.00    -0.270 OA
ATOM      7  H   UNL A   1      35.841  32.052  29.465  1.00  0.00     0.163 HD
BRANCH   5   8
ATOM      8  C   UNL A   1      34.229  33.754  31.941  1.00  0.00     0.067 C 
ATOM      9  C   UNL A   1      37.776  34.604  33.226  1.00  0.00     0.026 A 
ATOM     10  C   UNL A   1      38.176  34.322  34.559  1.00  0.00     0.033 A 
ATOM     11  C   UNL A   1      36.391  34.646  33.027  1.00  0.00     0.135 A 
ATOM     12  C   UNL A   1      37.263  33.884  35.520  1.00  0.00     0.042 A 
ATOM     13  C   UNL A   1      35.619  33.755  33.805  1.00  0.00     0.019 A 
ATOM     14  O   UNL A   1      35.663  35.564  32.183  1.00  0.00    -0.475 OA
ATOM     15  Cl  UNL A   1      37.786  33.571  37.128  1.00  0.00    -0.084 Cl
ATOM     16  C   UNL A   1      35.983  33.519  35.124  1.00  0.00     0.032 A 
ATOM     17  C   UNL A   1      34.434  33.124  33.126  1.00  0.00     0.025 C 
ATOM     18  C   UNL A   1      34.208  35.216  32.265  1.00  0.00     0.314 C 
BRANCH   9  19
ATOM     19  C   UNL A   1      38.771  34.106  32.204  1.00  0.00    -0.014 A 
ATOM     20  C   UNL A   1      41.053  33.574  30.557  1.00  0.00     0.121 A 
ATOM     21  C   UNL A   1      39.945  34.290  30.077  1.00  0.00     0.047 A 
ATOM     22  C   UNL A   1      41.044  33.089  31.864  1.00  0.00    -0.008 A 
ATOM     23  C   UNL A   1      38.816  34.554  30.886  1.00  0.00     0.013 A 
ATOM     24  C   UNL A   1      39.883  33.319  32.645  1.00  0.00     0.016 A 
ATOM     25  C   UNL A   1      42.239  32.411  32.481  1.00  0.00     0.048 C 
BRANCH  20  26
ATOM     26  O   UNL A   1      42.155  33.552  29.739  1.00  0.00    -0.496 OA
ATOM     27  C   UNL A   1      42.331  34.727  28.946  1.00  0.00     0.278 C 
ENDBRANCH  20  26
ENDBRANCH   9  19
BRANCH  18  28
ATOM     28  C   UNL A   1      32.891  35.744  31.612  1.00  0.00     0.429 C 
ATOM     29  F   UNL A   1      33.048  37.070  31.324  1.00  0.00    -0.167 F 
ATOM     30  F   UNL A   1      32.574  35.135  30.454  1.00  0.00    -0.167 F 
ATOM     31  F   UNL A   1      31.805  35.705  32.428  1.00  0.00    -0.167 F 
ENDBRANCH  18  28
ENDBRANCH   5   8
ENDBRANCH   3   4
ENDBRANCH   2   3
ENDBRANCH   1   2
BRANCH   1  32
ATOM     32  C   UNL A   1      37.858  28.616  31.168  1.00  0.00     0.116 C 
BRANCH  32  33
ATOM     33  N   UNL A   1      39.117  27.940  31.070  1.00  0.00    -0.352 N 
ATOM     34  C   UNL A   1      40.070  27.921  30.100  1.00  0.00     0.251 C 
ATOM     35  H   UNL A   1      39.333  27.383  31.852  1.00  0.00     0.163 HD
ATOM     36  O   UNL A   1      41.062  27.283  30.410  1.00  0.00    -0.269 OA
BRANCH  34  37
ATOM     37  C   UNL A   1      40.004  28.821  28.883  1.00  0.00     0.039 A 
ATOM     38  C   UNL A   1      40.499  28.146  27.759  1.00  0.00     0.014 A 
ATOM     39  C   UNL A   1      40.486  30.106  29.129  1.00  0.00     0.014 A 
ATOM     40  C   UNL A   1      41.805  28.392  27.384  1.00  0.00     0.010 A 
ATOM     41  C   UNL A   1      41.811  30.304  28.887  1.00  0.00     0.010 A 
ATOM     42  C   UNL A   1      42.475  29.365  28.104  1.00  0.00    -0.014 A 
BRANCH  42  43
ATOM     43  C   UNL A   1      43.906  29.458  28.210  1.00  0.00     0.031 A 
ATOM     44  C   UNL A   1      44.509  30.493  27.371  1.00  0.00     0.074 A 
ATOM     45  C   UNL A   1      44.418  28.737  29.232  1.00  0.00     0.049 A 
ATOM     46  N   UNL A   1      45.739  30.552  27.025  1.00  0.00    -0.248 NA
ATOM     47  C   UNL A   1      43.691  31.539  26.739  1.00  0.00     0.031 C 
ATOM     48  C   UNL A   1      45.692  28.812  29.932  1.00  0.00     0.029 A 
ATOM     49  N   UNL A   1      43.855  27.559  29.721  1.00  0.00    -0.354 N 
ATOM     50  C   UNL A   1      45.928  31.827  26.529  1.00  0.00     0.074 A 
ATOM     51  C   UNL A   1      44.623  32.301  26.167  1.00  0.00     0.031 C 
ATOM     52  C   UNL A   1      45.925  27.619  30.526  1.00  0.00     0.029 A 
ATOM     53  C   UNL A   1      44.879  26.692  30.079  1.00  0.00     0.049 A 
ATOM     54  H   UNL A   1      42.891  27.372  29.799  1.00  0.00     0.167 HD
ATOM     55  C   UNL A   1      47.134  32.421  26.741  1.00  0.00     0.031 A 
ATOM     56  C   UNL A   1      45.117  25.624  29.249  1.00  0.00     0.031 A 
ATOM     57  C   UNL A   1      48.048  31.451  27.352  1.00  0.00     0.049 A 
ATOM     58  C   UNL A   1      46.408  25.852  28.466  1.00  0.00     0.074 A 
ATOM     59  C   UNL A   1      48.419  31.234  28.670  1.00  0.00     0.029 A 
ATOM     60  N   UNL A   1      48.315  30.264  26.671  1.00  0.00    -0.354 N 
ATOM     61  N   UNL A   1      46.847  27.018  28.058  1.00  0.00    -0.248 NA
ATOM     62  C   UNL A   1      47.345  24.769  28.183  1.00  0.00     0.031 C 
ATOM     63  C   UNL A   1      48.768  29.856  28.796  1.00  0.00     0.029 A 
ATOM     64  C   UNL A   1      48.626  29.247  27.559  1.00  0.00     0.049 A 
ATOM     65  H   UNL A   1      48.286  30.163  25.692  1.00  0.00     0.167 HD
ATOM     66  C   UNL A   1      48.101  26.871  27.524  1.00  0.00     0.074 A 
ATOM     67  C   UNL A   1      48.360  25.441  27.611  1.00  0.00     0.031 C 
ATOM     68  C   UNL A   1      48.874  27.899  27.058  1.00  0.00     0.031 A 
BRANCH  55  69
ATOM     69  C   UNL A   1      47.359  33.919  26.725  1.00  0.00    -0.014 A 
ATOM     70  C   UNL A   1      46.687  34.718  27.671  1.00  0.00     0.010 A 
ATOM     71  C   UNL A   1      48.152  34.617  25.788  1.00  0.00     0.010 A 
ATOM     72  C   UNL A   1      46.770  36.120  27.660  1.00  0.00     0.020 A 
ATOM     73  C   UNL A   1      48.236  36.018  25.756  1.00  0.00     0.020 A 
ATOM     74  C   UNL A   1      47.541  36.764  26.696  1.00  0.00     0.054 A 
BRANCH  74  75
ATOM     75  S   UNL A   1      47.644  38.572  26.702  1.00  0.00     0.124 S 
ATOM     76  O   UNL A   1      47.099  38.922  25.393  1.00  0.00    -0.237 OA
ATOM     77  O   UNL A   1      46.812  38.928  27.848  1.00  0.00    -0.237 OA
ATOM     78  O   UNL A   1      49.072  38.839  26.867  1.00  0.00    -0.744 OA
ENDBRANCH  74  75
ENDBRANCH  55  69
BRANCH  56  79
ATOM     79  C   UNL A   1      43.872  24.978  28.678  1.00  0.00    -0.014 A 
ATOM     80  C   UNL A   1      43.679  24.944  27.274  1.00  0.00     0.010 A 
ATOM     81  C   UNL A   1      43.042  24.154  29.456  1.00  0.00     0.010 A 
ATOM     82  C   UNL A   1      42.775  24.042  26.668  1.00  0.00     0.020 A 
ATOM     83  C   UNL A   1      42.142  23.245  28.854  1.00  0.00     0.020 A 
ATOM     84  C   UNL A   1      42.051  23.152  27.460  1.00  0.00     0.054 A 
BRANCH  84  85
ATOM     85  S   UNL A   1      41.031  21.844  26.671  1.00  0.00     0.124 S 
ATOM     86  O   UNL A   1      39.835  22.574  26.256  1.00  0.00    -0.237 OA
ATOM     87  O   UNL A   1      41.848  21.333  25.575  1.00  0.00    -0.237 OA
ATOM     88  O   UNL A   1      40.822  20.884  27.755  1.00  0.00    -0.744 OA
ENDBRANCH  84  85
ENDBRANCH  56  79
BRANCH  68  89
ATOM     89  C   UNL A   1      50.010  27.709  26.080  1.00  0.00    -0.014 A 
ATOM     90  C   UNL A   1      51.359  27.673  26.465  1.00  0.00     0.010 A 
ATOM     91  C   UNL A   1      49.717  27.370  24.736  1.00  0.00     0.010 A 
ATOM     92  C   UNL A   1      52.372  27.404  25.540  1.00  0.00     0.020 A 
ATOM     93  C   UNL A   1      50.714  27.026  23.823  1.00  0.00     0.020 A 
ATOM     94  C   UNL A   1      52.041  27.085  24.224  1.00  0.00     0.054 A 
BRANCH  94  95
ATOM     95  S   UNL A   1      53.363  26.717  23.051  1.00  0.00     0.124 S 
ATOM     96  O   UNL A   1      53.847  28.057  22.722  1.00  0.00    -0.237 OA
ATOM     97  O   UNL A   1      54.278  25.896  23.839  1.00  0.00    -0.237 OA
ATOM     98  O   UNL A   1      52.680  26.015  21.967  1.00  0.00    -0.744 OA
ENDBRANCH  94  95
ENDBRANCH  68  89
ENDBRANCH  42  43
ENDBRANCH  34  37
ENDBRANCH  32  33
ENDBRANCH   1  32
TORSDOF 17
ENDMDL
