MODEL 1
REMARK VINA RESULT:     -12.2      0.000      0.000
REMARK SMILES O=C(NCCCCNC(=O)c1ccccc1C[N@H+]1CCCC[C@@H]1CCn1cccn1)c1ccc(-c2c3nc(c(-c4ccc(S(=O)(=O)[O-])cc4)c4ccc([nH]4)c(-c4ccc(S(=O)(=O)[O-])cc4)c4nc(c(-c5ccc(S(=O)(=O)[O-])cc5)c5ccc2[nH]5)C=C4)C=C3)cc1
REMARK SMILES IDX 6 1 5 2 4 3 3 4 1 5 2 6 31 8 32 9 90 10 33 11 89 12 34 13
REMARK SMILES IDX 35 14 36 15 83 16 37 17 88 18 82 19 84 20 38 21 87 22 81 23
REMARK SMILES IDX 80 24 39 26 69 27 50 28 68 29 51 30 54 31 67 32 85 33 52 34
REMARK SMILES IDX 53 35 66 37 86 38 55 39 40 40 41 41 49 42 42 43 48 44 43 45
REMARK SMILES IDX 44 46 45 47 46 48 47 49 70 50 71 51 79 52 72 53 78 54 73 55
REMARK SMILES IDX 74 56 75 57 76 58 77 59 56 60 57 61 65 62 58 63 64 64 59 65
REMARK SMILES IDX 60 66 61 67 62 68 63 69 7 70 8 71 9 72 10 74 11 75 12 76
REMARK SMILES IDX 16 77 13 78 15 79 14 80 17 81 18 82 19 83 23 84 20 86 22 87
REMARK SMILES IDX 21 88 24 89 25 90 26 91 27 92 30 93 28 94 29 95
REMARK H PARENT 3 7 84 25 54 36 8 73 18 85
REMARK Flexibility Score: inf
ROOT
ATOM      1  C   UNL A   1      35.451  24.158  25.402  1.00  0.00     0.023 C 
ENDROOT
BRANCH   1   2
ATOM      2  C   UNL A   1      36.330  23.056  24.806  1.00  0.00     0.023 C 
BRANCH   2   3
ATOM      3  C   UNL A   1      36.746  21.926  25.751  1.00  0.00     0.116 C 
BRANCH   3   4
ATOM      4  N   UNL A   1      38.091  21.412  25.589  1.00  0.00    -0.352 N 
ATOM      5  O   UNL A   1      40.223  20.946  25.964  1.00  0.00    -0.269 OA
ATOM      6  C   UNL A   1      39.308  21.761  26.110  1.00  0.00     0.251 C 
ATOM      7  H   UNL A   1      38.140  20.650  24.968  1.00  0.00     0.163 HD
BRANCH   6   8
ATOM      8  C   UNL A   1      39.610  23.075  26.737  1.00  0.00     0.039 A 
ATOM      9  C   UNL A   1      38.968  24.278  26.443  1.00  0.00     0.014 A 
ATOM     10  C   UNL A   1      40.657  23.080  27.677  1.00  0.00     0.014 A 
ATOM     11  C   UNL A   1      39.447  25.476  26.966  1.00  0.00     0.010 A 
ATOM     12  C   UNL A   1      41.120  24.269  28.227  1.00  0.00     0.010 A 
ATOM     13  C   UNL A   1      40.540  25.473  27.838  1.00  0.00    -0.014 A 
BRANCH  13  14
ATOM     14  C   UNL A   1      40.896  26.725  28.501  1.00  0.00     0.031 A 
ATOM     15  C   UNL A   1      42.105  27.376  27.925  1.00  0.00     0.074 A 
ATOM     16  C   UNL A   1      40.138  27.346  29.427  1.00  0.00     0.049 A 
ATOM     17  N   UNL A   1      43.254  27.563  28.487  1.00  0.00    -0.248 NA
ATOM     18  C   UNL A   1      42.074  27.726  26.494  1.00  0.00     0.031 C 
ATOM     19  C   UNL A   1      38.794  26.978  29.874  1.00  0.00     0.029 A 
ATOM     20  N   UNL A   1      40.369  28.519  30.087  1.00  0.00    -0.354 N 
ATOM     21  C   UNL A   1      44.017  28.265  27.556  1.00  0.00     0.074 A 
ATOM     22  C   UNL A   1      43.318  28.162  26.301  1.00  0.00     0.031 C 
ATOM     23  C   UNL A   1      38.244  28.021  30.538  1.00  0.00     0.029 A 
ATOM     24  C   UNL A   1      39.235  29.075  30.676  1.00  0.00     0.049 A 
ATOM     25  H   UNL A   1      41.260  28.937  30.142  1.00  0.00     0.167 HD
ATOM     26  C   UNL A   1      45.015  29.109  27.939  1.00  0.00     0.031 A 
ATOM     27  C   UNL A   1      39.103  30.331  31.180  1.00  0.00     0.031 A 
ATOM     28  C   UNL A   1      45.424  28.874  29.300  1.00  0.00     0.049 A 
ATOM     29  C   UNL A   1      40.465  30.849  31.448  1.00  0.00     0.074 A 
ATOM     30  C   UNL A   1      45.911  27.791  30.003  1.00  0.00     0.029 A 
ATOM     31  N   UNL A   1      44.995  29.776  30.244  1.00  0.00    -0.354 N 
ATOM     32  N   UNL A   1      41.248  30.370  32.372  1.00  0.00    -0.248 NA
ATOM     33  C   UNL A   1      41.126  31.621  30.408  1.00  0.00     0.031 C 
ATOM     34  C   UNL A   1      45.316  27.892  31.295  1.00  0.00     0.029 A 
ATOM     35  C   UNL A   1      44.559  29.064  31.328  1.00  0.00     0.049 A 
ATOM     36  H   UNL A   1      44.999  30.756  30.156  1.00  0.00     0.167 HD
ATOM     37  C   UNL A   1      42.513  30.391  31.806  1.00  0.00     0.074 A 
ATOM     38  C   UNL A   1      42.391  31.266  30.642  1.00  0.00     0.031 C 
ATOM     39  C   UNL A   1      43.463  29.481  32.175  1.00  0.00     0.031 A 
BRANCH  26  40
ATOM     40  C   UNL A   1      45.291  30.425  27.243  1.00  0.00    -0.014 A 
ATOM     41  C   UNL A   1      46.629  30.782  26.971  1.00  0.00     0.010 A 
ATOM     42  C   UNL A   1      44.325  31.447  27.126  1.00  0.00     0.010 A 
ATOM     43  C   UNL A   1      46.987  32.107  26.693  1.00  0.00     0.020 A 
ATOM     44  C   UNL A   1      44.665  32.761  26.802  1.00  0.00     0.020 A 
ATOM     45  C   UNL A   1      46.001  33.091  26.626  1.00  0.00     0.054 A 
BRANCH  45  46
ATOM     46  S   UNL A   1      46.480  34.817  26.375  1.00  0.00     0.124 S 
ATOM     47  O   UNL A   1      47.890  34.791  26.750  1.00  0.00    -0.237 OA
ATOM     48  O   UNL A   1      46.203  35.009  24.955  1.00  0.00    -0.237 OA
ATOM     49  O   UNL A   1      45.601  35.550  27.283  1.00  0.00    -0.744 OA
ENDBRANCH  45  46
ENDBRANCH  26  40
BRANCH  27  50
ATOM     50  C   UNL A   1      37.912  31.222  31.165  1.00  0.00    -0.014 A 
ATOM     51  C   UNL A   1      36.769  30.926  31.935  1.00  0.00     0.010 A 
ATOM     52  C   UNL A   1      38.011  32.519  30.622  1.00  0.00     0.010 A 
ATOM     53  C   UNL A   1      35.799  31.909  32.209  1.00  0.00     0.020 A 
ATOM     54  C   UNL A   1      37.047  33.501  30.883  1.00  0.00     0.020 A 
ATOM     55  C   UNL A   1      35.958  33.199  31.697  1.00  0.00     0.054 A 
BRANCH  55  56
ATOM     56  S   UNL A   1      34.810  34.516  32.206  1.00  0.00     0.124 S 
ATOM     57  O   UNL A   1      35.662  35.373  33.026  1.00  0.00    -0.237 OA
ATOM     58  O   UNL A   1      34.386  35.083  30.929  1.00  0.00    -0.237 OA
ATOM     59  O   UNL A   1      33.766  33.799  32.938  1.00  0.00    -0.744 OA
ENDBRANCH  55  56
ENDBRANCH  27  50
BRANCH  39  60
ATOM     60  C   UNL A   1      43.253  28.686  33.441  1.00  0.00    -0.014 A 
ATOM     61  C   UNL A   1      43.682  29.097  34.717  1.00  0.00     0.010 A 
ATOM     62  C   UNL A   1      42.464  27.526  33.341  1.00  0.00     0.010 A 
ATOM     63  C   UNL A   1      43.356  28.346  35.858  1.00  0.00     0.020 A 
ATOM     64  C   UNL A   1      42.117  26.787  34.472  1.00  0.00     0.020 A 
ATOM     65  C   UNL A   1      42.574  27.194  35.724  1.00  0.00     0.054 A 
BRANCH  65  66
ATOM     66  S   UNL A   1      42.123  26.243  37.202  1.00  0.00     0.124 S 
ATOM     67  O   UNL A   1      43.143  26.647  38.165  1.00  0.00    -0.237 OA
ATOM     68  O   UNL A   1      40.767  26.711  37.487  1.00  0.00    -0.237 OA
ATOM     69  O   UNL A   1      42.206  24.851  36.760  1.00  0.00    -0.744 OA
ENDBRANCH  65  66
ENDBRANCH  39  60
ENDBRANCH  13  14
ENDBRANCH   6   8
ENDBRANCH   3   4
ENDBRANCH   2   3
ENDBRANCH   1   2
BRANCH   1  70
ATOM     70  C   UNL A   1      34.651  24.974  24.397  1.00  0.00     0.116 C 
BRANCH  70  71
ATOM     71  N   UNL A   1      34.379  24.274  23.153  1.00  0.00    -0.352 N 
ATOM     72  C   UNL A   1      33.284  24.337  22.325  1.00  0.00     0.251 C 
ATOM     73  H   UNL A   1      35.089  23.659  22.858  1.00  0.00     0.163 HD
ATOM     74  O   UNL A   1      33.256  23.676  21.297  1.00  0.00    -0.269 OA
BRANCH  72  75
ATOM     75  C   UNL A   1      32.101  25.158  22.684  1.00  0.00     0.048 A 
ATOM     76  C   UNL A   1      32.124  26.480  22.199  1.00  0.00     0.014 A 
ATOM     77  C   UNL A   1      31.043  24.707  23.496  1.00  0.00     0.019 A 
ATOM     78  C   UNL A   1      31.072  27.354  22.459  1.00  0.00     0.001 A 
ATOM     79  C   UNL A   1      29.973  25.598  23.685  1.00  0.00     0.010 A 
ATOM     80  C   UNL A   1      29.985  26.904  23.191  1.00  0.00     0.001 A 
BRANCH  77  81
ATOM     81  C   UNL A   1      31.012  23.308  24.087  1.00  0.00     0.300 C 
BRANCH  81  82
ATOM     82  N   UNL A   1      31.901  22.966  25.213  1.00  0.00    -0.329 N 
ATOM     83  C   UNL A   1      31.424  23.611  26.447  1.00  0.00     0.262 C 
ATOM     84  C   UNL A   1      32.304  21.553  25.385  1.00  0.00     0.186 C 
ATOM     85  H   UNL A   1      32.803  23.361  24.950  1.00  0.00     0.348 HD
ATOM     86  C   UNL A   1      32.453  23.522  27.567  1.00  0.00     0.062 C 
ATOM     87  C   UNL A   1      33.356  21.452  26.513  1.00  0.00     0.065 C 
ATOM     88  C   UNL A   1      32.853  22.077  27.811  1.00  0.00     0.012 C 
BRANCH  84  89
ATOM     89  C   UNL A   1      32.883  20.943  24.077  1.00  0.00     0.088 C 
BRANCH  89  90
ATOM     90  C   UNL A   1      32.271  19.606  23.645  1.00  0.00     0.150 C 
BRANCH  90  91
ATOM     91  N   UNL A   1      33.195  18.488  23.730  1.00  0.00    -0.273 N 
ATOM     92  C   UNL A   1      33.114  17.300  23.057  1.00  0.00     0.108 A 
ATOM     93  N   UNL A   1      34.271  18.564  24.537  1.00  0.00    -0.182 NA
ATOM     94  C   UNL A   1      34.191  16.551  23.471  1.00  0.00     0.042 A 
ATOM     95  C   UNL A   1      34.879  17.388  24.366  1.00  0.00     0.135 A 
ENDBRANCH  90  91
ENDBRANCH  89  90
ENDBRANCH  84  89
ENDBRANCH  81  82
ENDBRANCH  77  81
ENDBRANCH  72  75
ENDBRANCH  70  71
ENDBRANCH   1  70
TORSDOF 19
ENDMDL
MODEL 2
REMARK VINA RESULT:     -11.9      2.800      8.758
REMARK SMILES O=C(NCCCCNC(=O)c1ccccc1C[N@H+]1CCCC[C@@H]1CCn1cccn1)c1ccc(-c2c3nc(c(-c4ccc(S(=O)(=O)[O-])cc4)c4ccc([nH]4)c(-c4ccc(S(=O)(=O)[O-])cc4)c4nc(c(-c5ccc(S(=O)(=O)[O-])cc5)c5ccc2[nH]5)C=C4)C=C3)cc1
REMARK SMILES IDX 6 1 5 2 4 3 3 4 1 5 2 6 31 8 32 9 90 10 33 11 89 12 34 13
REMARK SMILES IDX 35 14 36 15 83 16 37 17 88 18 82 19 84 20 38 21 87 22 81 23
REMARK SMILES IDX 80 24 39 26 69 27 50 28 68 29 51 30 54 31 67 32 85 33 52 34
REMARK SMILES IDX 53 35 66 37 86 38 55 39 40 40 41 41 49 42 42 43 48 44 43 45
REMARK SMILES IDX 44 46 45 47 46 48 47 49 70 50 71 51 79 52 72 53 78 54 73 55
REMARK SMILES IDX 74 56 75 57 76 58 77 59 56 60 57 61 65 62 58 63 64 64 59 65
REMARK SMILES IDX 60 66 61 67 62 68 63 69 7 70 8 71 9 72 10 74 11 75 12 76
REMARK SMILES IDX 16 77 13 78 15 79 14 80 17 81 18 82 19 83 23 84 20 86 22 87
REMARK SMILES IDX 21 88 24 89 25 90 26 91 27 92 30 93 28 94 29 95
REMARK H PARENT 3 7 84 25 54 36 8 73 18 85
REMARK Flexibility Score: inf
ROOT
ATOM      1  C   UNL A   1      32.456  27.781  27.074  1.00  0.00     0.023 C 
ENDROOT
BRANCH   1   2
ATOM      2  C   UNL A   1      33.483  28.385  26.113  1.00  0.00     0.023 C 
BRANCH   2   3
ATOM      3  C   UNL A   1      33.300  29.861  25.755  1.00  0.00     0.116 C 
BRANCH   3   4
ATOM      4  N   UNL A   1      33.200  30.786  26.867  1.00  0.00    -0.352 N 
ATOM      5  O   UNL A   1      33.724  32.298  28.397  1.00  0.00    -0.269 OA
ATOM      6  C   UNL A   1      34.112  31.340  27.724  1.00  0.00     0.251 C 
ATOM      7  H   UNL A   1      32.276  31.077  27.044  1.00  0.00     0.163 HD
BRANCH   6   8
ATOM      8  C   UNL A   1      35.479  30.803  27.960  1.00  0.00     0.039 A 
ATOM      9  C   UNL A   1      35.825  29.451  27.984  1.00  0.00     0.014 A 
ATOM     10  C   UNL A   1      36.479  31.760  28.210  1.00  0.00     0.014 A 
ATOM     11  C   UNL A   1      37.099  29.060  28.383  1.00  0.00     0.010 A 
ATOM     12  C   UNL A   1      37.763  31.376  28.578  1.00  0.00     0.010 A 
ATOM     13  C   UNL A   1      38.060  30.022  28.705  1.00  0.00    -0.014 A 
BRANCH  13  14
ATOM     14  C   UNL A   1      39.430  29.575  28.943  1.00  0.00     0.031 A 
ATOM     15  C   UNL A   1      39.790  29.516  30.387  1.00  0.00     0.074 A 
ATOM     16  C   UNL A   1      40.258  29.094  27.994  1.00  0.00     0.049 A 
ATOM     17  N   UNL A   1      40.655  30.235  31.024  1.00  0.00    -0.248 NA
ATOM     18  C   UNL A   1      38.975  28.650  31.257  1.00  0.00     0.031 C 
ATOM     19  C   UNL A   1      39.943  28.820  26.591  1.00  0.00     0.029 A 
ATOM     20  N   UNL A   1      41.539  28.636  28.115  1.00  0.00    -0.354 N 
ATOM     21  C   UNL A   1      40.659  29.749  32.330  1.00  0.00     0.074 A 
ATOM     22  C   UNL A   1      39.484  28.926  32.457  1.00  0.00     0.031 C 
ATOM     23  C   UNL A   1      40.911  28.035  26.063  1.00  0.00     0.029 A 
ATOM     24  C   UNL A   1      41.971  27.860  27.042  1.00  0.00     0.049 A 
ATOM     25  H   UNL A   1      42.107  28.837  28.894  1.00  0.00     0.167 HD
ATOM     26  C   UNL A   1      41.764  29.833  33.122  1.00  0.00     0.031 A 
ATOM     27  C   UNL A   1      43.083  27.080  26.987  1.00  0.00     0.031 A 
ATOM     28  C   UNL A   1      42.714  30.791  32.618  1.00  0.00     0.049 A 
ATOM     29  C   UNL A   1      44.009  27.551  28.043  1.00  0.00     0.074 A 
ATOM     30  C   UNL A   1      42.682  32.139  32.320  1.00  0.00     0.029 A 
ATOM     31  N   UNL A   1      43.829  30.291  31.990  1.00  0.00    -0.354 N 
ATOM     32  N   UNL A   1      44.605  28.708  28.014  1.00  0.00    -0.248 NA
ATOM     33  C   UNL A   1      43.948  26.913  29.348  1.00  0.00     0.031 C 
ATOM     34  C   UNL A   1      43.493  32.278  31.156  1.00  0.00     0.029 A 
ATOM     35  C   UNL A   1      44.027  31.024  30.853  1.00  0.00     0.049 A 
ATOM     36  H   UNL A   1      44.385  29.540  32.302  1.00  0.00     0.167 HD
ATOM     37  C   UNL A   1      44.592  29.143  29.330  1.00  0.00     0.074 A 
ATOM     38  C   UNL A   1      44.271  27.956  30.117  1.00  0.00     0.031 C 
ATOM     39  C   UNL A   1      44.569  30.476  29.628  1.00  0.00     0.031 A 
BRANCH  26  40
ATOM     40  C   UNL A   1      42.176  28.732  34.077  1.00  0.00    -0.014 A 
ATOM     41  C   UNL A   1      42.665  27.520  33.545  1.00  0.00     0.010 A 
ATOM     42  C   UNL A   1      41.817  28.728  35.442  1.00  0.00     0.010 A 
ATOM     43  C   UNL A   1      42.701  26.350  34.313  1.00  0.00     0.020 A 
ATOM     44  C   UNL A   1      41.894  27.578  36.229  1.00  0.00     0.020 A 
ATOM     45  C   UNL A   1      42.298  26.385  35.648  1.00  0.00     0.054 A 
BRANCH  45  46
ATOM     46  S   UNL A   1      42.243  24.850  36.603  1.00  0.00     0.124 S 
ATOM     47  O   UNL A   1      43.449  24.963  37.417  1.00  0.00    -0.237 OA
ATOM     48  O   UNL A   1      40.977  24.980  37.320  1.00  0.00    -0.237 OA
ATOM     49  O   UNL A   1      42.270  23.811  35.577  1.00  0.00    -0.744 OA
ENDBRANCH  45  46
ENDBRANCH  26  40
BRANCH  27  50
ATOM     50  C   UNL A   1      43.275  25.777  26.296  1.00  0.00    -0.014 A 
ATOM     51  C   UNL A   1      44.370  25.562  25.433  1.00  0.00     0.010 A 
ATOM     52  C   UNL A   1      42.547  24.644  26.714  1.00  0.00     0.010 A 
ATOM     53  C   UNL A   1      44.761  24.262  25.061  1.00  0.00     0.020 A 
ATOM     54  C   UNL A   1      42.925  23.348  26.342  1.00  0.00     0.020 A 
ATOM     55  C   UNL A   1      44.047  23.161  25.538  1.00  0.00     0.054 A 
BRANCH  55  56
ATOM     56  S   UNL A   1      44.664  21.480  25.215  1.00  0.00     0.124 S 
ATOM     57  O   UNL A   1      43.718  20.652  25.957  1.00  0.00    -0.237 OA
ATOM     58  O   UNL A   1      44.583  21.383  23.760  1.00  0.00    -0.237 OA
ATOM     59  O   UNL A   1      46.023  21.503  25.755  1.00  0.00    -0.744 OA
ENDBRANCH  55  56
ENDBRANCH  27  50
BRANCH  39  60
ATOM     60  C   UNL A   1      44.913  31.469  28.543  1.00  0.00    -0.014 A 
ATOM     61  C   UNL A   1      44.027  31.872  27.526  1.00  0.00     0.010 A 
ATOM     62  C   UNL A   1      46.156  32.119  28.646  1.00  0.00     0.010 A 
ATOM     63  C   UNL A   1      44.392  32.877  26.617  1.00  0.00     0.020 A 
ATOM     64  C   UNL A   1      46.517  33.134  27.759  1.00  0.00     0.020 A 
ATOM     65  C   UNL A   1      45.638  33.501  26.741  1.00  0.00     0.054 A 
BRANCH  65  66
ATOM     66  S   UNL A   1      46.095  34.824  25.588  1.00  0.00     0.124 S 
ATOM     67  O   UNL A   1      47.516  34.573  25.362  1.00  0.00    -0.237 OA
ATOM     68  O   UNL A   1      45.222  34.573  24.443  1.00  0.00    -0.237 OA
ATOM     69  O   UNL A   1      45.793  36.050  26.327  1.00  0.00    -0.744 OA
ENDBRANCH  65  66
ENDBRANCH  39  60
ENDBRANCH  13  14
ENDBRANCH   6   8
ENDBRANCH   3   4
ENDBRANCH   2   3
ENDBRANCH   1   2
BRANCH   1  70
ATOM     70  C   UNL A   1      31.090  27.484  26.473  1.00  0.00     0.116 C 
BRANCH  70  71
ATOM     71  N   UNL A   1      30.685  26.094  26.592  1.00  0.00    -0.352 N 
ATOM     72  C   UNL A   1      30.991  25.013  25.800  1.00  0.00     0.251 C 
ATOM     73  H   UNL A   1      30.101  25.895  27.359  1.00  0.00     0.163 HD
ATOM     74  O   UNL A   1      30.563  23.905  26.086  1.00  0.00    -0.269 OA
BRANCH  72  75
ATOM     75  C   UNL A   1      31.793  25.176  24.563  1.00  0.00     0.048 A 
ATOM     76  C   UNL A   1      31.085  25.682  23.455  1.00  0.00     0.014 A 
ATOM     77  C   UNL A   1      33.148  24.810  24.445  1.00  0.00     0.019 A 
ATOM     78  C   UNL A   1      31.722  25.889  22.235  1.00  0.00     0.001 A 
ATOM     79  C   UNL A   1      33.770  25.090  23.217  1.00  0.00     0.010 A 
ATOM     80  C   UNL A   1      33.074  25.607  22.122  1.00  0.00     0.001 A 
BRANCH  77  81
ATOM     81  C   UNL A   1      33.929  24.206  25.600  1.00  0.00     0.300 C 
BRANCH  81  82
ATOM     82  N   UNL A   1      35.097  23.348  25.328  1.00  0.00    -0.329 N 
ATOM     83  C   UNL A   1      36.313  23.959  25.886  1.00  0.00     0.262 C 
ATOM     84  C   UNL A   1      34.976  21.896  25.582  1.00  0.00     0.186 C 
ATOM     85  H   UNL A   1      35.163  23.329  24.310  1.00  0.00     0.348 HD
ATOM     86  C   UNL A   1      37.576  23.263  25.394  1.00  0.00     0.062 C 
ATOM     87  C   UNL A   1      36.248  21.178  25.077  1.00  0.00     0.065 C 
ATOM     88  C   UNL A   1      37.513  21.774  25.686  1.00  0.00     0.012 C 
BRANCH  84  89
ATOM     89  C   UNL A   1      33.723  21.281  24.897  1.00  0.00     0.088 C 
BRANCH  89  90
ATOM     90  C   UNL A   1      33.002  20.190  25.697  1.00  0.00     0.150 C 
BRANCH  90  91
ATOM     91  N   UNL A   1      33.214  18.850  25.177  1.00  0.00    -0.273 N 
ATOM     92  C   UNL A   1      32.530  17.716  25.520  1.00  0.00     0.108 A 
ATOM     93  N   UNL A   1      34.168  18.630  24.253  1.00  0.00    -0.182 NA
ATOM     94  C   UNL A   1      33.091  16.695  24.790  1.00  0.00     0.042 A 
ATOM     95  C   UNL A   1      34.081  17.320  24.012  1.00  0.00     0.135 A 
ENDBRANCH  90  91
ENDBRANCH  89  90
ENDBRANCH  84  89
ENDBRANCH  81  82
ENDBRANCH  77  81
ENDBRANCH  72  75
ENDBRANCH  70  71
ENDBRANCH   1  70
TORSDOF 19
ENDMDL
MODEL 3
REMARK VINA RESULT:     -11.9      2.838      8.896
REMARK SMILES O=C(NCCCCNC(=O)c1ccccc1C[N@H+]1CCCC[C@@H]1CCn1cccn1)c1ccc(-c2c3nc(c(-c4ccc(S(=O)(=O)[O-])cc4)c4ccc([nH]4)c(-c4ccc(S(=O)(=O)[O-])cc4)c4nc(c(-c5ccc(S(=O)(=O)[O-])cc5)c5ccc2[nH]5)C=C4)C=C3)cc1
REMARK SMILES IDX 6 1 5 2 4 3 3 4 1 5 2 6 31 8 32 9 90 10 33 11 89 12 34 13
REMARK SMILES IDX 35 14 36 15 83 16 37 17 88 18 82 19 84 20 38 21 87 22 81 23
REMARK SMILES IDX 80 24 39 26 69 27 50 28 68 29 51 30 54 31 67 32 85 33 52 34
REMARK SMILES IDX 53 35 66 37 86 38 55 39 40 40 41 41 49 42 42 43 48 44 43 45
REMARK SMILES IDX 44 46 45 47 46 48 47 49 70 50 71 51 79 52 72 53 78 54 73 55
REMARK SMILES IDX 74 56 75 57 76 58 77 59 56 60 57 61 65 62 58 63 64 64 59 65
REMARK SMILES IDX 60 66 61 67 62 68 63 69 7 70 8 71 9 72 10 74 11 75 12 76
REMARK SMILES IDX 16 77 13 78 15 79 14 80 17 81 18 82 19 83 23 84 20 86 22 87
REMARK SMILES IDX 21 88 24 89 25 90 26 91 27 92 30 93 28 94 29 95
REMARK H PARENT 3 7 84 25 54 36 8 73 18 85
REMARK Flexibility Score: inf
ROOT
ATOM      1  C   UNL A   1      31.621  28.162  27.206  1.00  0.00     0.023 C 
ENDROOT
BRANCH   1   2
ATOM      2  C   UNL A   1      31.759  29.268  26.157  1.00  0.00     0.023 C 
BRANCH   2   3
ATOM      3  C   UNL A   1      33.044  30.098  26.204  1.00  0.00     0.116 C 
BRANCH   3   4
ATOM      4  N   UNL A   1      33.062  31.206  27.139  1.00  0.00    -0.352 N 
ATOM      5  O   UNL A   1      33.763  32.913  28.363  1.00  0.00    -0.269 OA
ATOM      6  C   UNL A   1      34.050  31.825  27.857  1.00  0.00     0.251 C 
ATOM      7  H   UNL A   1      32.171  31.596  27.291  1.00  0.00     0.163 HD
BRANCH   6   8
ATOM      8  C   UNL A   1      35.382  31.229  28.141  1.00  0.00     0.039 A 
ATOM      9  C   UNL A   1      35.680  29.866  28.125  1.00  0.00     0.014 A 
ATOM     10  C   UNL A   1      36.400  32.138  28.482  1.00  0.00     0.014 A 
ATOM     11  C   UNL A   1      36.917  29.412  28.572  1.00  0.00     0.010 A 
ATOM     12  C   UNL A   1      37.648  31.693  28.901  1.00  0.00     0.010 A 
ATOM     13  C   UNL A   1      37.891  30.325  28.985  1.00  0.00    -0.014 A 
BRANCH  13  14
ATOM     14  C   UNL A   1      39.231  29.819  29.275  1.00  0.00     0.031 A 
ATOM     15  C   UNL A   1      39.560  29.815  30.727  1.00  0.00     0.074 A 
ATOM     16  C   UNL A   1      40.049  29.247  28.369  1.00  0.00     0.049 A 
ATOM     17  N   UNL A   1      40.449  30.519  31.346  1.00  0.00    -0.248 NA
ATOM     18  C   UNL A   1      38.683  29.039  31.622  1.00  0.00     0.031 C 
ATOM     19  C   UNL A   1      39.747  28.918  26.976  1.00  0.00     0.029 A 
ATOM     20  N   UNL A   1      41.301  28.729  28.541  1.00  0.00    -0.354 N 
ATOM     21  C   UNL A   1      40.403  30.101  32.674  1.00  0.00     0.074 A 
ATOM     22  C   UNL A   1      39.183  29.349  32.817  1.00  0.00     0.031 C 
ATOM     23  C   UNL A   1      40.681  28.057  26.508  1.00  0.00     0.029 A 
ATOM     24  C   UNL A   1      41.711  27.876  27.518  1.00  0.00     0.049 A 
ATOM     25  H   UNL A   1      41.865  28.938  29.321  1.00  0.00     0.167 HD
ATOM     26  C   UNL A   1      41.495  30.167  33.485  1.00  0.00     0.031 A 
ATOM     27  C   UNL A   1      42.780  27.037  27.526  1.00  0.00     0.031 A 
ATOM     28  C   UNL A   1      42.505  31.046  32.955  1.00  0.00     0.049 A 
ATOM     29  C   UNL A   1      43.710  27.512  28.577  1.00  0.00     0.074 A 
ATOM     30  C   UNL A   1      42.552  32.377  32.589  1.00  0.00     0.029 A 
ATOM     31  N   UNL A   1      43.604  30.456  32.377  1.00  0.00    -0.354 N 
ATOM     32  N   UNL A   1      44.368  28.633  28.502  1.00  0.00    -0.248 NA
ATOM     33  C   UNL A   1      43.590  26.946  29.911  1.00  0.00     0.031 C 
ATOM     34  C   UNL A   1      43.391  32.413  31.437  1.00  0.00     0.029 A 
ATOM     35  C   UNL A   1      43.862  31.119  31.208  1.00  0.00     0.049 A 
ATOM     36  H   UNL A   1      44.111  29.694  32.738  1.00  0.00     0.167 HD
ATOM     37  C   UNL A   1      44.354  29.135  29.794  1.00  0.00     0.074 A 
ATOM     38  C   UNL A   1      43.954  28.008  30.634  1.00  0.00     0.031 C 
ATOM     39  C   UNL A   1      44.397  30.481  30.025  1.00  0.00     0.031 A 
BRANCH  26  40
ATOM     40  C   UNL A   1      41.829  29.096  34.503  1.00  0.00    -0.014 A 
ATOM     41  C   UNL A   1      42.206  29.490  35.804  1.00  0.00     0.010 A 
ATOM     42  C   UNL A   1      42.081  27.753  34.146  1.00  0.00     0.010 A 
ATOM     43  C   UNL A   1      42.884  28.614  36.662  1.00  0.00     0.020 A 
ATOM     44  C   UNL A   1      42.713  26.859  35.012  1.00  0.00     0.020 A 
ATOM     45  C   UNL A   1      43.146  27.307  36.251  1.00  0.00     0.054 A 
BRANCH  45  46
ATOM     46  S   UNL A   1      44.116  26.216  37.318  1.00  0.00     0.124 S 
ATOM     47  O   UNL A   1      45.361  26.097  36.568  1.00  0.00    -0.237 OA
ATOM     48  O   UNL A   1      44.191  26.986  38.557  1.00  0.00    -0.237 OA
ATOM     49  O   UNL A   1      43.305  25.003  37.391  1.00  0.00    -0.744 OA
ENDBRANCH  45  46
ENDBRANCH  26  40
BRANCH  27  50
ATOM     50  C   UNL A   1      42.915  25.692  26.906  1.00  0.00    -0.014 A 
ATOM     51  C   UNL A   1      42.871  25.525  25.507  1.00  0.00     0.010 A 
ATOM     52  C   UNL A   1      43.383  24.606  27.675  1.00  0.00     0.010 A 
ATOM     53  C   UNL A   1      43.343  24.347  24.898  1.00  0.00     0.020 A 
ATOM     54  C   UNL A   1      43.847  23.428  27.076  1.00  0.00     0.020 A 
ATOM     55  C   UNL A   1      43.849  23.313  25.689  1.00  0.00     0.054 A 
BRANCH  55  56
ATOM     56  S   UNL A   1      44.632  21.874  24.897  1.00  0.00     0.124 S 
ATOM     57  O   UNL A   1      45.894  21.767  25.623  1.00  0.00    -0.237 OA
ATOM     58  O   UNL A   1      43.667  20.807  25.144  1.00  0.00    -0.237 OA
ATOM     59  O   UNL A   1      44.757  22.279  23.496  1.00  0.00    -0.744 OA
ENDBRANCH  55  56
ENDBRANCH  27  50
BRANCH  39  60
ATOM     60  C   UNL A   1      44.814  31.397  28.900  1.00  0.00    -0.014 A 
ATOM     61  C   UNL A   1      44.028  31.669  27.764  1.00  0.00     0.010 A 
ATOM     62  C   UNL A   1      46.010  32.116  29.074  1.00  0.00     0.010 A 
ATOM     63  C   UNL A   1      44.447  32.613  26.813  1.00  0.00     0.020 A 
ATOM     64  C   UNL A   1      46.422  33.072  28.145  1.00  0.00     0.020 A 
ATOM     65  C   UNL A   1      45.644  33.308  27.012  1.00  0.00     0.054 A 
BRANCH  65  66
ATOM     66  S   UNL A   1      46.168  34.554  25.802  1.00  0.00     0.124 S 
ATOM     67  O   UNL A   1      45.214  34.361  24.714  1.00  0.00    -0.237 OA
ATOM     68  O   UNL A   1      46.032  35.805  26.545  1.00  0.00    -0.237 OA
ATOM     69  O   UNL A   1      47.547  34.178  25.489  1.00  0.00    -0.744 OA
ENDBRANCH  65  66
ENDBRANCH  39  60
ENDBRANCH  13  14
ENDBRANCH   6   8
ENDBRANCH   3   4
ENDBRANCH   2   3
ENDBRANCH   1   2
BRANCH   1  70
ATOM     70  C   UNL A   1      32.297  26.843  26.863  1.00  0.00     0.116 C 
BRANCH  70  71
ATOM     71  N   UNL A   1      31.393  25.705  26.848  1.00  0.00    -0.352 N 
ATOM     72  C   UNL A   1      31.198  24.744  25.884  1.00  0.00     0.251 C 
ATOM     73  H   UNL A   1      30.834  25.608  27.652  1.00  0.00     0.163 HD
ATOM     74  O   UNL A   1      30.395  23.843  26.074  1.00  0.00    -0.269 OA
BRANCH  72  75
ATOM     75  C   UNL A   1      31.911  24.810  24.585  1.00  0.00     0.048 A 
ATOM     76  C   UNL A   1      31.166  25.362  23.524  1.00  0.00     0.014 A 
ATOM     77  C   UNL A   1      33.212  24.316  24.371  1.00  0.00     0.019 A 
ATOM     78  C   UNL A   1      31.720  25.487  22.253  1.00  0.00     0.001 A 
ATOM     79  C   UNL A   1      33.757  24.516  23.092  1.00  0.00     0.010 A 
ATOM     80  C   UNL A   1      33.027  25.078  22.042  1.00  0.00     0.001 A 
BRANCH  77  81
ATOM     81  C   UNL A   1      34.023  23.661  25.476  1.00  0.00     0.300 C 
BRANCH  81  82
ATOM     82  N   UNL A   1      34.248  22.203  25.457  1.00  0.00    -0.329 N 
ATOM     83  C   UNL A   1      32.960  21.493  25.495  1.00  0.00     0.262 C 
ATOM     84  C   UNL A   1      35.214  21.654  24.482  1.00  0.00     0.186 C 
ATOM     85  H   UNL A   1      34.763  22.018  26.317  1.00  0.00     0.348 HD
ATOM     86  C   UNL A   1      33.141  20.004  25.761  1.00  0.00     0.062 C 
ATOM     87  C   UNL A   1      35.414  20.145  24.748  1.00  0.00     0.065 C 
ATOM     88  C   UNL A   1      34.087  19.392  24.744  1.00  0.00     0.012 C 
BRANCH  84  89
ATOM     89  C   UNL A   1      36.588  22.380  24.542  1.00  0.00     0.088 C 
BRANCH  89  90
ATOM     90  C   UNL A   1      37.691  21.646  25.313  1.00  0.00     0.150 C 
BRANCH  90  91
ATOM     91  N   UNL A   1      38.547  22.529  26.087  1.00  0.00    -0.273 N 
ATOM     92  C   UNL A   1      38.334  23.853  26.356  1.00  0.00     0.108 A 
ATOM     93  N   UNL A   1      39.685  22.058  26.629  1.00  0.00    -0.182 NA
ATOM     94  C   UNL A   1      39.414  24.271  27.098  1.00  0.00     0.042 A 
ATOM     95  C   UNL A   1      40.203  23.118  27.253  1.00  0.00     0.135 A 
ENDBRANCH  90  91
ENDBRANCH  89  90
ENDBRANCH  84  89
ENDBRANCH  81  82
ENDBRANCH  77  81
ENDBRANCH  72  75
ENDBRANCH  70  71
ENDBRANCH   1  70
TORSDOF 19
ENDMDL
