MODEL 1
REMARK VINA RESULT:     -12.7      0.000      0.000
REMARK SMILES Cc1c(C(=O)NCCCCNC(=O)c2ccc(-c3c4nc(c(-c5ccc(S(=O)(=O)[O-])cc5)c5ccc([nH]5)c(-c5ccc(S(=O)(=O)[O-])cc5)c5nc(c(-c6ccc(S(=O)(=O)[O-])cc6)c6ccc3[nH]6)C=C5)C=C4)cc2)sc2ncnc(NCc3cn4c(n3)SCC4)c12
REMARK SMILES IDX 8 1 7 2 6 3 4 4 5 5 3 7 1 8 2 9 90 10 74 11 75 12 79 13
REMARK SMILES IDX 76 14 78 15 77 16 80 17 81 19 82 20 83 21 86 22 84 23 85 24
REMARK SMILES IDX 89 25 87 26 88 27 9 28 10 29 11 30 12 31 13 33 14 34 15 35
REMARK SMILES IDX 73 36 16 37 72 38 17 39 18 40 19 41 66 42 20 43 71 44 65 45
REMARK SMILES IDX 67 46 21 47 70 48 64 49 63 50 22 52 52 53 33 54 51 55 34 56
REMARK SMILES IDX 37 57 50 58 68 59 35 60 36 61 49 63 69 64 38 65 23 66 24 67
REMARK SMILES IDX 32 68 25 69 31 70 26 71 27 72 28 73 29 74 30 75 53 76 54 77
REMARK SMILES IDX 62 78 55 79 61 80 56 81 57 82 58 83 59 84 60 85 39 86 40 87
REMARK SMILES IDX 48 88 41 89 47 90 42 91 43 92 44 93 45 94 46 95
REMARK H PARENT 6 6 80 18 11 32 67 51 37 62
REMARK Flexibility Score: inf
ROOT
ATOM      1  C   UNL A   1      38.296  23.850  26.464  1.00  0.00     0.023 C 
ENDROOT
BRANCH   1   2
ATOM      2  C   UNL A   1      36.930  23.826  25.777  1.00  0.00     0.116 C 
BRANCH   2   3
ATOM      3  N   UNL A   1      36.492  22.477  25.480  1.00  0.00    -0.351 N 
ATOM      4  C   UNL A   1      35.273  21.856  25.330  1.00  0.00     0.261 C 
ATOM      5  O   UNL A   1      35.389  20.655  25.063  1.00  0.00    -0.268 OA
ATOM      6  H   UNL A   1      37.246  21.856  25.356  1.00  0.00     0.163 HD
BRANCH   4   7
ATOM      7  C   UNL A   1      33.958  22.511  25.439  1.00  0.00     0.098 A 
ATOM      8  C   UNL A   1      33.941  23.633  23.156  1.00  0.00     0.047 C 
ATOM      9  C   UNL A   1      33.361  23.386  24.511  1.00  0.00    -0.014 A 
ATOM     10  C   UNL A   1      32.139  24.031  25.031  1.00  0.00     0.057 A 
ATOM     11  S   UNL A   1      32.897  22.238  26.735  1.00  0.00    -0.110 S 
ATOM     12  C   UNL A   1      31.828  23.445  26.252  1.00  0.00     0.129 A 
ATOM     13  C   UNL A   1      31.215  25.039  24.617  1.00  0.00     0.138 A 
ATOM     14  N   UNL A   1      30.794  23.711  27.064  1.00  0.00    -0.225 NA
ATOM     15  N   UNL A   1      30.156  25.306  25.430  1.00  0.00    -0.219 NA
ATOM     16  C   UNL A   1      30.012  24.664  26.589  1.00  0.00     0.225 A 
BRANCH  13  17
ATOM     17  N   UNL A   1      31.158  25.866  23.534  1.00  0.00    -0.364 N 
ATOM     18  H   UNL A   1      30.483  25.585  22.875  1.00  0.00     0.162 HD
BRANCH  17  19
ATOM     19  C   UNL A   1      31.862  27.060  23.135  1.00  0.00     0.172 C 
BRANCH  19  20
ATOM     20  C   UNL A   1      31.039  28.310  23.019  1.00  0.00     0.079 A 
ATOM     21  C   UNL A   1      30.898  29.348  23.937  1.00  0.00     0.113 A 
ATOM     22  N   UNL A   1      30.185  28.490  21.935  1.00  0.00    -0.226 NA
ATOM     23  N   UNL A   1      29.909  30.108  23.418  1.00  0.00    -0.325 N 
ATOM     24  C   UNL A   1      29.511  29.561  22.242  1.00  0.00     0.168 A 
ATOM     25  C   UNL A   1      29.107  31.191  23.938  1.00  0.00     0.135 C 
ATOM     26  S   UNL A   1      28.060  30.261  21.642  1.00  0.00    -0.086 SA
ATOM     27  C   UNL A   1      27.733  31.033  23.282  1.00  0.00     0.100 C 
ENDBRANCH  19  20
ENDBRANCH  17  19
ENDBRANCH  13  17
ENDBRANCH   4   7
ENDBRANCH   2   3
ENDBRANCH   1   2
BRANCH   1  28
ATOM     28  C   UNL A   1      39.026  22.498  26.503  1.00  0.00     0.023 C 
BRANCH  28  29
ATOM     29  C   UNL A   1      40.294  22.473  27.352  1.00  0.00     0.116 C 
BRANCH  29  30
ATOM     30  N   UNL A   1      41.497  22.175  26.574  1.00  0.00    -0.352 N 
ATOM     31  C   UNL A   1      42.317  23.069  25.915  1.00  0.00     0.251 C 
ATOM     32  H   UNL A   1      41.751  21.227  26.514  1.00  0.00     0.163 HD
ATOM     33  O   UNL A   1      43.056  22.696  25.007  1.00  0.00    -0.269 OA
BRANCH  31  34
ATOM     34  C   UNL A   1      42.297  24.478  26.336  1.00  0.00     0.039 A 
ATOM     35  C   UNL A   1      41.579  25.443  25.629  1.00  0.00     0.014 A 
ATOM     36  C   UNL A   1      42.968  24.803  27.511  1.00  0.00     0.014 A 
ATOM     37  C   UNL A   1      41.462  26.720  26.174  1.00  0.00     0.010 A 
ATOM     38  C   UNL A   1      42.742  26.018  28.112  1.00  0.00     0.010 A 
ATOM     39  C   UNL A   1      42.021  26.996  27.434  1.00  0.00    -0.014 A 
BRANCH  39  40
ATOM     40  C   UNL A   1      41.753  28.266  28.105  1.00  0.00     0.031 A 
ATOM     41  C   UNL A   1      42.762  29.331  27.853  1.00  0.00     0.074 A 
ATOM     42  C   UNL A   1      40.592  28.549  28.737  1.00  0.00     0.049 A 
ATOM     43  N   UNL A   1      43.629  29.801  28.685  1.00  0.00    -0.248 NA
ATOM     44  C   UNL A   1      42.916  29.847  26.481  1.00  0.00     0.031 C 
ATOM     45  C   UNL A   1      39.374  27.728  28.794  1.00  0.00     0.029 A 
ATOM     46  N   UNL A   1      40.209  29.691  29.373  1.00  0.00    -0.354 N 
ATOM     47  C   UNL A   1      44.286  30.830  28.017  1.00  0.00     0.074 A 
ATOM     48  C   UNL A   1      43.940  30.695  26.624  1.00  0.00     0.031 C 
ATOM     49  C   UNL A   1      38.331  28.488  29.192  1.00  0.00     0.029 A 
ATOM     50  C   UNL A   1      38.844  29.775  29.618  1.00  0.00     0.049 A 
ATOM     51  H   UNL A   1      40.845  30.395  29.635  1.00  0.00     0.167 HD
ATOM     52  C   UNL A   1      44.848  31.870  28.694  1.00  0.00     0.031 A 
ATOM     53  C   UNL A   1      38.175  30.825  30.151  1.00  0.00     0.031 A 
ATOM     54  C   UNL A   1      44.837  31.639  30.114  1.00  0.00     0.049 A 
ATOM     55  C   UNL A   1      39.154  31.597  30.947  1.00  0.00     0.074 A 
ATOM     56  C   UNL A   1      45.567  30.904  31.021  1.00  0.00     0.029 A 
ATOM     57  N   UNL A   1      43.645  31.966  30.710  1.00  0.00    -0.354 N 
ATOM     58  N   UNL A   1      39.764  31.109  31.992  1.00  0.00    -0.248 NA
ATOM     59  C   UNL A   1      39.733  32.815  30.397  1.00  0.00     0.031 C 
ATOM     60  C   UNL A   1      44.679  30.622  32.102  1.00  0.00     0.029 A 
ATOM     61  C   UNL A   1      43.450  31.230  31.849  1.00  0.00     0.049 A 
ATOM     62  H   UNL A   1      43.016  32.640  30.366  1.00  0.00     0.167 HD
ATOM     63  C   UNL A   1      41.015  31.692  31.961  1.00  0.00     0.074 A 
ATOM     64  C   UNL A   1      40.879  32.848  31.084  1.00  0.00     0.031 C 
ATOM     65  C   UNL A   1      42.121  31.018  32.389  1.00  0.00     0.031 A 
BRANCH  52  66
ATOM     66  C   UNL A   1      44.982  33.272  28.151  1.00  0.00    -0.014 A 
ATOM     67  C   UNL A   1      46.210  33.950  28.291  1.00  0.00     0.010 A 
ATOM     68  C   UNL A   1      43.867  34.041  27.760  1.00  0.00     0.010 A 
ATOM     69  C   UNL A   1      46.312  35.332  28.061  1.00  0.00     0.020 A 
ATOM     70  C   UNL A   1      43.965  35.410  27.495  1.00  0.00     0.020 A 
ATOM     71  C   UNL A   1      45.184  36.052  27.666  1.00  0.00     0.054 A 
BRANCH  71  72
ATOM     72  S   UNL A   1      45.315  37.843  27.422  1.00  0.00     0.124 S 
ATOM     73  O   UNL A   1      46.258  37.934  26.312  1.00  0.00    -0.237 OA
ATOM     74  O   UNL A   1      43.936  38.214  27.116  1.00  0.00    -0.237 OA
ATOM     75  O   UNL A   1      45.813  38.328  28.708  1.00  0.00    -0.744 OA
ENDBRANCH  71  72
ENDBRANCH  52  66
BRANCH  53  76
ATOM     76  C   UNL A   1      36.849  31.366  29.772  1.00  0.00    -0.014 A 
ATOM     77  C   UNL A   1      35.933  31.761  30.767  1.00  0.00     0.010 A 
ATOM     78  C   UNL A   1      36.616  31.802  28.451  1.00  0.00     0.010 A 
ATOM     79  C   UNL A   1      34.888  32.648  30.472  1.00  0.00     0.020 A 
ATOM     80  C   UNL A   1      35.570  32.682  28.150  1.00  0.00     0.020 A 
ATOM     81  C   UNL A   1      34.733  33.130  29.170  1.00  0.00     0.054 A 
BRANCH  81  82
ATOM     82  S   UNL A   1      33.527  34.455  28.856  1.00  0.00     0.124 S 
ATOM     83  O   UNL A   1      33.025  34.741  30.197  1.00  0.00    -0.237 OA
ATOM     84  O   UNL A   1      34.355  35.497  28.256  1.00  0.00    -0.237 OA
ATOM     85  O   UNL A   1      32.562  33.834  27.951  1.00  0.00    -0.744 OA
ENDBRANCH  81  82
ENDBRANCH  53  76
BRANCH  65  86
ATOM     86  C   UNL A   1      41.931  29.892  33.369  1.00  0.00    -0.014 A 
ATOM     87  C   UNL A   1      41.730  28.545  33.013  1.00  0.00     0.010 A 
ATOM     88  C   UNL A   1      42.052  30.218  34.731  1.00  0.00     0.010 A 
ATOM     89  C   UNL A   1      41.644  27.553  34.003  1.00  0.00     0.020 A 
ATOM     90  C   UNL A   1      41.984  29.236  35.717  1.00  0.00     0.020 A 
ATOM     91  C   UNL A   1      41.775  27.906  35.352  1.00  0.00     0.054 A 
BRANCH  91  92
ATOM     92  S   UNL A   1      41.705  26.621  36.630  1.00  0.00     0.124 S 
ATOM     93  O   UNL A   1      40.512  26.989  37.387  1.00  0.00    -0.237 OA
ATOM     94  O   UNL A   1      41.598  25.391  35.847  1.00  0.00    -0.237 OA
ATOM     95  O   UNL A   1      42.967  26.778  37.353  1.00  0.00    -0.744 OA
ENDBRANCH  91  92
ENDBRANCH  65  86
ENDBRANCH  39  40
ENDBRANCH  31  34
ENDBRANCH  29  30
ENDBRANCH  28  29
ENDBRANCH   1  28
TORSDOF 17
ENDMDL
MODEL 2
REMARK VINA RESULT:     -12.1      2.012      2.835
REMARK SMILES Cc1c(C(=O)NCCCCNC(=O)c2ccc(-c3c4nc(c(-c5ccc(S(=O)(=O)[O-])cc5)c5ccc([nH]5)c(-c5ccc(S(=O)(=O)[O-])cc5)c5nc(c(-c6ccc(S(=O)(=O)[O-])cc6)c6ccc3[nH]6)C=C5)C=C4)cc2)sc2ncnc(NCc3cn4c(n3)SCC4)c12
REMARK SMILES IDX 8 1 7 2 6 3 4 4 5 5 3 7 1 8 2 9 90 10 74 11 75 12 79 13
REMARK SMILES IDX 76 14 78 15 77 16 80 17 81 19 82 20 83 21 86 22 84 23 85 24
REMARK SMILES IDX 89 25 87 26 88 27 9 28 10 29 11 30 12 31 13 33 14 34 15 35
REMARK SMILES IDX 73 36 16 37 72 38 17 39 18 40 19 41 66 42 20 43 71 44 65 45
REMARK SMILES IDX 67 46 21 47 70 48 64 49 63 50 22 52 52 53 33 54 51 55 34 56
REMARK SMILES IDX 37 57 50 58 68 59 35 60 36 61 49 63 69 64 38 65 23 66 24 67
REMARK SMILES IDX 32 68 25 69 31 70 26 71 27 72 28 73 29 74 30 75 53 76 54 77
REMARK SMILES IDX 62 78 55 79 61 80 56 81 57 82 58 83 59 84 60 85 39 86 40 87
REMARK SMILES IDX 48 88 41 89 47 90 42 91 43 92 44 93 45 94 46 95
REMARK H PARENT 6 6 80 18 11 32 67 51 37 62
REMARK Flexibility Score: inf
ROOT
ATOM      1  C   UNL A   1      36.817  21.986  25.779  1.00  0.00     0.023 C 
ENDROOT
BRANCH   1   2
ATOM      2  C   UNL A   1      36.322  20.748  25.029  1.00  0.00     0.116 C 
BRANCH   2   3
ATOM      3  N   UNL A   1      34.910  20.506  25.248  1.00  0.00    -0.351 N 
ATOM      4  C   UNL A   1      33.754  21.226  25.055  1.00  0.00     0.261 C 
ATOM      5  O   UNL A   1      32.747  20.593  25.388  1.00  0.00    -0.268 OA
ATOM      6  H   UNL A   1      34.737  19.613  25.624  1.00  0.00     0.163 HD
BRANCH   4   7
ATOM      7  C   UNL A   1      33.674  22.587  24.497  1.00  0.00     0.098 A 
ATOM      8  C   UNL A   1      32.642  23.730  26.521  1.00  0.00     0.047 C 
ATOM      9  C   UNL A   1      33.103  23.725  25.099  1.00  0.00    -0.014 A 
ATOM     10  C   UNL A   1      32.996  24.873  24.178  1.00  0.00     0.057 A 
ATOM     11  S   UNL A   1      34.350  23.010  22.998  1.00  0.00    -0.110 S 
ATOM     12  C   UNL A   1      33.662  24.546  23.003  1.00  0.00     0.129 A 
ATOM     13  C   UNL A   1      32.435  26.186  24.183  1.00  0.00     0.138 A 
ATOM     14  N   UNL A   1      33.830  25.298  21.904  1.00  0.00    -0.225 NA
ATOM     15  N   UNL A   1      32.612  26.960  23.077  1.00  0.00    -0.219 NA
ATOM     16  C   UNL A   1      33.262  26.485  22.015  1.00  0.00     0.225 A 
BRANCH  13  17
ATOM     17  N   UNL A   1      31.694  26.882  25.092  1.00  0.00    -0.364 N 
ATOM     18  H   UNL A   1      31.252  26.298  25.751  1.00  0.00     0.162 HD
BRANCH  17  19
ATOM     19  C   UNL A   1      31.409  28.279  25.309  1.00  0.00     0.172 C 
BRANCH  19  20
ATOM     20  C   UNL A   1      32.334  29.009  26.241  1.00  0.00     0.079 A 
ATOM     21  C   UNL A   1      32.231  30.311  26.727  1.00  0.00     0.113 A 
ATOM     22  N   UNL A   1      33.534  28.427  26.637  1.00  0.00    -0.226 NA
ATOM     23  N   UNL A   1      33.407  30.515  27.358  1.00  0.00    -0.325 N 
ATOM     24  C   UNL A   1      34.149  29.383  27.273  1.00  0.00     0.168 A 
ATOM     25  C   UNL A   1      34.066  31.688  27.883  1.00  0.00     0.135 C 
ATOM     26  S   UNL A   1      35.779  29.619  27.769  1.00  0.00    -0.086 SA
ATOM     27  C   UNL A   1      35.563  31.444  27.673  1.00  0.00     0.100 C 
ENDBRANCH  19  20
ENDBRANCH  17  19
ENDBRANCH  13  17
ENDBRANCH   4   7
ENDBRANCH   2   3
ENDBRANCH   1   2
BRANCH   1  28
ATOM     28  C   UNL A   1      38.264  22.399  25.464  1.00  0.00     0.023 C 
BRANCH  28  29
ATOM     29  C   UNL A   1      39.285  22.046  26.542  1.00  0.00     0.116 C 
BRANCH  29  30
ATOM     30  N   UNL A   1      40.661  22.031  26.042  1.00  0.00    -0.352 N 
ATOM     31  C   UNL A   1      41.550  23.085  25.990  1.00  0.00     0.251 C 
ATOM     32  H   UNL A   1      40.990  21.167  25.705  1.00  0.00     0.163 HD
ATOM     33  O   UNL A   1      42.514  23.060  25.228  1.00  0.00    -0.269 OA
BRANCH  31  34
ATOM     34  C   UNL A   1      41.325  24.236  26.878  1.00  0.00     0.039 A 
ATOM     35  C   UNL A   1      41.864  24.285  28.164  1.00  0.00     0.014 A 
ATOM     36  C   UNL A   1      40.607  25.311  26.361  1.00  0.00     0.014 A 
ATOM     37  C   UNL A   1      41.757  25.471  28.887  1.00  0.00     0.010 A 
ATOM     38  C   UNL A   1      40.618  26.517  27.017  1.00  0.00     0.010 A 
ATOM     39  C   UNL A   1      41.158  26.598  28.297  1.00  0.00    -0.014 A 
BRANCH  39  40
ATOM     40  C   UNL A   1      41.201  27.898  28.964  1.00  0.00     0.031 A 
ATOM     41  C   UNL A   1      42.264  28.817  28.473  1.00  0.00     0.074 A 
ATOM     42  C   UNL A   1      40.243  28.336  29.811  1.00  0.00     0.049 A 
ATOM     43  N   UNL A   1      43.338  29.173  29.093  1.00  0.00    -0.248 NA
ATOM     44  C   UNL A   1      42.195  29.298  27.082  1.00  0.00     0.031 C 
ATOM     45  C   UNL A   1      38.969  27.685  30.145  1.00  0.00     0.029 A 
ATOM     46  N   UNL A   1      40.151  29.524  30.471  1.00  0.00    -0.354 N 
ATOM     47  C   UNL A   1      43.969  30.101  28.268  1.00  0.00     0.074 A 
ATOM     48  C   UNL A   1      43.325  30.003  26.982  1.00  0.00     0.031 C 
ATOM     49  C   UNL A   1      38.138  28.580  30.722  1.00  0.00     0.029 A 
ATOM     50  C   UNL A   1      38.889  29.791  30.989  1.00  0.00     0.049 A 
ATOM     51  H   UNL A   1      40.913  30.139  30.573  1.00  0.00     0.167 HD
ATOM     52  C   UNL A   1      44.788  31.062  28.779  1.00  0.00     0.031 A 
ATOM     53  C   UNL A   1      38.487  30.924  31.611  1.00  0.00     0.031 A 
ATOM     54  C   UNL A   1      45.043  30.845  30.178  1.00  0.00     0.049 A 
ATOM     55  C   UNL A   1      39.701  31.565  32.162  1.00  0.00     0.074 A 
ATOM     56  C   UNL A   1      45.845  30.026  30.940  1.00  0.00     0.029 A 
ATOM     57  N   UNL A   1      44.054  31.331  30.995  1.00  0.00    -0.354 N 
ATOM     58  N   UNL A   1      40.447  31.007  33.076  1.00  0.00    -0.248 NA
ATOM     59  C   UNL A   1      40.305  32.691  31.462  1.00  0.00     0.031 C 
ATOM     60  C   UNL A   1      45.173  29.872  32.190  1.00  0.00     0.029 A 
ATOM     61  C   UNL A   1      44.007  30.636  32.174  1.00  0.00     0.049 A 
ATOM     62  H   UNL A   1      43.459  32.081  30.764  1.00  0.00     0.167 HD
ATOM     63  C   UNL A   1      41.729  31.418  32.768  1.00  0.00     0.074 A 
ATOM     64  C   UNL A   1      41.562  32.576  31.898  1.00  0.00     0.031 C 
ATOM     65  C   UNL A   1      42.803  30.607  32.983  1.00  0.00     0.031 A 
BRANCH  52  66
ATOM     66  C   UNL A   1      44.985  32.430  28.172  1.00  0.00    -0.014 A 
ATOM     67  C   UNL A   1      46.263  32.798  27.702  1.00  0.00     0.010 A 
ATOM     68  C   UNL A   1      44.030  33.459  28.300  1.00  0.00     0.010 A 
ATOM     69  C   UNL A   1      46.570  34.132  27.389  1.00  0.00     0.020 A 
ATOM     70  C   UNL A   1      44.315  34.784  27.959  1.00  0.00     0.020 A 
ATOM     71  C   UNL A   1      45.590  35.116  27.522  1.00  0.00     0.054 A 
BRANCH  71  72
ATOM     72  S   UNL A   1      46.013  36.842  27.164  1.00  0.00     0.124 S 
ATOM     73  O   UNL A   1      46.916  36.707  26.027  1.00  0.00    -0.237 OA
ATOM     74  O   UNL A   1      44.706  37.424  26.871  1.00  0.00    -0.237 OA
ATOM     75  O   UNL A   1      46.631  37.307  28.404  1.00  0.00    -0.744 OA
ENDBRANCH  71  72
ENDBRANCH  52  66
BRANCH  53  76
ATOM     76  C   UNL A   1      37.191  31.633  31.494  1.00  0.00    -0.014 A 
ATOM     77  C   UNL A   1      36.256  31.580  32.546  1.00  0.00     0.010 A 
ATOM     78  C   UNL A   1      37.017  32.623  30.505  1.00  0.00     0.010 A 
ATOM     79  C   UNL A   1      35.249  32.550  32.664  1.00  0.00     0.020 A 
ATOM     80  C   UNL A   1      36.009  33.590  30.614  1.00  0.00     0.020 A 
ATOM     81  C   UNL A   1      35.154  33.570  31.715  1.00  0.00     0.054 A 
BRANCH  81  82
ATOM     82  S   UNL A   1      34.001  34.945  32.009  1.00  0.00     0.124 S 
ATOM     83  O   UNL A   1      32.927  34.295  32.755  1.00  0.00    -0.237 OA
ATOM     84  O   UNL A   1      34.820  35.884  32.769  1.00  0.00    -0.237 OA
ATOM     85  O   UNL A   1      33.642  35.388  30.663  1.00  0.00    -0.744 OA
ENDBRANCH  81  82
ENDBRANCH  53  76
BRANCH  65  86
ATOM     86  C   UNL A   1      42.679  29.523  34.019  1.00  0.00    -0.014 A 
ATOM     87  C   UNL A   1      42.855  29.714  35.403  1.00  0.00     0.010 A 
ATOM     88  C   UNL A   1      42.275  28.258  33.559  1.00  0.00     0.010 A 
ATOM     89  C   UNL A   1      42.637  28.655  36.299  1.00  0.00     0.020 A 
ATOM     90  C   UNL A   1      42.041  27.208  34.446  1.00  0.00     0.020 A 
ATOM     91  C   UNL A   1      42.229  27.407  35.813  1.00  0.00     0.054 A 
BRANCH  91  92
ATOM     92  S   UNL A   1      41.908  26.050  36.973  1.00  0.00     0.124 S 
ATOM     93  O   UNL A   1      40.556  26.344  37.442  1.00  0.00    -0.237 OA
ATOM     94  O   UNL A   1      42.036  24.865  36.128  1.00  0.00    -0.237 OA
ATOM     95  O   UNL A   1      42.956  26.198  37.982  1.00  0.00    -0.744 OA
ENDBRANCH  91  92
ENDBRANCH  65  86
ENDBRANCH  39  40
ENDBRANCH  31  34
ENDBRANCH  29  30
ENDBRANCH  28  29
ENDBRANCH   1  28
TORSDOF 17
ENDMDL
MODEL 3
REMARK VINA RESULT:     -12.1      3.263      9.938
REMARK SMILES Cc1c(C(=O)NCCCCNC(=O)c2ccc(-c3c4nc(c(-c5ccc(S(=O)(=O)[O-])cc5)c5ccc([nH]5)c(-c5ccc(S(=O)(=O)[O-])cc5)c5nc(c(-c6ccc(S(=O)(=O)[O-])cc6)c6ccc3[nH]6)C=C5)C=C4)cc2)sc2ncnc(NCc3cn4c(n3)SCC4)c12
REMARK SMILES IDX 8 1 7 2 6 3 4 4 5 5 3 7 1 8 2 9 90 10 74 11 75 12 79 13
REMARK SMILES IDX 76 14 78 15 77 16 80 17 81 19 82 20 83 21 86 22 84 23 85 24
REMARK SMILES IDX 89 25 87 26 88 27 9 28 10 29 11 30 12 31 13 33 14 34 15 35
REMARK SMILES IDX 73 36 16 37 72 38 17 39 18 40 19 41 66 42 20 43 71 44 65 45
REMARK SMILES IDX 67 46 21 47 70 48 64 49 63 50 22 52 52 53 33 54 51 55 34 56
REMARK SMILES IDX 37 57 50 58 68 59 35 60 36 61 49 63 69 64 38 65 23 66 24 67
REMARK SMILES IDX 32 68 25 69 31 70 26 71 27 72 28 73 29 74 30 75 53 76 54 77
REMARK SMILES IDX 62 78 55 79 61 80 56 81 57 82 58 83 59 84 60 85 39 86 40 87
REMARK SMILES IDX 48 88 41 89 47 90 42 91 43 92 44 93 45 94 46 95
REMARK H PARENT 6 6 80 18 11 32 67 51 37 62
REMARK Flexibility Score: inf
ROOT
ATOM      1  C   UNL A   1      35.565  30.179  27.522  1.00  0.00     0.023 C 
ENDROOT
BRANCH   1   2
ATOM      2  C   UNL A   1      34.561  29.066  27.221  1.00  0.00     0.116 C 
BRANCH   2   3
ATOM      3  N   UNL A   1      34.229  28.997  25.812  1.00  0.00    -0.351 N 
ATOM      4  C   UNL A   1      33.539  28.116  25.013  1.00  0.00     0.261 C 
ATOM      5  O   UNL A   1      33.502  28.482  23.834  1.00  0.00    -0.268 OA
ATOM      6  H   UNL A   1      34.580  29.765  25.306  1.00  0.00     0.163 HD
BRANCH   4   7
ATOM      7  C   UNL A   1      32.881  26.879  25.469  1.00  0.00     0.098 A 
ATOM      8  C   UNL A   1      34.683  25.240  24.734  1.00  0.00     0.047 C 
ATOM      9  C   UNL A   1      33.330  25.556  25.287  1.00  0.00    -0.014 A 
ATOM     10  C   UNL A   1      32.326  24.547  25.674  1.00  0.00     0.057 A 
ATOM     11  S   UNL A   1      31.449  26.877  26.380  1.00  0.00    -0.110 S 
ATOM     12  C   UNL A   1      31.264  25.207  26.283  1.00  0.00     0.129 A 
ATOM     13  C   UNL A   1      32.172  23.128  25.616  1.00  0.00     0.138 A 
ATOM     14  N   UNL A   1      30.144  24.681  26.801  1.00  0.00    -0.225 NA
ATOM     15  N   UNL A   1      31.044  22.586  26.151  1.00  0.00    -0.219 NA
ATOM     16  C   UNL A   1      30.103  23.366  26.683  1.00  0.00     0.225 A 
BRANCH  13  17
ATOM     17  N   UNL A   1      32.935  22.127  25.091  1.00  0.00    -0.364 N 
ATOM     18  H   UNL A   1      32.886  22.085  24.109  1.00  0.00     0.162 HD
BRANCH  17  19
ATOM     19  C   UNL A   1      33.797  21.114  25.649  1.00  0.00     0.172 C 
BRANCH  19  20
ATOM     20  C   UNL A   1      33.451  19.690  25.318  1.00  0.00     0.079 A 
ATOM     21  C   UNL A   1      32.602  18.820  25.999  1.00  0.00     0.113 A 
ATOM     22  N   UNL A   1      34.100  19.034  24.277  1.00  0.00    -0.226 NA
ATOM     23  N   UNL A   1      32.803  17.631  25.391  1.00  0.00    -0.325 N 
ATOM     24  C   UNL A   1      33.700  17.800  24.388  1.00  0.00     0.168 A 
ATOM     25  C   UNL A   1      32.435  16.272  25.715  1.00  0.00     0.135 C 
ATOM     26  S   UNL A   1      34.264  16.309  23.744  1.00  0.00    -0.086 SA
ATOM     27  C   UNL A   1      33.585  15.403  25.196  1.00  0.00     0.100 C 
ENDBRANCH  19  20
ENDBRANCH  17  19
ENDBRANCH  13  17
ENDBRANCH   4   7
ENDBRANCH   2   3
ENDBRANCH   1   2
BRANCH   1  28
ATOM     28  C   UNL A   1      34.951  31.577  27.698  1.00  0.00     0.023 C 
BRANCH  28  29
ATOM     29  C   UNL A   1      35.786  32.551  28.524  1.00  0.00     0.116 C 
BRANCH  29  30
ATOM     30  N   UNL A   1      35.175  32.876  29.813  1.00  0.00    -0.352 N 
ATOM     31  C   UNL A   1      35.262  32.162  30.991  1.00  0.00     0.251 C 
ATOM     32  H   UNL A   1      34.639  33.701  29.843  1.00  0.00     0.163 HD
ATOM     33  O   UNL A   1      34.429  32.312  31.883  1.00  0.00    -0.269 OA
BRANCH  31  34
ATOM     34  C   UNL A   1      36.384  31.226  31.162  1.00  0.00     0.039 A 
ATOM     35  C   UNL A   1      36.212  29.847  31.045  1.00  0.00     0.014 A 
ATOM     36  C   UNL A   1      37.645  31.775  31.377  1.00  0.00     0.014 A 
ATOM     37  C   UNL A   1      37.342  29.031  31.047  1.00  0.00     0.010 A 
ATOM     38  C   UNL A   1      38.763  30.988  31.246  1.00  0.00     0.010 A 
ATOM     39  C   UNL A   1      38.621  29.610  31.118  1.00  0.00    -0.014 A 
BRANCH  39  40
ATOM     40  C   UNL A   1      39.818  28.791  30.936  1.00  0.00     0.031 A 
ATOM     41  C   UNL A   1      40.558  28.480  32.189  1.00  0.00     0.074 A 
ATOM     42  C   UNL A   1      40.137  28.180  29.773  1.00  0.00     0.049 A 
ATOM     43  N   UNL A   1      41.704  28.946  32.557  1.00  0.00    -0.248 NA
ATOM     44  C   UNL A   1      39.896  27.656  33.215  1.00  0.00     0.031 C 
ATOM     45  C   UNL A   1      39.342  28.120  28.539  1.00  0.00     0.029 A 
ATOM     46  N   UNL A   1      41.198  27.377  29.481  1.00  0.00    -0.354 N 
ATOM     47  C   UNL A   1      42.015  28.302  33.752  1.00  0.00     0.074 A 
ATOM     48  C   UNL A   1      40.801  27.665  34.197  1.00  0.00     0.031 C 
ATOM     49  C   UNL A   1      39.810  27.134  27.743  1.00  0.00     0.029 A 
ATOM     50  C   UNL A   1      41.053  26.646  28.308  1.00  0.00     0.049 A 
ATOM     51  H   UNL A   1      41.998  27.320  30.052  1.00  0.00     0.167 HD
ATOM     52  C   UNL A   1      43.307  28.120  34.143  1.00  0.00     0.031 A 
ATOM     53  C   UNL A   1      41.902  25.711  27.821  1.00  0.00     0.031 A 
ATOM     54  C   UNL A   1      44.219  28.834  33.290  1.00  0.00     0.049 A 
ATOM     55  C   UNL A   1      43.235  26.004  28.390  1.00  0.00     0.074 A 
ATOM     56  C   UNL A   1      44.650  30.133  33.140  1.00  0.00     0.029 A 
ATOM     57  N   UNL A   1      44.531  28.160  32.137  1.00  0.00    -0.354 N 
ATOM     58  N   UNL A   1      43.885  27.110  28.146  1.00  0.00    -0.248 NA
ATOM     59  C   UNL A   1      43.728  25.224  29.517  1.00  0.00     0.031 C 
ATOM     60  C   UNL A   1      45.035  30.263  31.772  1.00  0.00     0.029 A 
ATOM     61  C   UNL A   1      44.876  29.031  31.138  1.00  0.00     0.049 A 
ATOM     62  H   UNL A   1      44.510  27.180  32.041  1.00  0.00     0.167 HD
ATOM     63  C   UNL A   1      44.564  27.372  29.319  1.00  0.00     0.074 A 
ATOM     64  C   UNL A   1      44.577  26.109  30.047  1.00  0.00     0.031 C 
ATOM     65  C   UNL A   1      44.779  28.651  29.742  1.00  0.00     0.031 A 
BRANCH  52  66
ATOM     66  C   UNL A   1      43.794  26.958  34.976  1.00  0.00    -0.014 A 
ATOM     67  C   UNL A   1      44.905  27.137  35.825  1.00  0.00     0.010 A 
ATOM     68  C   UNL A   1      43.372  25.633  34.744  1.00  0.00     0.010 A 
ATOM     69  C   UNL A   1      45.566  26.041  36.403  1.00  0.00     0.020 A 
ATOM     70  C   UNL A   1      44.001  24.538  35.342  1.00  0.00     0.020 A 
ATOM     71  C   UNL A   1      45.108  24.748  36.155  1.00  0.00     0.054 A 
BRANCH  71  72
ATOM     72  S   UNL A   1      46.000  23.339  36.864  1.00  0.00     0.124 S 
ATOM     73  O   UNL A   1      47.370  23.592  36.428  1.00  0.00    -0.237 OA
ATOM     74  O   UNL A   1      45.748  23.503  38.293  1.00  0.00    -0.237 OA
ATOM     75  O   UNL A   1      45.352  22.180  36.253  1.00  0.00    -0.744 OA
ENDBRANCH  71  72
ENDBRANCH  52  66
BRANCH  53  76
ATOM     76  C   UNL A   1      41.581  24.424  27.159  1.00  0.00    -0.014 A 
ATOM     77  C   UNL A   1      42.452  23.887  26.192  1.00  0.00     0.010 A 
ATOM     78  C   UNL A   1      40.603  23.572  27.712  1.00  0.00     0.010 A 
ATOM     79  C   UNL A   1      42.420  22.522  25.872  1.00  0.00     0.020 A 
ATOM     80  C   UNL A   1      40.560  22.209  27.391  1.00  0.00     0.020 A 
ATOM     81  C   UNL A   1      41.495  21.684  26.500  1.00  0.00     0.054 A 
BRANCH  81  82
ATOM     82  S   UNL A   1      41.620  19.887  26.252  1.00  0.00     0.124 S 
ATOM     83  O   UNL A   1      42.001  19.417  27.581  1.00  0.00    -0.237 OA
ATOM     84  O   UNL A   1      40.270  19.535  25.821  1.00  0.00    -0.237 OA
ATOM     85  O   UNL A   1      42.652  19.752  25.226  1.00  0.00    -0.744 OA
ENDBRANCH  81  82
ENDBRANCH  53  76
BRANCH  65  86
ATOM     86  C   UNL A   1      44.770  29.749  28.713  1.00  0.00    -0.014 A 
ATOM     87  C   UNL A   1      43.610  30.381  28.225  1.00  0.00     0.010 A 
ATOM     88  C   UNL A   1      46.024  30.219  28.286  1.00  0.00     0.010 A 
ATOM     89  C   UNL A   1      43.711  31.453  27.324  1.00  0.00     0.020 A 
ATOM     90  C   UNL A   1      46.130  31.294  27.405  1.00  0.00     0.020 A 
ATOM     91  C   UNL A   1      44.973  31.905  26.921  1.00  0.00     0.054 A 
BRANCH  91  92
ATOM     92  S   UNL A   1      45.106  33.316  25.789  1.00  0.00     0.124 S 
ATOM     93  O   UNL A   1      44.381  34.365  26.501  1.00  0.00    -0.237 OA
ATOM     94  O   UNL A   1      46.550  33.511  25.682  1.00  0.00    -0.237 OA
ATOM     95  O   UNL A   1      44.460  32.843  24.565  1.00  0.00    -0.744 OA
ENDBRANCH  91  92
ENDBRANCH  65  86
ENDBRANCH  39  40
ENDBRANCH  31  34
ENDBRANCH  29  30
ENDBRANCH  28  29
ENDBRANCH   1  28
TORSDOF 17
ENDMDL
