MODEL 1
REMARK VINA RESULT:     -10.3      0.000      0.000
REMARK SMILES CCc1nc(C)c(C(=O)NCCCCNC(=O)c2ccc(-c3c4nc(c(-c5ccc(S(=O)(=O)[O-])cc5)c5ccc([nH]5)c(-c5ccc(S(=O)(=O)[O-])cc5)c5nc(c(-c6ccc(S(=O)(=O)[O-])cc6)c6ccc3[nH]6)C=C5)C=C4)cc2)c(SCc2cnc(Cl)s2)n1
REMARK SMILES IDX 12 1 11 2 10 3 8 4 9 5 7 7 3 8 4 9 87 10 5 11 78 12 6 13
REMARK SMILES IDX 2 14 1 15 79 16 80 17 81 18 82 19 86 20 83 21 84 22 85 23
REMARK SMILES IDX 13 24 14 25 15 26 16 27 17 29 18 30 19 31 77 32 20 33 76 34
REMARK SMILES IDX 21 35 22 36 23 37 70 38 24 39 75 40 69 41 71 42 25 43 74 44
REMARK SMILES IDX 68 45 67 46 26 48 56 49 37 50 55 51 38 52 41 53 54 54 72 55
REMARK SMILES IDX 39 56 40 57 53 59 73 60 42 61 27 62 28 63 36 64 29 65 35 66
REMARK SMILES IDX 30 67 31 68 32 69 33 70 34 71 57 72 58 73 66 74 59 75 65 76
REMARK SMILES IDX 60 77 61 78 62 79 63 80 64 81 43 82 44 83 52 84 45 85 51 86
REMARK SMILES IDX 46 87 47 88 48 89 49 90 50 91
REMARK H PARENT 10 6 15 28 71 47 41 58
REMARK Flexibility Score: inf
ROOT
ATOM      1  C   UNL A   1      33.196  28.009  24.435  1.00  0.00     0.023 C 
ENDROOT
BRANCH   1   2
ATOM      2  C   UNL A   1      33.714  27.565  23.059  1.00  0.00     0.116 C 
BRANCH   2   3
ATOM      3  N   UNL A   1      32.568  27.352  22.197  1.00  0.00    -0.352 N 
ATOM      4  C   UNL A   1      31.822  26.216  21.994  1.00  0.00     0.255 C 
ATOM      5  O   UNL A   1      31.416  26.005  20.852  1.00  0.00    -0.269 OA
ATOM      6  H   UNL A   1      32.283  28.138  21.679  1.00  0.00     0.163 HD
BRANCH   4   7
ATOM      7  C   UNL A   1      31.355  25.322  23.072  1.00  0.00     0.093 A 
ATOM      8  C   UNL A   1      30.953  23.867  25.359  1.00  0.00     0.129 A 
ATOM      9  N   UNL A   1      30.126  24.879  25.105  1.00  0.00    -0.237 NA
ATOM     10  N   UNL A   1      31.920  23.480  24.530  1.00  0.00    -0.226 NA
ATOM     11  C   UNL A   1      30.357  25.629  24.000  1.00  0.00     0.055 A 
ATOM     12  C   UNL A   1      32.119  24.191  23.386  1.00  0.00     0.113 A 
ATOM     13  C   UNL A   1      29.466  26.824  24.009  1.00  0.00     0.068 C 
BRANCH   8  14
ATOM     14  C   UNL A   1      30.935  23.312  26.753  1.00  0.00     0.074 C 
ATOM     15  C   UNL A   1      29.515  22.894  27.122  1.00  0.00     0.012 C 
ENDBRANCH   8  14
BRANCH  12  16
ATOM     16  S   UNL A   1      33.520  23.457  22.546  1.00  0.00    -0.100 SA
BRANCH  16  17
ATOM     17  C   UNL A   1      34.272  22.228  23.639  1.00  0.00     0.125 C 
BRANCH  17  18
ATOM     18  C   UNL A   1      35.441  22.590  24.495  1.00  0.00     0.036 A 
ATOM     19  C   UNL A   1      35.626  23.803  25.145  1.00  0.00     0.129 A 
ATOM     20  S   UNL A   1      36.760  21.558  24.884  1.00  0.00    -0.107 S 
ATOM     21  N   UNL A   1      36.812  23.952  25.832  1.00  0.00    -0.233 NA
ATOM     22  C   UNL A   1      37.485  22.834  25.737  1.00  0.00     0.183 A 
ATOM     23  Cl  UNL A   1      39.047  22.638  26.413  1.00  0.00    -0.051 Cl
ENDBRANCH  17  18
ENDBRANCH  16  17
ENDBRANCH  12  16
ENDBRANCH   4   7
ENDBRANCH   2   3
ENDBRANCH   1   2
BRANCH   1  24
ATOM     24  C   UNL A   1      34.221  28.683  25.339  1.00  0.00     0.023 C 
BRANCH  24  25
ATOM     25  C   UNL A   1      33.911  28.552  26.817  1.00  0.00     0.116 C 
BRANCH  25  26
ATOM     26  N   UNL A   1      33.687  29.834  27.474  1.00  0.00    -0.352 N 
ATOM     27  C   UNL A   1      34.567  30.557  28.240  1.00  0.00     0.251 C 
ATOM     28  H   UNL A   1      32.794  30.230  27.354  1.00  0.00     0.163 HD
ATOM     29  O   UNL A   1      34.209  31.592  28.794  1.00  0.00    -0.269 OA
BRANCH  27  30
ATOM     30  C   UNL A   1      35.930  30.030  28.425  1.00  0.00     0.039 A 
ATOM     31  C   UNL A   1      36.849  30.161  27.383  1.00  0.00     0.014 A 
ATOM     32  C   UNL A   1      36.314  29.497  29.658  1.00  0.00     0.014 A 
ATOM     33  C   UNL A   1      38.179  29.808  27.601  1.00  0.00     0.010 A 
ATOM     34  C   UNL A   1      37.654  29.237  29.901  1.00  0.00     0.010 A 
ATOM     35  C   UNL A   1      38.595  29.375  28.871  1.00  0.00    -0.014 A 
BRANCH  35  36
ATOM     36  C   UNL A   1      40.006  29.012  29.135  1.00  0.00     0.031 A 
ATOM     37  C   UNL A   1      40.924  30.029  29.755  1.00  0.00     0.074 A 
ATOM     38  C   UNL A   1      40.469  27.804  28.763  1.00  0.00     0.049 A 
ATOM     39  N   UNL A   1      42.201  29.933  30.020  1.00  0.00    -0.248 NA
ATOM     40  C   UNL A   1      40.339  31.339  30.087  1.00  0.00     0.031 C 
ATOM     41  C   UNL A   1      39.684  26.759  28.100  1.00  0.00     0.029 A 
ATOM     42  N   UNL A   1      41.718  27.253  28.887  1.00  0.00    -0.354 N 
ATOM     43  C   UNL A   1      42.573  31.174  30.522  1.00  0.00     0.074 A 
ATOM     44  C   UNL A   1      41.405  32.024  30.470  1.00  0.00     0.031 C 
ATOM     45  C   UNL A   1      40.463  25.681  27.907  1.00  0.00     0.029 A 
ATOM     46  C   UNL A   1      41.805  25.969  28.404  1.00  0.00     0.049 A 
ATOM     47  H   UNL A   1      42.481  27.731  29.285  1.00  0.00     0.167 HD
ATOM     48  C   UNL A   1      43.773  31.565  31.010  1.00  0.00     0.031 A 
ATOM     49  C   UNL A   1      42.848  25.118  28.374  1.00  0.00     0.031 A 
ATOM     50  C   UNL A   1      44.921  30.706  31.088  1.00  0.00     0.049 A 
ATOM     51  C   UNL A   1      44.161  25.557  28.963  1.00  0.00     0.074 A 
ATOM     52  C   UNL A   1      46.170  30.979  31.617  1.00  0.00     0.029 A 
ATOM     53  N   UNL A   1      44.956  29.397  30.629  1.00  0.00    -0.354 N 
ATOM     54  N   UNL A   1      44.479  26.716  29.490  1.00  0.00    -0.248 NA
ATOM     55  C   UNL A   1      45.245  24.569  28.973  1.00  0.00     0.031 C 
ATOM     56  C   UNL A   1      46.971  29.844  31.447  1.00  0.00     0.029 A 
ATOM     57  C   UNL A   1      46.206  28.850  30.857  1.00  0.00     0.049 A 
ATOM     58  H   UNL A   1      44.203  28.927  30.204  1.00  0.00     0.167 HD
ATOM     59  C   UNL A   1      45.793  26.585  29.924  1.00  0.00     0.074 A 
ATOM     60  C   UNL A   1      46.203  25.231  29.606  1.00  0.00     0.031 C 
ATOM     61  C   UNL A   1      46.588  27.499  30.535  1.00  0.00     0.031 A 
BRANCH  48  62
ATOM     62  C   UNL A   1      43.888  32.985  31.496  1.00  0.00    -0.014 A 
ATOM     63  C   UNL A   1      43.592  33.322  32.830  1.00  0.00     0.010 A 
ATOM     64  C   UNL A   1      44.291  33.997  30.607  1.00  0.00     0.010 A 
ATOM     65  C   UNL A   1      43.643  34.653  33.252  1.00  0.00     0.020 A 
ATOM     66  C   UNL A   1      44.372  35.327  31.034  1.00  0.00     0.020 A 
ATOM     67  C   UNL A   1      44.026  35.648  32.349  1.00  0.00     0.054 A 
BRANCH  67  68
ATOM     68  S   UNL A   1      44.086  37.368  32.922  1.00  0.00     0.124 S 
ATOM     69  O   UNL A   1      45.407  37.431  33.542  1.00  0.00    -0.237 OA
ATOM     70  O   UNL A   1      43.937  38.126  31.682  1.00  0.00    -0.237 OA
ATOM     71  O   UNL A   1      42.958  37.464  33.846  1.00  0.00    -0.744 OA
ENDBRANCH  67  68
ENDBRANCH  48  62
BRANCH  49  72
ATOM     72  C   UNL A   1      42.676  23.753  27.810  1.00  0.00    -0.014 A 
ATOM     73  C   UNL A   1      42.258  22.692  28.633  1.00  0.00     0.010 A 
ATOM     74  C   UNL A   1      42.903  23.510  26.444  1.00  0.00     0.010 A 
ATOM     75  C   UNL A   1      42.086  21.410  28.104  1.00  0.00     0.020 A 
ATOM     76  C   UNL A   1      42.709  22.234  25.906  1.00  0.00     0.020 A 
ATOM     77  C   UNL A   1      42.310  21.189  26.743  1.00  0.00     0.054 A 
BRANCH  77  78
ATOM     78  S   UNL A   1      42.024  19.530  26.065  1.00  0.00     0.124 S 
ATOM     79  O   UNL A   1      42.514  18.674  27.140  1.00  0.00    -0.237 OA
ATOM     80  O   UNL A   1      40.578  19.519  25.855  1.00  0.00    -0.237 OA
ATOM     81  O   UNL A   1      42.823  19.520  24.841  1.00  0.00    -0.744 OA
ENDBRANCH  77  78
ENDBRANCH  49  72
BRANCH  61  82
ATOM     82  C   UNL A   1      47.965  27.050  30.938  1.00  0.00    -0.014 A 
ATOM     83  C   UNL A   1      48.179  26.315  32.117  1.00  0.00     0.010 A 
ATOM     84  C   UNL A   1      49.056  27.333  30.095  1.00  0.00     0.010 A 
ATOM     85  C   UNL A   1      49.468  25.904  32.467  1.00  0.00     0.020 A 
ATOM     86  C   UNL A   1      50.341  26.900  30.428  1.00  0.00     0.020 A 
ATOM     87  C   UNL A   1      50.541  26.203  31.621  1.00  0.00     0.054 A 
BRANCH  87  88
ATOM     88  S   UNL A   1      52.201  25.634  32.078  1.00  0.00     0.124 S 
ATOM     89  O   UNL A   1      52.922  25.759  30.815  1.00  0.00    -0.237 OA
ATOM     90  O   UNL A   1      52.590  26.581  33.122  1.00  0.00    -0.237 OA
ATOM     91  O   UNL A   1      51.982  24.265  32.539  1.00  0.00    -0.744 OA
ENDBRANCH  87  88
ENDBRANCH  61  82
ENDBRANCH  35  36
ENDBRANCH  27  30
ENDBRANCH  25  26
ENDBRANCH  24  25
ENDBRANCH   1  24
TORSDOF 18
ENDMDL
MODEL 2
REMARK VINA RESULT:      -9.7      2.786      3.408
REMARK SMILES CCc1nc(C)c(C(=O)NCCCCNC(=O)c2ccc(-c3c4nc(c(-c5ccc(S(=O)(=O)[O-])cc5)c5ccc([nH]5)c(-c5ccc(S(=O)(=O)[O-])cc5)c5nc(c(-c6ccc(S(=O)(=O)[O-])cc6)c6ccc3[nH]6)C=C5)C=C4)cc2)c(SCc2cnc(Cl)s2)n1
REMARK SMILES IDX 12 1 11 2 10 3 8 4 9 5 7 7 3 8 4 9 87 10 5 11 78 12 6 13
REMARK SMILES IDX 2 14 1 15 79 16 80 17 81 18 82 19 86 20 83 21 84 22 85 23
REMARK SMILES IDX 13 24 14 25 15 26 16 27 17 29 18 30 19 31 77 32 20 33 76 34
REMARK SMILES IDX 21 35 22 36 23 37 70 38 24 39 75 40 69 41 71 42 25 43 74 44
REMARK SMILES IDX 68 45 67 46 26 48 56 49 37 50 55 51 38 52 41 53 54 54 72 55
REMARK SMILES IDX 39 56 40 57 53 59 73 60 42 61 27 62 28 63 36 64 29 65 35 66
REMARK SMILES IDX 30 67 31 68 32 69 33 70 34 71 57 72 58 73 66 74 59 75 65 76
REMARK SMILES IDX 60 77 61 78 62 79 63 80 64 81 43 82 44 83 52 84 45 85 51 86
REMARK SMILES IDX 46 87 47 88 48 89 49 90 50 91
REMARK H PARENT 10 6 15 28 71 47 41 58
REMARK Flexibility Score: inf
ROOT
ATOM      1  C   UNL A   1      34.157  28.302  24.023  1.00  0.00     0.023 C 
ENDROOT
BRANCH   1   2
ATOM      2  C   UNL A   1      33.081  28.940  23.130  1.00  0.00     0.116 C 
BRANCH   2   3
ATOM      3  N   UNL A   1      32.873  28.070  21.990  1.00  0.00    -0.352 N 
ATOM      4  C   UNL A   1      32.787  26.700  21.936  1.00  0.00     0.255 C 
ATOM      5  O   UNL A   1      33.287  26.142  20.959  1.00  0.00    -0.269 OA
ATOM      6  H   UNL A   1      32.779  28.530  21.125  1.00  0.00     0.163 HD
BRANCH   4   7
ATOM      7  C   UNL A   1      32.013  25.876  22.885  1.00  0.00     0.093 A 
ATOM      8  C   UNL A   1      30.917  24.598  25.046  1.00  0.00     0.129 A 
ATOM      9  N   UNL A   1      30.195  25.537  24.439  1.00  0.00    -0.237 NA
ATOM     10  N   UNL A   1      32.112  24.196  24.619  1.00  0.00    -0.226 NA
ATOM     11  C   UNL A   1      30.758  26.203  23.402  1.00  0.00     0.055 A 
ATOM     12  C   UNL A   1      32.659  24.819  23.539  1.00  0.00     0.113 A 
ATOM     13  C   UNL A   1      29.885  27.344  23.004  1.00  0.00     0.068 C 
BRANCH   8  14
ATOM     14  C   UNL A   1      30.454  24.161  26.406  1.00  0.00     0.074 C 
ATOM     15  C   UNL A   1      30.380  22.638  26.459  1.00  0.00     0.012 C 
ENDBRANCH   8  14
BRANCH  12  16
ATOM     16  S   UNL A   1      34.276  24.096  23.277  1.00  0.00    -0.100 SA
BRANCH  16  17
ATOM     17  C   UNL A   1      34.532  22.788  24.500  1.00  0.00     0.125 C 
BRANCH  17  18
ATOM     18  C   UNL A   1      35.912  22.416  24.933  1.00  0.00     0.036 A 
ATOM     19  C   UNL A   1      36.500  21.167  24.784  1.00  0.00     0.129 A 
ATOM     20  S   UNL A   1      37.058  23.474  25.655  1.00  0.00    -0.107 S 
ATOM     21  N   UNL A   1      37.763  21.020  25.315  1.00  0.00    -0.233 NA
ATOM     22  C   UNL A   1      38.135  22.172  25.813  1.00  0.00     0.183 A 
ATOM     23  Cl  UNL A   1      39.631  22.386  26.622  1.00  0.00    -0.051 Cl
ENDBRANCH  17  18
ENDBRANCH  16  17
ENDBRANCH  12  16
ENDBRANCH   4   7
ENDBRANCH   2   3
ENDBRANCH   1   2
BRANCH   1  24
ATOM     24  C   UNL A   1      33.713  27.947  25.437  1.00  0.00     0.023 C 
BRANCH  24  25
ATOM     25  C   UNL A   1      34.454  28.709  26.517  1.00  0.00     0.116 C 
BRANCH  25  26
ATOM     26  N   UNL A   1      33.944  30.060  26.721  1.00  0.00    -0.352 N 
ATOM     27  C   UNL A   1      34.432  31.031  27.560  1.00  0.00     0.251 C 
ATOM     28  H   UNL A   1      33.153  30.307  26.190  1.00  0.00     0.163 HD
ATOM     29  O   UNL A   1      33.848  32.104  27.681  1.00  0.00    -0.269 OA
BRANCH  27  30
ATOM     30  C   UNL A   1      35.636  30.729  28.354  1.00  0.00     0.039 A 
ATOM     31  C   UNL A   1      35.571  29.723  29.318  1.00  0.00     0.014 A 
ATOM     32  C   UNL A   1      36.841  31.377  28.073  1.00  0.00     0.014 A 
ATOM     33  C   UNL A   1      36.738  29.323  29.965  1.00  0.00     0.010 A 
ATOM     34  C   UNL A   1      38.015  30.913  28.647  1.00  0.00     0.010 A 
ATOM     35  C   UNL A   1      37.972  29.893  29.609  1.00  0.00    -0.014 A 
BRANCH  35  36
ATOM     36  C   UNL A   1      39.230  29.473  30.266  1.00  0.00     0.031 A 
ATOM     37  C   UNL A   1      39.667  30.161  31.530  1.00  0.00     0.074 A 
ATOM     38  C   UNL A   1      40.000  28.527  29.696  1.00  0.00     0.049 A 
ATOM     39  N   UNL A   1      40.755  29.982  32.232  1.00  0.00    -0.248 NA
ATOM     40  C   UNL A   1      38.780  31.215  32.055  1.00  0.00     0.031 C 
ATOM     41  C   UNL A   1      39.707  27.833  28.441  1.00  0.00     0.029 A 
ATOM     42  N   UNL A   1      41.195  27.990  30.102  1.00  0.00    -0.354 N 
ATOM     43  C   UNL A   1      40.696  30.916  33.259  1.00  0.00     0.074 A 
ATOM     44  C   UNL A   1      39.497  31.698  33.057  1.00  0.00     0.031 C 
ATOM     45  C   UNL A   1      40.678  26.937  28.196  1.00  0.00     0.029 A 
ATOM     46  C   UNL A   1      41.675  27.015  29.259  1.00  0.00     0.049 A 
ATOM     47  H   UNL A   1      41.665  28.274  30.919  1.00  0.00     0.167 HD
ATOM     48  C   UNL A   1      41.548  31.090  34.296  1.00  0.00     0.031 A 
ATOM     49  C   UNL A   1      42.790  26.264  29.342  1.00  0.00     0.031 A 
ATOM     50  C   UNL A   1      42.721  30.289  34.508  1.00  0.00     0.049 A 
ATOM     51  C   UNL A   1      43.700  26.443  30.527  1.00  0.00     0.074 A 
ATOM     52  C   UNL A   1      43.624  30.339  35.555  1.00  0.00     0.029 A 
ATOM     53  N   UNL A   1      43.149  29.281  33.655  1.00  0.00    -0.354 N 
ATOM     54  N   UNL A   1      43.596  27.291  31.523  1.00  0.00    -0.248 NA
ATOM     55  C   UNL A   1      44.862  25.551  30.608  1.00  0.00     0.031 C 
ATOM     56  C   UNL A   1      44.617  29.383  35.318  1.00  0.00     0.029 A 
ATOM     57  C   UNL A   1      44.305  28.705  34.150  1.00  0.00     0.049 A 
ATOM     58  H   UNL A   1      42.696  29.015  32.823  1.00  0.00     0.167 HD
ATOM     59  C   UNL A   1      44.664  27.011  32.368  1.00  0.00     0.074 A 
ATOM     60  C   UNL A   1      45.392  25.910  31.769  1.00  0.00     0.031 C 
ATOM     61  C   UNL A   1      45.009  27.608  33.537  1.00  0.00     0.031 A 
BRANCH  48  62
ATOM     62  C   UNL A   1      41.227  32.191  35.271  1.00  0.00    -0.014 A 
ATOM     63  C   UNL A   1      40.469  31.936  36.430  1.00  0.00     0.010 A 
ATOM     64  C   UNL A   1      41.685  33.497  35.026  1.00  0.00     0.010 A 
ATOM     65  C   UNL A   1      40.126  32.978  37.294  1.00  0.00     0.020 A 
ATOM     66  C   UNL A   1      41.369  34.537  35.906  1.00  0.00     0.020 A 
ATOM     67  C   UNL A   1      40.573  34.274  37.024  1.00  0.00     0.054 A 
BRANCH  67  68
ATOM     68  S   UNL A   1      40.116  35.609  38.163  1.00  0.00     0.124 S 
ATOM     69  O   UNL A   1      41.286  35.671  39.036  1.00  0.00    -0.237 OA
ATOM     70  O   UNL A   1      39.939  36.750  37.268  1.00  0.00    -0.237 OA
ATOM     71  O   UNL A   1      38.893  35.121  38.794  1.00  0.00    -0.744 OA
ENDBRANCH  67  68
ENDBRANCH  48  62
BRANCH  49  72
ATOM     72  C   UNL A   1      43.077  25.245  28.298  1.00  0.00    -0.014 A 
ATOM     73  C   UNL A   1      43.911  25.557  27.211  1.00  0.00     0.010 A 
ATOM     74  C   UNL A   1      42.540  23.949  28.398  1.00  0.00     0.010 A 
ATOM     75  C   UNL A   1      44.191  24.598  26.233  1.00  0.00     0.020 A 
ATOM     76  C   UNL A   1      42.836  22.980  27.435  1.00  0.00     0.020 A 
ATOM     77  C   UNL A   1      43.653  23.314  26.352  1.00  0.00     0.054 A 
BRANCH  77  78
ATOM     78  S   UNL A   1      44.076  22.067  25.103  1.00  0.00     0.124 S 
ATOM     79  O   UNL A   1      43.580  22.685  23.878  1.00  0.00    -0.237 OA
ATOM     80  O   UNL A   1      45.529  21.977  25.225  1.00  0.00    -0.237 OA
ATOM     81  O   UNL A   1      43.348  20.880  25.547  1.00  0.00    -0.744 OA
ENDBRANCH  77  78
ENDBRANCH  49  72
BRANCH  61  82
ATOM     82  C   UNL A   1      46.202  27.052  34.265  1.00  0.00    -0.014 A 
ATOM     83  C   UNL A   1      47.486  27.591  34.082  1.00  0.00     0.010 A 
ATOM     84  C   UNL A   1      46.020  26.000  35.182  1.00  0.00     0.010 A 
ATOM     85  C   UNL A   1      48.578  27.062  34.775  1.00  0.00     0.020 A 
ATOM     86  C   UNL A   1      47.104  25.486  35.896  1.00  0.00     0.020 A 
ATOM     87  C   UNL A   1      48.379  26.009  35.675  1.00  0.00     0.054 A 
BRANCH  87  88
ATOM     88  S   UNL A   1      49.805  25.356  36.587  1.00  0.00     0.124 S 
ATOM     89  O   UNL A   1      49.539  25.829  37.942  1.00  0.00    -0.237 OA
ATOM     90  O   UNL A   1      49.681  23.914  36.388  1.00  0.00    -0.237 OA
ATOM     91  O   UNL A   1      50.951  25.973  35.924  1.00  0.00    -0.744 OA
ENDBRANCH  87  88
ENDBRANCH  61  82
ENDBRANCH  35  36
ENDBRANCH  27  30
ENDBRANCH  25  26
ENDBRANCH  24  25
ENDBRANCH   1  24
TORSDOF 18
ENDMDL
MODEL 3
REMARK VINA RESULT:      -9.6      3.115      4.315
REMARK SMILES CCc1nc(C)c(C(=O)NCCCCNC(=O)c2ccc(-c3c4nc(c(-c5ccc(S(=O)(=O)[O-])cc5)c5ccc([nH]5)c(-c5ccc(S(=O)(=O)[O-])cc5)c5nc(c(-c6ccc(S(=O)(=O)[O-])cc6)c6ccc3[nH]6)C=C5)C=C4)cc2)c(SCc2cnc(Cl)s2)n1
REMARK SMILES IDX 12 1 11 2 10 3 8 4 9 5 7 7 3 8 4 9 87 10 5 11 78 12 6 13
REMARK SMILES IDX 2 14 1 15 79 16 80 17 81 18 82 19 86 20 83 21 84 22 85 23
REMARK SMILES IDX 13 24 14 25 15 26 16 27 17 29 18 30 19 31 77 32 20 33 76 34
REMARK SMILES IDX 21 35 22 36 23 37 70 38 24 39 75 40 69 41 71 42 25 43 74 44
REMARK SMILES IDX 68 45 67 46 26 48 56 49 37 50 55 51 38 52 41 53 54 54 72 55
REMARK SMILES IDX 39 56 40 57 53 59 73 60 42 61 27 62 28 63 36 64 29 65 35 66
REMARK SMILES IDX 30 67 31 68 32 69 33 70 34 71 57 72 58 73 66 74 59 75 65 76
REMARK SMILES IDX 60 77 61 78 62 79 63 80 64 81 43 82 44 83 52 84 45 85 51 86
REMARK SMILES IDX 46 87 47 88 48 89 49 90 50 91
REMARK H PARENT 10 6 15 28 71 47 41 58
REMARK Flexibility Score: inf
ROOT
ATOM      1  C   UNL A   1      34.136  30.509  27.466  1.00  0.00     0.023 C 
ENDROOT
BRANCH   1   2
ATOM      2  C   UNL A   1      34.445  29.071  27.020  1.00  0.00     0.116 C 
BRANCH   2   3
ATOM      3  N   UNL A   1      33.339  28.229  27.428  1.00  0.00    -0.352 N 
ATOM      4  C   UNL A   1      32.005  28.318  27.112  1.00  0.00     0.255 C 
ATOM      5  O   UNL A   1      31.196  28.033  27.995  1.00  0.00    -0.269 OA
ATOM      6  H   UNL A   1      33.580  27.481  28.021  1.00  0.00     0.163 HD
BRANCH   4   7
ATOM      7  C   UNL A   1      31.486  28.583  25.755  1.00  0.00     0.093 A 
ATOM      8  C   UNL A   1      30.017  28.895  23.464  1.00  0.00     0.129 A 
ATOM      9  N   UNL A   1      30.413  29.989  24.110  1.00  0.00    -0.237 NA
ATOM     10  N   UNL A   1      30.355  27.660  23.830  1.00  0.00    -0.226 NA
ATOM     11  C   UNL A   1      31.095  29.833  25.270  1.00  0.00     0.055 A 
ATOM     12  C   UNL A   1      31.094  27.498  24.962  1.00  0.00     0.113 A 
ATOM     13  C   UNL A   1      31.257  31.154  25.941  1.00  0.00     0.068 C 
BRANCH   8  14
ATOM     14  C   UNL A   1      28.945  29.070  22.428  1.00  0.00     0.074 C 
ATOM     15  C   UNL A   1      27.766  29.826  23.031  1.00  0.00     0.012 C 
ENDBRANCH   8  14
BRANCH  12  16
ATOM     16  S   UNL A   1      31.310  25.736  25.202  1.00  0.00    -0.100 SA
BRANCH  16  17
ATOM     17  C   UNL A   1      32.346  25.092  23.867  1.00  0.00     0.125 C 
BRANCH  17  18
ATOM     18  C   UNL A   1      33.112  23.822  24.048  1.00  0.00     0.036 A 
ATOM     19  C   UNL A   1      32.637  22.544  23.788  1.00  0.00     0.129 A 
ATOM     20  S   UNL A   1      34.747  23.700  24.564  1.00  0.00    -0.107 S 
ATOM     21  N   UNL A   1      33.490  21.503  24.088  1.00  0.00    -0.233 NA
ATOM     22  C   UNL A   1      34.617  22.009  24.521  1.00  0.00     0.183 A 
ATOM     23  Cl  UNL A   1      35.920  21.032  25.055  1.00  0.00    -0.051 Cl
ENDBRANCH  17  18
ENDBRANCH  16  17
ENDBRANCH  12  16
ENDBRANCH   4   7
ENDBRANCH   2   3
ENDBRANCH   1   2
BRANCH   1  24
ATOM     24  C   UNL A   1      35.209  31.181  28.313  1.00  0.00     0.023 C 
BRANCH  24  25
ATOM     25  C   UNL A   1      35.878  30.248  29.303  1.00  0.00     0.116 C 
BRANCH  25  26
ATOM     26  N   UNL A   1      35.859  30.751  30.671  1.00  0.00    -0.352 N 
ATOM     27  C   UNL A   1      36.923  30.941  31.518  1.00  0.00     0.251 C 
ATOM     28  H   UNL A   1      34.974  30.985  31.033  1.00  0.00     0.163 HD
ATOM     29  O   UNL A   1      36.743  31.303  32.677  1.00  0.00    -0.269 OA
BRANCH  27  30
ATOM     30  C   UNL A   1      38.277  30.641  31.019  1.00  0.00     0.039 A 
ATOM     31  C   UNL A   1      39.152  29.927  31.838  1.00  0.00     0.014 A 
ATOM     32  C   UNL A   1      38.635  30.986  29.714  1.00  0.00     0.014 A 
ATOM     33  C   UNL A   1      40.375  29.504  31.321  1.00  0.00     0.010 A 
ATOM     34  C   UNL A   1      39.808  30.483  29.173  1.00  0.00     0.010 A 
ATOM     35  C   UNL A   1      40.696  29.751  29.976  1.00  0.00    -0.014 A 
BRANCH  35  36
ATOM     36  C   UNL A   1      41.979  29.296  29.396  1.00  0.00     0.031 A 
ATOM     37  C   UNL A   1      43.125  30.264  29.292  1.00  0.00     0.074 A 
ATOM     38  C   UNL A   1      42.090  28.044  28.912  1.00  0.00     0.049 A 
ATOM     39  N   UNL A   1      44.311  30.085  28.772  1.00  0.00    -0.248 NA
ATOM     40  C   UNL A   1      42.896  31.625  29.808  1.00  0.00     0.031 C 
ATOM     41  C   UNL A   1      41.027  27.037  28.906  1.00  0.00     0.029 A 
ATOM     42  N   UNL A   1      43.154  27.408  28.326  1.00  0.00    -0.354 N 
ATOM     43  C   UNL A   1      44.954  31.312  28.873  1.00  0.00     0.074 A 
ATOM     44  C   UNL A   1      44.010  32.242  29.449  1.00  0.00     0.031 C 
ATOM     45  C   UNL A   1      41.503  25.899  28.374  1.00  0.00     0.029 A 
ATOM     46  C   UNL A   1      42.892  26.105  27.976  1.00  0.00     0.049 A 
ATOM     47  H   UNL A   1      44.023  27.843  28.171  1.00  0.00     0.167 HD
ATOM     48  C   UNL A   1      46.227  31.631  28.543  1.00  0.00     0.031 A 
ATOM     49  C   UNL A   1      43.687  25.180  27.406  1.00  0.00     0.031 A 
ATOM     50  C   UNL A   1      47.170  30.694  27.999  1.00  0.00     0.049 A 
ATOM     51  C   UNL A   1      45.112  25.543  27.089  1.00  0.00     0.074 A 
ATOM     52  C   UNL A   1      48.501  30.893  27.682  1.00  0.00     0.029 A 
ATOM     53  N   UNL A   1      46.879  29.370  27.701  1.00  0.00    -0.354 N 
ATOM     54  N   UNL A   1      45.723  26.693  27.248  1.00  0.00    -0.248 NA
ATOM     55  C   UNL A   1      45.958  24.478  26.537  1.00  0.00     0.031 C 
ATOM     56  C   UNL A   1      49.007  29.698  27.161  1.00  0.00     0.029 A 
ATOM     57  C   UNL A   1      48.004  28.742  27.199  1.00  0.00     0.049 A 
ATOM     58  H   UNL A   1      46.002  28.942  27.829  1.00  0.00     0.167 HD
ATOM     59  C   UNL A   1      47.036  26.481  26.845  1.00  0.00     0.074 A 
ATOM     60  C   UNL A   1      47.130  25.091  26.445  1.00  0.00     0.031 C 
ATOM     61  C   UNL A   1      48.073  27.356  26.812  1.00  0.00     0.031 A 
BRANCH  48  62
ATOM     62  C   UNL A   1      46.658  33.056  28.768  1.00  0.00    -0.014 A 
ATOM     63  C   UNL A   1      46.498  34.030  27.766  1.00  0.00     0.010 A 
ATOM     64  C   UNL A   1      47.236  33.425  29.996  1.00  0.00     0.010 A 
ATOM     65  C   UNL A   1      46.959  35.334  27.965  1.00  0.00     0.020 A 
ATOM     66  C   UNL A   1      47.671  34.737  30.210  1.00  0.00     0.020 A 
ATOM     67  C   UNL A   1      47.549  35.677  29.184  1.00  0.00     0.054 A 
BRANCH  67  68
ATOM     68  S   UNL A   1      48.137  37.377  29.419  1.00  0.00     0.124 S 
ATOM     69  O   UNL A   1      49.557  37.250  29.098  1.00  0.00    -0.237 OA
ATOM     70  O   UNL A   1      47.340  38.130  28.455  1.00  0.00    -0.237 OA
ATOM     71  O   UNL A   1      47.839  37.654  30.822  1.00  0.00    -0.744 OA
ENDBRANCH  67  68
ENDBRANCH  48  62
BRANCH  49  72
ATOM     72  C   UNL A   1      43.165  23.811  27.147  1.00  0.00    -0.014 A 
ATOM     73  C   UNL A   1      42.621  23.485  25.893  1.00  0.00     0.010 A 
ATOM     74  C   UNL A   1      43.234  22.820  28.143  1.00  0.00     0.010 A 
ATOM     75  C   UNL A   1      42.139  22.196  25.643  1.00  0.00     0.020 A 
ATOM     76  C   UNL A   1      42.775  21.524  27.888  1.00  0.00     0.020 A 
ATOM     77  C   UNL A   1      42.220  21.223  26.642  1.00  0.00     0.054 A 
BRANCH  77  78
ATOM     78  S   UNL A   1      41.643  19.542  26.277  1.00  0.00     0.124 S 
ATOM     79  O   UNL A   1      42.468  19.180  25.130  1.00  0.00    -0.237 OA
ATOM     80  O   UNL A   1      41.936  18.830  27.519  1.00  0.00    -0.237 OA
ATOM     81  O   UNL A   1      40.220  19.724  25.996  1.00  0.00    -0.744 OA
ENDBRANCH  77  78
ENDBRANCH  49  72
BRANCH  61  82
ATOM     82  C   UNL A   1      49.408  26.822  26.370  1.00  0.00    -0.014 A 
ATOM     83  C   UNL A   1      49.845  26.957  25.042  1.00  0.00     0.010 A 
ATOM     84  C   UNL A   1      50.255  26.216  27.316  1.00  0.00     0.010 A 
ATOM     85  C   UNL A   1      51.092  26.459  24.656  1.00  0.00     0.020 A 
ATOM     86  C   UNL A   1      51.512  25.741  26.941  1.00  0.00     0.020 A 
ATOM     87  C   UNL A   1      51.916  25.850  25.609  1.00  0.00     0.054 A 
BRANCH  87  88
ATOM     88  S   UNL A   1      53.544  25.237  25.095  1.00  0.00     0.124 S 
ATOM     89  O   UNL A   1      53.398  23.797  25.285  1.00  0.00    -0.237 OA
ATOM     90  O   UNL A   1      53.632  25.683  23.706  1.00  0.00    -0.237 OA
ATOM     91  O   UNL A   1      54.467  25.898  26.014  1.00  0.00    -0.744 OA
ENDBRANCH  87  88
ENDBRANCH  61  82
ENDBRANCH  35  36
ENDBRANCH  27  30
ENDBRANCH  25  26
ENDBRANCH  24  25
ENDBRANCH   1  24
TORSDOF 18
ENDMDL
