MODEL 1
REMARK VINA RESULT:     -11.3      0.000      0.000
REMARK SMILES COc1ccc(OC)c(/C=N/[NH+]=C2/NC(=O)[C@@H](CC(=O)NCCCCNC(=O)c3ccc(-c4c5nc(c(-c6ccc(S(=O)(=O)[O-])cc6)c6ccc([nH]6)c(-c6ccc(S(=O)(=O)[O-])cc6)c6nc(c(-c7ccc(S(=O)(=O)[O-])cc7)c7ccc4[nH]7)C=C6)C=C5)cc3)S2)c1
REMARK SMILES IDX 23 1 22 2 21 3 19 4 20 5 18 7 17 8 12 9 13 10 14 12 89 13
REMARK SMILES IDX 15 14 16 16 11 17 10 18 9 19 3 20 4 21 90 22 5 23 6 24 2 25
REMARK SMILES IDX 1 26 7 27 8 28 24 29 25 30 26 31 27 32 28 34 29 35 30 36
REMARK SMILES IDX 88 37 31 38 87 39 32 40 33 41 34 42 81 43 35 44 86 45 80 46
REMARK SMILES IDX 82 47 36 48 85 49 79 50 78 51 37 53 67 54 48 55 66 56 49 57
REMARK SMILES IDX 52 58 65 59 83 60 50 61 51 62 64 64 84 65 53 66 38 67 39 68
REMARK SMILES IDX 47 69 40 70 46 71 41 72 42 73 43 74 44 75 45 76 68 77 69 78
REMARK SMILES IDX 77 79 70 80 76 81 71 82 72 83 73 84 74 85 75 86 54 87 55 88
REMARK SMILES IDX 63 89 56 90 62 91 57 92 58 93 59 94 60 95 61 96
REMARK H PARENT 21 6 12 11 14 15 26 33 82 52 52 63
REMARK Flexibility Score: inf
ROOT
ATOM      1  C   UNL A   1      32.376  28.026  27.147  1.00  0.00     0.023 C 
ENDROOT
BRANCH   1   2
ATOM      2  C   UNL A   1      32.212  26.832  26.208  1.00  0.00     0.116 C 
BRANCH   2   3
ATOM      3  N   UNL A   1      31.425  25.777  26.813  1.00  0.00    -0.356 N 
ATOM      4  C   UNL A   1      31.347  24.462  26.475  1.00  0.00     0.221 C 
ATOM      5  O   UNL A   1      30.564  23.729  27.077  1.00  0.00    -0.275 OA
ATOM      6  H   UNL A   1      30.867  26.052  27.577  1.00  0.00     0.163 HD
BRANCH   4   7
ATOM      7  C   UNL A   1      32.254  23.914  25.405  1.00  0.00     0.127 C 
BRANCH   7   8
ATOM      8  C   UNL A   1      31.541  23.433  24.138  1.00  0.00     0.183 C 
ATOM      9  N   UNL A   1      31.779  26.574  21.994  1.00  0.00    -0.142 N 
ATOM     10  C   UNL A   1      31.667  25.383  22.480  1.00  0.00     0.337 C 
ATOM     11  H   UNL A   1      32.614  26.884  21.577  1.00  0.00     0.343 HD
ATOM     12  N   UNL A   1      32.684  24.496  22.347  1.00  0.00    -0.202 N 
ATOM     13  S   UNL A   1      30.381  24.640  23.381  1.00  0.00    -0.020 SA
ATOM     14  C   UNL A   1      32.623  23.335  23.075  1.00  0.00     0.322 C 
ATOM     15  H   UNL A   1      33.442  24.680  21.746  1.00  0.00     0.316 HD
ATOM     16  O   UNL A   1      33.415  22.419  22.956  1.00  0.00    -0.246 OA
BRANCH   9  17
ATOM     17  N   UNL A   1      30.655  27.402  22.091  1.00  0.00    -0.093 NA
ATOM     18  C   UNL A   1      30.916  28.465  22.791  1.00  0.00     0.170 C 
BRANCH  18  19
ATOM     19  C   UNL A   1      30.036  29.655  22.844  1.00  0.00     0.042 A 
ATOM     20  C   UNL A   1      28.320  30.968  21.735  1.00  0.00     0.119 A 
ATOM     21  C   UNL A   1      28.296  31.855  22.801  1.00  0.00     0.050 A 
ATOM     22  C   UNL A   1      29.181  29.868  21.745  1.00  0.00     0.060 A 
ATOM     23  C   UNL A   1      29.117  31.629  23.902  1.00  0.00     0.051 A 
ATOM     24  C   UNL A   1      29.983  30.527  23.944  1.00  0.00     0.128 A 
BRANCH  20  25
ATOM     25  O   UNL A   1      27.606  31.330  20.632  1.00  0.00    -0.497 OA
ATOM     26  C   UNL A   1      27.745  32.692  20.249  1.00  0.00     0.278 C 
ENDBRANCH  20  25
BRANCH  24  27
ATOM     27  O   UNL A   1      30.721  30.476  25.094  1.00  0.00    -0.496 OA
ATOM     28  C   UNL A   1      30.897  31.693  25.805  1.00  0.00     0.278 C 
ENDBRANCH  24  27
ENDBRANCH  18  19
ENDBRANCH   9  17
ENDBRANCH   7   8
ENDBRANCH   4   7
ENDBRANCH   2   3
ENDBRANCH   1   2
BRANCH   1  29
ATOM     29  C   UNL A   1      33.330  29.116  26.662  1.00  0.00     0.023 C 
BRANCH  29  30
ATOM     30  C   UNL A   1      34.560  29.310  27.540  1.00  0.00     0.116 C 
BRANCH  30  31
ATOM     31  N   UNL A   1      34.460  30.510  28.356  1.00  0.00    -0.352 N 
ATOM     32  C   UNL A   1      35.377  31.049  29.205  1.00  0.00     0.251 C 
ATOM     33  H   UNL A   1      33.610  31.001  28.283  1.00  0.00     0.163 HD
ATOM     34  O   UNL A   1      35.097  32.036  29.874  1.00  0.00    -0.269 OA
BRANCH  32  35
ATOM     35  C   UNL A   1      36.714  30.458  29.250  1.00  0.00     0.039 A 
ATOM     36  C   UNL A   1      37.177  29.841  30.411  1.00  0.00     0.014 A 
ATOM     37  C   UNL A   1      37.509  30.549  28.111  1.00  0.00     0.014 A 
ATOM     38  C   UNL A   1      38.487  29.385  30.469  1.00  0.00     0.010 A 
ATOM     39  C   UNL A   1      38.779  30.002  28.139  1.00  0.00     0.010 A 
ATOM     40  C   UNL A   1      39.295  29.458  29.330  1.00  0.00    -0.014 A 
BRANCH  40  41
ATOM     41  C   UNL A   1      40.711  29.034  29.333  1.00  0.00     0.031 A 
ATOM     42  C   UNL A   1      41.766  30.090  29.486  1.00  0.00     0.074 A 
ATOM     43  C   UNL A   1      41.037  27.760  29.054  1.00  0.00     0.049 A 
ATOM     44  N   UNL A   1      43.024  30.062  29.139  1.00  0.00    -0.248 NA
ATOM     45  C   UNL A   1      41.319  31.378  30.048  1.00  0.00     0.031 C 
ATOM     46  C   UNL A   1      40.094  26.649  28.912  1.00  0.00     0.029 A 
ATOM     47  N   UNL A   1      42.259  27.203  28.782  1.00  0.00    -0.354 N 
ATOM     48  C   UNL A   1      43.499  31.350  29.360  1.00  0.00     0.074 A 
ATOM     49  C   UNL A   1      42.391  32.134  29.861  1.00  0.00     0.031 C 
ATOM     50  C   UNL A   1      40.769  25.546  28.555  1.00  0.00     0.029 A 
ATOM     51  C   UNL A   1      42.172  25.897  28.363  1.00  0.00     0.049 A 
ATOM     52  H   UNL A   1      43.111  27.687  28.877  1.00  0.00     0.167 HD
ATOM     53  C   UNL A   1      44.746  31.830  29.144  1.00  0.00     0.031 A 
ATOM     54  C   UNL A   1      43.101  25.092  27.817  1.00  0.00     0.031 A 
ATOM     55  C   UNL A   1      45.832  31.011  28.675  1.00  0.00     0.049 A 
ATOM     56  C   UNL A   1      44.485  25.632  27.604  1.00  0.00     0.074 A 
ATOM     57  C   UNL A   1      47.156  31.359  28.484  1.00  0.00     0.029 A 
ATOM     58  N   UNL A   1      45.714  29.670  28.331  1.00  0.00    -0.354 N 
ATOM     59  N   UNL A   1      44.934  26.847  27.813  1.00  0.00    -0.248 NA
ATOM     60  C   UNL A   1      45.487  24.693  27.087  1.00  0.00     0.031 C 
ATOM     61  C   UNL A   1      47.829  30.240  27.980  1.00  0.00     0.029 A 
ATOM     62  C   UNL A   1      46.938  29.179  27.912  1.00  0.00     0.049 A 
ATOM     63  H   UNL A   1      44.882  29.146  28.378  1.00  0.00     0.167 HD
ATOM     64  C   UNL A   1      46.278  26.819  27.467  1.00  0.00     0.074 A 
ATOM     65  C   UNL A   1      46.570  25.460  27.051  1.00  0.00     0.031 C 
ATOM     66  C   UNL A   1      47.192  27.822  27.494  1.00  0.00     0.031 A 
BRANCH  53  67
ATOM     67  C   UNL A   1      44.972  33.304  29.362  1.00  0.00    -0.014 A 
ATOM     68  C   UNL A   1      44.783  34.245  28.333  1.00  0.00     0.010 A 
ATOM     69  C   UNL A   1      45.397  33.757  30.625  1.00  0.00     0.010 A 
ATOM     70  C   UNL A   1      45.082  35.596  28.542  1.00  0.00     0.020 A 
ATOM     71  C   UNL A   1      45.666  35.110  30.849  1.00  0.00     0.020 A 
ATOM     72  C   UNL A   1      45.532  36.017  29.796  1.00  0.00     0.054 A 
BRANCH  72  73
ATOM     73  S   UNL A   1      45.930  37.771  30.037  1.00  0.00     0.124 S 
ATOM     74  O   UNL A   1      44.697  38.421  29.602  1.00  0.00    -0.237 OA
ATOM     75  O   UNL A   1      46.206  37.844  31.470  1.00  0.00    -0.237 OA
ATOM     76  O   UNL A   1      47.088  37.986  29.172  1.00  0.00    -0.744 OA
ENDBRANCH  72  73
ENDBRANCH  53  67
BRANCH  54  77
ATOM     77  C   UNL A   1      42.717  23.713  27.420  1.00  0.00    -0.014 A 
ATOM     78  C   UNL A   1      42.411  23.423  26.081  1.00  0.00     0.010 A 
ATOM     79  C   UNL A   1      42.766  22.662  28.356  1.00  0.00     0.010 A 
ATOM     80  C   UNL A   1      42.176  22.104  25.679  1.00  0.00     0.020 A 
ATOM     81  C   UNL A   1      42.557  21.340  27.954  1.00  0.00     0.020 A 
ATOM     82  C   UNL A   1      42.264  21.070  26.617  1.00  0.00     0.054 A 
BRANCH  82  83
ATOM     83  S   UNL A   1      42.074  19.357  26.046  1.00  0.00     0.124 S 
ATOM     84  O   UNL A   1      42.879  19.352  24.828  1.00  0.00    -0.237 OA
ATOM     85  O   UNL A   1      42.614  18.591  27.166  1.00  0.00    -0.237 OA
ATOM     86  O   UNL A   1      40.633  19.222  25.847  1.00  0.00    -0.744 OA
ENDBRANCH  82  83
ENDBRANCH  54  77
BRANCH  66  87
ATOM     87  C   UNL A   1      48.599  27.474  27.092  1.00  0.00    -0.014 A 
ATOM     88  C   UNL A   1      49.030  27.608  25.761  1.00  0.00     0.010 A 
ATOM     89  C   UNL A   1      49.512  27.054  28.075  1.00  0.00     0.010 A 
ATOM     90  C   UNL A   1      50.348  27.298  25.416  1.00  0.00     0.020 A 
ATOM     91  C   UNL A   1      50.836  26.770  27.738  1.00  0.00     0.020 A 
ATOM     92  C   UNL A   1      51.242  26.880  26.407  1.00  0.00     0.054 A 
BRANCH  92  93
ATOM     93  S   UNL A   1      52.958  26.523  25.941  1.00  0.00     0.124 S 
ATOM     94  O   UNL A   1      53.590  27.830  26.091  1.00  0.00    -0.237 OA
ATOM     95  O   UNL A   1      53.353  25.516  26.923  1.00  0.00    -0.237 OA
ATOM     96  O   UNL A   1      52.850  26.036  24.567  1.00  0.00    -0.744 OA
ENDBRANCH  92  93
ENDBRANCH  66  87
ENDBRANCH  40  41
ENDBRANCH  32  35
ENDBRANCH  30  31
ENDBRANCH  29  30
ENDBRANCH   1  29
TORSDOF 19
ENDMDL
MODEL 2
REMARK VINA RESULT:     -11.0      2.519      7.736
REMARK SMILES COc1ccc(OC)c(/C=N/[NH+]=C2/NC(=O)[C@@H](CC(=O)NCCCCNC(=O)c3ccc(-c4c5nc(c(-c6ccc(S(=O)(=O)[O-])cc6)c6ccc([nH]6)c(-c6ccc(S(=O)(=O)[O-])cc6)c6nc(c(-c7ccc(S(=O)(=O)[O-])cc7)c7ccc4[nH]7)C=C6)C=C5)cc3)S2)c1
REMARK SMILES IDX 23 1 22 2 21 3 19 4 20 5 18 7 17 8 12 9 13 10 14 12 89 13
REMARK SMILES IDX 15 14 16 16 11 17 10 18 9 19 3 20 4 21 90 22 5 23 6 24 2 25
REMARK SMILES IDX 1 26 7 27 8 28 24 29 25 30 26 31 27 32 28 34 29 35 30 36
REMARK SMILES IDX 88 37 31 38 87 39 32 40 33 41 34 42 81 43 35 44 86 45 80 46
REMARK SMILES IDX 82 47 36 48 85 49 79 50 78 51 37 53 67 54 48 55 66 56 49 57
REMARK SMILES IDX 52 58 65 59 83 60 50 61 51 62 64 64 84 65 53 66 38 67 39 68
REMARK SMILES IDX 47 69 40 70 46 71 41 72 42 73 43 74 44 75 45 76 68 77 69 78
REMARK SMILES IDX 77 79 70 80 76 81 71 82 72 83 73 84 74 85 75 86 54 87 55 88
REMARK SMILES IDX 63 89 56 90 62 91 57 92 58 93 59 94 60 95 61 96
REMARK H PARENT 21 6 12 11 14 15 26 33 82 52 52 63
REMARK Flexibility Score: inf
ROOT
ATOM      1  C   UNL A   1      37.843  22.997  25.381  1.00  0.00     0.023 C 
ENDROOT
BRANCH   1   2
ATOM      2  C   UNL A   1      36.336  23.247  25.336  1.00  0.00     0.116 C 
BRANCH   2   3
ATOM      3  N   UNL A   1      35.666  22.697  26.496  1.00  0.00    -0.356 N 
ATOM      4  C   UNL A   1      34.687  21.754  26.556  1.00  0.00     0.221 C 
ATOM      5  O   UNL A   1      34.196  21.462  27.645  1.00  0.00    -0.275 OA
ATOM      6  H   UNL A   1      35.961  23.056  27.364  1.00  0.00     0.163 HD
BRANCH   4   7
ATOM      7  C   UNL A   1      34.254  21.051  25.297  1.00  0.00     0.127 C 
BRANCH   7   8
ATOM      8  C   UNL A   1      32.756  20.749  25.208  1.00  0.00     0.183 C 
ATOM      9  N   UNL A   1      31.648  23.519  22.838  1.00  0.00    -0.142 N 
ATOM     10  C   UNL A   1      31.795  22.457  23.557  1.00  0.00     0.337 C 
ATOM     11  H   UNL A   1      31.849  23.522  21.875  1.00  0.00     0.343 HD
ATOM     12  N   UNL A   1      32.151  21.286  22.974  1.00  0.00    -0.202 N 
ATOM     13  S   UNL A   1      31.653  22.216  25.271  1.00  0.00    -0.020 SA
ATOM     14  C   UNL A   1      32.525  20.249  23.791  1.00  0.00     0.322 C 
ATOM     15  H   UNL A   1      32.142  21.183  21.995  1.00  0.00     0.316 HD
ATOM     16  O   UNL A   1      32.757  19.123  23.394  1.00  0.00    -0.246 OA
BRANCH   9  17
ATOM     17  N   UNL A   1      31.191  24.667  23.496  1.00  0.00    -0.093 NA
ATOM     18  C   UNL A   1      31.723  25.740  22.990  1.00  0.00     0.170 C 
BRANCH  18  19
ATOM     19  C   UNL A   1      31.242  27.111  23.272  1.00  0.00     0.042 A 
ATOM     20  C   UNL A   1      29.918  29.000  22.511  1.00  0.00     0.119 A 
ATOM     21  C   UNL A   1      30.235  29.700  23.667  1.00  0.00     0.050 A 
ATOM     22  C   UNL A   1      30.413  27.710  22.304  1.00  0.00     0.060 A 
ATOM     23  C   UNL A   1      31.028  29.098  24.639  1.00  0.00     0.051 A 
ATOM     24  C   UNL A   1      31.529  27.799  24.462  1.00  0.00     0.128 A 
BRANCH  20  25
ATOM     25  O   UNL A   1      29.268  29.701  21.540  1.00  0.00    -0.497 OA
ATOM     26  C   UNL A   1      28.102  30.389  21.976  1.00  0.00     0.278 C 
ENDBRANCH  20  25
BRANCH  24  27
ATOM     27  O   UNL A   1      32.297  27.380  25.512  1.00  0.00    -0.496 OA
ATOM     28  C   UNL A   1      32.073  28.004  26.769  1.00  0.00     0.278 C 
ENDBRANCH  24  27
ENDBRANCH  18  19
ENDBRANCH   9  17
ENDBRANCH   7   8
ENDBRANCH   4   7
ENDBRANCH   2   3
ENDBRANCH   1   2
BRANCH   1  29
ATOM     29  C   UNL A   1      38.265  21.529  25.372  1.00  0.00     0.023 C 
BRANCH  29  30
ATOM     30  C   UNL A   1      39.308  21.170  26.423  1.00  0.00     0.116 C 
BRANCH  30  31
ATOM     31  N   UNL A   1      40.184  20.100  25.974  1.00  0.00    -0.352 N 
ATOM     32  C   UNL A   1      41.538  20.099  25.840  1.00  0.00     0.251 C 
ATOM     33  H   UNL A   1      39.734  19.258  25.734  1.00  0.00     0.163 HD
ATOM     34  O   UNL A   1      42.115  19.122  25.377  1.00  0.00    -0.269 OA
BRANCH  32  35
ATOM     35  C   UNL A   1      42.285  21.262  26.319  1.00  0.00     0.039 A 
ATOM     36  C   UNL A   1      42.609  21.388  27.668  1.00  0.00     0.014 A 
ATOM     37  C   UNL A   1      42.641  22.238  25.393  1.00  0.00     0.014 A 
ATOM     38  C   UNL A   1      43.220  22.550  28.121  1.00  0.00     0.010 A 
ATOM     39  C   UNL A   1      43.341  23.349  25.831  1.00  0.00     0.010 A 
ATOM     40  C   UNL A   1      43.595  23.536  27.202  1.00  0.00    -0.014 A 
BRANCH  40  41
ATOM     41  C   UNL A   1      44.208  24.815  27.617  1.00  0.00     0.031 A 
ATOM     42  C   UNL A   1      43.296  25.945  27.999  1.00  0.00     0.074 A 
ATOM     43  C   UNL A   1      45.535  24.998  27.507  1.00  0.00     0.049 A 
ATOM     44  N   UNL A   1      43.529  27.229  28.014  1.00  0.00    -0.248 NA
ATOM     45  C   UNL A   1      41.912  25.575  28.347  1.00  0.00     0.031 C 
ATOM     46  C   UNL A   1      46.514  23.963  27.171  1.00  0.00     0.029 A 
ATOM     47  N   UNL A   1      46.277  26.144  27.612  1.00  0.00    -0.354 N 
ATOM     48  C   UNL A   1      42.304  27.826  28.288  1.00  0.00     0.074 A 
ATOM     49  C   UNL A   1      41.331  26.763  28.423  1.00  0.00     0.031 C 
ATOM     50  C   UNL A   1      47.727  24.526  27.072  1.00  0.00     0.029 A 
ATOM     51  C   UNL A   1      47.593  25.967  27.255  1.00  0.00     0.049 A 
ATOM     52  H   UNL A   1      45.908  27.007  27.912  1.00  0.00     0.167 HD
ATOM     53  C   UNL A   1      42.022  29.145  28.398  1.00  0.00     0.031 A 
ATOM     54  C   UNL A   1      48.565  26.868  27.030  1.00  0.00     0.031 A 
ATOM     55  C   UNL A   1      43.023  30.173  28.292  1.00  0.00     0.049 A 
ATOM     56  C   UNL A   1      48.243  28.326  27.178  1.00  0.00     0.074 A 
ATOM     57  C   UNL A   1      42.880  31.539  28.455  1.00  0.00     0.029 A 
ATOM     58  N   UNL A   1      44.361  29.941  28.000  1.00  0.00    -0.354 N 
ATOM     59  N   UNL A   1      47.086  28.890  27.437  1.00  0.00    -0.248 NA
ATOM     60  C   UNL A   1      49.355  29.269  27.007  1.00  0.00     0.031 C 
ATOM     61  C   UNL A   1      44.123  32.136  28.215  1.00  0.00     0.029 A 
ATOM     62  C   UNL A   1      45.053  31.139  27.961  1.00  0.00     0.049 A 
ATOM     63  H   UNL A   1      44.759  29.054  27.844  1.00  0.00     0.167 HD
ATOM     64  C   UNL A   1      47.331  30.256  27.477  1.00  0.00     0.074 A 
ATOM     65  C   UNL A   1      48.751  30.429  27.230  1.00  0.00     0.031 C 
ATOM     66  C   UNL A   1      46.465  31.277  27.701  1.00  0.00     0.031 A 
BRANCH  53  67
ATOM     67  C   UNL A   1      40.579  29.535  28.592  1.00  0.00    -0.014 A 
ATOM     68  C   UNL A   1      39.613  29.331  27.589  1.00  0.00     0.010 A 
ATOM     69  C   UNL A   1      40.183  30.134  29.803  1.00  0.00     0.010 A 
ATOM     70  C   UNL A   1      38.301  29.781  27.766  1.00  0.00     0.020 A 
ATOM     71  C   UNL A   1      38.865  30.554  29.997  1.00  0.00     0.020 A 
ATOM     72  C   UNL A   1      37.938  30.399  28.965  1.00  0.00     0.054 A 
BRANCH  72  73
ATOM     73  S   UNL A   1      36.233  30.989  29.163  1.00  0.00     0.124 S 
ATOM     74  O   UNL A   1      36.189  31.303  30.589  1.00  0.00    -0.237 OA
ATOM     75  O   UNL A   1      36.185  32.140  28.266  1.00  0.00    -0.237 OA
ATOM     76  O   UNL A   1      35.421  29.846  28.750  1.00  0.00    -0.744 OA
ENDBRANCH  72  73
ENDBRANCH  53  67
BRANCH  54  77
ATOM     77  C   UNL A   1      49.909  26.391  26.616  1.00  0.00    -0.014 A 
ATOM     78  C   UNL A   1      50.241  26.306  25.254  1.00  0.00     0.010 A 
ATOM     79  C   UNL A   1      50.900  26.127  27.581  1.00  0.00     0.010 A 
ATOM     80  C   UNL A   1      51.544  25.981  24.863  1.00  0.00     0.020 A 
ATOM     81  C   UNL A   1      52.209  25.827  27.195  1.00  0.00     0.020 A 
ATOM     82  C   UNL A   1      52.523  25.758  25.836  1.00  0.00     0.054 A 
BRANCH  82  83
ATOM     83  S   UNL A   1      54.231  25.458  25.302  1.00  0.00     0.124 S 
ATOM     84  O   UNL A   1      54.997  25.962  26.437  1.00  0.00    -0.237 OA
ATOM     85  O   UNL A   1      54.252  24.009  25.117  1.00  0.00    -0.237 OA
ATOM     86  O   UNL A   1      54.345  26.236  24.071  1.00  0.00    -0.744 OA
ENDBRANCH  82  83
ENDBRANCH  54  77
BRANCH  66  87
ATOM     87  C   UNL A   1      47.040  32.666  27.721  1.00  0.00    -0.014 A 
ATOM     88  C   UNL A   1      47.544  33.229  28.906  1.00  0.00     0.010 A 
ATOM     89  C   UNL A   1      47.119  33.396  26.522  1.00  0.00     0.010 A 
ATOM     90  C   UNL A   1      48.092  34.514  28.895  1.00  0.00     0.020 A 
ATOM     91  C   UNL A   1      47.690  34.668  26.502  1.00  0.00     0.020 A 
ATOM     92  C   UNL A   1      48.160  35.226  27.693  1.00  0.00     0.054 A 
BRANCH  92  93
ATOM     93  S   UNL A   1      48.913  36.876  27.697  1.00  0.00     0.124 S 
ATOM     94  O   UNL A   1      50.318  36.566  27.946  1.00  0.00    -0.237 OA
ATOM     95  O   UNL A   1      48.606  37.371  26.358  1.00  0.00    -0.237 OA
ATOM     96  O   UNL A   1      48.224  37.568  28.784  1.00  0.00    -0.744 OA
ENDBRANCH  92  93
ENDBRANCH  66  87
ENDBRANCH  40  41
ENDBRANCH  32  35
ENDBRANCH  30  31
ENDBRANCH  29  30
ENDBRANCH   1  29
TORSDOF 19
ENDMDL
MODEL 3
REMARK VINA RESULT:     -10.9      5.982     10.875
REMARK SMILES COc1ccc(OC)c(/C=N/[NH+]=C2/NC(=O)[C@@H](CC(=O)NCCCCNC(=O)c3ccc(-c4c5nc(c(-c6ccc(S(=O)(=O)[O-])cc6)c6ccc([nH]6)c(-c6ccc(S(=O)(=O)[O-])cc6)c6nc(c(-c7ccc(S(=O)(=O)[O-])cc7)c7ccc4[nH]7)C=C6)C=C5)cc3)S2)c1
REMARK SMILES IDX 23 1 22 2 21 3 19 4 20 5 18 7 17 8 12 9 13 10 14 12 89 13
REMARK SMILES IDX 15 14 16 16 11 17 10 18 9 19 3 20 4 21 90 22 5 23 6 24 2 25
REMARK SMILES IDX 1 26 7 27 8 28 24 29 25 30 26 31 27 32 28 34 29 35 30 36
REMARK SMILES IDX 88 37 31 38 87 39 32 40 33 41 34 42 81 43 35 44 86 45 80 46
REMARK SMILES IDX 82 47 36 48 85 49 79 50 78 51 37 53 67 54 48 55 66 56 49 57
REMARK SMILES IDX 52 58 65 59 83 60 50 61 51 62 64 64 84 65 53 66 38 67 39 68
REMARK SMILES IDX 47 69 40 70 46 71 41 72 42 73 43 74 44 75 45 76 68 77 69 78
REMARK SMILES IDX 77 79 70 80 76 81 71 82 72 83 73 84 74 85 75 86 54 87 55 88
REMARK SMILES IDX 63 89 56 90 62 91 57 92 58 93 59 94 60 95 61 96
REMARK H PARENT 21 6 12 11 14 15 26 33 82 52 52 63
REMARK Flexibility Score: inf
ROOT
ATOM      1  C   UNL A   1      33.174  28.853  27.291  1.00  0.00     0.023 C 
ENDROOT
BRANCH   1   2
ATOM      2  C   UNL A   1      32.819  27.895  26.154  1.00  0.00     0.116 C 
BRANCH   2   3
ATOM      3  N   UNL A   1      33.220  28.420  24.865  1.00  0.00    -0.356 N 
ATOM      4  C   UNL A   1      32.462  28.652  23.759  1.00  0.00     0.221 C 
ATOM      5  O   UNL A   1      33.005  29.046  22.728  1.00  0.00    -0.275 OA
ATOM      6  H   UNL A   1      34.176  28.641  24.777  1.00  0.00     0.163 HD
BRANCH   4   7
ATOM      7  C   UNL A   1      30.969  28.469  23.828  1.00  0.00     0.127 C 
BRANCH   7   8
ATOM      8  C   UNL A   1      30.416  27.340  22.954  1.00  0.00     0.183 C 
ATOM      9  N   UNL A   1      30.669  24.417  25.384  1.00  0.00    -0.142 N 
ATOM     10  C   UNL A   1      30.396  25.251  24.438  1.00  0.00     0.337 C 
ATOM     11  H   UNL A   1      30.073  24.301  26.159  1.00  0.00     0.343 HD
ATOM     12  N   UNL A   1      29.223  25.932  24.450  1.00  0.00    -0.202 N 
ATOM     13  S   UNL A   1      31.324  25.747  23.057  1.00  0.00    -0.020 SA
ATOM     14  C   UNL A   1      29.075  26.972  23.568  1.00  0.00     0.322 C 
ATOM     15  H   UNL A   1      28.500  25.687  25.072  1.00  0.00     0.316 HD
ATOM     16  O   UNL A   1      28.034  27.582  23.408  1.00  0.00    -0.246 OA
BRANCH   9  17
ATOM     17  N   UNL A   1      31.856  23.685  25.255  1.00  0.00    -0.093 NA
ATOM     18  C   UNL A   1      31.661  22.428  25.523  1.00  0.00     0.170 C 
BRANCH  18  19
ATOM     19  C   UNL A   1      32.637  21.359  25.213  1.00  0.00     0.042 A 
ATOM     20  C   UNL A   1      32.996  19.125  24.327  1.00  0.00     0.119 A 
ATOM     21  C   UNL A   1      34.359  19.245  24.553  1.00  0.00     0.050 A 
ATOM     22  C   UNL A   1      32.128  20.172  24.651  1.00  0.00     0.060 A 
ATOM     23  C   UNL A   1      34.868  20.428  25.080  1.00  0.00     0.051 A 
ATOM     24  C   UNL A   1      34.021  21.499  25.403  1.00  0.00     0.128 A 
BRANCH  20  25
ATOM     25  O   UNL A   1      32.551  17.893  23.954  1.00  0.00    -0.497 OA
ATOM     26  C   UNL A   1      33.522  16.857  24.030  1.00  0.00     0.278 C 
ENDBRANCH  20  25
BRANCH  24  27
ATOM     27  O   UNL A   1      34.695  22.570  25.920  1.00  0.00    -0.496 OA
ATOM     28  C   UNL A   1      36.113  22.547  25.830  1.00  0.00     0.278 C 
ENDBRANCH  24  27
ENDBRANCH  18  19
ENDBRANCH   9  17
ENDBRANCH   7   8
ENDBRANCH   4   7
ENDBRANCH   2   3
ENDBRANCH   1   2
BRANCH   1  29
ATOM     29  C   UNL A   1      32.670  30.286  27.123  1.00  0.00     0.023 C 
BRANCH  29  30
ATOM     30  C   UNL A   1      33.697  31.356  27.469  1.00  0.00     0.116 C 
BRANCH  30  31
ATOM     31  N   UNL A   1      33.073  32.646  27.720  1.00  0.00    -0.352 N 
ATOM     32  C   UNL A   1      33.438  33.619  28.598  1.00  0.00     0.251 C 
ATOM     33  H   UNL A   1      32.275  32.842  27.178  1.00  0.00     0.163 HD
ATOM     34  O   UNL A   1      32.750  34.625  28.730  1.00  0.00    -0.269 OA
BRANCH  32  35
ATOM     35  C   UNL A   1      34.697  33.462  29.327  1.00  0.00     0.039 A 
ATOM     36  C   UNL A   1      35.846  34.127  28.906  1.00  0.00     0.014 A 
ATOM     37  C   UNL A   1      34.711  32.617  30.433  1.00  0.00     0.014 A 
ATOM     38  C   UNL A   1      37.055  33.879  29.543  1.00  0.00     0.010 A 
ATOM     39  C   UNL A   1      35.895  32.451  31.129  1.00  0.00     0.010 A 
ATOM     40  C   UNL A   1      37.085  33.042  30.664  1.00  0.00    -0.014 A 
BRANCH  40  41
ATOM     41  C   UNL A   1      38.340  32.698  31.364  1.00  0.00     0.031 A 
ATOM     42  C   UNL A   1      39.170  31.573  30.817  1.00  0.00     0.074 A 
ATOM     43  C   UNL A   1      38.643  33.279  32.537  1.00  0.00     0.049 A 
ATOM     44  N   UNL A   1      40.058  30.830  31.418  1.00  0.00    -0.248 NA
ATOM     45  C   UNL A   1      38.910  31.197  29.415  1.00  0.00     0.031 C 
ATOM     46  C   UNL A   1      37.921  34.398  33.147  1.00  0.00     0.029 A 
ATOM     47  N   UNL A   1      39.610  32.962  33.454  1.00  0.00    -0.354 N 
ATOM     48  C   UNL A   1      40.401  29.845  30.499  1.00  0.00     0.074 A 
ATOM     49  C   UNL A   1      39.618  30.082  29.305  1.00  0.00     0.031 C 
ATOM     50  C   UNL A   1      38.455  34.658  34.349  1.00  0.00     0.029 A 
ATOM     51  C   UNL A   1      39.495  33.673  34.624  1.00  0.00     0.049 A 
ATOM     52  H   UNL A   1      40.315  32.293  33.292  1.00  0.00     0.167 HD
ATOM     53  C   UNL A   1      41.280  28.827  30.653  1.00  0.00     0.031 A 
ATOM     54  C   UNL A   1      40.108  33.506  35.810  1.00  0.00     0.031 A 
ATOM     55  C   UNL A   1      42.066  28.642  31.843  1.00  0.00     0.049 A 
ATOM     56  C   UNL A   1      41.095  32.386  35.959  1.00  0.00     0.074 A 
ATOM     57  C   UNL A   1      43.041  27.695  32.097  1.00  0.00     0.029 A 
ATOM     58  N   UNL A   1      41.968  29.433  32.981  1.00  0.00    -0.354 N 
ATOM     59  N   UNL A   1      41.419  31.456  35.092  1.00  0.00    -0.248 NA
ATOM     60  C   UNL A   1      41.801  32.295  37.242  1.00  0.00     0.031 C 
ATOM     61  C   UNL A   1      43.499  27.885  33.406  1.00  0.00     0.029 A 
ATOM     62  C   UNL A   1      42.853  28.986  33.947  1.00  0.00     0.049 A 
ATOM     63  H   UNL A   1      41.360  30.200  33.085  1.00  0.00     0.167 HD
ATOM     64  C   UNL A   1      42.381  30.674  35.717  1.00  0.00     0.074 A 
ATOM     65  C   UNL A   1      42.595  31.253  37.030  1.00  0.00     0.031 C 
ATOM     66  C   UNL A   1      43.034  29.579  35.250  1.00  0.00     0.031 A 
BRANCH  53  67
ATOM     67  C   UNL A   1      41.386  27.823  29.533  1.00  0.00    -0.014 A 
ATOM     68  C   UNL A   1      40.414  26.824  29.336  1.00  0.00     0.010 A 
ATOM     69  C   UNL A   1      42.493  27.873  28.666  1.00  0.00     0.010 A 
ATOM     70  C   UNL A   1      40.584  25.856  28.341  1.00  0.00     0.020 A 
ATOM     71  C   UNL A   1      42.650  26.928  27.648  1.00  0.00     0.020 A 
ATOM     72  C   UNL A   1      41.707  25.908  27.511  1.00  0.00     0.054 A 
BRANCH  72  73
ATOM     73  S   UNL A   1      41.913  24.630  26.239  1.00  0.00     0.124 S 
ATOM     74  O   UNL A   1      43.248  24.121  26.539  1.00  0.00    -0.237 OA
ATOM     75  O   UNL A   1      40.813  23.712  26.524  1.00  0.00    -0.237 OA
ATOM     76  O   UNL A   1      41.794  25.368  24.983  1.00  0.00    -0.744 OA
ENDBRANCH  72  73
ENDBRANCH  53  67
BRANCH  54  77
ATOM     77  C   UNL A   1      39.762  34.414  36.934  1.00  0.00    -0.014 A 
ATOM     78  C   UNL A   1      38.906  33.978  37.958  1.00  0.00     0.010 A 
ATOM     79  C   UNL A   1      40.377  35.676  37.044  1.00  0.00     0.010 A 
ATOM     80  C   UNL A   1      38.681  34.781  39.080  1.00  0.00     0.020 A 
ATOM     81  C   UNL A   1      40.176  36.470  38.176  1.00  0.00     0.020 A 
ATOM     82  C   UNL A   1      39.329  36.016  39.189  1.00  0.00     0.054 A 
BRANCH  82  83
ATOM     83  S   UNL A   1      39.115  36.982  40.710  1.00  0.00     0.124 S 
ATOM     84  O   UNL A   1      38.347  36.065  41.547  1.00  0.00    -0.237 OA
ATOM     85  O   UNL A   1      40.494  37.218  41.129  1.00  0.00    -0.237 OA
ATOM     86  O   UNL A   1      38.397  38.172  40.261  1.00  0.00    -0.744 OA
ENDBRANCH  82  83
ENDBRANCH  54  77
BRANCH  66  87
ATOM     87  C   UNL A   1      44.062  28.960  36.155  1.00  0.00    -0.014 A 
ATOM     88  C   UNL A   1      43.755  27.841  36.948  1.00  0.00     0.010 A 
ATOM     89  C   UNL A   1      45.368  29.480  36.170  1.00  0.00     0.010 A 
ATOM     90  C   UNL A   1      44.733  27.270  37.765  1.00  0.00     0.020 A 
ATOM     91  C   UNL A   1      46.355  28.896  36.965  1.00  0.00     0.020 A 
ATOM     92  C   UNL A   1      46.027  27.802  37.770  1.00  0.00     0.054 A 
BRANCH  92  93
ATOM     93  S   UNL A   1      47.290  27.019  38.809  1.00  0.00     0.124 S 
ATOM     94  O   UNL A   1      48.519  27.363  38.100  1.00  0.00    -0.237 OA
ATOM     95  O   UNL A   1      47.102  27.681  40.097  1.00  0.00    -0.237 OA
ATOM     96  O   UNL A   1      46.930  25.603  38.783  1.00  0.00    -0.744 OA
ENDBRANCH  92  93
ENDBRANCH  66  87
ENDBRANCH  40  41
ENDBRANCH  32  35
ENDBRANCH  30  31
ENDBRANCH  29  30
ENDBRANCH   1  29
TORSDOF 19
ENDMDL
