MODEL 1
REMARK VINA RESULT:     -12.2      0.000      0.000
REMARK SMILES Cc1cc(OC(F)(F)F)cc2c1O[C@H](C(F)(F)F)C(C(=O)NCCCCNC(=O)c1ccc(-c3c4nc(c(-c5ccc(S(=O)(=O)[O-])cc5)c5ccc([nH]5)c(-c5ccc(S(=O)(=O)[O-])cc5)c5nc(c(-c6ccc(S(=O)(=O)[O-])cc6)c6ccc3[nH]6)C=C5)C=C4)cc1)=C2
REMARK SMILES IDX 25 1 24 2 23 3 22 4 20 5 21 6 19 8 1 9 2 10 3 11 12 12 4 13
REMARK SMILES IDX 11 14 13 15 10 16 90 17 14 18 5 19 6 20 7 21 8 22 9 23 15 24
REMARK SMILES IDX 16 25 17 26 18 27 26 28 27 29 28 30 29 32 30 33 31 34 89 35
REMARK SMILES IDX 32 36 88 37 33 38 34 39 35 40 82 41 36 42 87 43 81 44 83 45
REMARK SMILES IDX 37 46 86 47 80 48 79 49 38 51 68 52 49 53 67 54 50 55 53 56
REMARK SMILES IDX 66 57 84 58 51 59 52 60 65 62 85 63 54 64 39 65 40 66 48 67
REMARK SMILES IDX 41 68 47 69 42 70 43 71 44 72 45 73 46 74 69 75 70 76 78 77
REMARK SMILES IDX 71 78 77 79 72 80 73 81 74 82 75 83 76 84 55 85 56 86 64 87
REMARK SMILES IDX 57 88 63 89 58 90 59 91 60 92 61 93 62 94
REMARK H PARENT 22 7 27 31 83 50 53 61
REMARK Flexibility Score: inf
ROOT
ATOM      1  C   UNL A   1      36.145  23.232  23.819  1.00  0.00     0.023 C 
ENDROOT
BRANCH   1   2
ATOM      2  C   UNL A   1      34.904  22.411  24.184  1.00  0.00     0.023 C 
BRANCH   2   3
ATOM      3  C   UNL A   1      33.615  22.911  23.540  1.00  0.00     0.116 C 
BRANCH   3   4
ATOM      4  N   UNL A   1      32.461  22.695  24.393  1.00  0.00    -0.352 N 
ATOM      5  C   UNL A   1      31.559  23.466  25.044  1.00  0.00     0.251 C 
ATOM      6  O   UNL A   1      30.710  22.849  25.696  1.00  0.00    -0.270 OA
ATOM      7  H   UNL A   1      32.290  21.736  24.537  1.00  0.00     0.163 HD
BRANCH   5   8
ATOM      8  C   UNL A   1      31.525  24.958  25.023  1.00  0.00     0.067 C 
ATOM      9  C   UNL A   1      31.657  29.992  26.039  1.00  0.00     0.048 C 
ATOM     10  C   UNL A   1      31.173  29.147  24.895  1.00  0.00    -0.005 A 
ATOM     11  C   UNL A   1      30.631  29.751  23.749  1.00  0.00     0.054 A 
ATOM     12  C   UNL A   1      31.231  27.749  24.962  1.00  0.00     0.131 A 
ATOM     13  C   UNL A   1      30.158  28.974  22.689  1.00  0.00     0.130 A 
ATOM     14  C   UNL A   1      30.762  26.962  23.910  1.00  0.00     0.021 A 
ATOM     15  O   UNL A   1      31.717  27.189  26.112  1.00  0.00    -0.475 OA
ATOM     16  C   UNL A   1      30.228  27.580  22.775  1.00  0.00     0.058 A 
ATOM     17  C   UNL A   1      30.806  25.510  24.027  1.00  0.00     0.025 C 
ATOM     18  C   UNL A   1      32.261  25.845  25.987  1.00  0.00     0.314 C 
BRANCH  13  19
ATOM     19  O   UNL A   1      29.610  29.439  21.526  1.00  0.00    -0.406 OA
BRANCH  19  20
ATOM     20  C   UNL A   1      28.485  30.295  21.620  1.00  0.00     0.573 C 
ATOM     21  F   UNL A   1      28.856  31.564  21.891  1.00  0.00    -0.132 F 
ATOM     22  F   UNL A   1      27.756  30.270  20.484  1.00  0.00    -0.132 F 
ATOM     23  F   UNL A   1      27.696  29.867  22.631  1.00  0.00    -0.132 F 
ENDBRANCH  19  20
ENDBRANCH  13  19
BRANCH  18  24
ATOM     24  C   UNL A   1      33.769  25.935  25.682  1.00  0.00     0.429 C 
ATOM     25  F   UNL A   1      33.981  25.938  24.342  1.00  0.00    -0.167 F 
ATOM     26  F   UNL A   1      34.330  27.070  26.162  1.00  0.00    -0.167 F 
ATOM     27  F   UNL A   1      34.469  24.901  26.199  1.00  0.00    -0.167 F 
ENDBRANCH  18  24
ENDBRANCH   5   8
ENDBRANCH   3   4
ENDBRANCH   2   3
ENDBRANCH   1   2
BRANCH   1  28
ATOM     28  C   UNL A   1      37.033  23.634  24.996  1.00  0.00     0.116 C 
BRANCH  28  29
ATOM     29  N   UNL A   1      38.030  22.633  25.347  1.00  0.00    -0.352 N 
ATOM     30  C   UNL A   1      39.140  22.810  26.138  1.00  0.00     0.251 C 
ATOM     31  H   UNL A   1      37.894  21.731  24.977  1.00  0.00     0.163 HD
ATOM     32  O   UNL A   1      39.943  21.901  26.317  1.00  0.00    -0.269 OA
BRANCH  30  33
ATOM     33  C   UNL A   1      39.358  24.140  26.730  1.00  0.00     0.039 A 
ATOM     34  C   UNL A   1      38.924  24.371  28.036  1.00  0.00     0.014 A 
ATOM     35  C   UNL A   1      40.088  25.103  26.028  1.00  0.00     0.014 A 
ATOM     36  C   UNL A   1      39.279  25.561  28.668  1.00  0.00     0.010 A 
ATOM     37  C   UNL A   1      40.475  26.271  26.676  1.00  0.00     0.010 A 
ATOM     38  C   UNL A   1      40.079  26.503  28.002  1.00  0.00    -0.014 A 
BRANCH  38  39
ATOM     39  C   UNL A   1      40.503  27.746  28.684  1.00  0.00     0.031 A 
ATOM     40  C   UNL A   1      41.898  27.858  29.223  1.00  0.00     0.074 A 
ATOM     41  C   UNL A   1      39.624  28.753  28.845  1.00  0.00     0.049 A 
ATOM     42  N   UNL A   1      42.455  28.858  29.854  1.00  0.00    -0.248 NA
ATOM     43  C   UNL A   1      42.776  26.691  29.041  1.00  0.00     0.031 C 
ATOM     44  C   UNL A   1      38.231  28.743  28.390  1.00  0.00     0.029 A 
ATOM     45  N   UNL A   1      39.775  29.984  29.431  1.00  0.00    -0.354 N 
ATOM     46  C   UNL A   1      43.746  28.441  30.149  1.00  0.00     0.074 A 
ATOM     47  C   UNL A   1      43.877  27.084  29.665  1.00  0.00     0.031 C 
ATOM     48  C   UNL A   1      37.665  29.926  28.687  1.00  0.00     0.029 A 
ATOM     49  C   UNL A   1      38.647  30.767  29.368  1.00  0.00     0.049 A 
ATOM     50  H   UNL A   1      40.612  30.279  29.856  1.00  0.00     0.167 HD
ATOM     51  C   UNL A   1      44.739  29.134  30.749  1.00  0.00     0.031 A 
ATOM     52  C   UNL A   1      38.432  32.025  29.799  1.00  0.00     0.031 A 
ATOM     53  C   UNL A   1      44.613  30.486  31.217  1.00  0.00     0.049 A 
ATOM     54  C   UNL A   1      39.552  32.779  30.456  1.00  0.00     0.074 A 
ATOM     55  C   UNL A   1      45.573  31.283  31.814  1.00  0.00     0.029 A 
ATOM     56  N   UNL A   1      43.455  31.242  31.133  1.00  0.00    -0.354 N 
ATOM     57  N   UNL A   1      40.775  32.378  30.701  1.00  0.00    -0.248 NA
ATOM     58  C   UNL A   1      39.268  34.155  30.886  1.00  0.00     0.031 C 
ATOM     59  C   UNL A   1      44.988  32.519  32.109  1.00  0.00     0.029 A 
ATOM     60  C   UNL A   1      43.673  32.498  31.668  1.00  0.00     0.049 A 
ATOM     61  H   UNL A   1      42.602  30.932  30.749  1.00  0.00     0.167 HD
ATOM     62  C   UNL A   1      41.415  33.459  31.297  1.00  0.00     0.074 A 
ATOM     63  C   UNL A   1      40.443  34.530  31.375  1.00  0.00     0.031 C 
ATOM     64  C   UNL A   1      42.694  33.553  31.734  1.00  0.00     0.031 A 
BRANCH  51  65
ATOM     65  C   UNL A   1      46.056  28.433  30.918  1.00  0.00    -0.014 A 
ATOM     66  C   UNL A   1      47.040  28.513  29.917  1.00  0.00     0.010 A 
ATOM     67  C   UNL A   1      46.318  27.700  32.088  1.00  0.00     0.010 A 
ATOM     68  C   UNL A   1      48.254  27.840  30.068  1.00  0.00     0.020 A 
ATOM     69  C   UNL A   1      47.540  27.040  32.250  1.00  0.00     0.020 A 
ATOM     70  C   UNL A   1      48.494  27.105  31.232  1.00  0.00     0.054 A 
BRANCH  70  71
ATOM     71  S   UNL A   1      50.080  26.239  31.394  1.00  0.00     0.124 S 
ATOM     72  O   UNL A   1      50.758  27.038  32.412  1.00  0.00    -0.237 OA
ATOM     73  O   UNL A   1      49.669  24.903  31.815  1.00  0.00    -0.237 OA
ATOM     74  O   UNL A   1      50.659  26.320  30.056  1.00  0.00    -0.744 OA
ENDBRANCH  70  71
ENDBRANCH  51  65
BRANCH  52  75
ATOM     75  C   UNL A   1      37.110  32.657  29.567  1.00  0.00    -0.014 A 
ATOM     76  C   UNL A   1      36.166  32.716  30.607  1.00  0.00     0.010 A 
ATOM     77  C   UNL A   1      36.811  33.259  28.332  1.00  0.00     0.010 A 
ATOM     78  C   UNL A   1      34.947  33.373  30.420  1.00  0.00     0.020 A 
ATOM     79  C   UNL A   1      35.597  33.929  28.144  1.00  0.00     0.020 A 
ATOM     80  C   UNL A   1      34.676  33.986  29.192  1.00  0.00     0.054 A 
BRANCH  80  81
ATOM     81  S   UNL A   1      33.118  34.897  29.006  1.00  0.00     0.124 S 
ATOM     82  O   UNL A   1      32.591  34.888  30.367  1.00  0.00    -0.237 OA
ATOM     83  O   UNL A   1      33.578  36.194  28.513  1.00  0.00    -0.237 OA
ATOM     84  O   UNL A   1      32.366  34.100  28.038  1.00  0.00    -0.744 OA
ENDBRANCH  80  81
ENDBRANCH  52  75
BRANCH  64  85
ATOM     85  C   UNL A   1      43.138  34.859  32.323  1.00  0.00    -0.014 A 
ATOM     86  C   UNL A   1      43.681  35.864  31.507  1.00  0.00     0.010 A 
ATOM     87  C   UNL A   1      42.893  35.125  33.682  1.00  0.00     0.010 A 
ATOM     88  C   UNL A   1      43.967  37.123  32.041  1.00  0.00     0.020 A 
ATOM     89  C   UNL A   1      43.167  36.387  34.216  1.00  0.00     0.020 A 
ATOM     90  C   UNL A   1      43.698  37.379  33.390  1.00  0.00     0.054 A 
BRANCH  90  91
ATOM     91  S   UNL A   1      44.003  39.048  34.032  1.00  0.00     0.124 S 
ATOM     92  O   UNL A   1      44.014  38.825  35.475  1.00  0.00    -0.237 OA
ATOM     93  O   UNL A   1      45.295  39.382  33.438  1.00  0.00    -0.237 OA
ATOM     94  O   UNL A   1      42.873  39.826  33.531  1.00  0.00    -0.744 OA
ENDBRANCH  90  91
ENDBRANCH  64  85
ENDBRANCH  38  39
ENDBRANCH  30  33
ENDBRANCH  28  29
ENDBRANCH   1  28
TORSDOF 17
ENDMDL
MODEL 2
REMARK VINA RESULT:     -12.0      1.674      2.713
REMARK SMILES Cc1cc(OC(F)(F)F)cc2c1O[C@H](C(F)(F)F)C(C(=O)NCCCCNC(=O)c1ccc(-c3c4nc(c(-c5ccc(S(=O)(=O)[O-])cc5)c5ccc([nH]5)c(-c5ccc(S(=O)(=O)[O-])cc5)c5nc(c(-c6ccc(S(=O)(=O)[O-])cc6)c6ccc3[nH]6)C=C5)C=C4)cc1)=C2
REMARK SMILES IDX 25 1 24 2 23 3 22 4 20 5 21 6 19 8 1 9 2 10 3 11 12 12 4 13
REMARK SMILES IDX 11 14 13 15 10 16 90 17 14 18 5 19 6 20 7 21 8 22 9 23 15 24
REMARK SMILES IDX 16 25 17 26 18 27 26 28 27 29 28 30 29 32 30 33 31 34 89 35
REMARK SMILES IDX 32 36 88 37 33 38 34 39 35 40 82 41 36 42 87 43 81 44 83 45
REMARK SMILES IDX 37 46 86 47 80 48 79 49 38 51 68 52 49 53 67 54 50 55 53 56
REMARK SMILES IDX 66 57 84 58 51 59 52 60 65 62 85 63 54 64 39 65 40 66 48 67
REMARK SMILES IDX 41 68 47 69 42 70 43 71 44 72 45 73 46 74 69 75 70 76 78 77
REMARK SMILES IDX 71 78 77 79 72 80 73 81 74 82 75 83 76 84 55 85 56 86 64 87
REMARK SMILES IDX 57 88 63 89 58 90 59 91 60 92 61 93 62 94
REMARK H PARENT 22 7 27 31 83 50 53 61
REMARK Flexibility Score: inf
ROOT
ATOM      1  C   UNL A   1      35.634  23.180  26.507  1.00  0.00     0.023 C 
ENDROOT
BRANCH   1   2
ATOM      2  C   UNL A   1      34.907  21.859  26.238  1.00  0.00     0.023 C 
BRANCH   2   3
ATOM      3  C   UNL A   1      33.697  21.991  25.317  1.00  0.00     0.116 C 
BRANCH   3   4
ATOM      4  N   UNL A   1      34.079  22.373  23.970  1.00  0.00    -0.352 N 
ATOM      5  C   UNL A   1      33.909  23.448  23.166  1.00  0.00     0.251 C 
ATOM      6  O   UNL A   1      34.410  23.349  22.040  1.00  0.00    -0.270 OA
ATOM      7  H   UNL A   1      34.598  21.665  23.524  1.00  0.00     0.163 HD
BRANCH   5   8
ATOM      8  C   UNL A   1      33.183  24.698  23.538  1.00  0.00     0.067 C 
ATOM      9  C   UNL A   1      30.236  28.898  23.800  1.00  0.00     0.048 C 
ATOM     10  C   UNL A   1      31.376  28.343  24.606  1.00  0.00    -0.005 A 
ATOM     11  C   UNL A   1      31.828  29.019  25.751  1.00  0.00     0.054 A 
ATOM     12  C   UNL A   1      32.022  27.162  24.216  1.00  0.00     0.131 A 
ATOM     13  C   UNL A   1      32.902  28.523  26.495  1.00  0.00     0.130 A 
ATOM     14  C   UNL A   1      33.095  26.657  24.950  1.00  0.00     0.021 A 
ATOM     15  O   UNL A   1      31.592  26.554  23.068  1.00  0.00    -0.475 OA
ATOM     16  C   UNL A   1      33.529  27.341  26.089  1.00  0.00     0.058 A 
ATOM     17  C   UNL A   1      33.765  25.444  24.497  1.00  0.00     0.025 C 
ATOM     18  C   UNL A   1      31.866  25.130  22.959  1.00  0.00     0.314 C 
BRANCH  13  19
ATOM     19  O   UNL A   1      33.433  29.085  27.621  1.00  0.00    -0.406 OA
BRANCH  19  20
ATOM     20  C   UNL A   1      34.194  30.271  27.474  1.00  0.00     0.573 C 
ATOM     21  F   UNL A   1      33.469  31.248  26.890  1.00  0.00    -0.132 F 
ATOM     22  F   UNL A   1      34.658  30.704  28.666  1.00  0.00    -0.132 F 
ATOM     23  F   UNL A   1      35.257  30.010  26.681  1.00  0.00    -0.132 F 
ENDBRANCH  19  20
ENDBRANCH  13  19
BRANCH  18  24
ATOM     24  C   UNL A   1      30.675  24.339  23.533  1.00  0.00     0.429 C 
ATOM     25  F   UNL A   1      29.524  25.042  23.383  1.00  0.00    -0.167 F 
ATOM     26  F   UNL A   1      30.486  23.154  22.906  1.00  0.00    -0.167 F 
ATOM     27  F   UNL A   1      30.813  24.069  24.851  1.00  0.00    -0.167 F 
ENDBRANCH  18  24
ENDBRANCH   5   8
ENDBRANCH   3   4
ENDBRANCH   2   3
ENDBRANCH   1   2
BRANCH   1  28
ATOM     28  C   UNL A   1      36.843  23.455  25.614  1.00  0.00     0.116 C 
BRANCH  28  29
ATOM     29  N   UNL A   1      37.945  22.526  25.817  1.00  0.00    -0.352 N 
ATOM     30  C   UNL A   1      39.156  22.790  26.411  1.00  0.00     0.251 C 
ATOM     31  H   UNL A   1      37.807  21.607  25.492  1.00  0.00     0.163 HD
ATOM     32  O   UNL A   1      40.032  21.935  26.474  1.00  0.00    -0.269 OA
BRANCH  30  33
ATOM     33  C   UNL A   1      39.383  24.147  26.934  1.00  0.00     0.039 A 
ATOM     34  C   UNL A   1      38.993  24.436  28.241  1.00  0.00     0.014 A 
ATOM     35  C   UNL A   1      40.081  25.081  26.162  1.00  0.00     0.014 A 
ATOM     36  C   UNL A   1      39.360  25.656  28.806  1.00  0.00     0.010 A 
ATOM     37  C   UNL A   1      40.481  26.280  26.742  1.00  0.00     0.010 A 
ATOM     38  C   UNL A   1      40.129  26.571  28.069  1.00  0.00    -0.014 A 
BRANCH  38  39
ATOM     39  C   UNL A   1      40.567  27.847  28.678  1.00  0.00     0.031 A 
ATOM     40  C   UNL A   1      41.982  27.997  29.150  1.00  0.00     0.074 A 
ATOM     41  C   UNL A   1      39.683  28.851  28.833  1.00  0.00     0.049 A 
ATOM     42  N   UNL A   1      42.553  29.030  29.713  1.00  0.00    -0.248 NA
ATOM     43  C   UNL A   1      42.866  26.833  28.980  1.00  0.00     0.031 C 
ATOM     44  C   UNL A   1      38.272  28.807  28.440  1.00  0.00     0.029 A 
ATOM     45  N   UNL A   1      39.843  30.108  29.359  1.00  0.00    -0.354 N 
ATOM     46  C   UNL A   1      43.861  28.640  29.969  1.00  0.00     0.074 A 
ATOM     47  C   UNL A   1      43.988  27.265  29.538  1.00  0.00     0.031 C 
ATOM     48  C   UNL A   1      37.705  29.995  28.711  1.00  0.00     0.029 A 
ATOM     49  C   UNL A   1      38.704  30.875  29.311  1.00  0.00     0.049 A 
ATOM     50  H   UNL A   1      40.695  30.430  29.733  1.00  0.00     0.167 HD
ATOM     51  C   UNL A   1      44.870  29.369  30.495  1.00  0.00     0.031 A 
ATOM     52  C   UNL A   1      38.493  32.148  29.696  1.00  0.00     0.031 A 
ATOM     53  C   UNL A   1      44.747  30.738  30.909  1.00  0.00     0.049 A 
ATOM     54  C   UNL A   1      39.630  32.942  30.271  1.00  0.00     0.074 A 
ATOM     55  C   UNL A   1      45.722  31.571  31.428  1.00  0.00     0.029 A 
ATOM     56  N   UNL A   1      43.577  31.477  30.843  1.00  0.00    -0.354 N 
ATOM     57  N   UNL A   1      40.868  32.565  30.480  1.00  0.00    -0.248 NA
ATOM     58  C   UNL A   1      39.348  34.333  30.654  1.00  0.00     0.031 C 
ATOM     59  C   UNL A   1      45.135  32.813  31.695  1.00  0.00     0.029 A 
ATOM     60  C   UNL A   1      43.803  32.758  31.313  1.00  0.00     0.049 A 
ATOM     61  H   UNL A   1      42.713  31.142  30.510  1.00  0.00     0.167 HD
ATOM     62  C   UNL A   1      41.519  33.678  31.000  1.00  0.00     0.074 A 
ATOM     63  C   UNL A   1      40.538  34.741  31.074  1.00  0.00     0.031 C 
ATOM     64  C   UNL A   1      42.814  33.804  31.376  1.00  0.00     0.031 A 
BRANCH  51  65
ATOM     65  C   UNL A   1      46.202  28.689  30.636  1.00  0.00    -0.014 A 
ATOM     66  C   UNL A   1      47.151  28.758  29.600  1.00  0.00     0.010 A 
ATOM     67  C   UNL A   1      46.513  27.989  31.814  1.00  0.00     0.010 A 
ATOM     68  C   UNL A   1      48.379  28.106  29.727  1.00  0.00     0.020 A 
ATOM     69  C   UNL A   1      47.749  27.350  31.951  1.00  0.00     0.020 A 
ATOM     70  C   UNL A   1      48.668  27.403  30.900  1.00  0.00     0.054 A 
BRANCH  70  71
ATOM     71  S   UNL A   1      50.270  26.562  31.029  1.00  0.00     0.124 S 
ATOM     72  O   UNL A   1      50.341  25.852  29.754  1.00  0.00    -0.237 OA
ATOM     73  O   UNL A   1      51.200  27.678  31.179  1.00  0.00    -0.237 OA
ATOM     74  O   UNL A   1      50.123  25.711  32.206  1.00  0.00    -0.744 OA
ENDBRANCH  70  71
ENDBRANCH  51  65
BRANCH  52  75
ATOM     75  C   UNL A   1      37.153  32.756  29.495  1.00  0.00    -0.014 A 
ATOM     76  C   UNL A   1      36.291  32.935  30.591  1.00  0.00     0.010 A 
ATOM     77  C   UNL A   1      36.759  33.216  28.226  1.00  0.00     0.010 A 
ATOM     78  C   UNL A   1      35.059  33.573  30.423  1.00  0.00     0.020 A 
ATOM     79  C   UNL A   1      35.532  33.865  28.057  1.00  0.00     0.020 A 
ATOM     80  C   UNL A   1      34.692  34.044  29.158  1.00  0.00     0.054 A 
BRANCH  80  81
ATOM     81  S   UNL A   1      33.120  34.935  28.989  1.00  0.00     0.124 S 
ATOM     82  O   UNL A   1      32.592  34.890  30.349  1.00  0.00    -0.237 OA
ATOM     83  O   UNL A   1      33.561  36.248  28.523  1.00  0.00    -0.237 OA
ATOM     84  O   UNL A   1      32.382  34.147  28.004  1.00  0.00    -0.744 OA
ENDBRANCH  80  81
ENDBRANCH  52  75
BRANCH  64  85
ATOM     85  C   UNL A   1      43.267  35.139  31.889  1.00  0.00    -0.014 A 
ATOM     86  C   UNL A   1      43.821  36.090  31.016  1.00  0.00     0.010 A 
ATOM     87  C   UNL A   1      43.019  35.488  33.229  1.00  0.00     0.010 A 
ATOM     88  C   UNL A   1      44.116  37.376  31.476  1.00  0.00     0.020 A 
ATOM     89  C   UNL A   1      43.301  36.777  33.688  1.00  0.00     0.020 A 
ATOM     90  C   UNL A   1      43.844  37.714  32.807  1.00  0.00     0.054 A 
BRANCH  90  91
ATOM     91  S   UNL A   1      44.161  39.415  33.349  1.00  0.00     0.124 S 
ATOM     92  O   UNL A   1      44.712  40.025  32.142  1.00  0.00    -0.237 OA
ATOM     93  O   UNL A   1      42.829  39.876  33.735  1.00  0.00    -0.237 OA
ATOM     94  O   UNL A   1      45.105  39.260  34.454  1.00  0.00    -0.744 OA
ENDBRANCH  90  91
ENDBRANCH  64  85
ENDBRANCH  38  39
ENDBRANCH  30  33
ENDBRANCH  28  29
ENDBRANCH   1  28
TORSDOF 17
ENDMDL
MODEL 3
REMARK VINA RESULT:     -11.4      2.398      3.502
REMARK SMILES Cc1cc(OC(F)(F)F)cc2c1O[C@H](C(F)(F)F)C(C(=O)NCCCCNC(=O)c1ccc(-c3c4nc(c(-c5ccc(S(=O)(=O)[O-])cc5)c5ccc([nH]5)c(-c5ccc(S(=O)(=O)[O-])cc5)c5nc(c(-c6ccc(S(=O)(=O)[O-])cc6)c6ccc3[nH]6)C=C5)C=C4)cc1)=C2
REMARK SMILES IDX 25 1 24 2 23 3 22 4 20 5 21 6 19 8 1 9 2 10 3 11 12 12 4 13
REMARK SMILES IDX 11 14 13 15 10 16 90 17 14 18 5 19 6 20 7 21 8 22 9 23 15 24
REMARK SMILES IDX 16 25 17 26 18 27 26 28 27 29 28 30 29 32 30 33 31 34 89 35
REMARK SMILES IDX 32 36 88 37 33 38 34 39 35 40 82 41 36 42 87 43 81 44 83 45
REMARK SMILES IDX 37 46 86 47 80 48 79 49 38 51 68 52 49 53 67 54 50 55 53 56
REMARK SMILES IDX 66 57 84 58 51 59 52 60 65 62 85 63 54 64 39 65 40 66 48 67
REMARK SMILES IDX 41 68 47 69 42 70 43 71 44 72 45 73 46 74 69 75 70 76 78 77
REMARK SMILES IDX 71 78 77 79 72 80 73 81 74 82 75 83 76 84 55 85 56 86 64 87
REMARK SMILES IDX 57 88 63 89 58 90 59 91 60 92 61 93 62 94
REMARK H PARENT 22 7 27 31 83 50 53 61
REMARK Flexibility Score: inf
ROOT
ATOM      1  C   UNL A   1      35.426  23.309  26.489  1.00  0.00     0.023 C 
ENDROOT
BRANCH   1   2
ATOM      2  C   UNL A   1      34.727  21.991  26.143  1.00  0.00     0.023 C 
BRANCH   2   3
ATOM      3  C   UNL A   1      33.470  22.158  25.293  1.00  0.00     0.116 C 
BRANCH   3   4
ATOM      4  N   UNL A   1      33.784  22.532  23.927  1.00  0.00    -0.352 N 
ATOM      5  C   UNL A   1      33.656  23.635  23.154  1.00  0.00     0.251 C 
ATOM      6  O   UNL A   1      34.060  23.515  21.992  1.00  0.00    -0.270 OA
ATOM      7  H   UNL A   1      34.200  21.788  23.432  1.00  0.00     0.163 HD
BRANCH   5   8
ATOM      8  C   UNL A   1      33.081  24.939  23.599  1.00  0.00     0.067 C 
ATOM      9  C   UNL A   1      30.598  29.404  24.132  1.00  0.00     0.048 C 
ATOM     10  C   UNL A   1      31.709  28.708  24.865  1.00  0.00    -0.005 A 
ATOM     11  C   UNL A   1      32.279  29.293  26.007  1.00  0.00     0.054 A 
ATOM     12  C   UNL A   1      32.211  27.482  24.407  1.00  0.00     0.131 A 
ATOM     13  C   UNL A   1      33.327  28.664  26.683  1.00  0.00     0.130 A 
ATOM     14  C   UNL A   1      33.258  26.844  25.073  1.00  0.00     0.021 A 
ATOM     15  O   UNL A   1      31.670  26.962  23.263  1.00  0.00    -0.475 OA
ATOM     16  C   UNL A   1      33.811  27.439  26.211  1.00  0.00     0.058 A 
ATOM     17  C   UNL A   1      33.779  25.587  24.551  1.00  0.00     0.025 C 
ATOM     18  C   UNL A   1      31.791  25.522  23.097  1.00  0.00     0.314 C 
BRANCH  13  19
ATOM     19  O   UNL A   1      33.964  29.128  27.800  1.00  0.00    -0.406 OA
BRANCH  19  20
ATOM     20  C   UNL A   1      34.926  30.155  27.635  1.00  0.00     0.573 C 
ATOM     21  F   UNL A   1      35.997  29.715  26.941  1.00  0.00    -0.132 F 
ATOM     22  F   UNL A   1      34.394  31.228  27.012  1.00  0.00    -0.132 F 
ATOM     23  F   UNL A   1      35.354  30.549  28.855  1.00  0.00    -0.132 F 
ENDBRANCH  19  20
ENDBRANCH  13  19
BRANCH  18  24
ATOM     24  C   UNL A   1      30.551  24.837  23.703  1.00  0.00     0.429 C 
ATOM     25  F   UNL A   1      30.257  23.702  23.019  1.00  0.00    -0.167 F 
ATOM     26  F   UNL A   1      30.738  24.470  24.993  1.00  0.00    -0.167 F 
ATOM     27  F   UNL A   1      29.452  25.622  23.672  1.00  0.00    -0.167 F 
ENDBRANCH  18  24
ENDBRANCH   5   8
ENDBRANCH   3   4
ENDBRANCH   2   3
ENDBRANCH   1   2
BRANCH   1  28
ATOM     28  C   UNL A   1      36.725  23.580  25.730  1.00  0.00     0.116 C 
BRANCH  28  29
ATOM     29  N   UNL A   1      37.744  22.560  25.930  1.00  0.00    -0.352 N 
ATOM     30  C   UNL A   1      39.008  22.738  26.439  1.00  0.00     0.251 C 
ATOM     31  H   UNL A   1      37.500  21.641  25.673  1.00  0.00     0.163 HD
ATOM     32  O   UNL A   1      39.802  21.806  26.507  1.00  0.00    -0.269 OA
BRANCH  30  33
ATOM     33  C   UNL A   1      39.395  24.095  26.860  1.00  0.00     0.039 A 
ATOM     34  C   UNL A   1      39.271  24.439  28.206  1.00  0.00     0.014 A 
ATOM     35  C   UNL A   1      39.980  24.969  25.939  1.00  0.00     0.014 A 
ATOM     36  C   UNL A   1      39.796  25.652  28.648  1.00  0.00     0.010 A 
ATOM     37  C   UNL A   1      40.539  26.159  26.390  1.00  0.00     0.010 A 
ATOM     38  C   UNL A   1      40.456  26.504  27.748  1.00  0.00    -0.014 A 
BRANCH  38  39
ATOM     39  C   UNL A   1      41.061  27.770  28.218  1.00  0.00     0.031 A 
ATOM     40  C   UNL A   1      42.546  27.962  28.127  1.00  0.00     0.074 A 
ATOM     41  C   UNL A   1      40.278  28.727  28.753  1.00  0.00     0.049 A 
ATOM     42  N   UNL A   1      43.262  28.994  28.491  1.00  0.00    -0.248 NA
ATOM     43  C   UNL A   1      43.327  26.847  27.569  1.00  0.00     0.031 C 
ATOM     44  C   UNL A   1      38.826  28.637  28.922  1.00  0.00     0.029 A 
ATOM     45  N   UNL A   1      40.596  29.964  29.250  1.00  0.00    -0.354 N 
ATOM     46  C   UNL A   1      44.578  28.651  28.210  1.00  0.00     0.074 A 
ATOM     47  C   UNL A   1      44.566  27.303  27.686  1.00  0.00     0.031 C 
ATOM     48  C   UNL A   1      38.375  29.785  29.454  1.00  0.00     0.029 A 
ATOM     49  C   UNL A   1      39.506  30.682  29.681  1.00  0.00     0.049 A 
ATOM     50  H   UNL A   1      41.518  30.308  29.293  1.00  0.00     0.167 HD
ATOM     51  C   UNL A   1      45.694  29.400  28.356  1.00  0.00     0.031 A 
ATOM     52  C   UNL A   1      39.425  31.926  30.190  1.00  0.00     0.031 A 
ATOM     53  C   UNL A   1      45.704  30.744  28.864  1.00  0.00     0.049 A 
ATOM     54  C   UNL A   1      40.676  32.744  30.337  1.00  0.00     0.074 A 
ATOM     55  C   UNL A   1      46.782  31.595  29.023  1.00  0.00     0.029 A 
ATOM     56  N   UNL A   1      44.579  31.432  29.288  1.00  0.00    -0.354 N 
ATOM     57  N   UNL A   1      41.909  32.414  30.040  1.00  0.00    -0.248 NA
ATOM     58  C   UNL A   1      40.526  34.103  30.877  1.00  0.00     0.031 C 
ATOM     59  C   UNL A   1      46.310  32.797  29.563  1.00  0.00     0.029 A 
ATOM     60  C   UNL A   1      44.935  32.700  29.711  1.00  0.00     0.049 A 
ATOM     61  H   UNL A   1      43.662  31.074  29.288  1.00  0.00     0.167 HD
ATOM     62  C   UNL A   1      42.682  33.530  30.338  1.00  0.00     0.074 A 
ATOM     63  C   UNL A   1      41.777  34.545  30.838  1.00  0.00     0.031 C 
ATOM     64  C   UNL A   1      44.019  33.697  30.203  1.00  0.00     0.031 A 
BRANCH  51  65
ATOM     65  C   UNL A   1      46.995  28.775  27.944  1.00  0.00    -0.014 A 
ATOM     66  C   UNL A   1      47.451  28.886  26.618  1.00  0.00     0.010 A 
ATOM     67  C   UNL A   1      47.774  28.084  28.888  1.00  0.00     0.010 A 
ATOM     68  C   UNL A   1      48.651  28.284  26.234  1.00  0.00     0.020 A 
ATOM     69  C   UNL A   1      48.985  27.496  28.510  1.00  0.00     0.020 A 
ATOM     70  C   UNL A   1      49.408  27.589  27.182  1.00  0.00     0.054 A 
BRANCH  70  71
ATOM     71  S   UNL A   1      50.958  26.814  26.648  1.00  0.00     0.124 S 
ATOM     72  O   UNL A   1      51.448  26.229  27.894  1.00  0.00    -0.237 OA
ATOM     73  O   UNL A   1      50.503  25.859  25.642  1.00  0.00    -0.237 OA
ATOM     74  O   UNL A   1      51.747  27.931  26.136  1.00  0.00    -0.744 OA
ENDBRANCH  70  71
ENDBRANCH  51  65
BRANCH  52  75
ATOM     75  C   UNL A   1      38.096  32.482  30.546  1.00  0.00    -0.014 A 
ATOM     76  C   UNL A   1      37.607  32.352  31.857  1.00  0.00     0.010 A 
ATOM     77  C   UNL A   1      37.343  33.198  29.599  1.00  0.00     0.010 A 
ATOM     78  C   UNL A   1      36.390  32.935  32.219  1.00  0.00     0.020 A 
ATOM     79  C   UNL A   1      36.130  33.794  29.961  1.00  0.00     0.020 A 
ATOM     80  C   UNL A   1      35.664  33.662  31.271  1.00  0.00     0.054 A 
BRANCH  80  81
ATOM     81  S   UNL A   1      34.126  34.472  31.792  1.00  0.00     0.124 S 
ATOM     82  O   UNL A   1      33.571  33.503  32.731  1.00  0.00    -0.237 OA
ATOM     83  O   UNL A   1      34.619  35.716  32.381  1.00  0.00    -0.237 OA
ATOM     84  O   UNL A   1      33.382  34.632  30.545  1.00  0.00    -0.744 OA
ENDBRANCH  80  81
ENDBRANCH  52  75
BRANCH  64  85
ATOM     85  C   UNL A   1      44.600  35.027  30.581  1.00  0.00    -0.014 A 
ATOM     86  C   UNL A   1      45.170  35.225  31.849  1.00  0.00     0.010 A 
ATOM     87  C   UNL A   1      44.686  36.046  29.615  1.00  0.00     0.010 A 
ATOM     88  C   UNL A   1      45.827  36.422  32.145  1.00  0.00     0.020 A 
ATOM     89  C   UNL A   1      45.353  37.240  29.904  1.00  0.00     0.020 A 
ATOM     90  C   UNL A   1      45.923  37.417  31.166  1.00  0.00     0.054 A 
BRANCH  90  91
ATOM     91  S   UNL A   1      46.853  38.926  31.554  1.00  0.00     0.124 S 
ATOM     92  O   UNL A   1      46.061  39.506  32.635  1.00  0.00    -0.237 OA
ATOM     93  O   UNL A   1      48.159  38.398  31.944  1.00  0.00    -0.237 OA
ATOM     94  O   UNL A   1      46.839  39.677  30.300  1.00  0.00    -0.744 OA
ENDBRANCH  90  91
ENDBRANCH  64  85
ENDBRANCH  38  39
ENDBRANCH  30  33
ENDBRANCH  28  29
ENDBRANCH   1  28
TORSDOF 17
ENDMDL
