MODEL 1
REMARK VINA RESULT:      -8.6      0.000      0.000
REMARK SMILES C[C@H](CC[NH2+]Cc1cc(C(=O)NCCCCNC(=O)c2ccc(-c3c4nc(c(-c5ccc(S(=O)(=O)[O-])cc5)c5ccc([nH]5)c(-c5ccc(S(=O)(=O)[O-])cc5)c5nc(c(-c6ccc(S(=O)(=O)[O-])cc6)c6ccc3[nH]6)C=C5)C=C4)cc2)cs1)c1ccccc1
REMARK SMILES IDX 13 1 12 2 10 3 11 4 9 6 7 7 8 8 81 9 80 10 6 11 5 12 4 15
REMARK SMILES IDX 3 16 2 17 1 18 82 19 83 20 87 21 84 22 86 23 85 24 14 25
REMARK SMILES IDX 15 26 16 27 17 28 18 29 19 31 20 32 21 33 79 34 22 35 78 36
REMARK SMILES IDX 23 37 24 38 25 39 72 40 26 41 77 42 71 43 73 44 27 45 76 46
REMARK SMILES IDX 70 47 69 48 28 50 58 51 39 52 57 53 40 54 43 55 56 56 74 57
REMARK SMILES IDX 41 58 42 59 55 61 75 62 44 63 29 64 30 65 38 66 31 67 37 68
REMARK SMILES IDX 32 69 33 70 34 71 35 72 36 73 59 74 60 75 68 76 61 77 67 78
REMARK SMILES IDX 62 79 63 80 64 81 65 82 66 83 45 84 46 85 54 86 47 87 53 88
REMARK SMILES IDX 48 89 49 90 50 91 51 92 52 93
REMARK H PARENT 12 5 5 13 5 14 17 30 73 49 43 60
REMARK Flexibility Score: inf
ROOT
ATOM      1  C   UNL A   1      44.588  22.285  25.656  1.00  0.00     0.116 C 
ENDROOT
BRANCH   1   2
ATOM      2  N   UNL A   1      45.042  22.524  27.012  1.00  0.00    -0.352 N 
ATOM      3  C   UNL A   1      45.145  23.689  27.732  1.00  0.00     0.252 C 
ATOM      4  O   UNL A   1      45.293  23.592  28.951  1.00  0.00    -0.269 OA
ATOM      5  H   UNL A   1      45.323  21.716  27.498  1.00  0.00     0.163 HD
BRANCH   3   6
ATOM      6  C   UNL A   1      45.042  24.996  27.082  1.00  0.00     0.051 A 
ATOM      7  C   UNL A   1      45.538  27.183  26.362  1.00  0.00     0.059 A 
ATOM      8  C   UNL A   1      45.860  26.164  27.241  1.00  0.00     0.035 A 
ATOM      9  S   UNL A   1      44.094  26.833  25.518  1.00  0.00    -0.142 S 
ATOM     10  C   UNL A   1      43.999  25.278  26.214  1.00  0.00     0.079 A 
BRANCH   7  11
ATOM     11  C   UNL A   1      46.291  28.459  26.118  1.00  0.00     0.308 C 
BRANCH  11  12
ATOM     12  N   UNL A   1      46.055  29.442  27.189  1.00  0.00    -0.342 N 
ATOM     13  H   UNL A   1      46.116  28.969  28.090  1.00  0.00     0.346 HD
ATOM     14  H   UNL A   1      46.763  30.172  27.109  1.00  0.00     0.346 HD
BRANCH  12  15
ATOM     15  C   UNL A   1      44.740  30.070  27.072  1.00  0.00     0.261 C 
BRANCH  15  16
ATOM     16  C   UNL A   1      44.797  31.597  26.889  1.00  0.00     0.069 C 
BRANCH  16  17
ATOM     17  C   UNL A   1      44.545  32.491  28.133  1.00  0.00     0.021 C 
ATOM     18  C   UNL A   1      45.827  32.692  28.956  1.00  0.00     0.013 C 
BRANCH  17  19
ATOM     19  C   UNL A   1      43.759  33.754  27.803  1.00  0.00    -0.045 A 
ATOM     20  C   UNL A   1      42.985  34.367  28.804  1.00  0.00     0.004 A 
ATOM     21  C   UNL A   1      43.750  34.332  26.528  1.00  0.00     0.004 A 
ATOM     22  C   UNL A   1      42.185  35.477  28.522  1.00  0.00     0.000 A 
ATOM     23  C   UNL A   1      42.952  35.445  26.246  1.00  0.00     0.000 A 
ATOM     24  C   UNL A   1      42.159  36.009  27.238  1.00  0.00     0.000 A 
ENDBRANCH  17  19
ENDBRANCH  16  17
ENDBRANCH  15  16
ENDBRANCH  12  15
ENDBRANCH  11  12
ENDBRANCH   7  11
ENDBRANCH   3   6
ENDBRANCH   1   2
BRANCH   1  25
ATOM     25  C   UNL A   1      43.716  21.039  25.551  1.00  0.00     0.023 C 
BRANCH  25  26
ATOM     26  C   UNL A   1      42.442  21.109  26.396  1.00  0.00     0.023 C 
BRANCH  26  27
ATOM     27  C   UNL A   1      41.647  22.410  26.274  1.00  0.00     0.116 C 
BRANCH  27  28
ATOM     28  N   UNL A   1      40.246  22.203  25.940  1.00  0.00    -0.352 N 
ATOM     29  C   UNL A   1      39.168  23.019  26.202  1.00  0.00     0.251 C 
ATOM     30  H   UNL A   1      40.040  21.366  25.463  1.00  0.00     0.163 HD
ATOM     31  O   UNL A   1      38.031  22.642  25.948  1.00  0.00    -0.269 OA
BRANCH  29  32
ATOM     32  C   UNL A   1      39.399  24.338  26.827  1.00  0.00     0.039 A 
ATOM     33  C   UNL A   1      38.984  24.544  28.145  1.00  0.00     0.014 A 
ATOM     34  C   UNL A   1      40.073  25.346  26.132  1.00  0.00     0.014 A 
ATOM     35  C   UNL A   1      39.317  25.735  28.793  1.00  0.00     0.010 A 
ATOM     36  C   UNL A   1      40.463  26.502  26.801  1.00  0.00     0.010 A 
ATOM     37  C   UNL A   1      40.094  26.706  28.140  1.00  0.00    -0.014 A 
BRANCH  37  38
ATOM     38  C   UNL A   1      40.545  27.934  28.846  1.00  0.00     0.031 A 
ATOM     39  C   UNL A   1      41.914  27.989  29.467  1.00  0.00     0.074 A 
ATOM     40  C   UNL A   1      39.698  28.973  28.990  1.00  0.00     0.049 A 
ATOM     41  N   UNL A   1      42.461  28.945  30.174  1.00  0.00    -0.248 NA
ATOM     42  C   UNL A   1      42.773  26.805  29.294  1.00  0.00     0.031 C 
ATOM     43  C   UNL A   1      38.325  29.026  28.479  1.00  0.00     0.029 A 
ATOM     44  N   UNL A   1      39.863  30.183  29.617  1.00  0.00    -0.354 N 
ATOM     45  C   UNL A   1      43.713  28.471  30.547  1.00  0.00     0.074 A 
ATOM     46  C   UNL A   1      43.828  27.126  30.028  1.00  0.00     0.031 C 
ATOM     47  C   UNL A   1      37.785  30.216  28.791  1.00  0.00     0.029 A 
ATOM     48  C   UNL A   1      38.755  30.996  29.553  1.00  0.00     0.049 A 
ATOM     49  H   UNL A   1      40.696  30.444  30.071  1.00  0.00     0.167 HD
ATOM     50  C   UNL A   1      44.688  29.105  31.241  1.00  0.00     0.031 A 
ATOM     51  C   UNL A   1      38.541  32.229  30.053  1.00  0.00     0.031 A 
ATOM     52  C   UNL A   1      44.582  30.449  31.740  1.00  0.00     0.049 A 
ATOM     53  C   UNL A   1      39.645  32.918  30.807  1.00  0.00     0.074 A 
ATOM     54  C   UNL A   1      45.538  31.199  32.403  1.00  0.00     0.029 A 
ATOM     55  N   UNL A   1      43.454  31.249  31.628  1.00  0.00    -0.354 N 
ATOM     56  N   UNL A   1      40.847  32.476  31.093  1.00  0.00    -0.248 NA
ATOM     57  C   UNL A   1      39.368  34.277  31.295  1.00  0.00     0.031 C 
ATOM     58  C   UNL A   1      44.973  32.437  32.728  1.00  0.00     0.029 A 
ATOM     59  C   UNL A   1      43.684  32.477  32.222  1.00  0.00     0.049 A 
ATOM     60  H   UNL A   1      42.613  30.981  31.190  1.00  0.00     0.167 HD
ATOM     61  C   UNL A   1      41.480  33.515  31.767  1.00  0.00     0.074 A 
ATOM     62  C   UNL A   1      40.533  34.609  31.836  1.00  0.00     0.031 C 
ATOM     63  C   UNL A   1      42.735  33.559  32.278  1.00  0.00     0.031 A 
BRANCH  50  64
ATOM     64  C   UNL A   1      45.961  28.344  31.501  1.00  0.00    -0.014 A 
ATOM     65  C   UNL A   1      46.138  27.615  32.692  1.00  0.00     0.010 A 
ATOM     66  C   UNL A   1      46.979  28.328  30.532  1.00  0.00     0.010 A 
ATOM     67  C   UNL A   1      47.327  26.920  32.926  1.00  0.00     0.020 A 
ATOM     68  C   UNL A   1      48.159  27.611  30.750  1.00  0.00     0.020 A 
ATOM     69  C   UNL A   1      48.333  26.926  31.955  1.00  0.00     0.054 A 
BRANCH  69  70
ATOM     70  S   UNL A   1      49.858  25.999  32.276  1.00  0.00     0.124 S 
ATOM     71  O   UNL A   1      50.412  25.858  30.932  1.00  0.00    -0.237 OA
ATOM     72  O   UNL A   1      50.594  26.890  33.169  1.00  0.00    -0.237 OA
ATOM     73  O   UNL A   1      49.387  24.759  32.889  1.00  0.00    -0.744 OA
ENDBRANCH  69  70
ENDBRANCH  50  64
BRANCH  51  74
ATOM     74  C   UNL A   1      37.232  32.903  29.834  1.00  0.00    -0.014 A 
ATOM     75  C   UNL A   1      36.954  33.540  28.612  1.00  0.00     0.010 A 
ATOM     76  C   UNL A   1      36.252  32.905  30.844  1.00  0.00     0.010 A 
ATOM     77  C   UNL A   1      35.729  34.182  28.409  1.00  0.00     0.020 A 
ATOM     78  C   UNL A   1      35.016  33.523  30.635  1.00  0.00     0.020 A 
ATOM     79  C   UNL A   1      34.767  34.170  29.422  1.00  0.00     0.054 A 
BRANCH  79  80
ATOM     80  S   UNL A   1      33.165  34.965  29.120  1.00  0.00     0.124 S 
ATOM     81  O   UNL A   1      32.538  34.893  30.436  1.00  0.00    -0.237 OA
ATOM     82  O   UNL A   1      33.554  36.301  28.675  1.00  0.00    -0.237 OA
ATOM     83  O   UNL A   1      32.558  34.126  28.089  1.00  0.00    -0.744 OA
ENDBRANCH  79  80
ENDBRANCH  51  74
BRANCH  63  84
ATOM     84  C   UNL A   1      43.176  34.844  32.923  1.00  0.00    -0.014 A 
ATOM     85  C   UNL A   1      43.027  35.057  34.305  1.00  0.00     0.010 A 
ATOM     86  C   UNL A   1      43.804  35.830  32.141  1.00  0.00     0.010 A 
ATOM     87  C   UNL A   1      43.472  36.247  34.888  1.00  0.00     0.020 A 
ATOM     88  C   UNL A   1      44.274  37.010  32.724  1.00  0.00     0.020 A 
ATOM     89  C   UNL A   1      44.092  37.216  34.092  1.00  0.00     0.054 A 
BRANCH  89  90
ATOM     90  S   UNL A   1      44.704  38.732  34.879  1.00  0.00     0.124 S 
ATOM     91  O   UNL A   1      43.860  39.753  34.267  1.00  0.00    -0.237 OA
ATOM     92  O   UNL A   1      44.459  38.481  36.296  1.00  0.00    -0.237 OA
ATOM     93  O   UNL A   1      46.114  38.776  34.496  1.00  0.00    -0.744 OA
ENDBRANCH  89  90
ENDBRANCH  63  84
ENDBRANCH  37  38
ENDBRANCH  29  32
ENDBRANCH  27  28
ENDBRANCH  26  27
ENDBRANCH  25  26
ENDBRANCH   1  25
TORSDOF 20
ENDMDL
MODEL 2
REMARK VINA RESULT:      -7.8      4.451     11.900
REMARK SMILES C[C@H](CC[NH2+]Cc1cc(C(=O)NCCCCNC(=O)c2ccc(-c3c4nc(c(-c5ccc(S(=O)(=O)[O-])cc5)c5ccc([nH]5)c(-c5ccc(S(=O)(=O)[O-])cc5)c5nc(c(-c6ccc(S(=O)(=O)[O-])cc6)c6ccc3[nH]6)C=C5)C=C4)cc2)cs1)c1ccccc1
REMARK SMILES IDX 13 1 12 2 10 3 11 4 9 6 7 7 8 8 81 9 80 10 6 11 5 12 4 15
REMARK SMILES IDX 3 16 2 17 1 18 82 19 83 20 87 21 84 22 86 23 85 24 14 25
REMARK SMILES IDX 15 26 16 27 17 28 18 29 19 31 20 32 21 33 79 34 22 35 78 36
REMARK SMILES IDX 23 37 24 38 25 39 72 40 26 41 77 42 71 43 73 44 27 45 76 46
REMARK SMILES IDX 70 47 69 48 28 50 58 51 39 52 57 53 40 54 43 55 56 56 74 57
REMARK SMILES IDX 41 58 42 59 55 61 75 62 44 63 29 64 30 65 38 66 31 67 37 68
REMARK SMILES IDX 32 69 33 70 34 71 35 72 36 73 59 74 60 75 68 76 61 77 67 78
REMARK SMILES IDX 62 79 63 80 64 81 65 82 66 83 45 84 46 85 54 86 47 87 53 88
REMARK SMILES IDX 48 89 49 90 50 91 51 92 52 93
REMARK H PARENT 12 5 5 13 5 14 17 30 73 49 43 60
REMARK Flexibility Score: inf
ROOT
ATOM      1  C   UNL A   1      35.901  34.374  34.619  1.00  0.00     0.116 C 
ENDROOT
BRANCH   1   2
ATOM      2  N   UNL A   1      34.509  34.184  34.265  1.00  0.00    -0.352 N 
ATOM      3  C   UNL A   1      33.933  33.596  33.165  1.00  0.00     0.252 C 
ATOM      4  O   UNL A   1      32.737  33.312  33.233  1.00  0.00    -0.269 OA
ATOM      5  H   UNL A   1      33.867  34.535  34.924  1.00  0.00     0.163 HD
BRANCH   3   6
ATOM      6  C   UNL A   1      34.721  33.283  31.972  1.00  0.00     0.051 A 
ATOM      7  C   UNL A   1      35.813  32.086  30.263  1.00  0.00     0.059 A 
ATOM      8  C   UNL A   1      35.208  32.016  31.504  1.00  0.00     0.035 A 
ATOM      9  S   UNL A   1      36.022  33.709  29.771  1.00  0.00    -0.142 S 
ATOM     10  C   UNL A   1      35.174  34.289  31.134  1.00  0.00     0.079 A 
BRANCH   7  11
ATOM     11  C   UNL A   1      36.264  30.947  29.394  1.00  0.00     0.308 C 
BRANCH  11  12
ATOM     12  N   UNL A   1      35.123  30.251  28.776  1.00  0.00    -0.342 N 
ATOM     13  H   UNL A   1      35.476  29.548  28.128  1.00  0.00     0.346 HD
ATOM     14  H   UNL A   1      34.573  29.821  29.520  1.00  0.00     0.346 HD
BRANCH  12  15
ATOM     15  C   UNL A   1      34.253  31.173  28.046  1.00  0.00     0.261 C 
BRANCH  15  16
ATOM     16  C   UNL A   1      33.604  30.553  26.796  1.00  0.00     0.069 C 
BRANCH  16  17
ATOM     17  C   UNL A   1      32.071  30.308  26.815  1.00  0.00     0.021 C 
ATOM     18  C   UNL A   1      31.297  31.509  26.251  1.00  0.00     0.013 C 
BRANCH  17  19
ATOM     19  C   UNL A   1      31.685  28.944  26.255  1.00  0.00    -0.045 A 
ATOM     20  C   UNL A   1      31.321  28.831  24.902  1.00  0.00     0.004 A 
ATOM     21  C   UNL A   1      31.652  27.783  27.037  1.00  0.00     0.004 A 
ATOM     22  C   UNL A   1      30.882  27.616  24.369  1.00  0.00     0.000 A 
ATOM     23  C   UNL A   1      31.216  26.566  26.504  1.00  0.00     0.000 A 
ATOM     24  C   UNL A   1      30.817  26.485  25.175  1.00  0.00     0.000 A 
ENDBRANCH  17  19
ENDBRANCH  16  17
ENDBRANCH  15  16
ENDBRANCH  12  15
ENDBRANCH  11  12
ENDBRANCH   7  11
ENDBRANCH   3   6
ENDBRANCH   1   2
BRANCH   1  25
ATOM     25  C   UNL A   1      36.497  33.148  35.300  1.00  0.00     0.023 C 
BRANCH  25  26
ATOM     26  C   UNL A   1      37.958  32.889  34.927  1.00  0.00     0.023 C 
BRANCH  26  27
ATOM     27  C   UNL A   1      38.173  32.073  33.651  1.00  0.00     0.116 C 
BRANCH  27  28
ATOM     28  N   UNL A   1      37.542  30.762  33.689  1.00  0.00    -0.352 N 
ATOM     29  C   UNL A   1      37.938  29.598  33.070  1.00  0.00     0.251 C 
ATOM     30  H   UNL A   1      36.723  30.699  34.232  1.00  0.00     0.163 HD
ATOM     31  O   UNL A   1      37.229  28.601  33.117  1.00  0.00    -0.269 OA
BRANCH  29  32
ATOM     32  C   UNL A   1      39.209  29.580  32.315  1.00  0.00     0.039 A 
ATOM     33  C   UNL A   1      40.357  29.086  32.937  1.00  0.00     0.014 A 
ATOM     34  C   UNL A   1      39.249  29.998  30.982  1.00  0.00     0.014 A 
ATOM     35  C   UNL A   1      41.531  28.935  32.195  1.00  0.00     0.010 A 
ATOM     36  C   UNL A   1      40.399  29.782  30.228  1.00  0.00     0.010 A 
ATOM     37  C   UNL A   1      41.550  29.244  30.825  1.00  0.00    -0.014 A 
BRANCH  37  38
ATOM     38  C   UNL A   1      42.758  28.994  29.995  1.00  0.00     0.031 A 
ATOM     39  C   UNL A   1      42.927  27.681  29.282  1.00  0.00     0.074 A 
ATOM     40  C   UNL A   1      43.736  29.921  29.941  1.00  0.00     0.049 A 
ATOM     41  N   UNL A   1      43.936  27.256  28.566  1.00  0.00    -0.248 NA
ATOM     42  C   UNL A   1      41.831  26.706  29.413  1.00  0.00     0.031 C 
ATOM     43  C   UNL A   1      43.717  31.216  30.628  1.00  0.00     0.029 A 
ATOM     44  N   UNL A   1      44.940  29.914  29.284  1.00  0.00    -0.354 N 
ATOM     45  C   UNL A   1      43.608  25.962  28.180  1.00  0.00     0.074 A 
ATOM     46  C   UNL A   1      42.328  25.654  28.779  1.00  0.00     0.031 C 
ATOM     47  C   UNL A   1      44.843  31.886  30.334  1.00  0.00     0.029 A 
ATOM     48  C   UNL A   1      45.681  31.059  29.471  1.00  0.00     0.049 A 
ATOM     49  H   UNL A   1      45.247  29.160  28.732  1.00  0.00     0.167 HD
ATOM     50  C   UNL A   1      44.298  25.113  27.382  1.00  0.00     0.031 A 
ATOM     51  C   UNL A   1      46.896  31.404  29.003  1.00  0.00     0.031 A 
ATOM     52  C   UNL A   1      45.562  25.426  26.771  1.00  0.00     0.049 A 
ATOM     53  C   UNL A   1      47.637  30.451  28.107  1.00  0.00     0.074 A 
ATOM     54  C   UNL A   1      46.310  24.655  25.899  1.00  0.00     0.029 A 
ATOM     55  N   UNL A   1      46.262  26.607  26.961  1.00  0.00    -0.354 N 
ATOM     56  N   UNL A   1      47.278  29.256  27.700  1.00  0.00    -0.248 NA
ATOM     57  C   UNL A   1      48.940  30.898  27.594  1.00  0.00     0.031 C 
ATOM     58  C   UNL A   1      47.484  25.353  25.595  1.00  0.00     0.029 A 
ATOM     59  C   UNL A   1      47.441  26.581  26.236  1.00  0.00     0.049 A 
ATOM     60  H   UNL A   1      45.964  27.355  27.529  1.00  0.00     0.167 HD
ATOM     61  C   UNL A   1      48.297  28.822  26.860  1.00  0.00     0.074 A 
ATOM     62  C   UNL A   1      49.280  29.884  26.808  1.00  0.00     0.031 C 
ATOM     63  C   UNL A   1      48.407  27.649  26.189  1.00  0.00     0.031 A 
BRANCH  50  64
ATOM     64  C   UNL A   1      43.696  23.757  27.126  1.00  0.00    -0.014 A 
ATOM     65  C   UNL A   1      43.347  22.906  28.191  1.00  0.00     0.010 A 
ATOM     66  C   UNL A   1      43.444  23.340  25.807  1.00  0.00     0.010 A 
ATOM     67  C   UNL A   1      42.798  21.647  27.940  1.00  0.00     0.020 A 
ATOM     68  C   UNL A   1      42.868  22.092  25.552  1.00  0.00     0.020 A 
ATOM     69  C   UNL A   1      42.566  21.245  26.621  1.00  0.00     0.054 A 
BRANCH  69  70
ATOM     70  S   UNL A   1      41.833  19.613  26.326  1.00  0.00     0.124 S 
ATOM     71  O   UNL A   1      42.257  18.874  27.513  1.00  0.00    -0.237 OA
ATOM     72  O   UNL A   1      40.405  19.911  26.249  1.00  0.00    -0.237 OA
ATOM     73  O   UNL A   1      42.445  19.180  25.072  1.00  0.00    -0.744 OA
ENDBRANCH  69  70
ENDBRANCH  50  64
BRANCH  51  74
ATOM     74  C   UNL A   1      47.479  32.728  29.355  1.00  0.00    -0.014 A 
ATOM     75  C   UNL A   1      47.207  33.860  28.567  1.00  0.00     0.010 A 
ATOM     76  C   UNL A   1      48.305  32.866  30.486  1.00  0.00     0.010 A 
ATOM     77  C   UNL A   1      47.762  35.101  28.890  1.00  0.00     0.020 A 
ATOM     78  C   UNL A   1      48.841  34.110  30.828  1.00  0.00     0.020 A 
ATOM     79  C   UNL A   1      48.577  35.218  30.020  1.00  0.00     0.054 A 
BRANCH  79  80
ATOM     80  S   UNL A   1      49.246  36.848  30.451  1.00  0.00     0.124 S 
ATOM     81  O   UNL A   1      49.757  37.315  29.167  1.00  0.00    -0.237 OA
ATOM     82  O   UNL A   1      48.070  37.550  30.959  1.00  0.00    -0.237 OA
ATOM     83  O   UNL A   1      50.262  36.544  31.457  1.00  0.00    -0.744 OA
ENDBRANCH  79  80
ENDBRANCH  51  74
BRANCH  63  84
ATOM     84  C   UNL A   1      49.611  27.464  25.306  1.00  0.00    -0.014 A 
ATOM     85  C   UNL A   1      50.871  27.152  25.846  1.00  0.00     0.010 A 
ATOM     86  C   UNL A   1      49.463  27.547  23.910  1.00  0.00     0.010 A 
ATOM     87  C   UNL A   1      51.969  26.954  25.004  1.00  0.00     0.020 A 
ATOM     88  C   UNL A   1      50.553  27.325  23.064  1.00  0.00     0.020 A 
ATOM     89  C   UNL A   1      51.803  27.043  23.618  1.00  0.00     0.054 A 
BRANCH  89  90
ATOM     90  S   UNL A   1      53.232  26.737  22.544  1.00  0.00     0.124 S 
ATOM     91  O   UNL A   1      53.832  28.065  22.451  1.00  0.00    -0.237 OA
ATOM     92  O   UNL A   1      53.999  25.752  23.301  1.00  0.00    -0.237 OA
ATOM     93  O   UNL A   1      52.635  26.235  21.308  1.00  0.00    -0.744 OA
ENDBRANCH  89  90
ENDBRANCH  63  84
ENDBRANCH  37  38
ENDBRANCH  29  32
ENDBRANCH  27  28
ENDBRANCH  26  27
ENDBRANCH  25  26
ENDBRANCH   1  25
TORSDOF 20
ENDMDL
MODEL 3
REMARK VINA RESULT:      -7.8      4.901     10.761
REMARK SMILES C[C@H](CC[NH2+]Cc1cc(C(=O)NCCCCNC(=O)c2ccc(-c3c4nc(c(-c5ccc(S(=O)(=O)[O-])cc5)c5ccc([nH]5)c(-c5ccc(S(=O)(=O)[O-])cc5)c5nc(c(-c6ccc(S(=O)(=O)[O-])cc6)c6ccc3[nH]6)C=C5)C=C4)cc2)cs1)c1ccccc1
REMARK SMILES IDX 13 1 12 2 10 3 11 4 9 6 7 7 8 8 81 9 80 10 6 11 5 12 4 15
REMARK SMILES IDX 3 16 2 17 1 18 82 19 83 20 87 21 84 22 86 23 85 24 14 25
REMARK SMILES IDX 15 26 16 27 17 28 18 29 19 31 20 32 21 33 79 34 22 35 78 36
REMARK SMILES IDX 23 37 24 38 25 39 72 40 26 41 77 42 71 43 73 44 27 45 76 46
REMARK SMILES IDX 70 47 69 48 28 50 58 51 39 52 57 53 40 54 43 55 56 56 74 57
REMARK SMILES IDX 41 58 42 59 55 61 75 62 44 63 29 64 30 65 38 66 31 67 37 68
REMARK SMILES IDX 32 69 33 70 34 71 35 72 36 73 59 74 60 75 68 76 61 77 67 78
REMARK SMILES IDX 62 79 63 80 64 81 65 82 66 83 45 84 46 85 54 86 47 87 53 88
REMARK SMILES IDX 48 89 49 90 50 91 51 92 52 93
REMARK H PARENT 12 5 5 13 5 14 17 30 73 49 43 60
REMARK Flexibility Score: inf
ROOT
ATOM      1  C   UNL A   1      32.314  29.550  26.329  1.00  0.00     0.116 C 
ENDROOT
BRANCH   1   2
ATOM      2  N   UNL A   1      33.157  29.534  25.150  1.00  0.00    -0.352 N 
ATOM      3  C   UNL A   1      33.004  28.895  23.944  1.00  0.00     0.252 C 
ATOM      4  O   UNL A   1      33.716  29.265  23.011  1.00  0.00    -0.269 OA
ATOM      5  H   UNL A   1      33.977  30.073  25.227  1.00  0.00     0.163 HD
BRANCH   3   6
ATOM      6  C   UNL A   1      32.002  27.843  23.764  1.00  0.00     0.051 A 
ATOM      7  C   UNL A   1      31.005  25.729  23.477  1.00  0.00     0.059 A 
ATOM      8  C   UNL A   1      32.180  26.457  23.441  1.00  0.00     0.035 A 
ATOM      9  S   UNL A   1      29.651  26.757  23.653  1.00  0.00    -0.142 S 
ATOM     10  C   UNL A   1      30.648  28.131  23.831  1.00  0.00     0.079 A 
BRANCH   7  11
ATOM     11  C   UNL A   1      30.842  24.240  23.379  1.00  0.00     0.308 C 
BRANCH  11  12
ATOM     12  N   UNL A   1      30.530  23.640  24.687  1.00  0.00    -0.342 N 
ATOM     13  H   UNL A   1      30.155  24.363  25.301  1.00  0.00     0.346 HD
ATOM     14  H   UNL A   1      29.849  22.895  24.539  1.00  0.00     0.346 HD
BRANCH  12  15
ATOM     15  C   UNL A   1      31.714  23.054  25.314  1.00  0.00     0.261 C 
BRANCH  15  16
ATOM     16  C   UNL A   1      31.792  21.523  25.180  1.00  0.00     0.069 C 
BRANCH  16  17
ATOM     17  C   UNL A   1      32.727  20.932  24.090  1.00  0.00     0.021 C 
ATOM     18  C   UNL A   1      32.068  20.956  22.703  1.00  0.00     0.013 C 
BRANCH  17  19
ATOM     19  C   UNL A   1      34.144  21.487  24.166  1.00  0.00    -0.045 A 
ATOM     20  C   UNL A   1      34.467  22.656  23.454  1.00  0.00     0.004 A 
ATOM     21  C   UNL A   1      35.165  20.871  24.901  1.00  0.00     0.004 A 
ATOM     22  C   UNL A   1      35.773  23.152  23.429  1.00  0.00     0.000 A 
ATOM     23  C   UNL A   1      36.471  21.369  24.879  1.00  0.00     0.000 A 
ATOM     24  C   UNL A   1      36.779  22.500  24.132  1.00  0.00     0.000 A 
ENDBRANCH  17  19
ENDBRANCH  16  17
ENDBRANCH  15  16
ENDBRANCH  12  15
ENDBRANCH  11  12
ENDBRANCH   7  11
ENDBRANCH   3   6
ENDBRANCH   1   2
BRANCH   1  25
ATOM     25  C   UNL A   1      31.970  30.967  26.775  1.00  0.00     0.023 C 
BRANCH  25  26
ATOM     26  C   UNL A   1      33.086  31.646  27.571  1.00  0.00     0.023 C 
BRANCH  26  27
ATOM     27  C   UNL A   1      33.388  33.092  27.171  1.00  0.00     0.116 C 
BRANCH  27  28
ATOM     28  N   UNL A   1      32.836  34.074  28.093  1.00  0.00    -0.352 N 
ATOM     29  C   UNL A   1      33.307  34.452  29.331  1.00  0.00     0.251 C 
ATOM     30  H   UNL A   1      32.017  34.530  27.791  1.00  0.00     0.163 HD
ATOM     31  O   UNL A   1      32.657  35.220  30.030  1.00  0.00    -0.269 OA
BRANCH  29  32
ATOM     32  C   UNL A   1      34.583  33.890  29.819  1.00  0.00     0.039 A 
ATOM     33  C   UNL A   1      35.783  34.447  29.370  1.00  0.00     0.014 A 
ATOM     34  C   UNL A   1      34.590  32.854  30.757  1.00  0.00     0.014 A 
ATOM     35  C   UNL A   1      36.991  34.018  29.926  1.00  0.00     0.010 A 
ATOM     36  C   UNL A   1      35.788  32.478  31.358  1.00  0.00     0.010 A 
ATOM     37  C   UNL A   1      37.000  33.060  30.952  1.00  0.00    -0.014 A 
BRANCH  37  38
ATOM     38  C   UNL A   1      38.264  32.665  31.627  1.00  0.00     0.031 A 
ATOM     39  C   UNL A   1      39.173  31.648  30.992  1.00  0.00     0.074 A 
ATOM     40  C   UNL A   1      38.560  33.167  32.842  1.00  0.00     0.049 A 
ATOM     41  N   UNL A   1      40.283  31.132  31.455  1.00  0.00    -0.248 NA
ATOM     42  C   UNL A   1      38.768  31.121  29.678  1.00  0.00     0.031 C 
ATOM     43  C   UNL A   1      37.737  34.124  33.589  1.00  0.00     0.029 A 
ATOM     44  N   UNL A   1      39.631  32.938  33.669  1.00  0.00    -0.354 N 
ATOM     45  C   UNL A   1      40.696  30.208  30.503  1.00  0.00     0.074 A 
ATOM     46  C   UNL A   1      39.695  30.200  29.459  1.00  0.00     0.031 C 
ATOM     47  C   UNL A   1      38.348  34.417  34.749  1.00  0.00     0.029 A 
ATOM     48  C   UNL A   1      39.583  33.646  34.849  1.00  0.00     0.049 A 
ATOM     49  H   UNL A   1      40.365  32.323  33.441  1.00  0.00     0.167 HD
ATOM     50  C   UNL A   1      41.818  29.449  30.487  1.00  0.00     0.031 A 
ATOM     51  C   UNL A   1      40.433  33.670  35.893  1.00  0.00     0.031 A 
ATOM     52  C   UNL A   1      42.823  29.471  31.515  1.00  0.00     0.049 A 
ATOM     53  C   UNL A   1      41.680  32.830  35.845  1.00  0.00     0.074 A 
ATOM     54  C   UNL A   1      44.023  28.783  31.560  1.00  0.00     0.029 A 
ATOM     55  N   UNL A   1      42.750  30.224  32.677  1.00  0.00    -0.354 N 
ATOM     56  N   UNL A   1      42.085  32.011  34.904  1.00  0.00    -0.248 NA
ATOM     57  C   UNL A   1      42.591  32.928  36.995  1.00  0.00     0.031 C 
ATOM     58  C   UNL A   1      44.656  29.089  32.770  1.00  0.00     0.029 A 
ATOM     59  C   UNL A   1      43.875  30.006  33.453  1.00  0.00     0.049 A 
ATOM     60  H   UNL A   1      42.006  30.825  32.915  1.00  0.00     0.167 HD
ATOM     61  C   UNL A   1      43.313  31.520  35.334  1.00  0.00     0.074 A 
ATOM     62  C   UNL A   1      43.589  32.141  36.613  1.00  0.00     0.031 C 
ATOM     63  C   UNL A   1      44.139  30.636  34.722  1.00  0.00     0.031 A 
BRANCH  50  64
ATOM     64  C   UNL A   1      42.015  28.526  29.313  1.00  0.00    -0.014 A 
ATOM     65  C   UNL A   1      42.742  28.938  28.182  1.00  0.00     0.010 A 
ATOM     66  C   UNL A   1      41.498  27.219  29.355  1.00  0.00     0.010 A 
ATOM     67  C   UNL A   1      42.911  28.077  27.096  1.00  0.00     0.020 A 
ATOM     68  C   UNL A   1      41.688  26.344  28.283  1.00  0.00     0.020 A 
ATOM     69  C   UNL A   1      42.378  26.785  27.151  1.00  0.00     0.054 A 
BRANCH  69  70
ATOM     70  S   UNL A   1      42.629  25.680  25.735  1.00  0.00     0.124 S 
ATOM     71  O   UNL A   1      41.342  25.772  25.051  1.00  0.00    -0.237 OA
ATOM     72  O   UNL A   1      43.755  26.298  25.040  1.00  0.00    -0.237 OA
ATOM     73  O   UNL A   1      42.915  24.387  26.352  1.00  0.00    -0.744 OA
ENDBRANCH  69  70
ENDBRANCH  50  64
BRANCH  51  74
ATOM     74  C   UNL A   1      40.147  34.542  37.065  1.00  0.00    -0.014 A 
ATOM     75  C   UNL A   1      40.610  35.869  37.096  1.00  0.00     0.010 A 
ATOM     76  C   UNL A   1      39.402  34.052  38.154  1.00  0.00     0.010 A 
ATOM     77  C   UNL A   1      40.350  36.686  38.201  1.00  0.00     0.020 A 
ATOM     78  C   UNL A   1      39.118  34.874  39.248  1.00  0.00     0.020 A 
ATOM     79  C   UNL A   1      39.606  36.182  39.270  1.00  0.00     0.054 A 
BRANCH  79  80
ATOM     80  S   UNL A   1      39.236  37.274  40.671  1.00  0.00     0.124 S 
ATOM     81  O   UNL A   1      40.557  37.798  41.004  1.00  0.00    -0.237 OA
ATOM     82  O   UNL A   1      38.302  38.233  40.087  1.00  0.00    -0.237 OA
ATOM     83  O   UNL A   1      38.651  36.372  41.661  1.00  0.00    -0.744 OA
ENDBRANCH  79  80
ENDBRANCH  51  74
BRANCH  63  84
ATOM     84  C   UNL A   1      45.441  30.316  35.404  1.00  0.00    -0.014 A 
ATOM     85  C   UNL A   1      46.590  31.097  35.188  1.00  0.00     0.010 A 
ATOM     86  C   UNL A   1      45.498  29.250  36.319  1.00  0.00     0.010 A 
ATOM     87  C   UNL A   1      47.781  30.799  35.856  1.00  0.00     0.020 A 
ATOM     88  C   UNL A   1      46.679  28.964  37.008  1.00  0.00     0.020 A 
ATOM     89  C   UNL A   1      47.818  29.733  36.762  1.00  0.00     0.054 A 
BRANCH  89  90
ATOM     90  S   UNL A   1      49.362  29.394  37.652  1.00  0.00     0.124 S 
ATOM     91  O   UNL A   1      49.651  30.688  38.261  1.00  0.00    -0.237 OA
ATOM     92  O   UNL A   1      48.973  28.335  38.579  1.00  0.00    -0.237 OA
ATOM     93  O   UNL A   1      50.285  28.981  36.597  1.00  0.00    -0.744 OA
ENDBRANCH  89  90
ENDBRANCH  63  84
ENDBRANCH  37  38
ENDBRANCH  29  32
ENDBRANCH  27  28
ENDBRANCH  26  27
ENDBRANCH  25  26
ENDBRANCH   1  25
TORSDOF 20
ENDMDL
