MODEL 1
REMARK VINA RESULT:     -11.9      0.000      0.000
REMARK SMILES CCc1ccc(S(=O)(=O)N2CCC3(CC2)NC(=O)C[C@H]3C(=O)NCCCCNC(=O)c2ccc(-c3c4nc(c(-c5ccc(S(=O)(=O)[O-])cc5)c5ccc([nH]5)c(-c5ccc(S(=O)(=O)[O-])cc5)c5nc(c(-c6ccc(S(=O)(=O)[O-])cc6)c6ccc3[nH]6)C=C5)C=C4)cc2)s1
REMARK SMILES IDX 25 1 24 2 23 3 21 4 22 5 20 7 10 8 11 9 15 10 12 11 14 12
REMARK SMILES IDX 13 13 16 14 17 15 19 17 18 18 7 19 8 20 9 21 6 22 3 23 4 24
REMARK SMILES IDX 91 25 5 26 2 27 1 28 26 29 27 30 28 31 29 32 30 34 31 35
REMARK SMILES IDX 32 36 90 37 33 38 89 39 34 40 35 41 36 42 83 43 37 44 88 45
REMARK SMILES IDX 82 46 84 47 38 48 87 49 81 50 80 51 39 53 69 54 50 55 68 56
REMARK SMILES IDX 51 57 54 58 67 59 85 60 52 61 53 62 66 64 86 65 55 66 40 67
REMARK SMILES IDX 41 68 49 69 42 70 48 71 43 72 44 73 45 74 46 75 47 76 70 77
REMARK SMILES IDX 71 78 79 79 72 80 78 81 73 82 74 83 75 84 76 85 77 86 56 87
REMARK SMILES IDX 57 88 65 89 58 90 64 91 59 92 60 93 61 94 62 95 63 96
REMARK H PARENT 23 6 16 16 28 33 84 52 54 63
REMARK Flexibility Score: inf
ROOT
ATOM      1  C   UNL A   1      36.020  21.614  24.401  1.00  0.00     0.023 C 
ENDROOT
BRANCH   1   2
ATOM      2  C   UNL A   1      35.393  20.815  25.546  1.00  0.00     0.116 C 
BRANCH   2   3
ATOM      3  N   UNL A   1      33.961  20.579  25.408  1.00  0.00    -0.356 N 
ATOM      4  C   UNL A   1      32.849  21.353  25.516  1.00  0.00     0.226 C 
ATOM      5  O   UNL A   1      31.773  20.798  25.260  1.00  0.00    -0.275 OA
ATOM      6  H   UNL A   1      33.750  19.644  25.184  1.00  0.00     0.163 HD
BRANCH   4   7
ATOM      7  C   UNL A   1      32.813  22.821  25.965  1.00  0.00     0.113 C 
ATOM      8  N   UNL A   1      33.841  25.439  22.915  1.00  0.00    -0.197 NA
ATOM      9  C   UNL A   1      34.029  25.872  24.298  1.00  0.00     0.105 C 
ATOM     10  C   UNL A   1      33.853  23.985  22.785  1.00  0.00     0.105 C 
ATOM     11  C   UNL A   1      32.971  25.303  25.232  1.00  0.00     0.046 C 
ATOM     12  C   UNL A   1      32.620  23.432  23.462  1.00  0.00     0.046 C 
ATOM     13  C   UNL A   1      32.391  23.882  24.920  1.00  0.00     0.055 C 
ATOM     14  N   UNL A   1      30.971  23.994  25.242  1.00  0.00    -0.350 N 
ATOM     15  C   UNL A   1      30.685  23.703  26.558  1.00  0.00     0.221 C 
ATOM     16  H   UNL A   1      30.286  24.252  24.582  1.00  0.00     0.164 HD
ATOM     17  C   UNL A   1      31.883  23.027  27.167  1.00  0.00     0.116 C 
ATOM     18  O   UNL A   1      29.629  23.945  27.114  1.00  0.00    -0.275 OA
BRANCH   8  19
ATOM     19  S   UNL A   1      32.985  26.375  21.785  1.00  0.00     0.252 S 
ATOM     20  O   UNL A   1      32.393  25.473  20.824  1.00  0.00    -0.206 OA
ATOM     21  O   UNL A   1      33.847  27.463  21.369  1.00  0.00    -0.206 OA
BRANCH  19  22
ATOM     22  C   UNL A   1      31.619  27.208  22.607  1.00  0.00     0.135 A 
ATOM     23  C   UNL A   1      30.164  29.017  23.495  1.00  0.00     0.006 A 
ATOM     24  C   UNL A   1      29.564  27.776  23.566  1.00  0.00     0.017 A 
ATOM     25  S   UNL A   1      31.766  28.896  22.891  1.00  0.00    -0.127 S 
ATOM     26  C   UNL A   1      30.406  26.736  23.076  1.00  0.00     0.034 A 
BRANCH  23  27
ATOM     27  C   UNL A   1      29.568  30.350  23.861  1.00  0.00     0.043 C 
ATOM     28  C   UNL A   1      28.301  30.672  23.084  1.00  0.00     0.010 C 
ENDBRANCH  23  27
ENDBRANCH  19  22
ENDBRANCH   8  19
ENDBRANCH   4   7
ENDBRANCH   2   3
ENDBRANCH   1   2
BRANCH   1  29
ATOM     29  C   UNL A   1      36.253  23.095  24.689  1.00  0.00     0.023 C 
BRANCH  29  30
ATOM     30  C   UNL A   1      37.050  23.361  25.956  1.00  0.00     0.116 C 
BRANCH  30  31
ATOM     31  N   UNL A   1      38.266  22.562  26.043  1.00  0.00    -0.352 N 
ATOM     32  C   UNL A   1      39.510  22.943  26.477  1.00  0.00     0.251 C 
ATOM     33  H   UNL A   1      38.183  21.625  25.752  1.00  0.00     0.163 HD
ATOM     34  O   UNL A   1      40.463  22.178  26.377  1.00  0.00    -0.269 OA
BRANCH  32  35
ATOM     35  C   UNL A   1      39.686  24.301  27.026  1.00  0.00     0.039 A 
ATOM     36  C   UNL A   1      39.312  24.551  28.346  1.00  0.00     0.014 A 
ATOM     37  C   UNL A   1      40.285  25.298  26.252  1.00  0.00     0.014 A 
ATOM     38  C   UNL A   1      39.607  25.788  28.917  1.00  0.00     0.010 A 
ATOM     39  C   UNL A   1      40.657  26.494  26.847  1.00  0.00     0.010 A 
ATOM     40  C   UNL A   1      40.318  26.752  28.184  1.00  0.00    -0.014 A 
BRANCH  40  41
ATOM     41  C   UNL A   1      40.715  28.047  28.786  1.00  0.00     0.031 A 
ATOM     42  C   UNL A   1      42.106  28.220  29.332  1.00  0.00     0.074 A 
ATOM     43  C   UNL A   1      39.803  29.029  28.917  1.00  0.00     0.049 A 
ATOM     44  N   UNL A   1      42.619  29.239  29.970  1.00  0.00    -0.248 NA
ATOM     45  C   UNL A   1      43.028  27.083  29.169  1.00  0.00     0.031 C 
ATOM     46  C   UNL A   1      38.408  28.959  28.474  1.00  0.00     0.029 A 
ATOM     47  N   UNL A   1      39.914  30.280  29.468  1.00  0.00    -0.354 N 
ATOM     48  C   UNL A   1      43.909  28.854  30.313  1.00  0.00     0.074 A 
ATOM     49  C   UNL A   1      44.081  27.492  29.858  1.00  0.00     0.031 C 
ATOM     50  C   UNL A   1      37.804  30.129  28.738  1.00  0.00     0.029 A 
ATOM     51  C   UNL A   1      38.755  31.015  29.400  1.00  0.00     0.049 A 
ATOM     52  H   UNL A   1      40.744  30.618  29.874  1.00  0.00     0.167 HD
ATOM     53  C   UNL A   1      44.874  29.575  30.931  1.00  0.00     0.031 A 
ATOM     54  C   UNL A   1      38.490  32.267  29.821  1.00  0.00     0.031 A 
ATOM     55  C   UNL A   1      44.706  30.938  31.356  1.00  0.00     0.049 A 
ATOM     56  C   UNL A   1      39.582  33.062  30.480  1.00  0.00     0.074 A 
ATOM     57  C   UNL A   1      45.637  31.782  31.932  1.00  0.00     0.029 A 
ATOM     58  N   UNL A   1      43.525  31.657  31.246  1.00  0.00    -0.354 N 
ATOM     59  N   UNL A   1      40.815  32.702  30.745  1.00  0.00    -0.248 NA
ATOM     60  C   UNL A   1      39.249  34.433  30.888  1.00  0.00     0.031 C 
ATOM     61  C   UNL A   1      45.008  33.004  32.201  1.00  0.00     0.029 A 
ATOM     62  C   UNL A   1      43.698  32.933  31.754  1.00  0.00     0.049 A 
ATOM     63  H   UNL A   1      42.687  31.311  30.862  1.00  0.00     0.167 HD
ATOM     64  C   UNL A   1      41.414  33.812  31.329  1.00  0.00     0.074 A 
ATOM     65  C   UNL A   1      40.410  34.856  31.371  1.00  0.00     0.031 C 
ATOM     66  C   UNL A   1      42.682  33.954  31.788  1.00  0.00     0.031 A 
BRANCH  53  67
ATOM     67  C   UNL A   1      46.188  28.886  31.183  1.00  0.00    -0.014 A 
ATOM     68  C   UNL A   1      46.425  28.194  32.384  1.00  0.00     0.010 A 
ATOM     69  C   UNL A   1      47.207  28.948  30.216  1.00  0.00     0.010 A 
ATOM     70  C   UNL A   1      47.678  27.633  32.643  1.00  0.00     0.020 A 
ATOM     71  C   UNL A   1      48.453  28.364  30.458  1.00  0.00     0.020 A 
ATOM     72  C   UNL A   1      48.689  27.733  31.682  1.00  0.00     0.054 A 
BRANCH  72  73
ATOM     73  S   UNL A   1      50.314  27.018  32.048  1.00  0.00     0.124 S 
ATOM     74  O   UNL A   1      50.835  26.761  30.707  1.00  0.00    -0.237 OA
ATOM     75  O   UNL A   1      50.982  28.087  32.786  1.00  0.00    -0.237 OA
ATOM     76  O   UNL A   1      49.999  25.826  32.832  1.00  0.00    -0.744 OA
ENDBRANCH  72  73
ENDBRANCH  53  67
BRANCH  54  77
ATOM     77  C   UNL A   1      37.146  32.854  29.582  1.00  0.00    -0.014 A 
ATOM     78  C   UNL A   1      36.161  32.791  30.583  1.00  0.00     0.010 A 
ATOM     79  C   UNL A   1      36.857  33.519  28.377  1.00  0.00     0.010 A 
ATOM     80  C   UNL A   1      34.910  33.380  30.385  1.00  0.00     0.020 A 
ATOM     81  C   UNL A   1      35.612  34.127  28.182  1.00  0.00     0.020 A 
ATOM     82  C   UNL A   1      34.645  34.047  29.186  1.00  0.00     0.054 A 
BRANCH  82  83
ATOM     83  S   UNL A   1      33.041  34.872  28.982  1.00  0.00     0.124 S 
ATOM     84  O   UNL A   1      32.378  34.009  28.011  1.00  0.00    -0.237 OA
ATOM     85  O   UNL A   1      32.492  34.839  30.336  1.00  0.00    -0.237 OA
ATOM     86  O   UNL A   1      33.402  36.203  28.498  1.00  0.00    -0.744 OA
ENDBRANCH  82  83
ENDBRANCH  54  77
BRANCH  66  87
ATOM     87  C   UNL A   1      43.063  35.295  32.351  1.00  0.00    -0.014 A 
ATOM     88  C   UNL A   1      43.723  36.251  31.561  1.00  0.00     0.010 A 
ATOM     89  C   UNL A   1      42.704  35.620  33.672  1.00  0.00     0.010 A 
ATOM     90  C   UNL A   1      44.039  37.505  32.091  1.00  0.00     0.020 A 
ATOM     91  C   UNL A   1      42.999  36.880  34.197  1.00  0.00     0.020 A 
ATOM     92  C   UNL A   1      43.676  37.810  33.406  1.00  0.00     0.054 A 
BRANCH  92  93
ATOM     93  S   UNL A   1      44.052  39.461  34.058  1.00  0.00     0.124 S 
ATOM     94  O   UNL A   1      42.826  40.193  33.754  1.00  0.00    -0.237 OA
ATOM     95  O   UNL A   1      44.293  39.201  35.475  1.00  0.00    -0.237 OA
ATOM     96  O   UNL A   1      45.230  39.872  33.298  1.00  0.00    -0.744 OA
ENDBRANCH  92  93
ENDBRANCH  66  87
ENDBRANCH  40  41
ENDBRANCH  32  35
ENDBRANCH  30  31
ENDBRANCH  29  30
ENDBRANCH   1  29
TORSDOF 17
ENDMDL
MODEL 2
REMARK VINA RESULT:     -11.3      3.488      4.680
REMARK SMILES CCc1ccc(S(=O)(=O)N2CCC3(CC2)NC(=O)C[C@H]3C(=O)NCCCCNC(=O)c2ccc(-c3c4nc(c(-c5ccc(S(=O)(=O)[O-])cc5)c5ccc([nH]5)c(-c5ccc(S(=O)(=O)[O-])cc5)c5nc(c(-c6ccc(S(=O)(=O)[O-])cc6)c6ccc3[nH]6)C=C5)C=C4)cc2)s1
REMARK SMILES IDX 25 1 24 2 23 3 21 4 22 5 20 7 10 8 11 9 15 10 12 11 14 12
REMARK SMILES IDX 13 13 16 14 17 15 19 17 18 18 7 19 8 20 9 21 6 22 3 23 4 24
REMARK SMILES IDX 91 25 5 26 2 27 1 28 26 29 27 30 28 31 29 32 30 34 31 35
REMARK SMILES IDX 32 36 90 37 33 38 89 39 34 40 35 41 36 42 83 43 37 44 88 45
REMARK SMILES IDX 82 46 84 47 38 48 87 49 81 50 80 51 39 53 69 54 50 55 68 56
REMARK SMILES IDX 51 57 54 58 67 59 85 60 52 61 53 62 66 64 86 65 55 66 40 67
REMARK SMILES IDX 41 68 49 69 42 70 48 71 43 72 44 73 45 74 46 75 47 76 70 77
REMARK SMILES IDX 71 78 79 79 72 80 78 81 73 82 74 83 75 84 76 85 77 86 56 87
REMARK SMILES IDX 57 88 65 89 58 90 64 91 59 92 60 93 61 94 62 95 63 96
REMARK H PARENT 23 6 16 16 28 33 84 52 54 63
REMARK Flexibility Score: inf
ROOT
ATOM      1  C   UNL A   1      37.041  20.656  25.183  1.00  0.00     0.023 C 
ENDROOT
BRANCH   1   2
ATOM      2  C   UNL A   1      36.017  21.436  26.012  1.00  0.00     0.116 C 
BRANCH   2   3
ATOM      3  N   UNL A   1      34.652  20.932  25.920  1.00  0.00    -0.356 N 
ATOM      4  C   UNL A   1      33.417  21.493  26.010  1.00  0.00     0.226 C 
ATOM      5  O   UNL A   1      32.460  20.733  25.810  1.00  0.00    -0.275 OA
ATOM      6  H   UNL A   1      34.617  19.962  25.755  1.00  0.00     0.163 HD
BRANCH   4   7
ATOM      7  C   UNL A   1      33.114  22.952  26.375  1.00  0.00     0.113 C 
ATOM      8  N   UNL A   1      34.081  25.587  23.319  1.00  0.00    -0.197 NA
ATOM      9  C   UNL A   1      34.045  26.092  24.690  1.00  0.00     0.105 C 
ATOM     10  C   UNL A   1      34.323  24.148  23.267  1.00  0.00     0.105 C 
ATOM     11  C   UNL A   1      32.985  25.402  25.535  1.00  0.00     0.046 C 
ATOM     12  C   UNL A   1      33.116  23.438  23.838  1.00  0.00     0.046 C 
ATOM     13  C   UNL A   1      32.660  23.898  25.237  1.00  0.00     0.055 C 
ATOM     14  N   UNL A   1      31.213  23.804  25.400  1.00  0.00    -0.350 N 
ATOM     15  C   UNL A   1      30.826  23.519  26.692  1.00  0.00     0.221 C 
ATOM     16  H   UNL A   1      30.575  23.931  24.659  1.00  0.00     0.164 HD
ATOM     17  C   UNL A   1      32.034  23.057  27.459  1.00  0.00     0.116 C 
ATOM     18  O   UNL A   1      29.690  23.617  27.120  1.00  0.00    -0.275 OA
BRANCH   8  19
ATOM     19  S   UNL A   1      33.229  26.341  22.058  1.00  0.00     0.252 S 
ATOM     20  O   UNL A   1      32.884  25.324  21.091  1.00  0.00    -0.206 OA
ATOM     21  O   UNL A   1      33.966  27.529  21.675  1.00  0.00    -0.206 OA
BRANCH  19  22
ATOM     22  C   UNL A   1      31.675  26.990  22.687  1.00  0.00     0.135 A 
ATOM     23  C   UNL A   1      29.850  28.583  23.250  1.00  0.00     0.006 A 
ATOM     24  C   UNL A   1      29.481  27.267  23.448  1.00  0.00     0.017 A 
ATOM     25  S   UNL A   1      31.490  28.697  22.757  1.00  0.00    -0.127 S 
ATOM     26  C   UNL A   1      30.534  26.356  23.146  1.00  0.00     0.034 A 
BRANCH  23  27
ATOM     27  C   UNL A   1      28.997  29.812  23.406  1.00  0.00     0.043 C 
ATOM     28  C   UNL A   1      27.934  29.943  22.326  1.00  0.00     0.010 C 
ENDBRANCH  23  27
ENDBRANCH  19  22
ENDBRANCH   8  19
ENDBRANCH   4   7
ENDBRANCH   2   3
ENDBRANCH   1   2
BRANCH   1  29
ATOM     29  C   UNL A   1      38.407  21.324  25.037  1.00  0.00     0.023 C 
BRANCH  29  30
ATOM     30  C   UNL A   1      39.309  21.157  26.248  1.00  0.00     0.116 C 
BRANCH  30  31
ATOM     31  N   UNL A   1      40.239  20.042  26.118  1.00  0.00    -0.352 N 
ATOM     32  C   UNL A   1      41.611  20.069  26.112  1.00  0.00     0.251 C 
ATOM     33  H   UNL A   1      39.828  19.152  26.021  1.00  0.00     0.163 HD
ATOM     34  O   UNL A   1      42.250  19.050  25.874  1.00  0.00    -0.269 OA
BRANCH  32  35
ATOM     35  C   UNL A   1      42.297  21.352  26.357  1.00  0.00     0.039 A 
ATOM     36  C   UNL A   1      42.510  22.220  25.286  1.00  0.00     0.014 A 
ATOM     37  C   UNL A   1      42.661  21.716  27.655  1.00  0.00     0.014 A 
ATOM     38  C   UNL A   1      43.025  23.492  25.530  1.00  0.00     0.010 A 
ATOM     39  C   UNL A   1      43.089  23.011  27.907  1.00  0.00     0.010 A 
ATOM     40  C   UNL A   1      43.279  23.910  26.847  1.00  0.00    -0.014 A 
BRANCH  40  41
ATOM     41  C   UNL A   1      43.753  25.282  27.148  1.00  0.00     0.031 A 
ATOM     42  C   UNL A   1      45.190  25.646  26.893  1.00  0.00     0.074 A 
ATOM     43  C   UNL A   1      42.917  26.165  27.726  1.00  0.00     0.049 A 
ATOM     44  N   UNL A   1      45.818  26.759  27.167  1.00  0.00    -0.248 NA
ATOM     45  C   UNL A   1      46.039  24.608  26.284  1.00  0.00     0.031 C 
ATOM     46  C   UNL A   1      41.516  25.910  28.071  1.00  0.00     0.029 A 
ATOM     47  N   UNL A   1      43.129  27.457  28.132  1.00  0.00    -0.354 N 
ATOM     48  C   UNL A   1      47.140  26.544  26.794  1.00  0.00     0.074 A 
ATOM     49  C   UNL A   1      47.232  25.179  26.324  1.00  0.00     0.031 C 
ATOM     50  C   UNL A   1      40.984  27.023  28.601  1.00  0.00     0.029 A 
ATOM     51  C   UNL A   1      42.014  28.054  28.669  1.00  0.00     0.049 A 
ATOM     52  H   UNL A   1      43.997  27.914  28.047  1.00  0.00     0.167 HD
ATOM     53  C   UNL A   1      48.179  27.410  26.819  1.00  0.00     0.031 A 
ATOM     54  C   UNL A   1      41.840  29.297  29.159  1.00  0.00     0.031 A 
ATOM     55  C   UNL A   1      48.075  28.774  27.260  1.00  0.00     0.049 A 
ATOM     56  C   UNL A   1      42.998  30.253  29.152  1.00  0.00     0.074 A 
ATOM     57  C   UNL A   1      49.049  29.756  27.265  1.00  0.00     0.029 A 
ATOM     58  N   UNL A   1      46.921  29.349  27.773  1.00  0.00    -0.354 N 
ATOM     59  N   UNL A   1      44.228  30.051  28.741  1.00  0.00    -0.248 NA
ATOM     60  C   UNL A   1      42.744  31.606  29.664  1.00  0.00     0.031 C 
ATOM     61  C   UNL A   1      48.492  30.917  27.813  1.00  0.00     0.029 A 
ATOM     62  C   UNL A   1      47.161  30.670  28.110  1.00  0.00     0.049 A 
ATOM     63  H   UNL A   1      46.060  28.886  27.881  1.00  0.00     0.167 HD
ATOM     64  C   UNL A   1      44.890  31.260  28.924  1.00  0.00     0.074 A 
ATOM     65  C   UNL A   1      43.921  32.188  29.473  1.00  0.00     0.031 C 
ATOM     66  C   UNL A   1      46.182  31.574  28.659  1.00  0.00     0.031 A 
BRANCH  53  67
ATOM     67  C   UNL A   1      49.514  26.890  26.357  1.00  0.00    -0.014 A 
ATOM     68  C   UNL A   1      49.963  27.113  25.042  1.00  0.00     0.010 A 
ATOM     69  C   UNL A   1      50.322  26.152  27.240  1.00  0.00     0.010 A 
ATOM     70  C   UNL A   1      51.163  26.551  24.599  1.00  0.00     0.020 A 
ATOM     71  C   UNL A   1      51.537  25.612  26.810  1.00  0.00     0.020 A 
ATOM     72  C   UNL A   1      51.936  25.793  25.483  1.00  0.00     0.054 A 
BRANCH  72  73
ATOM     73  S   UNL A   1      53.479  25.055  24.881  1.00  0.00     0.124 S 
ATOM     74  O   UNL A   1      54.481  25.784  25.655  1.00  0.00    -0.237 OA
ATOM     75  O   UNL A   1      53.322  23.645  25.229  1.00  0.00    -0.237 OA
ATOM     76  O   UNL A   1      53.465  25.345  23.449  1.00  0.00    -0.744 OA
ENDBRANCH  72  73
ENDBRANCH  53  67
BRANCH  54  77
ATOM     77  C   UNL A   1      40.499  29.714  29.647  1.00  0.00    -0.014 A 
ATOM     78  C   UNL A   1      40.265  29.858  31.025  1.00  0.00     0.010 A 
ATOM     79  C   UNL A   1      39.467  30.015  28.741  1.00  0.00     0.010 A 
ATOM     80  C   UNL A   1      39.022  30.293  31.491  1.00  0.00     0.020 A 
ATOM     81  C   UNL A   1      38.227  30.470  29.202  1.00  0.00     0.020 A 
ATOM     82  C   UNL A   1      38.011  30.600  30.575  1.00  0.00     0.054 A 
BRANCH  82  83
ATOM     83  S   UNL A   1      36.431  31.239  31.200  1.00  0.00     0.124 S 
ATOM     84  O   UNL A   1      35.974  30.141  32.045  1.00  0.00    -0.237 OA
ATOM     85  O   UNL A   1      36.836  32.453  31.904  1.00  0.00    -0.237 OA
ATOM     86  O   UNL A   1      35.651  31.463  29.984  1.00  0.00    -0.744 OA
ENDBRANCH  82  83
ENDBRANCH  54  77
BRANCH  66  87
ATOM     87  C   UNL A   1      46.617  32.986  28.934  1.00  0.00    -0.014 A 
ATOM     88  C   UNL A   1      46.510  33.983  27.948  1.00  0.00     0.010 A 
ATOM     89  C   UNL A   1      47.085  33.330  30.215  1.00  0.00     0.010 A 
ATOM     90  C   UNL A   1      46.888  35.297  28.233  1.00  0.00     0.020 A 
ATOM     91  C   UNL A   1      47.442  34.648  30.509  1.00  0.00     0.020 A 
ATOM     92  C   UNL A   1      47.352  35.621  29.512  1.00  0.00     0.054 A 
BRANCH  92  93
ATOM     93  S   UNL A   1      47.790  37.344  29.874  1.00  0.00     0.124 S 
ATOM     94  O   UNL A   1      46.951  37.632  31.034  1.00  0.00    -0.237 OA
ATOM     95  O   UNL A   1      49.224  37.263  30.141  1.00  0.00    -0.237 OA
ATOM     96  O   UNL A   1      47.431  38.056  28.650  1.00  0.00    -0.744 OA
ENDBRANCH  92  93
ENDBRANCH  66  87
ENDBRANCH  40  41
ENDBRANCH  32  35
ENDBRANCH  30  31
ENDBRANCH  29  30
ENDBRANCH   1  29
TORSDOF 17
ENDMDL
MODEL 3
REMARK VINA RESULT:     -11.3      3.785      9.083
REMARK SMILES CCc1ccc(S(=O)(=O)N2CCC3(CC2)NC(=O)C[C@H]3C(=O)NCCCCNC(=O)c2ccc(-c3c4nc(c(-c5ccc(S(=O)(=O)[O-])cc5)c5ccc([nH]5)c(-c5ccc(S(=O)(=O)[O-])cc5)c5nc(c(-c6ccc(S(=O)(=O)[O-])cc6)c6ccc3[nH]6)C=C5)C=C4)cc2)s1
REMARK SMILES IDX 25 1 24 2 23 3 21 4 22 5 20 7 10 8 11 9 15 10 12 11 14 12
REMARK SMILES IDX 13 13 16 14 17 15 19 17 18 18 7 19 8 20 9 21 6 22 3 23 4 24
REMARK SMILES IDX 91 25 5 26 2 27 1 28 26 29 27 30 28 31 29 32 30 34 31 35
REMARK SMILES IDX 32 36 90 37 33 38 89 39 34 40 35 41 36 42 83 43 37 44 88 45
REMARK SMILES IDX 82 46 84 47 38 48 87 49 81 50 80 51 39 53 69 54 50 55 68 56
REMARK SMILES IDX 51 57 54 58 67 59 85 60 52 61 53 62 66 64 86 65 55 66 40 67
REMARK SMILES IDX 41 68 49 69 42 70 48 71 43 72 44 73 45 74 46 75 47 76 70 77
REMARK SMILES IDX 71 78 79 79 72 80 78 81 73 82 74 83 75 84 76 85 77 86 56 87
REMARK SMILES IDX 57 88 65 89 58 90 64 91 59 92 60 93 61 94 62 95 63 96
REMARK H PARENT 23 6 16 16 28 33 84 52 54 63
REMARK Flexibility Score: inf
ROOT
ATOM      1  C   UNL A   1      37.229  20.439  25.053  1.00  0.00     0.023 C 
ENDROOT
BRANCH   1   2
ATOM      2  C   UNL A   1      36.161  21.417  25.549  1.00  0.00     0.116 C 
BRANCH   2   3
ATOM      3  N   UNL A   1      34.839  20.831  25.727  1.00  0.00    -0.356 N 
ATOM      4  C   UNL A   1      33.606  21.323  26.023  1.00  0.00     0.226 C 
ATOM      5  O   UNL A   1      32.681  20.501  26.030  1.00  0.00    -0.275 OA
ATOM      6  H   UNL A   1      34.837  19.854  25.606  1.00  0.00     0.163 HD
BRANCH   4   7
ATOM      7  C   UNL A   1      33.279  22.778  26.386  1.00  0.00     0.113 C 
ATOM      8  N   UNL A   1      34.063  25.405  23.271  1.00  0.00    -0.197 NA
ATOM      9  C   UNL A   1      34.066  25.923  24.638  1.00  0.00     0.105 C 
ATOM     10  C   UNL A   1      34.340  23.972  23.224  1.00  0.00     0.105 C 
ATOM     11  C   UNL A   1      33.056  25.215  25.529  1.00  0.00     0.046 C 
ATOM     12  C   UNL A   1      33.174  23.238  23.846  1.00  0.00     0.046 C 
ATOM     13  C   UNL A   1      32.759  23.701  25.258  1.00  0.00     0.055 C 
ATOM     14  N   UNL A   1      31.322  23.571  25.476  1.00  0.00    -0.350 N 
ATOM     15  C   UNL A   1      30.992  23.291  26.785  1.00  0.00     0.221 C 
ATOM     16  H   UNL A   1      30.654  23.675  24.759  1.00  0.00     0.164 HD
ATOM     17  C   UNL A   1      32.239  22.867  27.509  1.00  0.00     0.116 C 
ATOM     18  O   UNL A   1      29.870  23.364  27.254  1.00  0.00    -0.275 OA
BRANCH   8  19
ATOM     19  S   UNL A   1      33.145  26.124  22.037  1.00  0.00     0.252 S 
ATOM     20  O   UNL A   1      32.873  25.111  21.043  1.00  0.00    -0.206 OA
ATOM     21  O   UNL A   1      33.783  27.376  21.683  1.00  0.00    -0.206 OA
BRANCH  19  22
ATOM     22  C   UNL A   1      31.550  26.632  22.692  1.00  0.00     0.135 A 
ATOM     23  C   UNL A   1      29.516  27.994  23.132  1.00  0.00     0.006 A 
ATOM     24  C   UNL A   1      29.402  26.705  23.615  1.00  0.00     0.017 A 
ATOM     25  S   UNL A   1      31.069  28.265  22.454  1.00  0.00    -0.127 S 
ATOM     26  C   UNL A   1      30.576  25.931  23.382  1.00  0.00     0.034 A 
BRANCH  23  27
ATOM     27  C   UNL A   1      28.471  29.076  23.140  1.00  0.00     0.043 C 
ATOM     28  C   UNL A   1      29.060  30.478  23.113  1.00  0.00     0.010 C 
ENDBRANCH  23  27
ENDBRANCH  19  22
ENDBRANCH   8  19
ENDBRANCH   4   7
ENDBRANCH   2   3
ENDBRANCH   1   2
BRANCH   1  29
ATOM     29  C   UNL A   1      38.653  20.989  25.021  1.00  0.00     0.023 C 
BRANCH  29  30
ATOM     30  C   UNL A   1      39.455  20.701  26.279  1.00  0.00     0.116 C 
BRANCH  30  31
ATOM     31  N   UNL A   1      40.345  19.555  26.140  1.00  0.00    -0.352 N 
ATOM     32  C   UNL A   1      41.717  19.536  26.110  1.00  0.00     0.251 C 
ATOM     33  H   UNL A   1      39.903  18.679  26.056  1.00  0.00     0.163 HD
ATOM     34  O   UNL A   1      42.316  18.494  25.868  1.00  0.00    -0.269 OA
BRANCH  32  35
ATOM     35  C   UNL A   1      42.450  20.796  26.334  1.00  0.00     0.039 A 
ATOM     36  C   UNL A   1      42.817  21.570  25.233  1.00  0.00     0.014 A 
ATOM     37  C   UNL A   1      42.707  21.236  27.634  1.00  0.00     0.014 A 
ATOM     38  C   UNL A   1      43.379  22.829  25.440  1.00  0.00     0.010 A 
ATOM     39  C   UNL A   1      43.184  22.522  27.839  1.00  0.00     0.010 A 
ATOM     40  C   UNL A   1      43.528  23.329  26.744  1.00  0.00    -0.014 A 
BRANCH  40  41
ATOM     41  C   UNL A   1      44.051  24.693  26.997  1.00  0.00     0.031 A 
ATOM     42  C   UNL A   1      43.118  25.773  27.469  1.00  0.00     0.074 A 
ATOM     43  C   UNL A   1      45.339  24.975  26.719  1.00  0.00     0.049 A 
ATOM     44  N   UNL A   1      43.360  27.043  27.664  1.00  0.00    -0.248 NA
ATOM     45  C   UNL A   1      41.721  25.379  27.720  1.00  0.00     0.031 C 
ATOM     46  C   UNL A   1      46.327  24.023  26.206  1.00  0.00     0.029 A 
ATOM     47  N   UNL A   1      46.035  26.151  26.826  1.00  0.00    -0.354 N 
ATOM     48  C   UNL A   1      42.141  27.604  28.027  1.00  0.00     0.074 A 
ATOM     49  C   UNL A   1      41.155  26.548  27.975  1.00  0.00     0.031 C 
ATOM     50  C   UNL A   1      47.510  24.644  26.079  1.00  0.00     0.029 A 
ATOM     51  C   UNL A   1      47.356  26.043  26.464  1.00  0.00     0.049 A 
ATOM     52  H   UNL A   1      45.628  26.993  27.134  1.00  0.00     0.167 HD
ATOM     53  C   UNL A   1      41.871  28.879  28.394  1.00  0.00     0.031 A 
ATOM     54  C   UNL A   1      48.335  26.968  26.447  1.00  0.00     0.031 A 
ATOM     55  C   UNL A   1      42.861  29.918  28.471  1.00  0.00     0.049 A 
ATOM     56  C   UNL A   1      48.022  28.370  26.885  1.00  0.00     0.074 A 
ATOM     57  C   UNL A   1      42.708  31.226  28.893  1.00  0.00     0.029 A 
ATOM     58  N   UNL A   1      44.194  29.761  28.120  1.00  0.00    -0.354 N 
ATOM     59  N   UNL A   1      46.875  28.870  27.281  1.00  0.00    -0.248 NA
ATOM     60  C   UNL A   1      49.134  29.330  26.881  1.00  0.00     0.031 C 
ATOM     61  C   UNL A   1      43.944  31.871  28.765  1.00  0.00     0.029 A 
ATOM     62  C   UNL A   1      44.875  30.953  28.304  1.00  0.00     0.049 A 
ATOM     63  H   UNL A   1      44.597  28.926  27.790  1.00  0.00     0.167 HD
ATOM     64  C   UNL A   1      47.134  30.200  27.598  1.00  0.00     0.074 A 
ATOM     65  C   UNL A   1      48.545  30.420  27.354  1.00  0.00     0.031 C 
ATOM     66  C   UNL A   1      46.280  31.149  28.051  1.00  0.00     0.031 A 
BRANCH  53  67
ATOM     67  C   UNL A   1      40.440  29.205  28.730  1.00  0.00    -0.014 A 
ATOM     68  C   UNL A   1      39.492  29.437  27.717  1.00  0.00     0.010 A 
ATOM     69  C   UNL A   1      40.041  29.300  30.075  1.00  0.00     0.010 A 
ATOM     70  C   UNL A   1      38.190  29.824  28.040  1.00  0.00     0.020 A 
ATOM     71  C   UNL A   1      38.731  29.659  30.404  1.00  0.00     0.020 A 
ATOM     72  C   UNL A   1      37.822  29.945  29.383  1.00  0.00     0.054 A 
BRANCH  72  73
ATOM     73  S   UNL A   1      36.132  30.470  29.781  1.00  0.00     0.124 S 
ATOM     74  O   UNL A   1      35.949  29.900  31.114  1.00  0.00    -0.237 OA
ATOM     75  O   UNL A   1      36.224  31.927  29.730  1.00  0.00    -0.237 OA
ATOM     76  O   UNL A   1      35.324  29.862  28.727  1.00  0.00    -0.744 OA
ENDBRANCH  72  73
ENDBRANCH  53  67
BRANCH  54  77
ATOM     77  C   UNL A   1      49.712  26.574  26.049  1.00  0.00    -0.014 A 
ATOM     78  C   UNL A   1      50.222  26.964  24.798  1.00  0.00     0.010 A 
ATOM     79  C   UNL A   1      50.536  25.852  26.930  1.00  0.00     0.010 A 
ATOM     80  C   UNL A   1      51.530  26.637  24.433  1.00  0.00     0.020 A 
ATOM     81  C   UNL A   1      51.853  25.540  26.577  1.00  0.00     0.020 A 
ATOM     82  C   UNL A   1      52.339  25.930  25.327  1.00  0.00     0.054 A 
BRANCH  82  83
ATOM     83  S   UNL A   1      54.059  25.586  24.863  1.00  0.00     0.124 S 
ATOM     84  O   UNL A   1      54.798  26.453  25.776  1.00  0.00    -0.237 OA
ATOM     85  O   UNL A   1      54.176  24.153  25.117  1.00  0.00    -0.237 OA
ATOM     86  O   UNL A   1      54.114  25.968  23.453  1.00  0.00    -0.744 OA
ENDBRANCH  82  83
ENDBRANCH  54  77
BRANCH  66  87
ATOM     87  C   UNL A   1      46.854  32.509  28.339  1.00  0.00    -0.014 A 
ATOM     88  C   UNL A   1      46.918  33.495  27.339  1.00  0.00     0.010 A 
ATOM     89  C   UNL A   1      47.281  32.819  29.643  1.00  0.00     0.010 A 
ATOM     90  C   UNL A   1      47.423  34.763  27.634  1.00  0.00     0.020 A 
ATOM     91  C   UNL A   1      47.766  34.094  29.945  1.00  0.00     0.020 A 
ATOM     92  C   UNL A   1      47.845  35.054  28.935  1.00  0.00     0.054 A 
BRANCH  92  93
ATOM     93  S   UNL A   1      48.452  36.723  29.307  1.00  0.00     0.124 S 
ATOM     94  O   UNL A   1      49.305  36.999  28.155  1.00  0.00    -0.237 OA
ATOM     95  O   UNL A   1      47.220  37.505  29.379  1.00  0.00    -0.237 OA
ATOM     96  O   UNL A   1      49.153  36.560  30.579  1.00  0.00    -0.744 OA
ENDBRANCH  92  93
ENDBRANCH  66  87
ENDBRANCH  40  41
ENDBRANCH  32  35
ENDBRANCH  30  31
ENDBRANCH  29  30
ENDBRANCH   1  29
TORSDOF 17
ENDMDL
