MODEL 1
REMARK VINA RESULT:     -10.5      0.000      0.000
REMARK SMILES C=CCN(CC(=O)NCCCCNC(=O)c1ccc(-c2c3nc(c(-c4ccc(S(=O)(=O)[O-])cc4)c4ccc([nH]4)c(-c4ccc(S(=O)(=O)[O-])cc4)c4nc(c(-c5ccc(S(=O)(=O)[O-])cc5)c5ccc2[nH]5)C=C4)C=C3)cc1)C(=O)[C@@H]1Oc2ccccc2O[C@H]1C
REMARK SMILES IDX 10 1 9 2 8 3 6 4 7 5 5 7 4 8 3 9 2 10 1 11 76 12 77 13 78 14
REMARK SMILES IDX 79 15 87 16 80 17 86 18 88 19 81 20 85 21 82 22 84 23 83 24
REMARK SMILES IDX 11 25 12 26 13 27 14 28 15 30 16 31 17 32 75 33 18 34 74 35
REMARK SMILES IDX 19 36 20 37 21 38 68 39 22 40 73 41 67 42 69 43 23 44 72 45
REMARK SMILES IDX 66 46 65 47 24 49 54 50 35 51 53 52 36 53 39 54 52 55 70 56
REMARK SMILES IDX 37 57 38 58 51 60 71 61 40 62 25 63 26 64 34 65 27 66 33 67
REMARK SMILES IDX 28 68 29 69 30 70 31 71 32 72 55 73 56 74 64 75 57 76 63 77
REMARK SMILES IDX 58 78 59 79 60 80 61 81 62 82 41 83 42 84 50 85 43 86 49 87
REMARK SMILES IDX 44 88 45 89 46 90 47 91 48 92
REMARK H PARENT 8 6 13 29 69 48 39 59
REMARK Flexibility Score: inf
ROOT
ATOM      1  C   UNL A   1      31.682  26.491  26.698  1.00  0.00     0.023 C 
ENDROOT
BRANCH   1   2
ATOM      2  C   UNL A   1      31.308  26.327  25.225  1.00  0.00     0.116 C 
BRANCH   2   3
ATOM      3  N   UNL A   1      32.476  26.270  24.369  1.00  0.00    -0.355 N 
ATOM      4  C   UNL A   1      33.611  25.517  24.476  1.00  0.00     0.239 C 
ATOM      5  O   UNL A   1      34.498  25.696  23.637  1.00  0.00    -0.273 OA
ATOM      6  H   UNL A   1      32.446  26.867  23.587  1.00  0.00     0.163 HD
BRANCH   4   7
ATOM      7  C   UNL A   1      33.801  24.520  25.630  1.00  0.00     0.219 C 
BRANCH   7   8
ATOM      8  N   UNL A   1      34.895  23.581  25.372  1.00  0.00    -0.326 N 
BRANCH   8   9
ATOM      9  C   UNL A   1      35.917  23.432  26.408  1.00  0.00     0.147 C 
BRANCH   9  10
ATOM     10  C   UNL A   1      37.278  23.836  25.930  1.00  0.00    -0.014 C 
ATOM     11  C   UNL A   1      38.339  23.017  25.954  1.00  0.00     0.006 C 
ENDBRANCH   9  10
ENDBRANCH   8   9
BRANCH   8  12
ATOM     12  C   UNL A   1      34.660  22.578  24.431  1.00  0.00     0.268 C 
ATOM     13  O   UNL A   1      35.446  22.407  23.494  1.00  0.00    -0.270 OA
BRANCH  12  14
ATOM     14  C   UNL A   1      33.450  21.643  24.634  1.00  0.00     0.302 C 
ATOM     15  O   UNL A   1      33.971  20.434  25.194  1.00  0.00    -0.473 OA
ATOM     16  C   UNL A   1      32.620  21.505  23.338  1.00  0.00     0.221 C 
ATOM     17  C   UNL A   1      33.727  19.322  24.450  1.00  0.00     0.162 A 
ATOM     18  O   UNL A   1      31.857  20.287  23.297  1.00  0.00    -0.482 OA
ATOM     19  C   UNL A   1      31.634  22.660  23.156  1.00  0.00     0.057 C 
ATOM     20  C   UNL A   1      34.602  18.257  24.634  1.00  0.00     0.050 A 
ATOM     21  C   UNL A   1      32.705  19.238  23.513  1.00  0.00     0.161 A 
ATOM     22  C   UNL A   1      34.502  17.133  23.821  1.00  0.00     0.004 A 
ATOM     23  C   UNL A   1      32.549  18.087  22.751  1.00  0.00     0.050 A 
ATOM     24  C   UNL A   1      33.472  17.045  22.884  1.00  0.00     0.004 A 
ENDBRANCH  12  14
ENDBRANCH   8  12
ENDBRANCH   7   8
ENDBRANCH   4   7
ENDBRANCH   2   3
ENDBRANCH   1   2
BRANCH   1  25
ATOM     25  C   UNL A   1      31.804  27.941  27.160  1.00  0.00     0.023 C 
BRANCH  25  26
ATOM     26  C   UNL A   1      33.221  28.487  27.221  1.00  0.00     0.116 C 
BRANCH  26  27
ATOM     27  N   UNL A   1      33.263  29.927  27.444  1.00  0.00    -0.352 N 
ATOM     28  C   UNL A   1      34.262  30.728  27.945  1.00  0.00     0.251 C 
ATOM     29  H   UNL A   1      32.439  30.406  27.193  1.00  0.00     0.163 HD
ATOM     30  O   UNL A   1      34.013  31.910  28.186  1.00  0.00    -0.269 OA
BRANCH  28  31
ATOM     31  C   UNL A   1      35.611  30.184  28.230  1.00  0.00     0.039 A 
ATOM     32  C   UNL A   1      36.572  30.173  27.213  1.00  0.00     0.014 A 
ATOM     33  C   UNL A   1      35.942  29.686  29.491  1.00  0.00     0.014 A 
ATOM     34  C   UNL A   1      37.873  29.739  27.485  1.00  0.00     0.010 A 
ATOM     35  C   UNL A   1      37.264  29.380  29.793  1.00  0.00     0.010 A 
ATOM     36  C   UNL A   1      38.246  29.385  28.792  1.00  0.00    -0.014 A 
BRANCH  36  37
ATOM     37  C   UNL A   1      39.639  28.995  29.140  1.00  0.00     0.031 A 
ATOM     38  C   UNL A   1      40.561  29.995  29.792  1.00  0.00     0.074 A 
ATOM     39  C   UNL A   1      40.102  27.776  28.798  1.00  0.00     0.049 A 
ATOM     40  N   UNL A   1      41.832  29.881  30.081  1.00  0.00    -0.248 NA
ATOM     41  C   UNL A   1      39.989  31.310  30.130  1.00  0.00     0.031 C 
ATOM     42  C   UNL A   1      39.330  26.733  28.116  1.00  0.00     0.029 A 
ATOM     43  N   UNL A   1      41.340  27.208  28.967  1.00  0.00    -0.354 N 
ATOM     44  C   UNL A   1      42.214  31.114  30.602  1.00  0.00     0.074 A 
ATOM     45  C   UNL A   1      41.059  31.979  30.531  1.00  0.00     0.031 C 
ATOM     46  C   UNL A   1      40.099  25.643  27.962  1.00  0.00     0.029 A 
ATOM     47  C   UNL A   1      41.432  25.923  28.484  1.00  0.00     0.049 A 
ATOM     48  H   UNL A   1      42.093  27.676  29.396  1.00  0.00     0.167 HD
ATOM     49  C   UNL A   1      43.409  31.486  31.119  1.00  0.00     0.031 A 
ATOM     50  C   UNL A   1      42.474  25.068  28.453  1.00  0.00     0.031 A 
ATOM     51  C   UNL A   1      44.548  30.614  31.213  1.00  0.00     0.049 A 
ATOM     52  C   UNL A   1      43.792  25.502  29.035  1.00  0.00     0.074 A 
ATOM     53  C   UNL A   1      45.784  30.870  31.780  1.00  0.00     0.029 A 
ATOM     54  N   UNL A   1      44.590  29.315  30.729  1.00  0.00    -0.354 N 
ATOM     55  N   UNL A   1      44.112  26.649  29.585  1.00  0.00    -0.248 NA
ATOM     56  C   UNL A   1      44.885  24.521  29.003  1.00  0.00     0.031 C 
ATOM     57  C   UNL A   1      46.593  29.747  31.587  1.00  0.00     0.029 A 
ATOM     58  C   UNL A   1      45.840  28.765  30.961  1.00  0.00     0.049 A 
ATOM     59  H   UNL A   1      43.843  28.852  30.286  1.00  0.00     0.167 HD
ATOM     60  C   UNL A   1      45.435  26.518  29.991  1.00  0.00     0.074 A 
ATOM     61  C   UNL A   1      45.849  25.175  29.637  1.00  0.00     0.031 C 
ATOM     62  C   UNL A   1      46.235  27.426  30.603  1.00  0.00     0.031 A 
BRANCH  49  63
ATOM     63  C   UNL A   1      43.542  32.902  31.623  1.00  0.00    -0.014 A 
ATOM     64  C   UNL A   1      43.942  33.947  30.768  1.00  0.00     0.010 A 
ATOM     65  C   UNL A   1      43.232  33.200  32.962  1.00  0.00     0.010 A 
ATOM     66  C   UNL A   1      44.079  35.249  31.255  1.00  0.00     0.020 A 
ATOM     67  C   UNL A   1      43.333  34.508  33.446  1.00  0.00     0.020 A 
ATOM     68  C   UNL A   1      43.776  35.521  32.592  1.00  0.00     0.054 A 
BRANCH  68  69
ATOM     69  S   UNL A   1      43.946  37.225  33.191  1.00  0.00     0.124 S 
ATOM     70  O   UNL A   1      42.797  37.345  34.085  1.00  0.00    -0.237 OA
ATOM     71  O   UNL A   1      45.252  37.203  33.846  1.00  0.00    -0.237 OA
ATOM     72  O   UNL A   1      43.875  38.029  31.973  1.00  0.00    -0.744 OA
ENDBRANCH  68  69
ENDBRANCH  49  63
BRANCH  50  73
ATOM     73  C   UNL A   1      42.303  23.708  27.869  1.00  0.00    -0.014 A 
ATOM     74  C   UNL A   1      42.758  23.427  26.569  1.00  0.00     0.010 A 
ATOM     75  C   UNL A   1      41.702  22.678  28.618  1.00  0.00     0.010 A 
ATOM     76  C   UNL A   1      42.601  22.151  26.021  1.00  0.00     0.020 A 
ATOM     77  C   UNL A   1      41.571  21.392  28.085  1.00  0.00     0.020 A 
ATOM     78  C   UNL A   1      42.011  21.139  26.784  1.00  0.00     0.054 A 
BRANCH  78  79
ATOM     79  S   UNL A   1      41.867  19.477  26.071  1.00  0.00     0.124 S 
ATOM     80  O   UNL A   1      40.437  19.386  25.798  1.00  0.00    -0.237 OA
ATOM     81  O   UNL A   1      42.732  19.565  24.897  1.00  0.00    -0.237 OA
ATOM     82  O   UNL A   1      42.360  18.605  27.134  1.00  0.00    -0.744 OA
ENDBRANCH  78  79
ENDBRANCH  50  73
BRANCH  62  83
ATOM     83  C   UNL A   1      47.631  26.990  30.966  1.00  0.00    -0.014 A 
ATOM     84  C   UNL A   1      47.911  26.391  32.206  1.00  0.00     0.010 A 
ATOM     85  C   UNL A   1      48.665  27.130  30.022  1.00  0.00     0.010 A 
ATOM     86  C   UNL A   1      49.208  25.968  32.507  1.00  0.00     0.020 A 
ATOM     87  C   UNL A   1      49.955  26.679  30.307  1.00  0.00     0.020 A 
ATOM     88  C   UNL A   1      50.221  26.114  31.554  1.00  0.00     0.054 A 
BRANCH  88  89
ATOM     89  S   UNL A   1      51.885  25.513  31.953  1.00  0.00     0.124 S 
ATOM     90  O   UNL A   1      51.672  24.073  32.058  1.00  0.00    -0.237 OA
ATOM     91  O   UNL A   1      52.669  25.951  30.800  1.00  0.00    -0.237 OA
ATOM     92  O   UNL A   1      52.207  26.188  33.208  1.00  0.00    -0.744 OA
ENDBRANCH  88  89
ENDBRANCH  62  83
ENDBRANCH  36  37
ENDBRANCH  28  31
ENDBRANCH  26  27
ENDBRANCH  25  26
ENDBRANCH   1  25
TORSDOF 19
ENDMDL
MODEL 2
REMARK VINA RESULT:     -10.3      2.687      9.573
REMARK SMILES C=CCN(CC(=O)NCCCCNC(=O)c1ccc(-c2c3nc(c(-c4ccc(S(=O)(=O)[O-])cc4)c4ccc([nH]4)c(-c4ccc(S(=O)(=O)[O-])cc4)c4nc(c(-c5ccc(S(=O)(=O)[O-])cc5)c5ccc2[nH]5)C=C4)C=C3)cc1)C(=O)[C@@H]1Oc2ccccc2O[C@H]1C
REMARK SMILES IDX 10 1 9 2 8 3 6 4 7 5 5 7 4 8 3 9 2 10 1 11 76 12 77 13 78 14
REMARK SMILES IDX 79 15 87 16 80 17 86 18 88 19 81 20 85 21 82 22 84 23 83 24
REMARK SMILES IDX 11 25 12 26 13 27 14 28 15 30 16 31 17 32 75 33 18 34 74 35
REMARK SMILES IDX 19 36 20 37 21 38 68 39 22 40 73 41 67 42 69 43 23 44 72 45
REMARK SMILES IDX 66 46 65 47 24 49 54 50 35 51 53 52 36 53 39 54 52 55 70 56
REMARK SMILES IDX 37 57 38 58 51 60 71 61 40 62 25 63 26 64 34 65 27 66 33 67
REMARK SMILES IDX 28 68 29 69 30 70 31 71 32 72 55 73 56 74 64 75 57 76 63 77
REMARK SMILES IDX 58 78 59 79 60 80 61 81 62 82 41 83 42 84 50 85 43 86 49 87
REMARK SMILES IDX 44 88 45 89 46 90 47 91 48 92
REMARK H PARENT 8 6 13 29 69 48 39 59
REMARK Flexibility Score: inf
ROOT
ATOM      1  C   UNL A   1      35.576  21.550  24.814  1.00  0.00     0.023 C 
ENDROOT
BRANCH   1   2
ATOM      2  C   UNL A   1      34.749  21.464  26.095  1.00  0.00     0.116 C 
BRANCH   2   3
ATOM      3  N   UNL A   1      33.334  21.302  25.822  1.00  0.00    -0.355 N 
ATOM      4  C   UNL A   1      32.300  22.179  25.985  1.00  0.00     0.239 C 
ATOM      5  O   UNL A   1      31.162  21.776  25.730  1.00  0.00    -0.273 OA
ATOM      6  H   UNL A   1      33.080  20.423  25.461  1.00  0.00     0.163 HD
BRANCH   4   7
ATOM      7  C   UNL A   1      32.535  23.600  26.520  1.00  0.00     0.219 C 
BRANCH   7   8
ATOM      8  N   UNL A   1      32.509  24.602  25.452  1.00  0.00    -0.326 N 
BRANCH   8   9
ATOM      9  C   UNL A   1      32.672  24.130  24.077  1.00  0.00     0.147 C 
BRANCH   9  10
ATOM     10  C   UNL A   1      31.518  24.510  23.202  1.00  0.00    -0.014 C 
ATOM     11  C   UNL A   1      31.659  25.173  22.045  1.00  0.00     0.006 C 
ENDBRANCH   9  10
ENDBRANCH   8   9
BRANCH   8  12
ATOM     12  C   UNL A   1      31.876  25.813  25.736  1.00  0.00     0.268 C 
ATOM     13  O   UNL A   1      30.990  25.867  26.593  1.00  0.00    -0.270 OA
BRANCH  12  14
ATOM     14  C   UNL A   1      32.366  27.088  25.017  1.00  0.00     0.302 C 
ATOM     15  O   UNL A   1      33.639  27.404  25.590  1.00  0.00    -0.473 OA
ATOM     16  C   UNL A   1      31.296  28.202  25.052  1.00  0.00     0.221 C 
ATOM     17  C   UNL A   1      33.703  28.633  26.168  1.00  0.00     0.162 A 
ATOM     18  O   UNL A   1      31.859  29.516  24.909  1.00  0.00    -0.482 OA
ATOM     19  C   UNL A   1      30.254  28.037  23.944  1.00  0.00     0.057 C 
ATOM     20  C   UNL A   1      34.669  28.798  27.154  1.00  0.00     0.050 A 
ATOM     21  C   UNL A   1      32.835  29.672  25.852  1.00  0.00     0.161 A 
ATOM     22  C   UNL A   1      34.716  29.981  27.883  1.00  0.00     0.004 A 
ATOM     23  C   UNL A   1      32.927  30.886  26.523  1.00  0.00     0.050 A 
ATOM     24  C   UNL A   1      33.849  31.028  27.564  1.00  0.00     0.004 A 
ENDBRANCH  12  14
ENDBRANCH   8  12
ENDBRANCH   7   8
ENDBRANCH   4   7
ENDBRANCH   2   3
ENDBRANCH   1   2
BRANCH   1  25
ATOM     25  C   UNL A   1      35.861  22.974  24.342  1.00  0.00     0.023 C 
BRANCH  25  26
ATOM     26  C   UNL A   1      37.056  23.649  24.995  1.00  0.00     0.116 C 
BRANCH  26  27
ATOM     27  N   UNL A   1      38.054  22.698  25.467  1.00  0.00    -0.352 N 
ATOM     28  C   UNL A   1      39.181  22.888  26.232  1.00  0.00     0.251 C 
ATOM     29  H   UNL A   1      37.895  21.765  25.194  1.00  0.00     0.163 HD
ATOM     30  O   UNL A   1      39.965  21.950  26.381  1.00  0.00    -0.269 OA
BRANCH  28  31
ATOM     31  C   UNL A   1      39.481  24.205  26.844  1.00  0.00     0.039 A 
ATOM     32  C   UNL A   1      39.073  24.455  28.159  1.00  0.00     0.014 A 
ATOM     33  C   UNL A   1      40.161  25.197  26.137  1.00  0.00     0.014 A 
ATOM     34  C   UNL A   1      39.418  25.660  28.781  1.00  0.00     0.010 A 
ATOM     35  C   UNL A   1      40.614  26.335  26.796  1.00  0.00     0.010 A 
ATOM     36  C   UNL A   1      40.235  26.591  28.121  1.00  0.00    -0.014 A 
BRANCH  36  37
ATOM     37  C   UNL A   1      40.690  27.849  28.775  1.00  0.00     0.031 A 
ATOM     38  C   UNL A   1      42.079  27.934  29.358  1.00  0.00     0.074 A 
ATOM     39  C   UNL A   1      39.834  28.880  28.919  1.00  0.00     0.049 A 
ATOM     40  N   UNL A   1      42.626  28.900  30.051  1.00  0.00    -0.248 NA
ATOM     41  C   UNL A   1      42.957  26.766  29.169  1.00  0.00     0.031 C 
ATOM     42  C   UNL A   1      38.447  28.907  28.447  1.00  0.00     0.029 A 
ATOM     43  N   UNL A   1      40.001  30.106  29.514  1.00  0.00    -0.354 N 
ATOM     44  C   UNL A   1      43.891  28.443  30.405  1.00  0.00     0.074 A 
ATOM     45  C   UNL A   1      44.007  27.092  29.905  1.00  0.00     0.031 C 
ATOM     46  C   UNL A   1      37.905  30.101  28.737  1.00  0.00     0.029 A 
ATOM     47  C   UNL A   1      38.883  30.906  29.459  1.00  0.00     0.049 A 
ATOM     48  H   UNL A   1      40.843  30.387  29.941  1.00  0.00     0.167 HD
ATOM     49  C   UNL A   1      44.880  29.096  31.061  1.00  0.00     0.031 A 
ATOM     50  C   UNL A   1      38.664  32.145  29.944  1.00  0.00     0.031 A 
ATOM     51  C   UNL A   1      44.769  30.449  31.533  1.00  0.00     0.049 A 
ATOM     52  C   UNL A   1      39.777  32.852  30.669  1.00  0.00     0.074 A 
ATOM     53  C   UNL A   1      45.733  31.227  32.150  1.00  0.00     0.029 A 
ATOM     54  N   UNL A   1      43.626  31.229  31.438  1.00  0.00    -0.354 N 
ATOM     55  N   UNL A   1      40.990  32.427  30.933  1.00  0.00    -0.248 NA
ATOM     56  C   UNL A   1      39.495  34.212  31.150  1.00  0.00     0.031 C 
ATOM     57  C   UNL A   1      45.156  32.456  32.481  1.00  0.00     0.029 A 
ATOM     58  C   UNL A   1      43.853  32.470  32.009  1.00  0.00     0.049 A 
ATOM     59  H   UNL A   1      42.780  30.942  31.027  1.00  0.00     0.167 HD
ATOM     60  C   UNL A   1      41.625  33.477  31.585  1.00  0.00     0.074 A 
ATOM     61  C   UNL A   1      40.667  34.562  31.661  1.00  0.00     0.031 C 
ATOM     62  C   UNL A   1      42.888  33.539  32.076  1.00  0.00     0.031 A 
BRANCH  49  63
ATOM     63  C   UNL A   1      46.167  28.349  31.307  1.00  0.00    -0.014 A 
ATOM     64  C   UNL A   1      47.238  28.419  30.397  1.00  0.00     0.010 A 
ATOM     65  C   UNL A   1      46.321  27.589  32.481  1.00  0.00     0.010 A 
ATOM     66  C   UNL A   1      48.416  27.705  30.630  1.00  0.00     0.020 A 
ATOM     67  C   UNL A   1      47.511  26.901  32.737  1.00  0.00     0.020 A 
ATOM     68  C   UNL A   1      48.544  26.948  31.799  1.00  0.00     0.054 A 
BRANCH  68  69
ATOM     69  S   UNL A   1      50.092  26.046  32.082  1.00  0.00     0.124 S 
ATOM     70  O   UNL A   1      49.616  24.836  32.749  1.00  0.00    -0.237 OA
ATOM     71  O   UNL A   1      50.603  25.856  30.727  1.00  0.00    -0.237 OA
ATOM     72  O   UNL A   1      50.874  26.953  32.919  1.00  0.00    -0.744 OA
ENDBRANCH  68  69
ENDBRANCH  49  63
BRANCH  50  73
ATOM     73  C   UNL A   1      37.343  32.801  29.738  1.00  0.00    -0.014 A 
ATOM     74  C   UNL A   1      36.367  32.774  30.751  1.00  0.00     0.010 A 
ATOM     75  C   UNL A   1      37.058  33.476  28.536  1.00  0.00     0.010 A 
ATOM     76  C   UNL A   1      35.128  33.392  30.560  1.00  0.00     0.020 A 
ATOM     77  C   UNL A   1      35.832  34.121  28.354  1.00  0.00     0.020 A 
ATOM     78  C   UNL A   1      34.869  34.066  29.363  1.00  0.00     0.054 A 
BRANCH  78  79
ATOM     79  S   UNL A   1      33.273  34.906  29.161  1.00  0.00     0.124 S 
ATOM     80  O   UNL A   1      32.731  34.859  30.514  1.00  0.00    -0.237 OA
ATOM     81  O   UNL A   1      33.675  36.228  28.685  1.00  0.00    -0.237 OA
ATOM     82  O   UNL A   1      32.576  34.083  28.176  1.00  0.00    -0.744 OA
ENDBRANCH  78  79
ENDBRANCH  50  73
BRANCH  62  83
ATOM     83  C   UNL A   1      43.326  34.835  32.707  1.00  0.00    -0.014 A 
ATOM     84  C   UNL A   1      43.989  35.825  31.961  1.00  0.00     0.010 A 
ATOM     85  C   UNL A   1      43.012  35.086  34.055  1.00  0.00     0.010 A 
ATOM     86  C   UNL A   1      44.358  37.031  32.563  1.00  0.00     0.020 A 
ATOM     87  C   UNL A   1      43.351  36.303  34.651  1.00  0.00     0.020 A 
ATOM     88  C   UNL A   1      44.035  37.262  33.904  1.00  0.00     0.054 A 
BRANCH  88  89
ATOM     89  S   UNL A   1      44.484  38.855  34.646  1.00  0.00     0.124 S 
ATOM     90  O   UNL A   1      45.778  39.126  34.026  1.00  0.00    -0.237 OA
ATOM     91  O   UNL A   1      43.389  39.725  34.223  1.00  0.00    -0.237 OA
ATOM     92  O   UNL A   1      44.528  38.571  36.078  1.00  0.00    -0.744 OA
ENDBRANCH  88  89
ENDBRANCH  62  83
ENDBRANCH  36  37
ENDBRANCH  28  31
ENDBRANCH  26  27
ENDBRANCH  25  26
ENDBRANCH   1  25
TORSDOF 19
ENDMDL
MODEL 3
REMARK VINA RESULT:     -10.3      4.360     10.494
REMARK SMILES C=CCN(CC(=O)NCCCCNC(=O)c1ccc(-c2c3nc(c(-c4ccc(S(=O)(=O)[O-])cc4)c4ccc([nH]4)c(-c4ccc(S(=O)(=O)[O-])cc4)c4nc(c(-c5ccc(S(=O)(=O)[O-])cc5)c5ccc2[nH]5)C=C4)C=C3)cc1)C(=O)[C@@H]1Oc2ccccc2O[C@H]1C
REMARK SMILES IDX 10 1 9 2 8 3 6 4 7 5 5 7 4 8 3 9 2 10 1 11 76 12 77 13 78 14
REMARK SMILES IDX 79 15 87 16 80 17 86 18 88 19 81 20 85 21 82 22 84 23 83 24
REMARK SMILES IDX 11 25 12 26 13 27 14 28 15 30 16 31 17 32 75 33 18 34 74 35
REMARK SMILES IDX 19 36 20 37 21 38 68 39 22 40 73 41 67 42 69 43 23 44 72 45
REMARK SMILES IDX 66 46 65 47 24 49 54 50 35 51 53 52 36 53 39 54 52 55 70 56
REMARK SMILES IDX 37 57 38 58 51 60 71 61 40 62 25 63 26 64 34 65 27 66 33 67
REMARK SMILES IDX 28 68 29 69 30 70 31 71 32 72 55 73 56 74 64 75 57 76 63 77
REMARK SMILES IDX 58 78 59 79 60 80 61 81 62 82 41 83 42 84 50 85 43 86 49 87
REMARK SMILES IDX 44 88 45 89 46 90 47 91 48 92
REMARK H PARENT 8 6 13 29 69 48 39 59
REMARK Flexibility Score: inf
ROOT
ATOM      1  C   UNL A   1      37.596  22.884  25.816  1.00  0.00     0.023 C 
ENDROOT
BRANCH   1   2
ATOM      2  C   UNL A   1      36.548  21.778  25.696  1.00  0.00     0.116 C 
BRANCH   2   3
ATOM      3  N   UNL A   1      35.562  21.844  26.756  1.00  0.00    -0.355 N 
ATOM      4  C   UNL A   1      34.454  22.632  26.881  1.00  0.00     0.239 C 
ATOM      5  O   UNL A   1      33.797  22.537  27.921  1.00  0.00    -0.273 OA
ATOM      6  H   UNL A   1      35.715  21.222  27.503  1.00  0.00     0.163 HD
BRANCH   4   7
ATOM      7  C   UNL A   1      34.066  23.642  25.789  1.00  0.00     0.219 C 
BRANCH   7   8
ATOM      8  N   UNL A   1      32.619  23.691  25.573  1.00  0.00    -0.326 N 
BRANCH   8   9
ATOM      9  C   UNL A   1      31.908  22.418  25.458  1.00  0.00     0.147 C 
BRANCH   9  10
ATOM     10  C   UNL A   1      32.186  21.724  24.160  1.00  0.00    -0.014 C 
ATOM     11  C   UNL A   1      32.955  20.630  24.061  1.00  0.00     0.006 C 
ENDBRANCH   9  10
ENDBRANCH   8   9
BRANCH   8  12
ATOM     12  C   UNL A   1      31.961  24.861  25.957  1.00  0.00     0.268 C 
ATOM     13  O   UNL A   1      31.381  24.921  27.045  1.00  0.00    -0.270 OA
BRANCH  12  14
ATOM     14  C   UNL A   1      32.045  26.093  25.031  1.00  0.00     0.302 C 
ATOM     15  O   UNL A   1      33.235  26.792  25.408  1.00  0.00    -0.473 OA
ATOM     16  C   UNL A   1      30.730  26.904  25.052  1.00  0.00     0.221 C 
ATOM     17  C   UNL A   1      33.027  28.073  25.815  1.00  0.00     0.162 A 
ATOM     18  O   UNL A   1      30.922  28.279  24.681  1.00  0.00    -0.482 OA
ATOM     19  C   UNL A   1      29.679  26.325  24.103  1.00  0.00     0.057 C 
ATOM     20  C   UNL A   1      33.996  28.615  26.653  1.00  0.00     0.050 A 
ATOM     21  C   UNL A   1      31.899  28.809  25.476  1.00  0.00     0.161 A 
ATOM     22  C   UNL A   1      33.795  29.870  27.218  1.00  0.00     0.004 A 
ATOM     23  C   UNL A   1      31.728  30.095  25.974  1.00  0.00     0.050 A 
ATOM     24  C   UNL A   1      32.665  30.613  26.874  1.00  0.00     0.004 A 
ENDBRANCH  12  14
ENDBRANCH   8  12
ENDBRANCH   7   8
ENDBRANCH   4   7
ENDBRANCH   2   3
ENDBRANCH   1   2
BRANCH   1  25
ATOM     25  C   UNL A   1      38.957  22.411  26.321  1.00  0.00     0.023 C 
BRANCH  25  26
ATOM     26  C   UNL A   1      39.816  23.481  26.976  1.00  0.00     0.116 C 
BRANCH  26  27
ATOM     27  N   UNL A   1      40.790  24.062  26.062  1.00  0.00    -0.352 N 
ATOM     28  C   UNL A   1      41.337  25.323  26.019  1.00  0.00     0.251 C 
ATOM     29  H   UNL A   1      41.109  23.451  25.357  1.00  0.00     0.163 HD
ATOM     30  O   UNL A   1      42.035  25.637  25.053  1.00  0.00    -0.269 OA
BRANCH  28  31
ATOM     31  C   UNL A   1      41.074  26.312  27.092  1.00  0.00     0.039 A 
ATOM     32  C   UNL A   1      40.154  25.999  28.098  1.00  0.00     0.014 A 
ATOM     33  C   UNL A   1      41.725  27.545  27.119  1.00  0.00     0.014 A 
ATOM     34  C   UNL A   1      39.952  26.885  29.161  1.00  0.00     0.010 A 
ATOM     35  C   UNL A   1      41.623  28.363  28.239  1.00  0.00     0.010 A 
ATOM     36  C   UNL A   1      40.723  28.054  29.268  1.00  0.00    -0.014 A 
BRANCH  36  37
ATOM     37  C   UNL A   1      40.596  28.983  30.424  1.00  0.00     0.031 A 
ATOM     38  C   UNL A   1      41.478  28.802  31.634  1.00  0.00     0.074 A 
ATOM     39  C   UNL A   1      39.639  29.932  30.423  1.00  0.00     0.049 A 
ATOM     40  N   UNL A   1      41.454  29.441  32.776  1.00  0.00    -0.248 NA
ATOM     41  C   UNL A   1      42.497  27.740  31.568  1.00  0.00     0.031 C 
ATOM     42  C   UNL A   1      38.686  30.178  29.337  1.00  0.00     0.029 A 
ATOM     43  N   UNL A   1      39.301  30.864  31.373  1.00  0.00    -0.354 N 
ATOM     44  C   UNL A   1      42.427  28.838  33.568  1.00  0.00     0.074 A 
ATOM     45  C   UNL A   1      42.978  27.745  32.801  1.00  0.00     0.031 C 
ATOM     46  C   UNL A   1      37.900  31.216  29.666  1.00  0.00     0.029 A 
ATOM     47  C   UNL A   1      38.254  31.677  31.005  1.00  0.00     0.049 A 
ATOM     48  H   UNL A   1      39.765  30.943  32.238  1.00  0.00     0.167 HD
ATOM     49  C   UNL A   1      42.845  29.179  34.810  1.00  0.00     0.031 A 
ATOM     50  C   UNL A   1      37.639  32.675  31.670  1.00  0.00     0.031 A 
ATOM     51  C   UNL A   1      42.313  30.285  35.559  1.00  0.00     0.049 A 
ATOM     52  C   UNL A   1      38.122  33.038  33.049  1.00  0.00     0.074 A 
ATOM     53  C   UNL A   1      42.711  30.757  36.797  1.00  0.00     0.029 A 
ATOM     54  N   UNL A   1      41.267  31.094  35.139  1.00  0.00    -0.354 N 
ATOM     55  N   UNL A   1      39.089  32.499  33.752  1.00  0.00    -0.248 NA
ATOM     56  C   UNL A   1      37.437  34.153  33.718  1.00  0.00     0.031 C 
ATOM     57  C   UNL A   1      41.869  31.814  37.152  1.00  0.00     0.029 A 
ATOM     58  C   UNL A   1      40.990  32.046  36.106  1.00  0.00     0.049 A 
ATOM     59  H   UNL A   1      40.793  31.004  34.282  1.00  0.00     0.167 HD
ATOM     60  C   UNL A   1      39.149  33.227  34.934  1.00  0.00     0.074 A 
ATOM     61  C   UNL A   1      38.131  34.254  34.844  1.00  0.00     0.031 C 
ATOM     62  C   UNL A   1      39.973  33.062  35.999  1.00  0.00     0.031 A 
BRANCH  49  63
ATOM     63  C   UNL A   1      43.933  28.342  35.435  1.00  0.00    -0.014 A 
ATOM     64  C   UNL A   1      43.627  27.218  36.227  1.00  0.00     0.010 A 
ATOM     65  C   UNL A   1      45.283  28.663  35.203  1.00  0.00     0.010 A 
ATOM     66  C   UNL A   1      44.646  26.465  36.814  1.00  0.00     0.020 A 
ATOM     67  C   UNL A   1      46.307  27.891  35.760  1.00  0.00     0.020 A 
ATOM     68  C   UNL A   1      45.981  26.808  36.579  1.00  0.00     0.054 A 
BRANCH  68  69
ATOM     69  S   UNL A   1      47.282  25.800  37.342  1.00  0.00     0.124 S 
ATOM     70  O   UNL A   1      46.835  25.736  38.732  1.00  0.00    -0.237 OA
ATOM     71  O   UNL A   1      47.194  24.548  36.595  1.00  0.00    -0.237 OA
ATOM     72  O   UNL A   1      48.500  26.575  37.114  1.00  0.00    -0.744 OA
ENDBRANCH  68  69
ENDBRANCH  49  63
BRANCH  50  73
ATOM     73  C   UNL A   1      36.515  33.415  31.031  1.00  0.00    -0.014 A 
ATOM     74  C   UNL A   1      36.690  34.041  29.784  1.00  0.00     0.010 A 
ATOM     75  C   UNL A   1      35.256  33.481  31.656  1.00  0.00     0.010 A 
ATOM     76  C   UNL A   1      35.636  34.733  29.183  1.00  0.00     0.020 A 
ATOM     77  C   UNL A   1      34.190  34.146  31.043  1.00  0.00     0.020 A 
ATOM     78  C   UNL A   1      34.389  34.778  29.814  1.00  0.00     0.054 A 
BRANCH  78  79
ATOM     79  S   UNL A   1      33.021  35.636  28.987  1.00  0.00     0.124 S 
ATOM     80  O   UNL A   1      32.223  36.096  30.119  1.00  0.00    -0.237 OA
ATOM     81  O   UNL A   1      33.715  36.679  28.235  1.00  0.00    -0.237 OA
ATOM     82  O   UNL A   1      32.407  34.592  28.170  1.00  0.00    -0.744 OA
ENDBRANCH  78  79
ENDBRANCH  50  73
BRANCH  62  83
ATOM     83  C   UNL A   1      39.838  34.036  37.140  1.00  0.00    -0.014 A 
ATOM     84  C   UNL A   1      40.558  35.243  37.162  1.00  0.00     0.010 A 
ATOM     85  C   UNL A   1      38.927  33.761  38.177  1.00  0.00     0.010 A 
ATOM     86  C   UNL A   1      40.391  36.143  38.218  1.00  0.00     0.020 A 
ATOM     87  C   UNL A   1      38.735  34.673  39.217  1.00  0.00     0.020 A 
ATOM     88  C   UNL A   1      39.480  35.852  39.238  1.00  0.00     0.054 A 
BRANCH  88  89
ATOM     89  S   UNL A   1      39.250  37.060  40.571  1.00  0.00     0.124 S 
ATOM     90  O   UNL A   1      38.770  36.219  41.664  1.00  0.00    -0.237 OA
ATOM     91  O   UNL A   1      40.594  37.608  40.742  1.00  0.00    -0.237 OA
ATOM     92  O   UNL A   1      38.268  37.995  40.028  1.00  0.00    -0.744 OA
ENDBRANCH  88  89
ENDBRANCH  62  83
ENDBRANCH  36  37
ENDBRANCH  28  31
ENDBRANCH  26  27
ENDBRANCH  25  26
ENDBRANCH   1  25
TORSDOF 19
ENDMDL
