MODEL 1
REMARK VINA RESULT:     -13.5      0.000      0.000
REMARK SMILES C[NH+]1CCC(C(=O)N2C[C@@H](C(=O)NCCCCNC(=O)c3ccc(-c4c5nc(c(-c6ccc(S(=O)(=O)[O-])cc6)c6ccc([nH]6)c(-c6ccc(S(=O)(=O)[O-])cc6)c6nc(c(-c7ccc(S(=O)(=O)[O-])cc7)c7ccc4[nH]7)C=C6)C=C5)cc3)[C@H](c3ccc4c(c3)OCO4)C2)CC1
REMARK SMILES IDX 16 1 15 2 14 3 13 4 11 5 12 6 10 8 8 9 9 10 91 11 81 12 6 13
REMARK SMILES IDX 7 14 5 15 1 16 2 17 3 18 93 19 4 21 92 22 82 23 83 24 87 25
REMARK SMILES IDX 84 26 86 27 85 28 88 29 90 30 89 31 17 32 18 33 19 34 20 36
REMARK SMILES IDX 21 37 22 38 80 39 23 40 79 41 24 42 25 43 26 44 73 45 27 46
REMARK SMILES IDX 78 47 72 48 74 49 28 50 77 51 71 52 70 53 29 55 59 56 40 57
REMARK SMILES IDX 58 58 41 59 44 60 57 61 75 62 42 63 43 64 56 66 76 67 45 68
REMARK SMILES IDX 30 69 31 70 39 71 32 72 38 73 33 74 34 75 35 76 36 77 37 78
REMARK SMILES IDX 60 79 61 80 69 81 62 82 68 83 63 84 64 85 65 86 66 87 67 88
REMARK SMILES IDX 46 89 47 90 55 91 48 92 54 93 49 94 50 95 51 96 52 97 53 98
REMARK H PARENT 13 7 2 20 18 35 74 54 44 65
REMARK Flexibility Score: inf
ROOT
ATOM      1  C   UNL A   1      37.558  23.589  26.260  1.00  0.00     0.023 C 
ENDROOT
BRANCH   1   2
ATOM      2  C   UNL A   1      37.630  22.533  25.153  1.00  0.00     0.023 C 
BRANCH   2   3
ATOM      3  C   UNL A   1      36.775  21.291  25.377  1.00  0.00     0.116 C 
BRANCH   3   4
ATOM      4  N   UNL A   1      35.805  21.439  26.449  1.00  0.00    -0.356 N 
ATOM      5  C   UNL A   1      34.494  21.818  26.390  1.00  0.00     0.225 C 
ATOM      6  O   UNL A   1      33.811  21.729  27.410  1.00  0.00    -0.275 OA
ATOM      7  H   UNL A   1      36.143  21.237  27.351  1.00  0.00     0.163 HD
BRANCH   5   8
ATOM      8  C   UNL A   1      33.917  22.338  25.091  1.00  0.00     0.107 C 
ATOM      9  N   UNL A   1      32.947  24.121  23.993  1.00  0.00    -0.341 N 
ATOM     10  C   UNL A   1      33.808  23.849  25.124  1.00  0.00     0.133 C 
ATOM     11  C   UNL A   1      31.923  23.078  23.920  1.00  0.00     0.128 C 
ATOM     12  C   UNL A   1      32.447  21.933  24.826  1.00  0.00     0.053 C 
BRANCH   9  13
ATOM     13  C   UNL A   1      32.967  25.145  23.082  1.00  0.00     0.226 C 
ATOM     14  O   UNL A   1      33.607  25.016  22.029  1.00  0.00    -0.275 OA
BRANCH  13  15
ATOM     15  C   UNL A   1      32.479  26.551  23.459  1.00  0.00     0.090 C 
ATOM     16  C   UNL A   1      31.827  30.210  25.623  1.00  0.00     0.332 C 
ATOM     17  N   UNL A   1      32.096  28.830  25.230  1.00  0.00    -0.337 N 
ATOM     18  C   UNL A   1      33.310  28.747  24.410  1.00  0.00     0.262 C 
ATOM     19  C   UNL A   1      30.945  28.246  24.526  1.00  0.00     0.262 C 
ATOM     20  H   UNL A   1      32.250  28.286  26.079  1.00  0.00     0.347 HD
ATOM     21  C   UNL A   1      33.654  27.290  24.116  1.00  0.00     0.075 C 
ATOM     22  C   UNL A   1      31.201  26.756  24.268  1.00  0.00     0.075 C 
ENDBRANCH  13  15
ENDBRANCH   9  13
BRANCH  12  23
ATOM     23  C   UNL A   1      32.384  20.510  24.305  1.00  0.00    -0.038 A 
ATOM     24  C   UNL A   1      32.248  20.206  22.930  1.00  0.00     0.008 A 
ATOM     25  C   UNL A   1      32.667  19.467  25.211  1.00  0.00     0.054 A 
ATOM     26  C   UNL A   1      32.440  18.901  22.457  1.00  0.00     0.051 A 
ATOM     27  C   UNL A   1      32.895  18.204  24.709  1.00  0.00     0.166 A 
ATOM     28  C   UNL A   1      32.795  17.931  23.368  1.00  0.00     0.165 A 
ATOM     29  O   UNL A   1      33.338  17.135  25.425  1.00  0.00    -0.454 OA
ATOM     30  O   UNL A   1      33.150  16.651  23.074  1.00  0.00    -0.454 OA
ATOM     31  C   UNL A   1      33.630  16.205  24.360  1.00  0.00     0.468 C 
ENDBRANCH  12  23
ENDBRANCH   5   8
ENDBRANCH   3   4
ENDBRANCH   2   3
ENDBRANCH   1   2
BRANCH   1  32
ATOM     32  C   UNL A   1      38.887  24.013  26.883  1.00  0.00     0.116 C 
BRANCH  32  33
ATOM     33  N   UNL A   1      39.843  24.554  25.930  1.00  0.00    -0.352 N 
ATOM     34  C   UNL A   1      40.723  25.601  26.084  1.00  0.00     0.251 C 
ATOM     35  H   UNL A   1      39.865  24.109  25.052  1.00  0.00     0.163 HD
ATOM     36  O   UNL A   1      41.454  25.925  25.151  1.00  0.00    -0.269 OA
BRANCH  34  37
ATOM     37  C   UNL A   1      40.764  26.363  27.352  1.00  0.00     0.039 A 
ATOM     38  C   UNL A   1      41.718  27.374  27.491  1.00  0.00     0.014 A 
ATOM     39  C   UNL A   1      39.859  26.107  28.387  1.00  0.00     0.014 A 
ATOM     40  C   UNL A   1      41.708  28.189  28.626  1.00  0.00     0.010 A 
ATOM     41  C   UNL A   1      39.814  26.957  29.493  1.00  0.00     0.010 A 
ATOM     42  C   UNL A   1      40.725  28.019  29.614  1.00  0.00    -0.014 A 
BRANCH  42  43
ATOM     43  C   UNL A   1      40.596  28.981  30.738  1.00  0.00     0.031 A 
ATOM     44  C   UNL A   1      41.439  28.841  31.974  1.00  0.00     0.074 A 
ATOM     45  C   UNL A   1      39.653  29.942  30.676  1.00  0.00     0.049 A 
ATOM     46  N   UNL A   1      41.427  29.565  33.065  1.00  0.00    -0.248 NA
ATOM     47  C   UNL A   1      42.404  27.731  31.998  1.00  0.00     0.031 C 
ATOM     48  C   UNL A   1      38.730  30.150  29.557  1.00  0.00     0.029 A 
ATOM     49  N   UNL A   1      39.303  30.916  31.578  1.00  0.00    -0.354 N 
ATOM     50  C   UNL A   1      42.365  28.989  33.913  1.00  0.00     0.074 A 
ATOM     51  C   UNL A   1      42.904  27.835  33.221  1.00  0.00     0.031 C 
ATOM     52  C   UNL A   1      37.927  31.189  29.835  1.00  0.00     0.029 A 
ATOM     53  C   UNL A   1      38.254  31.702  31.162  1.00  0.00     0.049 A 
ATOM     54  H   UNL A   1      39.759  31.038  32.443  1.00  0.00     0.167 HD
ATOM     55  C   UNL A   1      42.753  29.390  35.148  1.00  0.00     0.031 A 
ATOM     56  C   UNL A   1      37.618  32.717  31.778  1.00  0.00     0.031 A 
ATOM     57  C   UNL A   1      42.220  30.539  35.832  1.00  0.00     0.049 A 
ATOM     58  C   UNL A   1      38.076  33.158  33.139  1.00  0.00     0.074 A 
ATOM     59  C   UNL A   1      42.601  31.066  37.054  1.00  0.00     0.029 A 
ATOM     60  N   UNL A   1      41.183  31.331  35.362  1.00  0.00    -0.354 N 
ATOM     61  N   UNL A   1      39.030  32.657  33.885  1.00  0.00    -0.248 NA
ATOM     62  C   UNL A   1      37.382  34.308  33.734  1.00  0.00     0.031 C 
ATOM     63  C   UNL A   1      41.762  32.148  37.345  1.00  0.00     0.029 A 
ATOM     64  C   UNL A   1      40.894  32.327  36.280  1.00  0.00     0.049 A 
ATOM     65  H   UNL A   1      40.721  31.204  34.502  1.00  0.00     0.167 HD
ATOM     66  C   UNL A   1      39.065  33.443  35.031  1.00  0.00     0.074 A 
ATOM     67  C   UNL A   1      38.046  34.462  34.872  1.00  0.00     0.031 C 
ATOM     68  C   UNL A   1      39.871  33.331  36.115  1.00  0.00     0.031 A 
BRANCH  55  69
ATOM     69  C   UNL A   1      43.799  28.561  35.847  1.00  0.00    -0.014 A 
ATOM     70  C   UNL A   1      45.169  28.843  35.699  1.00  0.00     0.010 A 
ATOM     71  C   UNL A   1      43.405  27.500  36.681  1.00  0.00     0.010 A 
ATOM     72  C   UNL A   1      46.128  28.044  36.328  1.00  0.00     0.020 A 
ATOM     73  C   UNL A   1      44.360  26.715  37.334  1.00  0.00     0.020 A 
ATOM     74  C   UNL A   1      45.716  26.979  37.134  1.00  0.00     0.054 A 
BRANCH  74  75
ATOM     75  S   UNL A   1      46.980  25.953  37.936  1.00  0.00     0.124 S 
ATOM     76  O   UNL A   1      46.804  24.675  37.254  1.00  0.00    -0.237 OA
ATOM     77  O   UNL A   1      48.217  26.665  37.626  1.00  0.00    -0.237 OA
ATOM     78  O   UNL A   1      46.595  25.967  39.345  1.00  0.00    -0.744 OA
ENDBRANCH  74  75
ENDBRANCH  55  69
BRANCH  56  79
ATOM     79  C   UNL A   1      36.481  33.392  31.093  1.00  0.00    -0.014 A 
ATOM     80  C   UNL A   1      35.253  33.569  31.752  1.00  0.00     0.010 A 
ATOM     81  C   UNL A   1      36.641  33.900  29.791  1.00  0.00     0.010 A 
ATOM     82  C   UNL A   1      34.203  34.241  31.120  1.00  0.00     0.020 A 
ATOM     83  C   UNL A   1      35.601  34.593  29.165  1.00  0.00     0.020 A 
ATOM     84  C   UNL A   1      34.385  34.754  29.832  1.00  0.00     0.054 A 
BRANCH  84  85
ATOM     85  S   UNL A   1      33.037  35.694  29.063  1.00  0.00     0.124 S 
ATOM     86  O   UNL A   1      33.765  36.735  28.344  1.00  0.00    -0.237 OA
ATOM     87  O   UNL A   1      32.384  34.688  28.230  1.00  0.00    -0.237 OA
ATOM     88  O   UNL A   1      32.248  36.153  30.204  1.00  0.00    -0.744 OA
ENDBRANCH  84  85
ENDBRANCH  56  79
BRANCH  68  89
ATOM     89  C   UNL A   1      39.701  34.348  37.212  1.00  0.00    -0.014 A 
ATOM     90  C   UNL A   1      38.959  34.053  38.369  1.00  0.00     0.010 A 
ATOM     91  C   UNL A   1      40.340  35.597  37.106  1.00  0.00     0.010 A 
ATOM     92  C   UNL A   1      38.835  35.001  39.390  1.00  0.00     0.020 A 
ATOM     93  C   UNL A   1      40.239  36.537  38.135  1.00  0.00     0.020 A 
ATOM     94  C   UNL A   1      39.476  36.238  39.266  1.00  0.00     0.054 A 
BRANCH  94  95
ATOM     95  S   UNL A   1      39.340  37.434  40.622  1.00  0.00     0.124 S 
ATOM     96  O   UNL A   1      38.352  38.374  40.101  1.00  0.00    -0.237 OA
ATOM     97  O   UNL A   1      38.892  36.606  41.739  1.00  0.00    -0.237 OA
ATOM     98  O   UNL A   1      40.695  37.964  40.753  1.00  0.00    -0.744 OA
ENDBRANCH  94  95
ENDBRANCH  68  89
ENDBRANCH  42  43
ENDBRANCH  34  37
ENDBRANCH  32  33
ENDBRANCH   1  32
TORSDOF 17
ENDMDL
MODEL 2
REMARK VINA RESULT:     -13.3      2.338      9.330
REMARK SMILES C[NH+]1CCC(C(=O)N2C[C@@H](C(=O)NCCCCNC(=O)c3ccc(-c4c5nc(c(-c6ccc(S(=O)(=O)[O-])cc6)c6ccc([nH]6)c(-c6ccc(S(=O)(=O)[O-])cc6)c6nc(c(-c7ccc(S(=O)(=O)[O-])cc7)c7ccc4[nH]7)C=C6)C=C5)cc3)[C@H](c3ccc4c(c3)OCO4)C2)CC1
REMARK SMILES IDX 16 1 15 2 14 3 13 4 11 5 12 6 10 8 8 9 9 10 91 11 81 12 6 13
REMARK SMILES IDX 7 14 5 15 1 16 2 17 3 18 93 19 4 21 92 22 82 23 83 24 87 25
REMARK SMILES IDX 84 26 86 27 85 28 88 29 90 30 89 31 17 32 18 33 19 34 20 36
REMARK SMILES IDX 21 37 22 38 80 39 23 40 79 41 24 42 25 43 26 44 73 45 27 46
REMARK SMILES IDX 78 47 72 48 74 49 28 50 77 51 71 52 70 53 29 55 59 56 40 57
REMARK SMILES IDX 58 58 41 59 44 60 57 61 75 62 42 63 43 64 56 66 76 67 45 68
REMARK SMILES IDX 30 69 31 70 39 71 32 72 38 73 33 74 34 75 35 76 36 77 37 78
REMARK SMILES IDX 60 79 61 80 69 81 62 82 68 83 63 84 64 85 65 86 66 87 67 88
REMARK SMILES IDX 46 89 47 90 55 91 48 92 54 93 49 94 50 95 51 96 52 97 53 98
REMARK H PARENT 13 7 2 20 18 35 74 54 44 65
REMARK Flexibility Score: inf
ROOT
ATOM      1  C   UNL A   1      32.000  31.951  26.652  1.00  0.00     0.023 C 
ENDROOT
BRANCH   1   2
ATOM      2  C   UNL A   1      31.896  30.435  26.837  1.00  0.00     0.023 C 
BRANCH   2   3
ATOM      3  C   UNL A   1      31.714  29.629  25.556  1.00  0.00     0.116 C 
BRANCH   3   4
ATOM      4  N   UNL A   1      32.869  29.670  24.676  1.00  0.00    -0.356 N 
ATOM      5  C   UNL A   1      33.272  28.772  23.727  1.00  0.00     0.225 C 
ATOM      6  O   UNL A   1      34.205  29.081  22.987  1.00  0.00    -0.275 OA
ATOM      7  H   UNL A   1      33.448  30.460  24.778  1.00  0.00     0.163 HD
BRANCH   5   8
ATOM      8  C   UNL A   1      32.577  27.434  23.613  1.00  0.00     0.107 C 
ATOM      9  N   UNL A   1      32.772  25.205  23.046  1.00  0.00    -0.341 N 
ATOM     10  C   UNL A   1      33.591  26.316  23.482  1.00  0.00     0.133 C 
ATOM     11  C   UNL A   1      31.759  25.705  22.117  1.00  0.00     0.128 C 
ATOM     12  C   UNL A   1      31.747  27.243  22.321  1.00  0.00     0.053 C 
BRANCH   9  13
ATOM     13  C   UNL A   1      32.837  23.872  23.358  1.00  0.00     0.226 C 
ATOM     14  O   UNL A   1      31.820  23.171  23.266  1.00  0.00    -0.275 OA
BRANCH  13  15
ATOM     15  C   UNL A   1      34.046  23.291  24.107  1.00  0.00     0.090 C 
ATOM     16  C   UNL A   1      37.565  21.000  25.036  1.00  0.00     0.332 C 
ATOM     17  N   UNL A   1      36.306  21.496  24.487  1.00  0.00    -0.337 N 
ATOM     18  C   UNL A   1      36.506  22.774  23.795  1.00  0.00     0.262 C 
ATOM     19  C   UNL A   1      35.283  21.620  25.535  1.00  0.00     0.262 C 
ATOM     20  H   UNL A   1      35.972  20.815  23.804  1.00  0.00     0.347 HD
ATOM     21  C   UNL A   1      35.214  23.217  23.113  1.00  0.00     0.075 C 
ATOM     22  C   UNL A   1      33.938  21.991  24.900  1.00  0.00     0.075 C 
ENDBRANCH  13  15
ENDBRANCH   9  13
BRANCH  12  23
ATOM     23  C   UNL A   1      30.409  27.946  22.452  1.00  0.00    -0.038 A 
ATOM     24  C   UNL A   1      29.319  27.389  23.161  1.00  0.00     0.008 A 
ATOM     25  C   UNL A   1      30.326  29.283  22.011  1.00  0.00     0.054 A 
ATOM     26  C   UNL A   1      28.191  28.159  23.473  1.00  0.00     0.051 A 
ATOM     27  C   UNL A   1      29.224  30.027  22.373  1.00  0.00     0.166 A 
ATOM     28  C   UNL A   1      28.190  29.483  23.094  1.00  0.00     0.165 A 
ATOM     29  O   UNL A   1      29.070  31.364  22.173  1.00  0.00    -0.454 OA
ATOM     30  O   UNL A   1      27.250  30.408  23.425  1.00  0.00    -0.454 OA
ATOM     31  C   UNL A   1      27.889  31.618  22.965  1.00  0.00     0.468 C 
ENDBRANCH  12  23
ENDBRANCH   5   8
ENDBRANCH   3   4
ENDBRANCH   2   3
ENDBRANCH   1   2
BRANCH   1  32
ATOM     32  C   UNL A   1      33.003  32.679  27.546  1.00  0.00     0.116 C 
BRANCH  32  33
ATOM     33  N   UNL A   1      32.625  34.046  27.868  1.00  0.00    -0.352 N 
ATOM     34  C   UNL A   1      33.186  34.906  28.784  1.00  0.00     0.251 C 
ATOM     35  H   UNL A   1      31.862  34.407  27.362  1.00  0.00     0.163 HD
ATOM     36  O   UNL A   1      32.719  36.034  28.928  1.00  0.00    -0.269 OA
BRANCH  34  37
ATOM     37  C   UNL A   1      34.324  34.467  29.624  1.00  0.00     0.039 A 
ATOM     38  C   UNL A   1      34.050  33.906  30.874  1.00  0.00     0.014 A 
ATOM     39  C   UNL A   1      35.645  34.580  29.181  1.00  0.00     0.014 A 
ATOM     40  C   UNL A   1      35.090  33.373  31.640  1.00  0.00     0.010 A 
ATOM     41  C   UNL A   1      36.675  33.999  29.921  1.00  0.00     0.010 A 
ATOM     42  C   UNL A   1      36.406  33.372  31.148  1.00  0.00    -0.014 A 
BRANCH  42  43
ATOM     43  C   UNL A   1      37.492  32.662  31.871  1.00  0.00     0.031 A 
ATOM     44  C   UNL A   1      38.004  33.173  33.189  1.00  0.00     0.074 A 
ATOM     45  C   UNL A   1      38.075  31.592  31.294  1.00  0.00     0.049 A 
ATOM     46  N   UNL A   1      38.972  32.702  33.933  1.00  0.00    -0.248 NA
ATOM     47  C   UNL A   1      37.362  34.382  33.727  1.00  0.00     0.031 C 
ATOM     48  C   UNL A   1      37.710  31.030  29.992  1.00  0.00     0.029 A 
ATOM     49  N   UNL A   1      39.108  30.794  31.721  1.00  0.00    -0.354 N 
ATOM     50  C   UNL A   1      39.070  33.565  35.018  1.00  0.00     0.074 A 
ATOM     51  C   UNL A   1      38.085  34.607  34.816  1.00  0.00     0.031 C 
ATOM     52  C   UNL A   1      38.499  29.976  29.730  1.00  0.00     0.029 A 
ATOM     53  C   UNL A   1      39.445  29.804  30.828  1.00  0.00     0.049 A 
ATOM     54  H   UNL A   1      39.564  30.920  32.585  1.00  0.00     0.167 HD
ATOM     55  C   UNL A   1      39.896  33.490  36.090  1.00  0.00     0.031 A 
ATOM     56  C   UNL A   1      40.412  28.867  30.878  1.00  0.00     0.031 A 
ATOM     57  C   UNL A   1      40.873  32.452  36.291  1.00  0.00     0.049 A 
ATOM     58  C   UNL A   1      41.304  28.791  32.084  1.00  0.00     0.074 A 
ATOM     59  C   UNL A   1      41.704  32.252  37.380  1.00  0.00     0.029 A 
ATOM     60  N   UNL A   1      41.160  31.447  35.380  1.00  0.00    -0.354 N 
ATOM     61  N   UNL A   1      41.317  29.562  33.145  1.00  0.00    -0.248 NA
ATOM     62  C   UNL A   1      42.299  27.711  32.108  1.00  0.00     0.031 C 
ATOM     63  C   UNL A   1      42.528  31.154  37.106  1.00  0.00     0.029 A 
ATOM     64  C   UNL A   1      42.173  30.639  35.870  1.00  0.00     0.049 A 
ATOM     65  H   UNL A   1      40.710  31.325  34.513  1.00  0.00     0.167 HD
ATOM     66  C   UNL A   1      42.310  29.049  33.972  1.00  0.00     0.074 A 
ATOM     67  C   UNL A   1      42.863  27.892  33.295  1.00  0.00     0.031 C 
ATOM     68  C   UNL A   1      42.723  29.495  35.184  1.00  0.00     0.031 A 
BRANCH  55  69
ATOM     69  C   UNL A   1      39.787  34.581  37.123  1.00  0.00    -0.014 A 
ATOM     70  C   UNL A   1      38.922  34.454  38.226  1.00  0.00     0.010 A 
ATOM     71  C   UNL A   1      40.576  35.739  37.003  1.00  0.00     0.010 A 
ATOM     72  C   UNL A   1      38.808  35.490  39.158  1.00  0.00     0.020 A 
ATOM     73  C   UNL A   1      40.485  36.765  37.947  1.00  0.00     0.020 A 
ATOM     74  C   UNL A   1      39.583  36.642  39.006  1.00  0.00     0.054 A 
BRANCH  74  75
ATOM     75  S   UNL A   1      39.413  37.974  40.227  1.00  0.00     0.124 S 
ATOM     76  O   UNL A   1      39.402  37.229  41.482  1.00  0.00    -0.237 OA
ATOM     77  O   UNL A   1      40.606  38.784  39.989  1.00  0.00    -0.237 OA
ATOM     78  O   UNL A   1      38.150  38.614  39.869  1.00  0.00    -0.744 OA
ENDBRANCH  74  75
ENDBRANCH  55  69
BRANCH  56  79
ATOM     79  C   UNL A   1      40.569  27.917  29.744  1.00  0.00    -0.014 A 
ATOM     80  C   UNL A   1      39.740  26.788  29.636  1.00  0.00     0.010 A 
ATOM     81  C   UNL A   1      41.523  28.166  28.740  1.00  0.00     0.010 A 
ATOM     82  C   UNL A   1      39.864  25.922  28.546  1.00  0.00     0.020 A 
ATOM     83  C   UNL A   1      41.633  27.315  27.637  1.00  0.00     0.020 A 
ATOM     84  C   UNL A   1      40.806  26.195  27.549  1.00  0.00     0.054 A 
BRANCH  84  85
ATOM     85  S   UNL A   1      40.893  25.104  26.102  1.00  0.00     0.124 S 
ATOM     86  O   UNL A   1      41.390  26.008  25.070  1.00  0.00    -0.237 OA
ATOM     87  O   UNL A   1      41.828  24.070  26.540  1.00  0.00    -0.237 OA
ATOM     88  O   UNL A   1      39.514  24.653  25.932  1.00  0.00    -0.744 OA
ENDBRANCH  84  85
ENDBRANCH  56  79
BRANCH  68  89
ATOM     89  C   UNL A   1      43.815  28.721  35.871  1.00  0.00    -0.014 A 
ATOM     90  C   UNL A   1      43.521  27.622  36.695  1.00  0.00     0.010 A 
ATOM     91  C   UNL A   1      45.160  29.068  35.643  1.00  0.00     0.010 A 
ATOM     92  C   UNL A   1      44.551  26.898  37.304  1.00  0.00     0.020 A 
ATOM     93  C   UNL A   1      46.194  28.332  36.229  1.00  0.00     0.020 A 
ATOM     94  C   UNL A   1      45.882  27.258  37.066  1.00  0.00     0.054 A 
BRANCH  94  95
ATOM     95  S   UNL A   1      47.204  26.277  37.828  1.00  0.00     0.124 S 
ATOM     96  O   UNL A   1      46.592  24.954  37.909  1.00  0.00    -0.237 OA
ATOM     97  O   UNL A   1      48.296  26.406  36.865  1.00  0.00    -0.237 OA
ATOM     98  O   UNL A   1      47.431  26.939  39.110  1.00  0.00    -0.744 OA
ENDBRANCH  94  95
ENDBRANCH  68  89
ENDBRANCH  42  43
ENDBRANCH  34  37
ENDBRANCH  32  33
ENDBRANCH   1  32
TORSDOF 17
ENDMDL
MODEL 3
REMARK VINA RESULT:     -13.2      6.404     12.303
REMARK SMILES C[NH+]1CCC(C(=O)N2C[C@@H](C(=O)NCCCCNC(=O)c3ccc(-c4c5nc(c(-c6ccc(S(=O)(=O)[O-])cc6)c6ccc([nH]6)c(-c6ccc(S(=O)(=O)[O-])cc6)c6nc(c(-c7ccc(S(=O)(=O)[O-])cc7)c7ccc4[nH]7)C=C6)C=C5)cc3)[C@H](c3ccc4c(c3)OCO4)C2)CC1
REMARK SMILES IDX 16 1 15 2 14 3 13 4 11 5 12 6 10 8 8 9 9 10 91 11 81 12 6 13
REMARK SMILES IDX 7 14 5 15 1 16 2 17 3 18 93 19 4 21 92 22 82 23 83 24 87 25
REMARK SMILES IDX 84 26 86 27 85 28 88 29 90 30 89 31 17 32 18 33 19 34 20 36
REMARK SMILES IDX 21 37 22 38 80 39 23 40 79 41 24 42 25 43 26 44 73 45 27 46
REMARK SMILES IDX 78 47 72 48 74 49 28 50 77 51 71 52 70 53 29 55 59 56 40 57
REMARK SMILES IDX 58 58 41 59 44 60 57 61 75 62 42 63 43 64 56 66 76 67 45 68
REMARK SMILES IDX 30 69 31 70 39 71 32 72 38 73 33 74 34 75 35 76 36 77 37 78
REMARK SMILES IDX 60 79 61 80 69 81 62 82 68 83 63 84 64 85 65 86 66 87 67 88
REMARK SMILES IDX 46 89 47 90 55 91 48 92 54 93 49 94 50 95 51 96 52 97 53 98
REMARK H PARENT 13 7 2 20 18 35 74 54 44 65
REMARK Flexibility Score: inf
ROOT
ATOM      1  C   UNL A   1      34.338  29.078  27.250  1.00  0.00     0.023 C 
ENDROOT
BRANCH   1   2
ATOM      2  C   UNL A   1      33.069  29.927  27.127  1.00  0.00     0.023 C 
BRANCH   2   3
ATOM      3  C   UNL A   1      32.322  29.801  25.805  1.00  0.00     0.116 C 
BRANCH   3   4
ATOM      4  N   UNL A   1      33.198  29.736  24.647  1.00  0.00    -0.356 N 
ATOM      5  C   UNL A   1      33.341  28.743  23.719  1.00  0.00     0.225 C 
ATOM      6  O   UNL A   1      34.037  28.963  22.728  1.00  0.00    -0.275 OA
ATOM      7  H   UNL A   1      33.773  30.523  24.511  1.00  0.00     0.163 HD
BRANCH   5   8
ATOM      8  C   UNL A   1      32.657  27.411  23.929  1.00  0.00     0.107 C 
ATOM      9  N   UNL A   1      32.872  25.113  23.921  1.00  0.00    -0.341 N 
ATOM     10  C   UNL A   1      33.680  26.303  24.078  1.00  0.00     0.133 C 
ATOM     11  C   UNL A   1      31.861  25.363  22.894  1.00  0.00     0.128 C 
ATOM     12  C   UNL A   1      31.836  26.905  22.719  1.00  0.00     0.053 C 
BRANCH   9  13
ATOM     13  C   UNL A   1      32.945  23.895  24.547  1.00  0.00     0.226 C 
ATOM     14  O   UNL A   1      32.085  23.585  25.383  1.00  0.00    -0.275 OA
BRANCH  13  15
ATOM     15  C   UNL A   1      34.218  23.040  24.472  1.00  0.00     0.090 C 
ATOM     16  C   UNL A   1      38.124  21.440  25.295  1.00  0.00     0.332 C 
ATOM     17  N   UNL A   1      36.943  22.289  25.169  1.00  0.00    -0.337 N 
ATOM     18  C   UNL A   1      35.822  21.745  25.943  1.00  0.00     0.262 C 
ATOM     19  C   UNL A   1      36.569  22.470  23.758  1.00  0.00     0.262 C 
ATOM     20  H   UNL A   1      37.174  23.207  25.550  1.00  0.00     0.347 HD
ATOM     21  C   UNL A   1      34.638  22.705  25.911  1.00  0.00     0.075 C 
ATOM     22  C   UNL A   1      35.427  23.488  23.655  1.00  0.00     0.075 C 
ENDBRANCH  13  15
ENDBRANCH   9  13
BRANCH  12  23
ATOM     23  C   UNL A   1      30.493  27.607  22.669  1.00  0.00    -0.038 A 
ATOM     24  C   UNL A   1      29.340  27.098  23.312  1.00  0.00     0.008 A 
ATOM     25  C   UNL A   1      30.453  28.907  22.125  1.00  0.00     0.054 A 
ATOM     26  C   UNL A   1      28.188  27.881  23.457  1.00  0.00     0.051 A 
ATOM     27  C   UNL A   1      29.321  29.669  22.324  1.00  0.00     0.166 A 
ATOM     28  C   UNL A   1      28.224  29.173  22.982  1.00  0.00     0.165 A 
ATOM     29  O   UNL A   1      29.188  30.986  22.011  1.00  0.00    -0.454 OA
ATOM     30  O   UNL A   1      27.257  30.114  23.153  1.00  0.00    -0.454 OA
ATOM     31  C   UNL A   1      27.938  31.290  22.666  1.00  0.00     0.468 C 
ENDBRANCH  12  23
ENDBRANCH   5   8
ENDBRANCH   3   4
ENDBRANCH   2   3
ENDBRANCH   1   2
BRANCH   1  32
ATOM     32  C   UNL A   1      35.542  29.744  27.915  1.00  0.00     0.116 C 
BRANCH  32  33
ATOM     33  N   UNL A   1      35.417  29.890  29.356  1.00  0.00    -0.352 N 
ATOM     34  C   UNL A   1      36.407  29.950  30.310  1.00  0.00     0.251 C 
ATOM     35  H   UNL A   1      34.496  29.956  29.698  1.00  0.00     0.163 HD
ATOM     36  O   UNL A   1      36.105  30.065  31.496  1.00  0.00    -0.269 OA
BRANCH  34  37
ATOM     37  C   UNL A   1      37.830  29.836  29.919  1.00  0.00     0.039 A 
ATOM     38  C   UNL A   1      38.769  29.525  30.906  1.00  0.00     0.014 A 
ATOM     39  C   UNL A   1      38.238  30.008  28.593  1.00  0.00     0.014 A 
ATOM     40  C   UNL A   1      40.100  29.294  30.551  1.00  0.00     0.010 A 
ATOM     41  C   UNL A   1      39.556  29.723  28.232  1.00  0.00     0.010 A 
ATOM     42  C   UNL A   1      40.495  29.343  29.204  1.00  0.00    -0.014 A 
BRANCH  42  43
ATOM     43  C   UNL A   1      41.864  28.936  28.793  1.00  0.00     0.031 A 
ATOM     44  C   UNL A   1      42.971  29.946  28.691  1.00  0.00     0.074 A 
ATOM     45  C   UNL A   1      42.087  27.657  28.432  1.00  0.00     0.049 A 
ATOM     46  N   UNL A   1      44.211  29.772  28.308  1.00  0.00    -0.248 NA
ATOM     47  C   UNL A   1      42.638  31.336  29.041  1.00  0.00     0.031 C 
ATOM     48  C   UNL A   1      41.083  26.590  28.431  1.00  0.00     0.029 A 
ATOM     49  N   UNL A   1      43.227  27.038  27.982  1.00  0.00    -0.354 N 
ATOM     50  C   UNL A   1      44.802  31.029  28.352  1.00  0.00     0.074 A 
ATOM     51  C   UNL A   1      43.774  31.962  28.766  1.00  0.00     0.031 C 
ATOM     52  C   UNL A   1      41.652  25.450  28.010  1.00  0.00     0.029 A 
ATOM     53  C   UNL A   1      43.051  25.707  27.682  1.00  0.00     0.049 A 
ATOM     54  H   UNL A   1      44.090  27.503  27.882  1.00  0.00     0.167 HD
ATOM     55  C   UNL A   1      46.085  31.374  28.084  1.00  0.00     0.031 A 
ATOM     56  C   UNL A   1      43.911  24.795  27.190  1.00  0.00     0.031 A 
ATOM     57  C   UNL A   1      47.106  30.445  27.676  1.00  0.00     0.049 A 
ATOM     58  C   UNL A   1      45.333  25.194  26.918  1.00  0.00     0.074 A 
ATOM     59  C   UNL A   1      48.450  30.688  27.452  1.00  0.00     0.029 A 
ATOM     60  N   UNL A   1      46.896  29.098  27.417  1.00  0.00    -0.354 N 
ATOM     61  N   UNL A   1      45.896  26.370  27.055  1.00  0.00    -0.248 NA
ATOM     62  C   UNL A   1      46.240  24.142  26.439  1.00  0.00     0.031 C 
ATOM     63  C   UNL A   1      49.043  29.499  27.012  1.00  0.00     0.029 A 
ATOM     64  C   UNL A   1      48.079  28.504  27.011  1.00  0.00     0.049 A 
ATOM     65  H   UNL A   1      46.032  28.634  27.508  1.00  0.00     0.167 HD
ATOM     66  C   UNL A   1      47.228  26.196  26.698  1.00  0.00     0.074 A 
ATOM     67  C   UNL A   1      47.390  24.797  26.353  1.00  0.00     0.031 C 
ATOM     68  C   UNL A   1      48.227  27.112  26.662  1.00  0.00     0.031 A 
BRANCH  55  69
ATOM     69  C   UNL A   1      46.449  32.830  28.208  1.00  0.00    -0.014 A 
ATOM     70  C   UNL A   1      46.335  33.704  27.111  1.00  0.00     0.010 A 
ATOM     71  C   UNL A   1      46.891  33.337  29.443  1.00  0.00     0.010 A 
ATOM     72  C   UNL A   1      46.709  35.045  27.234  1.00  0.00     0.020 A 
ATOM     73  C   UNL A   1      47.240  34.684  29.577  1.00  0.00     0.020 A 
ATOM     74  C   UNL A   1      47.168  35.523  28.464  1.00  0.00     0.054 A 
BRANCH  74  75
ATOM     75  S   UNL A   1      47.652  37.267  28.596  1.00  0.00     0.124 S 
ATOM     76  O   UNL A   1      48.837  37.185  29.444  1.00  0.00    -0.237 OA
ATOM     77  O   UNL A   1      47.900  37.639  27.205  1.00  0.00    -0.237 OA
ATOM     78  O   UNL A   1      46.489  37.904  29.209  1.00  0.00    -0.744 OA
ENDBRANCH  74  75
ENDBRANCH  55  69
BRANCH  56  79
ATOM     79  C   UNL A   1      43.440  23.406  26.937  1.00  0.00    -0.014 A 
ATOM     80  C   UNL A   1      43.296  22.928  25.624  1.00  0.00     0.010 A 
ATOM     81  C   UNL A   1      43.177  22.541  28.015  1.00  0.00     0.010 A 
ATOM     82  C   UNL A   1      42.895  21.609  25.392  1.00  0.00     0.020 A 
ATOM     83  C   UNL A   1      42.799  21.215  27.788  1.00  0.00     0.020 A 
ATOM     84  C   UNL A   1      42.654  20.759  26.476  1.00  0.00     0.054 A 
BRANCH  84  85
ATOM     85  S   UNL A   1      42.215  19.028  26.153  1.00  0.00     0.124 S 
ATOM     86  O   UNL A   1      42.454  18.406  27.452  1.00  0.00    -0.237 OA
ATOM     87  O   UNL A   1      40.815  19.127  25.748  1.00  0.00    -0.237 OA
ATOM     88  O   UNL A   1      43.136  18.636  25.089  1.00  0.00    -0.744 OA
ENDBRANCH  84  85
ENDBRANCH  56  79
BRANCH  68  89
ATOM     89  C   UNL A   1      49.593  26.631  26.253  1.00  0.00    -0.014 A 
ATOM     90  C   UNL A   1      50.103  26.893  24.970  1.00  0.00     0.010 A 
ATOM     91  C   UNL A   1      50.399  25.955  27.187  1.00  0.00     0.010 A 
ATOM     92  C   UNL A   1      51.386  26.461  24.617  1.00  0.00     0.020 A 
ATOM     93  C   UNL A   1      51.691  25.544  26.847  1.00  0.00     0.020 A 
ATOM     94  C   UNL A   1      52.172  25.789  25.559  1.00  0.00     0.054 A 
BRANCH  94  95
ATOM     95  S   UNL A   1      53.850  25.280  25.096  1.00  0.00     0.124 S 
ATOM     96  O   UNL A   1      53.798  23.836  25.304  1.00  0.00    -0.237 OA
ATOM     97  O   UNL A   1      53.944  25.711  23.702  1.00  0.00    -0.237 OA
ATOM     98  O   UNL A   1      54.703  26.014  26.026  1.00  0.00    -0.744 OA
ENDBRANCH  94  95
ENDBRANCH  68  89
ENDBRANCH  42  43
ENDBRANCH  34  37
ENDBRANCH  32  33
ENDBRANCH   1  32
TORSDOF 17
ENDMDL
