MODEL 1
REMARK VINA RESULT:     -10.9      0.000      0.000
REMARK SMILES C[C@@H]1CCCN(C(=O)NC2(CC(=O)NCCCCNC(=O)c3ccc(-c4c5nc(c(-c6ccc(S(=O)(=O)[O-])cc6)c6ccc([nH]6)c(-c6ccc(S(=O)(=O)[O-])cc6)c6nc(c(-c7ccc(S(=O)(=O)[O-])cc7)c7ccc4[nH]7)C=C6)C=C5)cc3)CCC2)[C@@H]1C
REMARK SMILES IDX 16 1 15 2 14 3 12 4 13 5 11 7 10 8 82 9 84 10 83 11 9 12
REMARK SMILES IDX 7 13 8 14 6 16 1 17 2 18 3 19 85 20 4 21 86 22 5 23 17 24
REMARK SMILES IDX 18 25 19 26 20 27 21 29 22 30 23 31 81 32 24 33 80 34 25 35
REMARK SMILES IDX 26 36 27 37 74 38 28 39 79 40 73 41 75 42 29 43 78 44 72 45
REMARK SMILES IDX 71 46 30 48 60 49 41 50 59 51 42 52 45 53 58 54 76 55 43 56
REMARK SMILES IDX 44 57 57 59 77 60 46 61 31 62 32 63 40 64 33 65 39 66 34 67
REMARK SMILES IDX 35 68 36 69 37 70 38 71 61 72 62 73 70 74 63 75 69 76 64 77
REMARK SMILES IDX 65 78 66 79 67 80 68 81 47 82 48 83 56 84 49 85 55 86 50 87
REMARK SMILES IDX 51 88 52 89 53 90 54 91
REMARK H PARENT 14 6 9 15 19 28 75 47 45 58
REMARK Flexibility Score: inf
ROOT
ATOM      1  C   UNL A   1      38.507  22.332  25.714  1.00  0.00     0.023 C 
ENDROOT
BRANCH   1   2
ATOM      2  C   UNL A   1      36.998  22.467  25.475  1.00  0.00     0.116 C 
BRANCH   2   3
ATOM      3  N   UNL A   1      36.287  21.553  26.339  1.00  0.00    -0.356 N 
ATOM      4  C   UNL A   1      34.926  21.453  26.280  1.00  0.00     0.222 C 
ATOM      5  O   UNL A   1      34.274  21.681  27.288  1.00  0.00    -0.275 OA
ATOM      6  H   UNL A   1      36.789  20.997  26.977  1.00  0.00     0.163 HD
BRANCH   4   7
ATOM      7  C   UNL A   1      34.352  20.999  24.966  1.00  0.00     0.128 C 
BRANCH   7   8
ATOM      8  C   UNL A   1      32.904  20.550  25.015  1.00  0.00     0.051 C 
ATOM      9  C   UNL A   1      32.712  19.029  25.353  1.00  0.00     0.029 C 
ATOM     10  C   UNL A   1      32.411  20.153  23.569  1.00  0.00     0.029 C 
ATOM     11  C   UNL A   1      32.871  18.710  23.853  1.00  0.00     0.005 C 
BRANCH   8  12
ATOM     12  N   UNL A   1      31.889  21.374  25.719  1.00  0.00    -0.332 N 
ATOM     13  C   UNL A   1      31.361  22.616  25.786  1.00  0.00     0.318 C 
ATOM     14  O   UNL A   1      30.241  22.610  26.310  1.00  0.00    -0.249 OA
ATOM     15  H   UNL A   1      31.433  20.806  26.381  1.00  0.00     0.165 HD
BRANCH  13  16
ATOM     16  N   UNL A   1      31.972  23.767  25.382  1.00  0.00    -0.322 N 
ATOM     17  C   UNL A   1      33.700  23.742  22.714  1.00  0.00     0.010 C 
ATOM     18  C   UNL A   1      32.905  24.893  23.348  1.00  0.00     0.008 C 
ATOM     19  C   UNL A   1      33.778  25.773  24.262  1.00  0.00     0.007 C 
ATOM     20  C   UNL A   1      31.621  24.433  24.095  1.00  0.00     0.086 C 
ATOM     21  C   UNL A   1      33.986  25.178  25.655  1.00  0.00     0.022 C 
ATOM     22  C   UNL A   1      30.658  23.733  23.128  1.00  0.00     0.031 C 
ATOM     23  C   UNL A   1      32.681  24.672  26.274  1.00  0.00     0.121 C 
ENDBRANCH  13  16
ENDBRANCH   8  12
ENDBRANCH   7   8
ENDBRANCH   4   7
ENDBRANCH   2   3
ENDBRANCH   1   2
BRANCH   1  24
ATOM     24  C   UNL A   1      39.039  20.909  25.512  1.00  0.00     0.023 C 
BRANCH  24  25
ATOM     25  C   UNL A   1      39.948  20.425  26.631  1.00  0.00     0.116 C 
BRANCH  25  26
ATOM     26  N   UNL A   1      40.902  19.424  26.170  1.00  0.00    -0.352 N 
ATOM     27  C   UNL A   1      42.223  19.576  25.864  1.00  0.00     0.251 C 
ATOM     28  H   UNL A   1      40.543  18.513  26.066  1.00  0.00     0.163 HD
ATOM     29  O   UNL A   1      42.867  18.652  25.378  1.00  0.00    -0.269 OA
BRANCH  27  30
ATOM     30  C   UNL A   1      42.832  20.889  26.095  1.00  0.00     0.039 A 
ATOM     31  C   UNL A   1      43.034  21.730  25.002  1.00  0.00     0.014 A 
ATOM     32  C   UNL A   1      43.092  21.311  27.402  1.00  0.00     0.014 A 
ATOM     33  C   UNL A   1      43.461  23.032  25.227  1.00  0.00     0.010 A 
ATOM     34  C   UNL A   1      43.441  22.632  27.627  1.00  0.00     0.010 A 
ATOM     35  C   UNL A   1      43.638  23.497  26.541  1.00  0.00    -0.014 A 
BRANCH  35  36
ATOM     36  C   UNL A   1      44.056  24.891  26.798  1.00  0.00     0.031 A 
ATOM     37  C   UNL A   1      45.496  25.270  26.615  1.00  0.00     0.074 A 
ATOM     38  C   UNL A   1      43.149  25.782  27.240  1.00  0.00     0.049 A 
ATOM     39  N   UNL A   1      46.076  26.421  26.828  1.00  0.00    -0.248 NA
ATOM     40  C   UNL A   1      46.413  24.207  26.165  1.00  0.00     0.031 C 
ATOM     41  C   UNL A   1      41.733  25.499  27.497  1.00  0.00     0.029 A 
ATOM     42  N   UNL A   1      43.283  27.108  27.553  1.00  0.00    -0.354 N 
ATOM     43  C   UNL A   1      47.423  26.217  26.556  1.00  0.00     0.074 A 
ATOM     44  C   UNL A   1      47.585  24.822  26.218  1.00  0.00     0.031 C 
ATOM     45  C   UNL A   1      41.126  26.626  27.900  1.00  0.00     0.029 A 
ATOM     46  C   UNL A   1      42.111  27.699  27.961  1.00  0.00     0.049 A 
ATOM     47  H   UNL A   1      44.138  27.592  27.491  1.00  0.00     0.167 HD
ATOM     48  C   UNL A   1      48.429  27.121  26.566  1.00  0.00     0.031 A 
ATOM     49  C   UNL A   1      41.866  28.966  28.344  1.00  0.00     0.031 A 
ATOM     50  C   UNL A   1      48.246  28.510  26.882  1.00  0.00     0.049 A 
ATOM     51  C   UNL A   1      42.998  29.955  28.330  1.00  0.00     0.074 A 
ATOM     52  C   UNL A   1      49.183  29.527  26.862  1.00  0.00     0.029 A 
ATOM     53  N   UNL A   1      47.041  29.077  27.271  1.00  0.00    -0.354 N 
ATOM     54  N   UNL A   1      44.255  29.761  28.004  1.00  0.00    -0.248 NA
ATOM     55  C   UNL A   1      42.680  31.333  28.722  1.00  0.00     0.031 C 
ATOM     56  C   UNL A   1      48.551  30.703  27.283  1.00  0.00     0.029 A 
ATOM     57  C   UNL A   1      47.212  30.427  27.513  1.00  0.00     0.049 A 
ATOM     58  H   UNL A   1      46.190  28.590  27.360  1.00  0.00     0.167 HD
ATOM     59  C   UNL A   1      44.873  31.000  28.131  1.00  0.00     0.074 A 
ATOM     60  C   UNL A   1      43.847  31.936  28.546  1.00  0.00     0.031 C 
ATOM     61  C   UNL A   1      46.171  31.334  27.927  1.00  0.00     0.031 A 
BRANCH  48  62
ATOM     62  C   UNL A   1      49.808  26.626  26.223  1.00  0.00    -0.014 A 
ATOM     63  C   UNL A   1      50.559  25.874  27.145  1.00  0.00     0.010 A 
ATOM     64  C   UNL A   1      50.351  26.893  24.954  1.00  0.00     0.010 A 
ATOM     65  C   UNL A   1      51.843  25.432  26.820  1.00  0.00     0.020 A 
ATOM     66  C   UNL A   1      51.625  26.429  24.614  1.00  0.00     0.020 A 
ATOM     67  C   UNL A   1      52.369  25.715  25.556  1.00  0.00     0.054 A 
BRANCH  67  68
ATOM     68  S   UNL A   1      54.028  25.105  25.150  1.00  0.00     0.124 S 
ATOM     69  O   UNL A   1      53.793  23.670  25.002  1.00  0.00    -0.237 OA
ATOM     70  O   UNL A   1      54.340  25.820  23.915  1.00  0.00    -0.237 OA
ATOM     71  O   UNL A   1      54.831  25.488  26.308  1.00  0.00    -0.744 OA
ENDBRANCH  67  68
ENDBRANCH  48  62
BRANCH  49  72
ATOM     72  C   UNL A   1      40.492  29.371  28.746  1.00  0.00    -0.014 A 
ATOM     73  C   UNL A   1      40.201  29.678  30.086  1.00  0.00     0.010 A 
ATOM     74  C   UNL A   1      39.469  29.470  27.785  1.00  0.00     0.010 A 
ATOM     75  C   UNL A   1      38.908  30.054  30.463  1.00  0.00     0.020 A 
ATOM     76  C   UNL A   1      38.181  29.869  28.153  1.00  0.00     0.020 A 
ATOM     77  C   UNL A   1      37.906  30.147  29.494  1.00  0.00     0.054 A 
BRANCH  77  78
ATOM     78  S   UNL A   1      36.246  30.678  29.999  1.00  0.00     0.124 S 
ATOM     79  O   UNL A   1      35.496  30.557  28.753  1.00  0.00    -0.237 OA
ATOM     80  O   UNL A   1      35.907  29.710  31.039  1.00  0.00    -0.237 OA
ATOM     81  O   UNL A   1      36.455  32.044  30.475  1.00  0.00    -0.744 OA
ENDBRANCH  77  78
ENDBRANCH  49  72
BRANCH  61  82
ATOM     82  C   UNL A   1      46.546  32.776  28.124  1.00  0.00    -0.014 A 
ATOM     83  C   UNL A   1      47.012  33.240  29.367  1.00  0.00     0.010 A 
ATOM     84  C   UNL A   1      46.487  33.663  27.035  1.00  0.00     0.010 A 
ATOM     85  C   UNL A   1      47.382  34.576  29.524  1.00  0.00     0.020 A 
ATOM     86  C   UNL A   1      46.882  34.993  27.181  1.00  0.00     0.020 A 
ATOM     87  C   UNL A   1      47.314  35.445  28.430  1.00  0.00     0.054 A 
BRANCH  87  88
ATOM     88  S   UNL A   1      47.845  37.165  28.648  1.00  0.00     0.124 S 
ATOM     89  O   UNL A   1      49.282  37.016  28.849  1.00  0.00    -0.237 OA
ATOM     90  O   UNL A   1      47.447  37.786  27.387  1.00  0.00    -0.237 OA
ATOM     91  O   UNL A   1      47.094  37.612  29.819  1.00  0.00    -0.744 OA
ENDBRANCH  87  88
ENDBRANCH  61  82
ENDBRANCH  35  36
ENDBRANCH  27  30
ENDBRANCH  25  26
ENDBRANCH  24  25
ENDBRANCH   1  24
TORSDOF 17
ENDMDL
MODEL 2
REMARK VINA RESULT:     -10.6      2.719      8.987
REMARK SMILES C[C@@H]1CCCN(C(=O)NC2(CC(=O)NCCCCNC(=O)c3ccc(-c4c5nc(c(-c6ccc(S(=O)(=O)[O-])cc6)c6ccc([nH]6)c(-c6ccc(S(=O)(=O)[O-])cc6)c6nc(c(-c7ccc(S(=O)(=O)[O-])cc7)c7ccc4[nH]7)C=C6)C=C5)cc3)CCC2)[C@@H]1C
REMARK SMILES IDX 16 1 15 2 14 3 12 4 13 5 11 7 10 8 82 9 84 10 83 11 9 12
REMARK SMILES IDX 7 13 8 14 6 16 1 17 2 18 3 19 85 20 4 21 86 22 5 23 17 24
REMARK SMILES IDX 18 25 19 26 20 27 21 29 22 30 23 31 81 32 24 33 80 34 25 35
REMARK SMILES IDX 26 36 27 37 74 38 28 39 79 40 73 41 75 42 29 43 78 44 72 45
REMARK SMILES IDX 71 46 30 48 60 49 41 50 59 51 42 52 45 53 58 54 76 55 43 56
REMARK SMILES IDX 44 57 57 59 77 60 46 61 31 62 32 63 40 64 33 65 39 66 34 67
REMARK SMILES IDX 35 68 36 69 37 70 38 71 61 72 62 73 70 74 63 75 69 76 64 77
REMARK SMILES IDX 65 78 66 79 67 80 68 81 47 82 48 83 56 84 49 85 55 86 50 87
REMARK SMILES IDX 51 88 52 89 53 90 54 91
REMARK H PARENT 14 6 9 15 19 28 75 47 45 58
REMARK Flexibility Score: inf
ROOT
ATOM      1  C   UNL A   1      34.616  28.926  26.827  1.00  0.00     0.023 C 
ENDROOT
BRANCH   1   2
ATOM      2  C   UNL A   1      33.328  29.745  26.683  1.00  0.00     0.116 C 
BRANCH   2   3
ATOM      3  N   UNL A   1      33.204  30.220  25.325  1.00  0.00    -0.356 N 
ATOM      4  C   UNL A   1      32.870  29.365  24.314  1.00  0.00     0.222 C 
ATOM      5  O   UNL A   1      33.638  29.238  23.371  1.00  0.00    -0.275 OA
ATOM      6  H   UNL A   1      33.364  31.171  25.126  1.00  0.00     0.163 HD
BRANCH   4   7
ATOM      7  C   UNL A   1      31.529  28.694  24.430  1.00  0.00     0.128 C 
BRANCH   7   8
ATOM      8  C   UNL A   1      30.949  28.181  23.125  1.00  0.00     0.051 C 
ATOM      9  C   UNL A   1      30.247  29.284  22.256  1.00  0.00     0.029 C 
ATOM     10  C   UNL A   1      29.490  27.629  23.363  1.00  0.00     0.029 C 
ATOM     11  C   UNL A   1      28.950  29.038  23.052  1.00  0.00     0.005 C 
BRANCH   8  12
ATOM     12  N   UNL A   1      31.737  27.262  22.266  1.00  0.00    -0.332 N 
ATOM     13  C   UNL A   1      32.326  26.046  22.239  1.00  0.00     0.318 C 
ATOM     14  O   UNL A   1      32.508  25.652  21.080  1.00  0.00    -0.249 OA
ATOM     15  H   UNL A   1      31.886  27.699  21.397  1.00  0.00     0.165 HD
BRANCH  13  16
ATOM     16  N   UNL A   1      32.728  25.327  23.326  1.00  0.00    -0.322 N 
ATOM     17  C   UNL A   1      30.994  25.456  25.987  1.00  0.00     0.010 C 
ATOM     18  C   UNL A   1      31.863  24.310  25.446  1.00  0.00     0.008 C 
ATOM     19  C   UNL A   1      33.292  24.339  26.017  1.00  0.00     0.007 C 
ATOM     20  C   UNL A   1      31.896  24.227  23.893  1.00  0.00     0.086 C 
ATOM     21  C   UNL A   1      34.206  25.340  25.310  1.00  0.00     0.022 C 
ATOM     22  C   UNL A   1      30.486  23.992  23.337  1.00  0.00     0.031 C 
ATOM     23  C   UNL A   1      34.107  25.244  23.785  1.00  0.00     0.121 C 
ENDBRANCH  13  16
ENDBRANCH   8  12
ENDBRANCH   7   8
ENDBRANCH   4   7
ENDBRANCH   2   3
ENDBRANCH   1   2
BRANCH   1  24
ATOM     24  C   UNL A   1      35.357  29.167  28.146  1.00  0.00     0.023 C 
BRANCH  24  25
ATOM     25  C   UNL A   1      35.612  30.635  28.451  1.00  0.00     0.116 C 
BRANCH  25  26
ATOM     26  N   UNL A   1      35.469  30.934  29.871  1.00  0.00    -0.352 N 
ATOM     27  C   UNL A   1      36.422  30.926  30.847  1.00  0.00     0.251 C 
ATOM     28  H   UNL A   1      34.560  31.176  30.164  1.00  0.00     0.163 HD
ATOM     29  O   UNL A   1      36.118  31.093  32.024  1.00  0.00    -0.269 OA
BRANCH  27  30
ATOM     30  C   UNL A   1      37.809  30.670  30.449  1.00  0.00     0.039 A 
ATOM     31  C   UNL A   1      38.634  29.971  31.327  1.00  0.00     0.014 A 
ATOM     32  C   UNL A   1      38.238  31.029  29.167  1.00  0.00     0.014 A 
ATOM     33  C   UNL A   1      39.898  29.586  30.898  1.00  0.00     0.010 A 
ATOM     34  C   UNL A   1      39.466  30.574  28.716  1.00  0.00     0.010 A 
ATOM     35  C   UNL A   1      40.307  29.859  29.582  1.00  0.00    -0.014 A 
BRANCH  35  36
ATOM     36  C   UNL A   1      41.633  29.423  29.099  1.00  0.00     0.031 A 
ATOM     37  C   UNL A   1      42.753  30.419  29.029  1.00  0.00     0.074 A 
ATOM     38  C   UNL A   1      41.799  28.154  28.680  1.00  0.00     0.049 A 
ATOM     39  N   UNL A   1      43.974  30.253  28.597  1.00  0.00    -0.248 NA
ATOM     40  C   UNL A   1      42.453  31.791  29.475  1.00  0.00     0.031 C 
ATOM     41  C   UNL A   1      40.758  27.122  28.661  1.00  0.00     0.029 A 
ATOM     42  N   UNL A   1      42.907  27.516  28.191  1.00  0.00    -0.354 N 
ATOM     43  C   UNL A   1      44.580  31.499  28.701  1.00  0.00     0.074 A 
ATOM     44  C   UNL A   1      43.580  32.423  29.183  1.00  0.00     0.031 C 
ATOM     45  C   UNL A   1      41.287  25.973  28.211  1.00  0.00     0.029 A 
ATOM     46  C   UNL A   1      42.689  26.194  27.880  1.00  0.00     0.049 A 
ATOM     47  H   UNL A   1      43.777  27.961  28.071  1.00  0.00     0.167 HD
ATOM     48  C   UNL A   1      45.863  31.834  28.439  1.00  0.00     0.031 A 
ATOM     49  C   UNL A   1      43.531  25.270  27.381  1.00  0.00     0.031 A 
ATOM     50  C   UNL A   1      46.852  30.898  27.982  1.00  0.00     0.049 A 
ATOM     51  C   UNL A   1      44.958  25.664  27.114  1.00  0.00     0.074 A 
ATOM     52  C   UNL A   1      48.197  31.114  27.744  1.00  0.00     0.029 A 
ATOM     53  N   UNL A   1      46.600  29.563  27.698  1.00  0.00    -0.354 N 
ATOM     54  N   UNL A   1      45.533  26.833  27.283  1.00  0.00    -0.248 NA
ATOM     55  C   UNL A   1      45.850  24.618  26.603  1.00  0.00     0.031 C 
ATOM     56  C   UNL A   1      48.750  29.917  27.274  1.00  0.00     0.029 A 
ATOM     57  C   UNL A   1      47.761  28.946  27.269  1.00  0.00     0.049 A 
ATOM     58  H   UNL A   1      45.726  29.121  27.789  1.00  0.00     0.167 HD
ATOM     59  C   UNL A   1      46.862  26.655  26.918  1.00  0.00     0.074 A 
ATOM     60  C   UNL A   1      47.006  25.263  26.538  1.00  0.00     0.031 C 
ATOM     61  C   UNL A   1      47.873  27.558  26.896  1.00  0.00     0.031 A 
BRANCH  48  62
ATOM     62  C   UNL A   1      46.260  33.271  28.643  1.00  0.00    -0.014 A 
ATOM     63  C   UNL A   1      46.154  34.209  27.600  1.00  0.00     0.010 A 
ATOM     64  C   UNL A   1      46.720  33.697  29.902  1.00  0.00     0.010 A 
ATOM     65  C   UNL A   1      46.538  35.537  27.799  1.00  0.00     0.020 A 
ATOM     66  C   UNL A   1      47.080  35.031  30.113  1.00  0.00     0.020 A 
ATOM     67  C   UNL A   1      47.001  35.939  29.056  1.00  0.00     0.054 A 
BRANCH  67  68
ATOM     68  S   UNL A   1      47.465  37.675  29.294  1.00  0.00     0.124 S 
ATOM     69  O   UNL A   1      46.394  38.158  30.162  1.00  0.00    -0.237 OA
ATOM     70  O   UNL A   1      48.781  37.573  29.920  1.00  0.00    -0.237 OA
ATOM     71  O   UNL A   1      47.465  38.224  27.940  1.00  0.00    -0.744 OA
ENDBRANCH  67  68
ENDBRANCH  48  62
BRANCH  49  72
ATOM     72  C   UNL A   1      43.053  23.884  27.129  1.00  0.00    -0.014 A 
ATOM     73  C   UNL A   1      42.670  23.486  25.837  1.00  0.00     0.010 A 
ATOM     74  C   UNL A   1      42.996  22.949  28.178  1.00  0.00     0.010 A 
ATOM     75  C   UNL A   1      42.216  22.184  25.602  1.00  0.00     0.020 A 
ATOM     76  C   UNL A   1      42.566  21.639  27.942  1.00  0.00     0.020 A 
ATOM     77  C   UNL A   1      42.167  21.269  26.656  1.00  0.00     0.054 A 
BRANCH  77  78
ATOM     78  S   UNL A   1      41.615  19.573  26.319  1.00  0.00     0.124 S 
ATOM     79  O   UNL A   1      40.191  19.763  26.061  1.00  0.00    -0.237 OA
ATOM     80  O   UNL A   1      42.425  19.201  25.162  1.00  0.00    -0.237 OA
ATOM     81  O   UNL A   1      41.939  18.859  27.553  1.00  0.00    -0.744 OA
ENDBRANCH  77  78
ENDBRANCH  49  72
BRANCH  61  82
ATOM     82  C   UNL A   1      49.227  27.062  26.471  1.00  0.00    -0.014 A 
ATOM     83  C   UNL A   1      50.092  26.443  27.389  1.00  0.00     0.010 A 
ATOM     84  C   UNL A   1      49.609  27.165  25.122  1.00  0.00     0.010 A 
ATOM     85  C   UNL A   1      51.334  25.963  26.970  1.00  0.00     0.020 A 
ATOM     86  C   UNL A   1      50.839  26.662  24.694  1.00  0.00     0.020 A 
ATOM     87  C   UNL A   1      51.700  26.076  25.625  1.00  0.00     0.054 A 
BRANCH  87  88
ATOM     88  S   UNL A   1      53.299  25.404  25.096  1.00  0.00     0.124 S 
ATOM     89  O   UNL A   1      54.235  26.167  25.916  1.00  0.00    -0.237 OA
ATOM     90  O   UNL A   1      53.179  23.987  25.430  1.00  0.00    -0.237 OA
ATOM     91  O   UNL A   1      53.341  25.698  23.664  1.00  0.00    -0.744 OA
ENDBRANCH  87  88
ENDBRANCH  61  82
ENDBRANCH  35  36
ENDBRANCH  27  30
ENDBRANCH  25  26
ENDBRANCH  24  25
ENDBRANCH   1  24
TORSDOF 17
ENDMDL
MODEL 3
REMARK VINA RESULT:     -10.6      6.219      8.503
REMARK SMILES C[C@@H]1CCCN(C(=O)NC2(CC(=O)NCCCCNC(=O)c3ccc(-c4c5nc(c(-c6ccc(S(=O)(=O)[O-])cc6)c6ccc([nH]6)c(-c6ccc(S(=O)(=O)[O-])cc6)c6nc(c(-c7ccc(S(=O)(=O)[O-])cc7)c7ccc4[nH]7)C=C6)C=C5)cc3)CCC2)[C@@H]1C
REMARK SMILES IDX 16 1 15 2 14 3 12 4 13 5 11 7 10 8 82 9 84 10 83 11 9 12
REMARK SMILES IDX 7 13 8 14 6 16 1 17 2 18 3 19 85 20 4 21 86 22 5 23 17 24
REMARK SMILES IDX 18 25 19 26 20 27 21 29 22 30 23 31 81 32 24 33 80 34 25 35
REMARK SMILES IDX 26 36 27 37 74 38 28 39 79 40 73 41 75 42 29 43 78 44 72 45
REMARK SMILES IDX 71 46 30 48 60 49 41 50 59 51 42 52 45 53 58 54 76 55 43 56
REMARK SMILES IDX 44 57 57 59 77 60 46 61 31 62 32 63 40 64 33 65 39 66 34 67
REMARK SMILES IDX 35 68 36 69 37 70 38 71 61 72 62 73 70 74 63 75 69 76 64 77
REMARK SMILES IDX 65 78 66 79 67 80 68 81 47 82 48 83 56 84 49 85 55 86 50 87
REMARK SMILES IDX 51 88 52 89 53 90 54 91
REMARK H PARENT 14 6 9 15 19 28 75 47 45 58
REMARK Flexibility Score: inf
ROOT
ATOM      1  C   UNL A   1      37.168  23.128  25.415  1.00  0.00     0.023 C 
ENDROOT
BRANCH   1   2
ATOM      2  C   UNL A   1      36.891  21.805  24.691  1.00  0.00     0.116 C 
BRANCH   2   3
ATOM      3  N   UNL A   1      36.060  20.963  25.520  1.00  0.00    -0.356 N 
ATOM      4  C   UNL A   1      34.772  21.318  25.806  1.00  0.00     0.222 C 
ATOM      5  O   UNL A   1      34.445  21.456  26.976  1.00  0.00    -0.275 OA
ATOM      6  H   UNL A   1      36.427  20.125  25.884  1.00  0.00     0.163 HD
BRANCH   4   7
ATOM      7  C   UNL A   1      33.844  21.446  24.630  1.00  0.00     0.128 C 
BRANCH   7   8
ATOM      8  C   UNL A   1      33.106  22.767  24.530  1.00  0.00     0.051 C 
ATOM      9  C   UNL A   1      32.077  22.842  23.346  1.00  0.00     0.029 C 
ATOM     10  C   UNL A   1      33.952  23.796  23.684  1.00  0.00     0.029 C 
ATOM     11  C   UNL A   1      33.226  23.292  22.421  1.00  0.00     0.005 C 
BRANCH   8  12
ATOM     12  N   UNL A   1      32.548  23.406  25.748  1.00  0.00    -0.332 N 
ATOM     13  C   UNL A   1      32.004  24.551  26.216  1.00  0.00     0.318 C 
ATOM     14  O   UNL A   1      31.353  24.359  27.251  1.00  0.00    -0.249 OA
ATOM     15  H   UNL A   1      32.589  22.757  26.486  1.00  0.00     0.165 HD
BRANCH  13  16
ATOM     16  N   UNL A   1      32.165  25.793  25.675  1.00  0.00    -0.322 N 
ATOM     17  C   UNL A   1      31.339  26.272  22.644  1.00  0.00     0.010 C 
ATOM     18  C   UNL A   1      31.330  27.258  23.822  1.00  0.00     0.008 C 
ATOM     19  C   UNL A   1      32.632  28.075  23.911  1.00  0.00     0.007 C 
ATOM     20  C   UNL A   1      31.004  26.596  25.191  1.00  0.00     0.086 C 
ATOM     21  C   UNL A   1      33.778  27.316  24.581  1.00  0.00     0.022 C 
ATOM     22  C   UNL A   1      29.611  25.955  25.161  1.00  0.00     0.031 C 
ATOM     23  C   UNL A   1      33.342  26.624  25.875  1.00  0.00     0.121 C 
ENDBRANCH  13  16
ENDBRANCH   8  12
ENDBRANCH   7   8
ENDBRANCH   4   7
ENDBRANCH   2   3
ENDBRANCH   1   2
BRANCH   1  24
ATOM     24  C   UNL A   1      38.406  23.091  26.317  1.00  0.00     0.023 C 
BRANCH  24  25
ATOM     25  C   UNL A   1      38.991  24.463  26.618  1.00  0.00     0.116 C 
BRANCH  25  26
ATOM     26  N   UNL A   1      40.108  24.788  25.740  1.00  0.00    -0.352 N 
ATOM     27  C   UNL A   1      41.067  25.748  25.893  1.00  0.00     0.251 C 
ATOM     28  H   UNL A   1      40.181  24.240  24.926  1.00  0.00     0.163 HD
ATOM     29  O   UNL A   1      41.880  25.971  25.003  1.00  0.00    -0.269 OA
BRANCH  27  30
ATOM     30  C   UNL A   1      41.063  26.526  27.135  1.00  0.00     0.039 A 
ATOM     31  C   UNL A   1      41.813  27.700  27.186  1.00  0.00     0.014 A 
ATOM     32  C   UNL A   1      40.232  26.141  28.191  1.00  0.00     0.014 A 
ATOM     33  C   UNL A   1      41.693  28.526  28.296  1.00  0.00     0.010 A 
ATOM     34  C   UNL A   1      40.055  27.006  29.259  1.00  0.00     0.010 A 
ATOM     35  C   UNL A   1      40.792  28.197  29.322  1.00  0.00    -0.014 A 
BRANCH  35  36
ATOM     36  C   UNL A   1      40.626  29.084  30.492  1.00  0.00     0.031 A 
ATOM     37  C   UNL A   1      41.509  28.892  31.690  1.00  0.00     0.074 A 
ATOM     38  C   UNL A   1      39.652  30.014  30.483  1.00  0.00     0.049 A 
ATOM     39  N   UNL A   1      41.498  29.531  32.829  1.00  0.00    -0.248 NA
ATOM     40  C   UNL A   1      42.516  27.819  31.610  1.00  0.00     0.031 C 
ATOM     41  C   UNL A   1      38.708  30.246  29.385  1.00  0.00     0.029 A 
ATOM     42  N   UNL A   1      39.294  30.938  31.428  1.00  0.00    -0.354 N 
ATOM     43  C   UNL A   1      42.480  28.928  33.605  1.00  0.00     0.074 A 
ATOM     44  C   UNL A   1      43.028  27.838  32.832  1.00  0.00     0.031 C 
ATOM     45  C   UNL A   1      37.899  31.267  29.711  1.00  0.00     0.029 A 
ATOM     46  C   UNL A   1      38.243  31.738  31.047  1.00  0.00     0.049 A 
ATOM     47  H   UNL A   1      39.746  31.020  32.299  1.00  0.00     0.167 HD
ATOM     48  C   UNL A   1      42.900  29.270  34.844  1.00  0.00     0.031 A 
ATOM     49  C   UNL A   1      37.629  32.737  31.707  1.00  0.00     0.031 A 
ATOM     50  C   UNL A   1      42.360  30.371  35.591  1.00  0.00     0.049 A 
ATOM     51  C   UNL A   1      38.127  33.108  33.077  1.00  0.00     0.074 A 
ATOM     52  C   UNL A   1      42.752  30.847  36.829  1.00  0.00     0.029 A 
ATOM     53  N   UNL A   1      41.311  31.172  35.164  1.00  0.00    -0.354 N 
ATOM     54  N   UNL A   1      39.104  32.570  33.770  1.00  0.00    -0.248 NA
ATOM     55  C   UNL A   1      37.451  34.225  33.747  1.00  0.00     0.031 C 
ATOM     56  C   UNL A   1      41.909  31.910  37.170  1.00  0.00     0.029 A 
ATOM     57  C   UNL A   1      41.028  32.129  36.122  1.00  0.00     0.049 A 
ATOM     58  H   UNL A   1      40.838  31.075  34.306  1.00  0.00     0.167 HD
ATOM     59  C   UNL A   1      39.173  33.299  34.952  1.00  0.00     0.074 A 
ATOM     60  C   UNL A   1      38.152  34.325  34.869  1.00  0.00     0.031 C 
ATOM     61  C   UNL A   1      40.004  33.136  36.011  1.00  0.00     0.031 A 
BRANCH  48  62
ATOM     62  C   UNL A   1      43.996  28.441  35.458  1.00  0.00    -0.014 A 
ATOM     63  C   UNL A   1      45.350  28.767  35.261  1.00  0.00     0.010 A 
ATOM     64  C   UNL A   1      43.669  27.336  36.264  1.00  0.00     0.010 A 
ATOM     65  C   UNL A   1      46.357  27.982  35.825  1.00  0.00     0.020 A 
ATOM     66  C   UNL A   1      44.674  26.564  36.853  1.00  0.00     0.020 A 
ATOM     67  C   UNL A   1      46.012  26.883  36.617  1.00  0.00     0.054 A 
BRANCH  67  68
ATOM     68  S   UNL A   1      47.340  25.897  37.360  1.00  0.00     0.124 S 
ATOM     69  O   UNL A   1      48.531  26.496  36.761  1.00  0.00    -0.237 OA
ATOM     70  O   UNL A   1      47.164  26.146  38.789  1.00  0.00    -0.237 OA
ATOM     71  O   UNL A   1      47.044  24.534  36.927  1.00  0.00    -0.744 OA
ENDBRANCH  67  68
ENDBRANCH  48  62
BRANCH  49  72
ATOM     72  C   UNL A   1      36.499  33.467  31.073  1.00  0.00    -0.014 A 
ATOM     73  C   UNL A   1      36.612  33.955  29.760  1.00  0.00     0.010 A 
ATOM     74  C   UNL A   1      35.295  33.662  31.773  1.00  0.00     0.010 A 
ATOM     75  C   UNL A   1      35.551  34.646  29.166  1.00  0.00     0.020 A 
ATOM     76  C   UNL A   1      34.222  34.330  31.174  1.00  0.00     0.020 A 
ATOM     77  C   UNL A   1      34.363  34.829  29.878  1.00  0.00     0.054 A 
BRANCH  77  78
ATOM     78  S   UNL A   1      32.984  35.691  29.072  1.00  0.00     0.124 S 
ATOM     79  O   UNL A   1      32.432  34.646  28.215  1.00  0.00    -0.237 OA
ATOM     80  O   UNL A   1      32.151  36.086  30.206  1.00  0.00    -0.237 OA
ATOM     81  O   UNL A   1      33.635  36.797  28.373  1.00  0.00    -0.744 OA
ENDBRANCH  77  78
ENDBRANCH  49  72
BRANCH  61  82
ATOM     82  C   UNL A   1      39.857  34.104  37.152  1.00  0.00    -0.014 A 
ATOM     83  C   UNL A   1      40.599  35.297  37.190  1.00  0.00     0.010 A 
ATOM     84  C   UNL A   1      38.921  33.840  38.167  1.00  0.00     0.010 A 
ATOM     85  C   UNL A   1      40.429  36.197  38.242  1.00  0.00     0.020 A 
ATOM     86  C   UNL A   1      38.729  34.751  39.207  1.00  0.00     0.020 A 
ATOM     87  C   UNL A   1      39.495  35.918  39.246  1.00  0.00     0.054 A 
BRANCH  87  88
ATOM     88  S   UNL A   1      39.259  37.124  40.579  1.00  0.00     0.124 S 
ATOM     89  O   UNL A   1      38.506  38.177  39.905  1.00  0.00    -0.237 OA
ATOM     90  O   UNL A   1      38.516  36.359  41.577  1.00  0.00    -0.237 OA
ATOM     91  O   UNL A   1      40.623  37.482  40.965  1.00  0.00    -0.744 OA
ENDBRANCH  87  88
ENDBRANCH  61  82
ENDBRANCH  35  36
ENDBRANCH  27  30
ENDBRANCH  25  26
ENDBRANCH  24  25
ENDBRANCH   1  24
TORSDOF 17
ENDMDL
