MODEL 1
REMARK VINA RESULT:     -11.1      0.000      0.000
REMARK SMILES Cc1ccc(OC2(C(=O)NCCCCNC(=O)c3ccc(-c4c5nc(c(-c6ccc(S(=O)(=O)[O-])cc6)c6ccc([nH]6)c(-c6ccc(S(=O)(=O)[O-])cc6)c6nc(c(-c7ccc(S(=O)(=O)[O-])cc7)c7ccc4[nH]7)C=C6)C=C5)cc3)CC[NH+](C[C@@H]3CC=CCC3)CC2)cn1
REMARK SMILES IDX 13 1 12 2 11 3 10 4 8 5 9 6 7 8 78 9 89 10 79 11 88 12 80 13
REMARK SMILES IDX 6 15 5 16 1 17 2 18 3 19 91 20 4 21 90 22 81 23 82 24 83 25
REMARK SMILES IDX 87 26 84 27 86 28 85 29 14 30 15 31 16 32 17 34 18 35 19 36
REMARK SMILES IDX 77 37 20 38 76 39 21 40 22 41 23 42 70 43 24 44 75 45 69 46
REMARK SMILES IDX 71 47 25 48 74 49 68 50 67 51 26 53 56 54 37 55 55 56 38 57
REMARK SMILES IDX 41 58 54 59 72 60 39 61 40 62 53 64 73 65 42 66 27 67 28 68
REMARK SMILES IDX 36 69 29 70 35 71 30 72 31 73 32 74 33 75 34 76 57 77 58 78
REMARK SMILES IDX 66 79 59 80 65 81 60 82 61 83 62 84 63 85 64 86 43 87 44 88
REMARK SMILES IDX 52 89 45 90 51 91 46 92 47 93 48 94 49 95 50 96
REMARK H PARENT 10 7 80 14 15 33 71 52 41 63
REMARK Flexibility Score: inf
ROOT
ATOM      1  C   UNL A   1      32.203  28.050  26.635  1.00  0.00     0.023 C 
ENDROOT
BRANCH   1   2
ATOM      2  C   UNL A   1      32.429  26.930  25.645  1.00  0.00     0.023 C 
BRANCH   2   3
ATOM      3  C   UNL A   1      31.321  25.871  25.448  1.00  0.00     0.116 C 
BRANCH   3   4
ATOM      4  N   UNL A   1      31.287  24.778  26.424  1.00  0.00    -0.353 N 
ATOM      5  C   UNL A   1      31.884  23.540  26.491  1.00  0.00     0.264 C 
ATOM      6  O   UNL A   1      31.898  23.023  27.617  1.00  0.00    -0.270 OA
ATOM      7  H   UNL A   1      30.713  24.972  27.200  1.00  0.00     0.163 HD
BRANCH   5   8
ATOM      8  C   UNL A   1      32.506  22.777  25.261  1.00  0.00     0.197 C 
ATOM      9  C   UNL A   1      32.924  21.401  25.695  1.00  0.00     0.120 C 
ATOM     10  C   UNL A   1      31.454  22.583  24.136  1.00  0.00     0.120 C 
ATOM     11  C   UNL A   1      33.396  20.471  24.625  1.00  0.00     0.267 C 
ATOM     12  C   UNL A   1      31.914  21.547  23.069  1.00  0.00     0.267 C 
ATOM     13  N   UNL A   1      32.312  20.274  23.685  1.00  0.00    -0.334 N 
ATOM     14  H   UNL A   1      31.477  19.975  24.190  1.00  0.00     0.348 HD
BRANCH   8  15
ATOM     15  O   UNL A   1      33.539  23.585  24.652  1.00  0.00    -0.475 OA
BRANCH  15  16
ATOM     16  C   UNL A   1      34.856  23.637  24.988  1.00  0.00     0.139 A 
ATOM     17  C   UNL A   1      38.944  22.792  25.940  1.00  0.00     0.066 C 
ATOM     18  C   UNL A   1      37.527  23.131  25.592  1.00  0.00     0.038 A 
ATOM     19  C   UNL A   1      36.752  23.855  26.480  1.00  0.00     0.027 A 
ATOM     20  N   UNL A   1      37.043  22.705  24.405  1.00  0.00    -0.258 NA
ATOM     21  C   UNL A   1      35.415  24.106  26.167  1.00  0.00     0.050 A 
ATOM     22  C   UNL A   1      35.731  22.965  24.138  1.00  0.00     0.157 A 
ENDBRANCH  15  16
ENDBRANCH   8  15
BRANCH  13  23
ATOM     23  C   UNL A   1      32.524  19.126  22.793  1.00  0.00     0.266 C 
BRANCH  23  24
ATOM     24  C   UNL A   1      32.696  17.672  23.339  1.00  0.00     0.048 C 
ATOM     25  C   UNL A   1      32.096  17.419  24.755  1.00  0.00     0.036 C 
ATOM     26  C   UNL A   1      34.136  17.163  23.150  1.00  0.00     0.014 C 
ATOM     27  C   UNL A   1      33.033  16.821  25.767  1.00  0.00    -0.031 C 
ATOM     28  C   UNL A   1      34.448  15.910  23.960  1.00  0.00     0.027 C 
ATOM     29  C   UNL A   1      34.108  16.110  25.402  1.00  0.00    -0.031 C 
ENDBRANCH  23  24
ENDBRANCH  13  23
ENDBRANCH   5   8
ENDBRANCH   3   4
ENDBRANCH   2   3
ENDBRANCH   1   2
BRANCH   1  30
ATOM     30  C   UNL A   1      33.455  28.583  27.281  1.00  0.00     0.116 C 
BRANCH  30  31
ATOM     31  N   UNL A   1      33.386  29.983  27.679  1.00  0.00    -0.352 N 
ATOM     32  C   UNL A   1      34.409  30.747  28.195  1.00  0.00     0.251 C 
ATOM     33  H   UNL A   1      32.517  30.430  27.566  1.00  0.00     0.163 HD
ATOM     34  O   UNL A   1      34.217  31.905  28.547  1.00  0.00    -0.269 OA
BRANCH  32  35
ATOM     35  C   UNL A   1      35.726  30.103  28.372  1.00  0.00     0.039 A 
ATOM     36  C   UNL A   1      36.644  30.141  27.322  1.00  0.00     0.014 A 
ATOM     37  C   UNL A   1      36.091  29.607  29.626  1.00  0.00     0.014 A 
ATOM     38  C   UNL A   1      37.961  29.749  27.560  1.00  0.00     0.010 A 
ATOM     39  C   UNL A   1      37.424  29.342  29.890  1.00  0.00     0.010 A 
ATOM     40  C   UNL A   1      38.370  29.391  28.855  1.00  0.00    -0.014 A 
BRANCH  40  41
ATOM     41  C   UNL A   1      39.773  29.021  29.150  1.00  0.00     0.031 A 
ATOM     42  C   UNL A   1      40.680  30.032  29.800  1.00  0.00     0.074 A 
ATOM     43  C   UNL A   1      40.245  27.815  28.778  1.00  0.00     0.049 A 
ATOM     44  N   UNL A   1      41.949  29.928  30.098  1.00  0.00    -0.248 NA
ATOM     45  C   UNL A   1      40.095  31.346  30.121  1.00  0.00     0.031 C 
ATOM     46  C   UNL A   1      39.478  26.779  28.079  1.00  0.00     0.029 A 
ATOM     47  N   UNL A   1      41.487  27.256  28.935  1.00  0.00    -0.354 N 
ATOM     48  C   UNL A   1      42.314  31.166  30.615  1.00  0.00     0.074 A 
ATOM     49  C   UNL A   1      41.156  32.025  30.527  1.00  0.00     0.031 C 
ATOM     50  C   UNL A   1      40.256  25.697  27.906  1.00  0.00     0.029 A 
ATOM     51  C   UNL A   1      41.582  25.973  28.449  1.00  0.00     0.049 A 
ATOM     52  H   UNL A   1      42.241  27.729  29.356  1.00  0.00     0.167 HD
ATOM     53  C   UNL A   1      43.497  31.545  31.148  1.00  0.00     0.031 A 
ATOM     54  C   UNL A   1      42.620  25.115  28.450  1.00  0.00     0.031 A 
ATOM     55  C   UNL A   1      44.634  30.675  31.265  1.00  0.00     0.049 A 
ATOM     56  C   UNL A   1      43.916  25.546  29.079  1.00  0.00     0.074 A 
ATOM     57  C   UNL A   1      45.860  30.934  31.850  1.00  0.00     0.029 A 
ATOM     58  N   UNL A   1      44.678  29.371  30.793  1.00  0.00    -0.354 N 
ATOM     59  N   UNL A   1      44.220  26.696  29.632  1.00  0.00    -0.248 NA
ATOM     60  C   UNL A   1      45.003  24.558  29.101  1.00  0.00     0.031 C 
ATOM     61  C   UNL A   1      46.661  29.797  31.696  1.00  0.00     0.029 A 
ATOM     62  C   UNL A   1      45.916  28.816  31.060  1.00  0.00     0.049 A 
ATOM     63  H   UNL A   1      43.938  28.911  30.335  1.00  0.00     0.167 HD
ATOM     64  C   UNL A   1      45.526  26.563  30.090  1.00  0.00     0.074 A 
ATOM     65  C   UNL A   1      45.946  25.214  29.764  1.00  0.00     0.031 C 
ATOM     66  C   UNL A   1      46.308  27.470  30.724  1.00  0.00     0.031 A 
BRANCH  53  67
ATOM     67  C   UNL A   1      43.608  32.960  31.650  1.00  0.00    -0.014 A 
ATOM     68  C   UNL A   1      44.061  33.994  30.808  1.00  0.00     0.010 A 
ATOM     69  C   UNL A   1      43.244  33.264  32.974  1.00  0.00     0.010 A 
ATOM     70  C   UNL A   1      44.193  35.296  31.295  1.00  0.00     0.020 A 
ATOM     71  C   UNL A   1      43.346  34.573  33.455  1.00  0.00     0.020 A 
ATOM     72  C   UNL A   1      43.839  35.576  32.618  1.00  0.00     0.054 A 
BRANCH  72  73
ATOM     73  S   UNL A   1      44.003  37.280  33.219  1.00  0.00     0.124 S 
ATOM     74  O   UNL A   1      43.949  38.043  31.975  1.00  0.00    -0.237 OA
ATOM     75  O   UNL A   1      42.843  37.424  34.095  1.00  0.00    -0.237 OA
ATOM     76  O   UNL A   1      45.296  37.285  33.897  1.00  0.00    -0.744 OA
ENDBRANCH  72  73
ENDBRANCH  53  67
BRANCH  54  77
ATOM     77  C   UNL A   1      42.462  23.753  27.872  1.00  0.00    -0.014 A 
ATOM     78  C   UNL A   1      41.973  22.696  28.660  1.00  0.00     0.010 A 
ATOM     79  C   UNL A   1      42.784  23.508  26.524  1.00  0.00     0.010 A 
ATOM     80  C   UNL A   1      41.827  21.415  28.119  1.00  0.00     0.020 A 
ATOM     81  C   UNL A   1      42.614  22.234  25.972  1.00  0.00     0.020 A 
ATOM     82  C   UNL A   1      42.147  21.193  26.777  1.00  0.00     0.054 A 
BRANCH  82  83
ATOM     83  S   UNL A   1      41.900  19.535  26.081  1.00  0.00     0.124 S 
ATOM     84  O   UNL A   1      42.394  18.678  27.153  1.00  0.00    -0.237 OA
ATOM     85  O   UNL A   1      40.457  19.499  25.855  1.00  0.00    -0.237 OA
ATOM     86  O   UNL A   1      42.710  19.552  24.865  1.00  0.00    -0.744 OA
ENDBRANCH  82  83
ENDBRANCH  54  77
BRANCH  66  87
ATOM     87  C   UNL A   1      47.685  27.026  31.134  1.00  0.00    -0.014 A 
ATOM     88  C   UNL A   1      48.759  27.058  30.228  1.00  0.00     0.010 A 
ATOM     89  C   UNL A   1      47.915  26.622  32.462  1.00  0.00     0.010 A 
ATOM     90  C   UNL A   1      50.035  26.660  30.635  1.00  0.00     0.020 A 
ATOM     91  C   UNL A   1      49.194  26.250  32.879  1.00  0.00     0.020 A 
ATOM     92  C   UNL A   1      50.243  26.256  31.958  1.00  0.00     0.054 A 
BRANCH  92  93
ATOM     93  S   UNL A   1      51.915  25.779  32.472  1.00  0.00     0.124 S 
ATOM     94  O   UNL A   1      52.351  26.957  33.216  1.00  0.00    -0.237 OA
ATOM     95  O   UNL A   1      51.677  24.582  33.274  1.00  0.00    -0.237 OA
ATOM     96  O   UNL A   1      52.612  25.546  31.208  1.00  0.00    -0.744 OA
ENDBRANCH  92  93
ENDBRANCH  66  87
ENDBRANCH  40  41
ENDBRANCH  32  35
ENDBRANCH  30  31
ENDBRANCH   1  30
TORSDOF 18
ENDMDL
MODEL 2
REMARK VINA RESULT:     -11.1      4.117     10.251
REMARK SMILES Cc1ccc(OC2(C(=O)NCCCCNC(=O)c3ccc(-c4c5nc(c(-c6ccc(S(=O)(=O)[O-])cc6)c6ccc([nH]6)c(-c6ccc(S(=O)(=O)[O-])cc6)c6nc(c(-c7ccc(S(=O)(=O)[O-])cc7)c7ccc4[nH]7)C=C6)C=C5)cc3)CC[NH+](C[C@@H]3CC=CCC3)CC2)cn1
REMARK SMILES IDX 13 1 12 2 11 3 10 4 8 5 9 6 7 8 78 9 89 10 79 11 88 12 80 13
REMARK SMILES IDX 6 15 5 16 1 17 2 18 3 19 91 20 4 21 90 22 81 23 82 24 83 25
REMARK SMILES IDX 87 26 84 27 86 28 85 29 14 30 15 31 16 32 17 34 18 35 19 36
REMARK SMILES IDX 77 37 20 38 76 39 21 40 22 41 23 42 70 43 24 44 75 45 69 46
REMARK SMILES IDX 71 47 25 48 74 49 68 50 67 51 26 53 56 54 37 55 55 56 38 57
REMARK SMILES IDX 41 58 54 59 72 60 39 61 40 62 53 64 73 65 42 66 27 67 28 68
REMARK SMILES IDX 36 69 29 70 35 71 30 72 31 73 32 74 33 75 34 76 57 77 58 78
REMARK SMILES IDX 66 79 59 80 65 81 60 82 61 83 62 84 63 85 64 86 43 87 44 88
REMARK SMILES IDX 52 89 45 90 51 91 46 92 47 93 48 94 49 95 50 96
REMARK H PARENT 10 7 80 14 15 33 71 52 41 63
REMARK Flexibility Score: inf
ROOT
ATOM      1  C   UNL A   1      40.076  22.158  27.098  1.00  0.00     0.023 C 
ENDROOT
BRANCH   1   2
ATOM      2  C   UNL A   1      38.887  22.699  26.337  1.00  0.00     0.023 C 
BRANCH   2   3
ATOM      3  C   UNL A   1      37.870  21.705  25.735  1.00  0.00     0.116 C 
BRANCH   3   4
ATOM      4  N   UNL A   1      37.370  22.019  24.393  1.00  0.00    -0.353 N 
ATOM      5  C   UNL A   1      36.214  22.593  23.915  1.00  0.00     0.264 C 
ATOM      6  O   UNL A   1      36.277  23.010  22.750  1.00  0.00    -0.270 OA
ATOM      7  H   UNL A   1      37.998  21.766  23.679  1.00  0.00     0.163 HD
BRANCH   5   8
ATOM      8  C   UNL A   1      34.874  22.724  24.733  1.00  0.00     0.197 C 
ATOM      9  C   UNL A   1      34.864  24.041  25.454  1.00  0.00     0.120 C 
ATOM     10  C   UNL A   1      33.643  22.730  23.788  1.00  0.00     0.120 C 
ATOM     11  C   UNL A   1      33.602  24.413  26.161  1.00  0.00     0.267 C 
ATOM     12  C   UNL A   1      32.347  23.201  24.509  1.00  0.00     0.267 C 
ATOM     13  N   UNL A   1      32.539  24.493  25.181  1.00  0.00    -0.334 N 
ATOM     14  H   UNL A   1      32.822  25.121  24.428  1.00  0.00     0.348 HD
BRANCH   8  15
ATOM     15  O   UNL A   1      34.687  21.552  25.560  1.00  0.00    -0.475 OA
BRANCH  15  16
ATOM     16  C   UNL A   1      34.294  20.313  25.163  1.00  0.00     0.139 A 
ATOM     17  C   UNL A   1      32.837  16.295  24.894  1.00  0.00     0.066 C 
ATOM     18  C   UNL A   1      33.334  17.707  24.942  1.00  0.00     0.038 A 
ATOM     19  C   UNL A   1      34.600  18.010  24.471  1.00  0.00     0.027 A 
ATOM     20  N   UNL A   1      32.520  18.653  25.459  1.00  0.00    -0.258 NA
ATOM     21  C   UNL A   1      35.071  19.319  24.584  1.00  0.00     0.050 A 
ATOM     22  C   UNL A   1      33.018  19.918  25.557  1.00  0.00     0.157 A 
ENDBRANCH  15  16
ENDBRANCH   8  15
BRANCH  13  23
ATOM     23  C   UNL A   1      31.341  25.181  25.684  1.00  0.00     0.266 C 
BRANCH  23  24
ATOM     24  C   UNL A   1      31.125  26.717  25.490  1.00  0.00     0.048 C 
ATOM     25  C   UNL A   1      31.422  27.255  24.058  1.00  0.00     0.036 C 
ATOM     26  C   UNL A   1      31.771  27.527  26.629  1.00  0.00     0.014 C 
ATOM     27  C   UNL A   1      32.380  28.410  23.978  1.00  0.00    -0.031 C 
ATOM     28  C   UNL A   1      31.892  29.015  26.322  1.00  0.00     0.027 C 
ATOM     29  C   UNL A   1      32.584  29.234  25.014  1.00  0.00    -0.031 C 
ENDBRANCH  23  24
ENDBRANCH  13  23
ENDBRANCH   5   8
ENDBRANCH   3   4
ENDBRANCH   2   3
ENDBRANCH   1   2
BRANCH   1  30
ATOM     30  C   UNL A   1      41.230  23.117  27.230  1.00  0.00     0.116 C 
BRANCH  30  31
ATOM     31  N   UNL A   1      41.460  23.958  26.063  1.00  0.00    -0.352 N 
ATOM     32  C   UNL A   1      41.611  25.326  26.046  1.00  0.00     0.251 C 
ATOM     33  H   UNL A   1      41.513  23.499  25.194  1.00  0.00     0.163 HD
ATOM     34  O   UNL A   1      41.745  25.934  24.991  1.00  0.00    -0.269 OA
BRANCH  32  35
ATOM     35  C   UNL A   1      41.539  26.041  27.336  1.00  0.00     0.039 A 
ATOM     36  C   UNL A   1      42.556  26.934  27.673  1.00  0.00     0.014 A 
ATOM     37  C   UNL A   1      40.390  25.935  28.124  1.00  0.00     0.014 A 
ATOM     38  C   UNL A   1      42.380  27.781  28.766  1.00  0.00     0.010 A 
ATOM     39  C   UNL A   1      40.164  26.862  29.127  1.00  0.00     0.010 A 
ATOM     40  C   UNL A   1      41.165  27.782  29.472  1.00  0.00    -0.014 A 
BRANCH  40  41
ATOM     41  C   UNL A   1      40.928  28.708  30.603  1.00  0.00     0.031 A 
ATOM     42  C   UNL A   1      41.768  28.583  31.846  1.00  0.00     0.074 A 
ATOM     43  C   UNL A   1      39.925  29.605  30.540  1.00  0.00     0.049 A 
ATOM     44  N   UNL A   1      41.692  29.258  32.963  1.00  0.00    -0.248 NA
ATOM     45  C   UNL A   1      42.805  27.535  31.849  1.00  0.00     0.031 C 
ATOM     46  C   UNL A   1      39.000  29.773  29.415  1.00  0.00     0.029 A 
ATOM     47  N   UNL A   1      39.515  30.549  31.447  1.00  0.00    -0.354 N 
ATOM     48  C   UNL A   1      42.649  28.700  33.802  1.00  0.00     0.074 A 
ATOM     49  C   UNL A   1      43.245  27.590  33.096  1.00  0.00     0.031 C 
ATOM     50  C   UNL A   1      38.159  30.786  29.683  1.00  0.00     0.029 A 
ATOM     51  C   UNL A   1      38.461  31.317  31.008  1.00  0.00     0.049 A 
ATOM     52  H   UNL A   1      39.935  30.666  32.330  1.00  0.00     0.167 HD
ATOM     53  C   UNL A   1      43.024  29.096  35.040  1.00  0.00     0.031 A 
ATOM     54  C   UNL A   1      37.819  32.338  31.606  1.00  0.00     0.031 A 
ATOM     55  C   UNL A   1      42.453  30.223  35.723  1.00  0.00     0.049 A 
ATOM     56  C   UNL A   1      38.276  32.785  32.967  1.00  0.00     0.074 A 
ATOM     57  C   UNL A   1      42.804  30.756  36.950  1.00  0.00     0.029 A 
ATOM     58  N   UNL A   1      41.412  30.997  35.230  1.00  0.00    -0.354 N 
ATOM     59  N   UNL A   1      39.234  32.293  33.716  1.00  0.00    -0.248 NA
ATOM     60  C   UNL A   1      37.578  33.935  33.557  1.00  0.00     0.031 C 
ATOM     61  C   UNL A   1      41.947  31.829  37.217  1.00  0.00     0.029 A 
ATOM     62  C   UNL A   1      41.098  31.995  36.134  1.00  0.00     0.049 A 
ATOM     63  H   UNL A   1      40.963  30.855  34.365  1.00  0.00     0.167 HD
ATOM     64  C   UNL A   1      39.271  33.089  34.856  1.00  0.00     0.074 A 
ATOM     65  C   UNL A   1      38.250  34.104  34.687  1.00  0.00     0.031 C 
ATOM     66  C   UNL A   1      40.076  32.992  35.942  1.00  0.00     0.031 A 
BRANCH  53  67
ATOM     67  C   UNL A   1      44.110  28.306  35.720  1.00  0.00    -0.014 A 
ATOM     68  C   UNL A   1      45.468  28.550  35.439  1.00  0.00     0.010 A 
ATOM     69  C   UNL A   1      43.772  27.317  36.660  1.00  0.00     0.010 A 
ATOM     70  C   UNL A   1      46.465  27.786  36.050  1.00  0.00     0.020 A 
ATOM     71  C   UNL A   1      44.769  26.571  37.296  1.00  0.00     0.020 A 
ATOM     72  C   UNL A   1      46.108  26.798  36.972  1.00  0.00     0.054 A 
BRANCH  72  73
ATOM     73  S   UNL A   1      47.424  25.834  37.764  1.00  0.00     0.124 S 
ATOM     74  O   UNL A   1      48.618  26.359  37.107  1.00  0.00    -0.237 OA
ATOM     75  O   UNL A   1      47.277  26.188  39.174  1.00  0.00    -0.237 OA
ATOM     76  O   UNL A   1      47.088  24.452  37.434  1.00  0.00    -0.744 OA
ENDBRANCH  72  73
ENDBRANCH  53  67
BRANCH  54  77
ATOM     77  C   UNL A   1      36.705  33.031  30.904  1.00  0.00    -0.014 A 
ATOM     78  C   UNL A   1      35.369  32.780  31.265  1.00  0.00     0.010 A 
ATOM     79  C   UNL A   1      36.973  33.959  29.880  1.00  0.00     0.010 A 
ATOM     80  C   UNL A   1      34.321  33.428  30.604  1.00  0.00     0.020 A 
ATOM     81  C   UNL A   1      35.928  34.628  29.234  1.00  0.00     0.020 A 
ATOM     82  C   UNL A   1      34.608  34.350  29.594  1.00  0.00     0.054 A 
BRANCH  82  83
ATOM     83  S   UNL A   1      33.235  35.219  28.785  1.00  0.00     0.124 S 
ATOM     84  O   UNL A   1      32.608  34.148  28.018  1.00  0.00    -0.237 OA
ATOM     85  O   UNL A   1      32.464  35.719  29.921  1.00  0.00    -0.237 OA
ATOM     86  O   UNL A   1      33.903  36.251  27.995  1.00  0.00    -0.744 OA
ENDBRANCH  82  83
ENDBRANCH  54  77
BRANCH  66  87
ATOM     87  C   UNL A   1      39.906  34.028  37.019  1.00  0.00    -0.014 A 
ATOM     88  C   UNL A   1      40.400  35.333  36.857  1.00  0.00     0.010 A 
ATOM     89  C   UNL A   1      39.194  33.700  38.188  1.00  0.00     0.010 A 
ATOM     90  C   UNL A   1      40.215  36.286  37.862  1.00  0.00     0.020 A 
ATOM     91  C   UNL A   1      38.984  34.658  39.182  1.00  0.00     0.020 A 
ATOM     92  C   UNL A   1      39.510  35.940  39.019  1.00  0.00     0.054 A 
BRANCH  92  93
ATOM     93  S   UNL A   1      39.250  37.204  40.293  1.00  0.00     0.124 S 
ATOM     94  O   UNL A   1      40.619  37.523  40.688  1.00  0.00    -0.237 OA
ATOM     95  O   UNL A   1      38.545  38.256  39.564  1.00  0.00    -0.237 OA
ATOM     96  O   UNL A   1      38.452  36.516  41.305  1.00  0.00    -0.744 OA
ENDBRANCH  92  93
ENDBRANCH  66  87
ENDBRANCH  40  41
ENDBRANCH  32  35
ENDBRANCH  30  31
ENDBRANCH   1  30
TORSDOF 18
ENDMDL
MODEL 3
REMARK VINA RESULT:     -10.9      3.535      5.286
REMARK SMILES Cc1ccc(OC2(C(=O)NCCCCNC(=O)c3ccc(-c4c5nc(c(-c6ccc(S(=O)(=O)[O-])cc6)c6ccc([nH]6)c(-c6ccc(S(=O)(=O)[O-])cc6)c6nc(c(-c7ccc(S(=O)(=O)[O-])cc7)c7ccc4[nH]7)C=C6)C=C5)cc3)CC[NH+](C[C@@H]3CC=CCC3)CC2)cn1
REMARK SMILES IDX 13 1 12 2 11 3 10 4 8 5 9 6 7 8 78 9 89 10 79 11 88 12 80 13
REMARK SMILES IDX 6 15 5 16 1 17 2 18 3 19 91 20 4 21 90 22 81 23 82 24 83 25
REMARK SMILES IDX 87 26 84 27 86 28 85 29 14 30 15 31 16 32 17 34 18 35 19 36
REMARK SMILES IDX 77 37 20 38 76 39 21 40 22 41 23 42 70 43 24 44 75 45 69 46
REMARK SMILES IDX 71 47 25 48 74 49 68 50 67 51 26 53 56 54 37 55 55 56 38 57
REMARK SMILES IDX 41 58 54 59 72 60 39 61 40 62 53 64 73 65 42 66 27 67 28 68
REMARK SMILES IDX 36 69 29 70 35 71 30 72 31 73 32 74 33 75 34 76 57 77 58 78
REMARK SMILES IDX 66 79 59 80 65 81 60 82 61 83 62 84 63 85 64 86 43 87 44 88
REMARK SMILES IDX 52 89 45 90 51 91 46 92 47 93 48 94 49 95 50 96
REMARK H PARENT 10 7 80 14 15 33 71 52 41 63
REMARK Flexibility Score: inf
ROOT
ATOM      1  C   UNL A   1      34.853  29.435  27.097  1.00  0.00     0.023 C 
ENDROOT
BRANCH   1   2
ATOM      2  C   UNL A   1      33.425  29.879  27.319  1.00  0.00     0.023 C 
BRANCH   2   3
ATOM      3  C   UNL A   1      32.522  30.132  26.093  1.00  0.00     0.116 C 
BRANCH   3   4
ATOM      4  N   UNL A   1      33.100  29.816  24.783  1.00  0.00    -0.353 N 
ATOM      5  C   UNL A   1      32.747  28.961  23.765  1.00  0.00     0.264 C 
ATOM      6  O   UNL A   1      33.273  29.201  22.670  1.00  0.00    -0.270 OA
ATOM      7  H   UNL A   1      33.919  30.328  24.590  1.00  0.00     0.163 HD
BRANCH   5   8
ATOM      8  C   UNL A   1      31.765  27.739  23.921  1.00  0.00     0.197 C 
ATOM      9  C   UNL A   1      31.896  26.845  22.721  1.00  0.00     0.120 C 
ATOM     10  C   UNL A   1      32.140  26.877  25.155  1.00  0.00     0.120 C 
ATOM     11  C   UNL A   1      31.153  25.550  22.761  1.00  0.00     0.267 C 
ATOM     12  C   UNL A   1      31.429  25.492  25.147  1.00  0.00     0.267 C 
ATOM     13  N   UNL A   1      31.647  24.778  23.882  1.00  0.00    -0.334 N 
ATOM     14  H   UNL A   1      32.663  24.700  23.816  1.00  0.00     0.348 HD
BRANCH   8  15
ATOM     15  O   UNL A   1      30.429  28.215  24.208  1.00  0.00    -0.475 OA
BRANCH  15  16
ATOM     16  C   UNL A   1      29.743  29.195  23.560  1.00  0.00     0.139 A 
ATOM     17  C   UNL A   1      28.186  32.024  20.748  1.00  0.00     0.066 C 
ATOM     18  C   UNL A   1      28.688  31.035  21.755  1.00  0.00     0.038 A 
ATOM     19  C   UNL A   1      29.156  31.474  22.981  1.00  0.00     0.027 A 
ATOM     20  N   UNL A   1      28.675  29.725  21.423  1.00  0.00    -0.258 NA
ATOM     21  C   UNL A   1      29.680  30.543  23.880  1.00  0.00     0.050 A 
ATOM     22  C   UNL A   1      29.199  28.849  22.326  1.00  0.00     0.157 A 
ENDBRANCH  15  16
ENDBRANCH   8  15
BRANCH  13  23
ATOM     23  C   UNL A   1      31.254  23.362  23.825  1.00  0.00     0.266 C 
BRANCH  23  24
ATOM     24  C   UNL A   1      32.301  22.207  23.928  1.00  0.00     0.048 C 
ATOM     25  C   UNL A   1      32.310  21.209  22.732  1.00  0.00     0.036 C 
ATOM     26  C   UNL A   1      32.280  21.547  25.317  1.00  0.00     0.014 C 
ATOM     27  C   UNL A   1      32.182  19.755  23.091  1.00  0.00    -0.031 C 
ATOM     28  C   UNL A   1      33.020  20.215  25.367  1.00  0.00     0.027 C 
ATOM     29  C   UNL A   1      32.526  19.292  24.299  1.00  0.00    -0.031 C 
ENDBRANCH  23  24
ENDBRANCH  13  23
ENDBRANCH   5   8
ENDBRANCH   3   4
ENDBRANCH   2   3
ENDBRANCH   1   2
BRANCH   1  30
ATOM     30  C   UNL A   1      35.871  30.123  27.969  1.00  0.00     0.116 C 
BRANCH  30  31
ATOM     31  N   UNL A   1      35.611  30.026  29.399  1.00  0.00    -0.352 N 
ATOM     32  C   UNL A   1      36.543  29.856  30.398  1.00  0.00     0.251 C 
ATOM     33  H   UNL A   1      34.671  30.089  29.681  1.00  0.00     0.163 HD
ATOM     34  O   UNL A   1      36.200  29.733  31.568  1.00  0.00    -0.269 OA
BRANCH  32  35
ATOM     35  C   UNL A   1      37.963  29.762  30.005  1.00  0.00     0.039 A 
ATOM     36  C   UNL A   1      38.912  29.427  30.971  1.00  0.00     0.014 A 
ATOM     37  C   UNL A   1      38.316  29.854  28.656  1.00  0.00     0.014 A 
ATOM     38  C   UNL A   1      40.207  29.106  30.566  1.00  0.00     0.010 A 
ATOM     39  C   UNL A   1      39.562  29.412  28.247  1.00  0.00     0.010 A 
ATOM     40  C   UNL A   1      40.528  29.052  29.198  1.00  0.00    -0.014 A 
BRANCH  40  41
ATOM     41  C   UNL A   1      41.879  28.663  28.735  1.00  0.00     0.031 A 
ATOM     42  C   UNL A   1      42.965  29.704  28.671  1.00  0.00     0.074 A 
ATOM     43  C   UNL A   1      42.110  27.404  28.314  1.00  0.00     0.049 A 
ATOM     44  N   UNL A   1      44.197  29.584  28.252  1.00  0.00    -0.248 NA
ATOM     45  C   UNL A   1      42.607  31.069  29.097  1.00  0.00     0.031 C 
ATOM     46  C   UNL A   1      41.118  26.325  28.265  1.00  0.00     0.029 A 
ATOM     47  N   UNL A   1      43.258  26.817  27.845  1.00  0.00    -0.354 N 
ATOM     48  C   UNL A   1      44.747  30.857  28.340  1.00  0.00     0.074 A 
ATOM     49  C   UNL A   1      43.701  31.746  28.787  1.00  0.00     0.031 C 
ATOM     50  C   UNL A   1      41.710  25.200  27.832  1.00  0.00     0.029 A 
ATOM     51  C   UNL A   1      43.112  25.483  27.540  1.00  0.00     0.049 A 
ATOM     52  H   UNL A   1      44.106  27.304  27.736  1.00  0.00     0.167 HD
ATOM     53  C   UNL A   1      46.021  31.248  28.105  1.00  0.00     0.031 A 
ATOM     54  C   UNL A   1      44.011  24.590  27.086  1.00  0.00     0.031 A 
ATOM     55  C   UNL A   1      47.066  30.351  27.696  1.00  0.00     0.049 A 
ATOM     56  C   UNL A   1      45.430  25.038  26.865  1.00  0.00     0.074 A 
ATOM     57  C   UNL A   1      48.406  30.626  27.496  1.00  0.00     0.029 A 
ATOM     58  N   UNL A   1      46.886  29.001  27.433  1.00  0.00    -0.354 N 
ATOM     59  N   UNL A   1      45.951  26.231  27.027  1.00  0.00    -0.248 NA
ATOM     60  C   UNL A   1      46.385  24.016  26.417  1.00  0.00     0.031 C 
ATOM     61  C   UNL A   1      49.031  29.447  27.072  1.00  0.00     0.029 A 
ATOM     62  C   UNL A   1      48.089  28.430  27.058  1.00  0.00     0.049 A 
ATOM     63  H   UNL A   1      46.029  28.521  27.502  1.00  0.00     0.167 HD
ATOM     64  C   UNL A   1      47.302  26.098  26.724  1.00  0.00     0.074 A 
ATOM     65  C   UNL A   1      47.518  24.705  26.387  1.00  0.00     0.031 C 
ATOM     66  C   UNL A   1      48.276  27.041  26.726  1.00  0.00     0.031 A 
BRANCH  53  67
ATOM     67  C   UNL A   1      46.344  32.705  28.297  1.00  0.00    -0.014 A 
ATOM     68  C   UNL A   1      46.781  33.192  29.543  1.00  0.00     0.010 A 
ATOM     69  C   UNL A   1      46.223  33.597  27.217  1.00  0.00     0.010 A 
ATOM     70  C   UNL A   1      47.044  34.553  29.719  1.00  0.00     0.020 A 
ATOM     71  C   UNL A   1      46.516  34.955  27.381  1.00  0.00     0.020 A 
ATOM     72  C   UNL A   1      46.905  35.426  28.637  1.00  0.00     0.054 A 
BRANCH  72  73
ATOM     73  S   UNL A   1      47.272  37.185  28.887  1.00  0.00     0.124 S 
ATOM     74  O   UNL A   1      46.550  37.468  30.125  1.00  0.00    -0.237 OA
ATOM     75  O   UNL A   1      48.729  37.197  28.993  1.00  0.00    -0.237 OA
ATOM     76  O   UNL A   1      46.732  37.825  27.691  1.00  0.00    -0.744 OA
ENDBRANCH  72  73
ENDBRANCH  53  67
BRANCH  54  77
ATOM     77  C   UNL A   1      43.606  23.178  26.850  1.00  0.00    -0.014 A 
ATOM     78  C   UNL A   1      43.765  22.593  25.581  1.00  0.00     0.010 A 
ATOM     79  C   UNL A   1      43.072  22.404  27.897  1.00  0.00     0.010 A 
ATOM     80  C   UNL A   1      43.380  21.268  25.357  1.00  0.00     0.020 A 
ATOM     81  C   UNL A   1      42.712  21.069  27.683  1.00  0.00     0.020 A 
ATOM     82  C   UNL A   1      42.858  20.513  26.411  1.00  0.00     0.054 A 
BRANCH  82  83
ATOM     83  S   UNL A   1      42.416  18.779  26.111  1.00  0.00     0.124 S 
ATOM     84  O   UNL A   1      42.640  18.177  27.421  1.00  0.00    -0.237 OA
ATOM     85  O   UNL A   1      41.020  18.877  25.690  1.00  0.00    -0.237 OA
ATOM     86  O   UNL A   1      43.346  18.367  25.062  1.00  0.00    -0.744 OA
ENDBRANCH  82  83
ENDBRANCH  54  77
BRANCH  66  87
ATOM     87  C   UNL A   1      49.669  26.592  26.382  1.00  0.00    -0.014 A 
ATOM     88  C   UNL A   1      50.522  26.055  27.362  1.00  0.00     0.010 A 
ATOM     89  C   UNL A   1      50.109  26.660  25.048  1.00  0.00     0.010 A 
ATOM     90  C   UNL A   1      51.807  25.625  27.018  1.00  0.00     0.020 A 
ATOM     91  C   UNL A   1      51.382  26.207  24.696  1.00  0.00     0.020 A 
ATOM     92  C   UNL A   1      52.228  25.707  25.687  1.00  0.00     0.054 A 
BRANCH  92  93
ATOM     93  S   UNL A   1      53.886  25.108  25.258  1.00  0.00     0.124 S 
ATOM     94  O   UNL A   1      54.590  25.229  26.532  1.00  0.00    -0.237 OA
ATOM     95  O   UNL A   1      53.628  23.742  24.809  1.00  0.00    -0.237 OA
ATOM     96  O   UNL A   1      54.325  26.029  24.212  1.00  0.00    -0.744 OA
ENDBRANCH  92  93
ENDBRANCH  66  87
ENDBRANCH  40  41
ENDBRANCH  32  35
ENDBRANCH  30  31
ENDBRANCH   1  30
TORSDOF 18
ENDMDL
