MODEL 1
REMARK VINA RESULT:     -10.7      0.000      0.000
REMARK SMILES C[C@@]([NH3+])(C(=O)N1CCc2sccc2[C@@H]1C(=O)NCCCCNC(=O)c1ccc(-c2c3nc(c(-c4ccc(S(=O)(=O)[O-])cc4)c4ccc([nH]4)c(-c4ccc(S(=O)(=O)[O-])cc4)c4nc(c(-c5ccc(S(=O)(=O)[O-])cc5)c5ccc2[nH]5)C=C4)C=C3)cc1)C(F)(F)F
REMARK SMILES IDX 19 1 18 2 17 3 15 4 16 5 14 7 6 8 7 9 8 10 13 11 9 12 12 13
REMARK SMILES IDX 10 14 11 15 4 16 5 17 2 18 1 19 3 20 85 24 86 25 87 26 88 27
REMARK SMILES IDX 20 28 21 29 22 30 23 31 24 33 25 34 26 35 84 36 27 37 83 38
REMARK SMILES IDX 28 39 29 40 30 41 77 42 31 43 82 44 76 45 78 46 32 47 81 48
REMARK SMILES IDX 75 49 74 50 33 52 63 53 44 54 62 55 45 56 48 57 61 58 79 59
REMARK SMILES IDX 46 60 47 61 60 63 80 64 49 65 34 66 35 67 43 68 36 69 42 70
REMARK SMILES IDX 37 71 38 72 39 73 40 74 41 75 64 76 65 77 73 78 66 79 72 80
REMARK SMILES IDX 67 81 68 82 69 83 70 84 71 85 50 86 51 87 59 88 52 89 58 90
REMARK SMILES IDX 53 91 54 92 55 93 56 94 57 95
REMARK H PARENT 17 6 3 21 3 22 3 23 22 32 78 51 48 62
REMARK Flexibility Score: inf
ROOT
ATOM      1  C   UNL A   1      32.490  27.781  27.250  1.00  0.00     0.023 C 
ENDROOT
BRANCH   1   2
ATOM      2  C   UNL A   1      31.622  27.208  26.132  1.00  0.00     0.116 C 
BRANCH   2   3
ATOM      3  N   UNL A   1      30.968  25.992  26.543  1.00  0.00    -0.354 N 
ATOM      4  C   UNL A   1      31.292  24.693  26.288  1.00  0.00     0.247 C 
ATOM      5  O   UNL A   1      30.663  23.865  26.959  1.00  0.00    -0.272 OA
ATOM      6  H   UNL A   1      30.162  26.118  27.093  1.00  0.00     0.163 HD
BRANCH   4   7
ATOM      7  C   UNL A   1      32.497  24.268  25.356  1.00  0.00     0.206 C 
ATOM      8  N   UNL A   1      32.191  23.988  23.909  1.00  0.00    -0.320 N 
ATOM      9  C   UNL A   1      31.496  22.705  23.692  1.00  0.00     0.126 C 
ATOM     10  C   UNL A   1      32.377  21.498  24.073  1.00  0.00     0.068 C 
ATOM     11  C   UNL A   1      33.152  23.021  25.950  1.00  0.00    -0.002 A 
ATOM     12  C   UNL A   1      33.049  21.769  25.376  1.00  0.00     0.012 A 
ATOM     13  C   UNL A   1      33.887  22.951  27.181  1.00  0.00     0.018 A 
ATOM     14  S   UNL A   1      33.771  20.542  26.303  1.00  0.00    -0.148 S 
ATOM     15  C   UNL A   1      34.250  21.662  27.503  1.00  0.00     0.065 A 
BRANCH   8  16
ATOM     16  C   UNL A   1      32.830  24.781  22.951  1.00  0.00     0.294 C 
ATOM     17  O   UNL A   1      34.046  24.606  22.775  1.00  0.00    -0.267 OA
BRANCH  16  18
ATOM     18  C   UNL A   1      32.194  26.054  22.270  1.00  0.00     0.267 C 
ATOM     19  C   UNL A   1      32.053  26.104  20.752  1.00  0.00     0.100 C 
BRANCH  18  20
ATOM     20  N   UNL A   1      30.787  26.193  22.829  1.00  0.00    -0.337 N 
ATOM     21  H   UNL A   1      30.305  26.955  22.350  1.00  0.00     0.345 HD
ATOM     22  H   UNL A   1      30.836  26.398  23.826  1.00  0.00     0.345 HD
ATOM     23  H   UNL A   1      30.276  25.322  22.684  1.00  0.00     0.345 HD
ENDBRANCH  18  20
BRANCH  18  24
ATOM     24  C   UNL A   1      33.104  27.256  22.682  1.00  0.00     0.453 C 
ATOM     25  F   UNL A   1      33.959  27.608  21.697  1.00  0.00    -0.164 F 
ATOM     26  F   UNL A   1      32.333  28.349  22.942  1.00  0.00    -0.164 F 
ATOM     27  F   UNL A   1      33.811  27.034  23.811  1.00  0.00    -0.164 F 
ENDBRANCH  18  24
ENDBRANCH  16  18
ENDBRANCH   8  16
ENDBRANCH   4   7
ENDBRANCH   2   3
ENDBRANCH   1   2
BRANCH   1  28
ATOM     28  C   UNL A   1      33.912  28.144  26.835  1.00  0.00     0.023 C 
BRANCH  28  29
ATOM     29  C   UNL A   1      34.075  29.517  26.199  1.00  0.00     0.116 C 
BRANCH  29  30
ATOM     30  N   UNL A   1      33.903  30.636  27.114  1.00  0.00    -0.352 N 
ATOM     31  C   UNL A   1      34.751  31.019  28.138  1.00  0.00     0.251 C 
ATOM     32  H   UNL A   1      33.092  31.181  26.990  1.00  0.00     0.163 HD
ATOM     33  O   UNL A   1      34.463  31.938  28.882  1.00  0.00    -0.269 OA
BRANCH  31  34
ATOM     34  C   UNL A   1      35.999  30.240  28.330  1.00  0.00     0.039 A 
ATOM     35  C   UNL A   1      36.983  30.280  27.341  1.00  0.00     0.014 A 
ATOM     36  C   UNL A   1      36.235  29.585  29.541  1.00  0.00     0.014 A 
ATOM     37  C   UNL A   1      38.248  29.751  27.614  1.00  0.00     0.010 A 
ATOM     38  C   UNL A   1      37.517  29.136  29.839  1.00  0.00     0.010 A 
ATOM     39  C   UNL A   1      38.543  29.229  28.886  1.00  0.00    -0.014 A 
BRANCH  39  40
ATOM     40  C   UNL A   1      39.922  28.818  29.256  1.00  0.00     0.031 A 
ATOM     41  C   UNL A   1      40.842  29.781  29.958  1.00  0.00     0.074 A 
ATOM     42  C   UNL A   1      40.381  27.607  28.879  1.00  0.00     0.049 A 
ATOM     43  N   UNL A   1      42.096  29.625  30.294  1.00  0.00    -0.248 NA
ATOM     44  C   UNL A   1      40.289  31.102  30.295  1.00  0.00     0.031 C 
ATOM     45  C   UNL A   1      39.618  26.601  28.133  1.00  0.00     0.029 A 
ATOM     46  N   UNL A   1      41.608  27.017  29.063  1.00  0.00    -0.354 N 
ATOM     47  C   UNL A   1      42.488  30.832  30.862  1.00  0.00     0.074 A 
ATOM     48  C   UNL A   1      41.354  31.726  30.777  1.00  0.00     0.031 C 
ATOM     49  C   UNL A   1      40.382  25.512  27.953  1.00  0.00     0.029 A 
ATOM     50  C   UNL A   1      41.698  25.749  28.537  1.00  0.00     0.049 A 
ATOM     51  H   UNL A   1      42.354  27.460  29.529  1.00  0.00     0.167 HD
ATOM     52  C   UNL A   1      43.676  31.163  31.423  1.00  0.00     0.031 A 
ATOM     53  C   UNL A   1      42.722  24.874  28.524  1.00  0.00     0.031 A 
ATOM     54  C   UNL A   1      44.798  30.269  31.528  1.00  0.00     0.049 A 
ATOM     55  C   UNL A   1      44.022  25.251  29.177  1.00  0.00     0.074 A 
ATOM     56  C   UNL A   1      46.020  30.490  32.140  1.00  0.00     0.029 A 
ATOM     57  N   UNL A   1      44.835  28.982  31.013  1.00  0.00    -0.354 N 
ATOM     58  N   UNL A   1      44.348  26.374  29.773  1.00  0.00    -0.248 NA
ATOM     59  C   UNL A   1      45.088  24.240  29.169  1.00  0.00     0.031 C 
ATOM     60  C   UNL A   1      46.810  29.349  31.962  1.00  0.00     0.029 A 
ATOM     61  C   UNL A   1      46.063  28.401  31.280  1.00  0.00     0.049 A 
ATOM     62  H   UNL A   1      44.097  28.546  30.529  1.00  0.00     0.167 HD
ATOM     63  C   UNL A   1      45.648  26.196  30.228  1.00  0.00     0.074 A 
ATOM     64  C   UNL A   1      46.044  24.853  29.854  1.00  0.00     0.031 C 
ATOM     65  C   UNL A   1      46.444  27.066  30.898  1.00  0.00     0.031 A 
BRANCH  52  66
ATOM     66  C   UNL A   1      43.816  32.558  31.971  1.00  0.00    -0.014 A 
ATOM     67  C   UNL A   1      43.610  32.820  33.337  1.00  0.00     0.010 A 
ATOM     68  C   UNL A   1      44.178  33.614  31.117  1.00  0.00     0.010 A 
ATOM     69  C   UNL A   1      43.718  34.122  33.832  1.00  0.00     0.020 A 
ATOM     70  C   UNL A   1      44.312  34.914  31.613  1.00  0.00     0.020 A 
ATOM     71  C   UNL A   1      44.061  35.163  32.964  1.00  0.00     0.054 A 
BRANCH  71  72
ATOM     72  S   UNL A   1      44.205  36.842  33.634  1.00  0.00     0.124 S 
ATOM     73  O   UNL A   1      42.805  37.246  33.731  1.00  0.00    -0.237 OA
ATOM     74  O   UNL A   1      44.885  36.625  34.907  1.00  0.00    -0.237 OA
ATOM     75  O   UNL A   1      44.990  37.551  32.625  1.00  0.00    -0.744 OA
ENDBRANCH  71  72
ENDBRANCH  52  66
BRANCH  53  76
ATOM     76  C   UNL A   1      42.549  23.537  27.894  1.00  0.00    -0.014 A 
ATOM     77  C   UNL A   1      43.076  23.279  26.617  1.00  0.00     0.010 A 
ATOM     78  C   UNL A   1      41.868  22.510  28.573  1.00  0.00     0.010 A 
ATOM     79  C   UNL A   1      42.915  22.024  26.022  1.00  0.00     0.020 A 
ATOM     80  C   UNL A   1      41.725  21.247  27.992  1.00  0.00     0.020 A 
ATOM     81  C   UNL A   1      42.240  21.015  26.715  1.00  0.00     0.054 A 
BRANCH  81  82
ATOM     82  S   UNL A   1      42.094  19.375  25.952  1.00  0.00     0.124 S 
ATOM     83  O   UNL A   1      40.656  19.271  25.730  1.00  0.00    -0.237 OA
ATOM     84  O   UNL A   1      42.913  19.511  24.749  1.00  0.00    -0.237 OA
ATOM     85  O   UNL A   1      42.640  18.478  26.967  1.00  0.00    -0.744 OA
ENDBRANCH  81  82
ENDBRANCH  53  76
BRANCH  65  86
ATOM     86  C   UNL A   1      47.813  26.584  31.292  1.00  0.00    -0.014 A 
ATOM     87  C   UNL A   1      48.018  25.873  32.488  1.00  0.00     0.010 A 
ATOM     88  C   UNL A   1      48.902  26.808  30.430  1.00  0.00     0.010 A 
ATOM     89  C   UNL A   1      49.295  25.423  32.831  1.00  0.00     0.020 A 
ATOM     90  C   UNL A   1      50.176  26.339  30.759  1.00  0.00     0.020 A 
ATOM     91  C   UNL A   1      50.367  25.662  31.966  1.00  0.00     0.054 A 
BRANCH  91  92
ATOM     92  S   UNL A   1      52.011  25.038  32.414  1.00  0.00     0.124 S 
ATOM     93  O   UNL A   1      51.784  23.597  32.466  1.00  0.00    -0.237 OA
ATOM     94  O   UNL A   1      52.844  25.504  31.308  1.00  0.00    -0.237 OA
ATOM     95  O   UNL A   1      52.283  25.674  33.701  1.00  0.00    -0.744 OA
ENDBRANCH  91  92
ENDBRANCH  65  86
ENDBRANCH  39  40
ENDBRANCH  31  34
ENDBRANCH  29  30
ENDBRANCH  28  29
ENDBRANCH   1  28
TORSDOF 18
ENDMDL
MODEL 2
REMARK VINA RESULT:     -10.6      1.726      2.851
REMARK SMILES C[C@@]([NH3+])(C(=O)N1CCc2sccc2[C@@H]1C(=O)NCCCCNC(=O)c1ccc(-c2c3nc(c(-c4ccc(S(=O)(=O)[O-])cc4)c4ccc([nH]4)c(-c4ccc(S(=O)(=O)[O-])cc4)c4nc(c(-c5ccc(S(=O)(=O)[O-])cc5)c5ccc2[nH]5)C=C4)C=C3)cc1)C(F)(F)F
REMARK SMILES IDX 19 1 18 2 17 3 15 4 16 5 14 7 6 8 7 9 8 10 13 11 9 12 12 13
REMARK SMILES IDX 10 14 11 15 4 16 5 17 2 18 1 19 3 20 85 24 86 25 87 26 88 27
REMARK SMILES IDX 20 28 21 29 22 30 23 31 24 33 25 34 26 35 84 36 27 37 83 38
REMARK SMILES IDX 28 39 29 40 30 41 77 42 31 43 82 44 76 45 78 46 32 47 81 48
REMARK SMILES IDX 75 49 74 50 33 52 63 53 44 54 62 55 45 56 48 57 61 58 79 59
REMARK SMILES IDX 46 60 47 61 60 63 80 64 49 65 34 66 35 67 43 68 36 69 42 70
REMARK SMILES IDX 37 71 38 72 39 73 40 74 41 75 64 76 65 77 73 78 66 79 72 80
REMARK SMILES IDX 67 81 68 82 69 83 70 84 71 85 50 86 51 87 59 88 52 89 58 90
REMARK SMILES IDX 53 91 54 92 55 93 56 94 57 95
REMARK H PARENT 17 6 3 21 3 22 3 23 22 32 78 51 48 62
REMARK Flexibility Score: inf
ROOT
ATOM      1  C   UNL A   1      32.462  28.753  24.787  1.00  0.00     0.023 C 
ENDROOT
BRANCH   1   2
ATOM      2  C   UNL A   1      32.061  27.392  24.223  1.00  0.00     0.116 C 
BRANCH   2   3
ATOM      3  N   UNL A   1      32.864  27.037  23.081  1.00  0.00    -0.354 N 
ATOM      4  C   UNL A   1      33.395  25.834  22.723  1.00  0.00     0.247 C 
ATOM      5  O   UNL A   1      33.855  25.797  21.574  1.00  0.00    -0.272 OA
ATOM      6  H   UNL A   1      33.060  27.778  22.463  1.00  0.00     0.163 HD
BRANCH   4   7
ATOM      7  C   UNL A   1      33.274  24.534  23.614  1.00  0.00     0.206 C 
ATOM      8  N   UNL A   1      32.706  24.692  24.999  1.00  0.00    -0.320 N 
ATOM      9  C   UNL A   1      33.640  25.326  25.950  1.00  0.00     0.126 C 
ATOM     10  C   UNL A   1      34.882  24.451  26.211  1.00  0.00     0.068 C 
ATOM     11  C   UNL A   1      34.660  23.904  23.742  1.00  0.00    -0.002 A 
ATOM     12  C   UNL A   1      35.389  23.915  24.915  1.00  0.00     0.012 A 
ATOM     13  C   UNL A   1      35.414  23.287  22.688  1.00  0.00     0.018 A 
ATOM     14  S   UNL A   1      36.943  23.249  24.749  1.00  0.00    -0.148 S 
ATOM     15  C   UNL A   1      36.678  22.920  23.091  1.00  0.00     0.065 A 
BRANCH   8  16
ATOM     16  C   UNL A   1      31.536  23.989  25.300  1.00  0.00     0.294 C 
ATOM     17  O   UNL A   1      30.452  24.564  25.110  1.00  0.00    -0.267 OA
BRANCH  16  18
ATOM     18  C   UNL A   1      31.484  22.634  26.107  1.00  0.00     0.267 C 
ATOM     19  C   UNL A   1      32.236  22.518  27.430  1.00  0.00     0.100 C 
BRANCH  18  20
ATOM     20  N   UNL A   1      30.022  22.372  26.429  1.00  0.00    -0.337 N 
ATOM     21  H   UNL A   1      29.495  23.243  26.349  1.00  0.00     0.345 HD
ATOM     22  H   UNL A   1      29.942  22.015  27.380  1.00  0.00     0.345 HD
ATOM     23  H   UNL A   1      29.647  21.686  25.774  1.00  0.00     0.345 HD
ENDBRANCH  18  20
BRANCH  18  24
ATOM     24  C   UNL A   1      32.072  21.547  25.152  1.00  0.00     0.453 C 
ATOM     25  F   UNL A   1      31.524  20.331  25.367  1.00  0.00    -0.164 F 
ATOM     26  F   UNL A   1      31.800  21.876  23.857  1.00  0.00    -0.164 F 
ATOM     27  F   UNL A   1      33.416  21.436  25.223  1.00  0.00    -0.164 F 
ENDBRANCH  18  24
ENDBRANCH  16  18
ENDBRANCH   8  16
ENDBRANCH   4   7
ENDBRANCH   2   3
ENDBRANCH   1   2
BRANCH   1  28
ATOM     28  C   UNL A   1      33.709  28.739  25.664  1.00  0.00     0.023 C 
BRANCH  28  29
ATOM     29  C   UNL A   1      33.453  28.822  27.163  1.00  0.00     0.116 C 
BRANCH  29  30
ATOM     30  N   UNL A   1      33.439  30.174  27.703  1.00  0.00    -0.352 N 
ATOM     31  C   UNL A   1      34.479  30.838  28.329  1.00  0.00     0.251 C 
ATOM     32  H   UNL A   1      32.594  30.672  27.613  1.00  0.00     0.163 HD
ATOM     33  O   UNL A   1      34.324  31.949  28.800  1.00  0.00    -0.269 OA
BRANCH  31  34
ATOM     34  C   UNL A   1      35.778  30.129  28.450  1.00  0.00     0.039 A 
ATOM     35  C   UNL A   1      36.674  30.166  27.381  1.00  0.00     0.014 A 
ATOM     36  C   UNL A   1      36.146  29.548  29.666  1.00  0.00     0.014 A 
ATOM     37  C   UNL A   1      37.982  29.711  27.570  1.00  0.00     0.010 A 
ATOM     38  C   UNL A   1      37.469  29.175  29.875  1.00  0.00     0.010 A 
ATOM     39  C   UNL A   1      38.407  29.269  28.835  1.00  0.00    -0.014 A 
BRANCH  39  40
ATOM     40  C   UNL A   1      39.831  28.943  29.107  1.00  0.00     0.031 A 
ATOM     41  C   UNL A   1      40.755  29.982  29.684  1.00  0.00     0.074 A 
ATOM     42  C   UNL A   1      40.320  27.737  28.748  1.00  0.00     0.049 A 
ATOM     43  N   UNL A   1      42.039  29.902  29.920  1.00  0.00    -0.248 NA
ATOM     44  C   UNL A   1      40.163  31.290  30.006  1.00  0.00     0.031 C 
ATOM     45  C   UNL A   1      39.551  26.661  28.115  1.00  0.00     0.029 A 
ATOM     46  N   UNL A   1      41.586  27.216  28.855  1.00  0.00    -0.354 N 
ATOM     47  C   UNL A   1      42.413  31.153  30.397  1.00  0.00     0.074 A 
ATOM     48  C   UNL A   1      41.231  31.987  30.368  1.00  0.00     0.031 C 
ATOM     49  C   UNL A   1      40.352  25.601  27.921  1.00  0.00     0.029 A 
ATOM     50  C   UNL A   1      41.698  25.930  28.381  1.00  0.00     0.049 A 
ATOM     51  H   UNL A   1      42.344  27.717  29.235  1.00  0.00     0.167 HD
ATOM     52  C   UNL A   1      43.625  31.567  30.840  1.00  0.00     0.031 A 
ATOM     53  C   UNL A   1      42.761  25.104  28.321  1.00  0.00     0.031 A 
ATOM     54  C   UNL A   1      44.795  30.734  30.892  1.00  0.00     0.049 A 
ATOM     55  C   UNL A   1      44.089  25.575  28.845  1.00  0.00     0.074 A 
ATOM     56  C   UNL A   1      46.050  31.042  31.388  1.00  0.00     0.029 A 
ATOM     57  N   UNL A   1      44.857  29.426  30.435  1.00  0.00    -0.354 N 
ATOM     58  N   UNL A   1      44.404  26.740  29.359  1.00  0.00    -0.248 NA
ATOM     59  C   UNL A   1      45.201  24.616  28.793  1.00  0.00     0.031 C 
ATOM     60  C   UNL A   1      46.881  29.933  31.196  1.00  0.00     0.029 A 
ATOM     61  C   UNL A   1      46.131  28.918  30.623  1.00  0.00     0.049 A 
ATOM     62  H   UNL A   1      44.105  28.932  30.034  1.00  0.00     0.167 HD
ATOM     63  C   UNL A   1      45.745  26.646  29.711  1.00  0.00     0.074 A 
ATOM     64  C   UNL A   1      46.177  25.307  29.367  1.00  0.00     0.031 C 
ATOM     65  C   UNL A   1      46.547  27.585  30.272  1.00  0.00     0.031 A 
BRANCH  52  66
ATOM     66  C   UNL A   1      43.736  32.993  31.311  1.00  0.00    -0.014 A 
ATOM     67  C   UNL A   1      44.088  34.022  30.420  1.00  0.00     0.010 A 
ATOM     68  C   UNL A   1      43.465  33.311  32.654  1.00  0.00     0.010 A 
ATOM     69  C   UNL A   1      44.213  35.338  30.872  1.00  0.00     0.020 A 
ATOM     70  C   UNL A   1      43.563  34.631  33.104  1.00  0.00     0.020 A 
ATOM     71  C   UNL A   1      43.956  35.633  32.214  1.00  0.00     0.054 A 
BRANCH  71  72
ATOM     72  S   UNL A   1      44.115  37.350  32.773  1.00  0.00     0.124 S 
ATOM     73  O   UNL A   1      45.479  37.370  33.295  1.00  0.00    -0.237 OA
ATOM     74  O   UNL A   1      43.903  38.110  31.545  1.00  0.00    -0.237 OA
ATOM     75  O   UNL A   1      43.062  37.486  33.777  1.00  0.00    -0.744 OA
ENDBRANCH  71  72
ENDBRANCH  52  66
BRANCH  53  76
ATOM     76  C   UNL A   1      42.605  23.731  27.770  1.00  0.00    -0.014 A 
ATOM     77  C   UNL A   1      42.229  22.667  28.609  1.00  0.00     0.010 A 
ATOM     78  C   UNL A   1      42.818  23.481  26.402  1.00  0.00     0.010 A 
ATOM     79  C   UNL A   1      42.082  21.376  28.095  1.00  0.00     0.020 A 
ATOM     80  C   UNL A   1      42.650  22.195  25.880  1.00  0.00     0.020 A 
ATOM     81  C   UNL A   1      42.292  21.148  26.732  1.00  0.00     0.054 A 
BRANCH  81  82
ATOM     82  S   UNL A   1      42.038  19.477  26.073  1.00  0.00     0.124 S 
ATOM     83  O   UNL A   1      42.881  19.488  24.883  1.00  0.00    -0.237 OA
ATOM     84  O   UNL A   1      42.501  18.629  27.170  1.00  0.00    -0.237 OA
ATOM     85  O   UNL A   1      40.599  19.425  25.824  1.00  0.00    -0.744 OA
ENDBRANCH  81  82
ENDBRANCH  53  76
BRANCH  65  86
ATOM     86  C   UNL A   1      47.966  27.189  30.570  1.00  0.00    -0.014 A 
ATOM     87  C   UNL A   1      49.001  27.442  29.652  1.00  0.00     0.010 A 
ATOM     88  C   UNL A   1      48.275  26.595  31.808  1.00  0.00     0.010 A 
ATOM     89  C   UNL A   1      50.315  27.078  29.952  1.00  0.00     0.020 A 
ATOM     90  C   UNL A   1      49.593  26.250  32.120  1.00  0.00     0.020 A 
ATOM     91  C   UNL A   1      50.603  26.481  31.184  1.00  0.00     0.054 A 
BRANCH  91  92
ATOM     92  S   UNL A   1      52.322  26.048  31.568  1.00  0.00     0.124 S 
ATOM     93  O   UNL A   1      52.664  27.038  32.585  1.00  0.00    -0.237 OA
ATOM     94  O   UNL A   1      52.209  24.671  32.044  1.00  0.00    -0.237 OA
ATOM     95  O   UNL A   1      53.012  26.202  30.289  1.00  0.00    -0.744 OA
ENDBRANCH  91  92
ENDBRANCH  65  86
ENDBRANCH  39  40
ENDBRANCH  31  34
ENDBRANCH  29  30
ENDBRANCH  28  29
ENDBRANCH   1  28
TORSDOF 18
ENDMDL
MODEL 3
REMARK VINA RESULT:     -10.5      1.514      2.441
REMARK SMILES C[C@@]([NH3+])(C(=O)N1CCc2sccc2[C@@H]1C(=O)NCCCCNC(=O)c1ccc(-c2c3nc(c(-c4ccc(S(=O)(=O)[O-])cc4)c4ccc([nH]4)c(-c4ccc(S(=O)(=O)[O-])cc4)c4nc(c(-c5ccc(S(=O)(=O)[O-])cc5)c5ccc2[nH]5)C=C4)C=C3)cc1)C(F)(F)F
REMARK SMILES IDX 19 1 18 2 17 3 15 4 16 5 14 7 6 8 7 9 8 10 13 11 9 12 12 13
REMARK SMILES IDX 10 14 11 15 4 16 5 17 2 18 1 19 3 20 85 24 86 25 87 26 88 27
REMARK SMILES IDX 20 28 21 29 22 30 23 31 24 33 25 34 26 35 84 36 27 37 83 38
REMARK SMILES IDX 28 39 29 40 30 41 77 42 31 43 82 44 76 45 78 46 32 47 81 48
REMARK SMILES IDX 75 49 74 50 33 52 63 53 44 54 62 55 45 56 48 57 61 58 79 59
REMARK SMILES IDX 46 60 47 61 60 63 80 64 49 65 34 66 35 67 43 68 36 69 42 70
REMARK SMILES IDX 37 71 38 72 39 73 40 74 41 75 64 76 65 77 73 78 66 79 72 80
REMARK SMILES IDX 67 81 68 82 69 83 70 84 71 85 50 86 51 87 59 88 52 89 58 90
REMARK SMILES IDX 53 91 54 92 55 93 56 94 57 95
REMARK H PARENT 17 6 3 21 3 22 3 23 22 32 78 51 48 62
REMARK Flexibility Score: inf
ROOT
ATOM      1  C   UNL A   1      32.823  28.551  24.763  1.00  0.00     0.023 C 
ENDROOT
BRANCH   1   2
ATOM      2  C   UNL A   1      32.069  27.228  24.649  1.00  0.00     0.116 C 
BRANCH   2   3
ATOM      3  N   UNL A   1      32.206  26.655  23.334  1.00  0.00    -0.354 N 
ATOM      4  C   UNL A   1      32.742  25.463  22.949  1.00  0.00     0.247 C 
ATOM      5  O   UNL A   1      32.518  25.156  21.771  1.00  0.00    -0.272 OA
ATOM      6  H   UNL A   1      31.858  27.211  22.600  1.00  0.00     0.163 HD
BRANCH   4   7
ATOM      7  C   UNL A   1      33.431  24.458  23.956  1.00  0.00     0.206 C 
ATOM      8  N   UNL A   1      34.108  23.246  23.373  1.00  0.00    -0.320 N 
ATOM      9  C   UNL A   1      33.164  22.214  22.901  1.00  0.00     0.126 C 
ATOM     10  C   UNL A   1      32.350  21.602  24.057  1.00  0.00     0.068 C 
ATOM     11  C   UNL A   1      32.380  23.976  24.956  1.00  0.00    -0.002 A 
ATOM     12  C   UNL A   1      31.872  22.691  24.957  1.00  0.00     0.012 A 
ATOM     13  C   UNL A   1      31.736  24.772  25.962  1.00  0.00     0.018 A 
ATOM     14  S   UNL A   1      30.634  22.457  26.096  1.00  0.00    -0.148 S 
ATOM     15  C   UNL A   1      30.748  24.080  26.626  1.00  0.00     0.065 A 
BRANCH   8  16
ATOM     16  C   UNL A   1      35.479  23.100  23.605  1.00  0.00     0.294 C 
ATOM     17  O   UNL A   1      36.252  23.360  22.669  1.00  0.00    -0.267 OA
BRANCH  16  18
ATOM     18  C   UNL A   1      36.107  22.380  24.861  1.00  0.00     0.267 C 
ATOM     19  C   UNL A   1      35.419  21.150  25.444  1.00  0.00     0.100 C 
BRANCH  18  20
ATOM     20  N   UNL A   1      37.501  21.931  24.456  1.00  0.00    -0.337 N 
ATOM     21  H   UNL A   1      38.121  21.976  25.266  1.00  0.00     0.345 HD
ATOM     22  H   UNL A   1      37.857  22.544  23.723  1.00  0.00     0.345 HD
ATOM     23  H   UNL A   1      37.463  20.973  24.109  1.00  0.00     0.345 HD
ENDBRANCH  18  20
BRANCH  18  24
ATOM     24  C   UNL A   1      36.148  23.457  25.991  1.00  0.00     0.453 C 
ATOM     25  F   UNL A   1      37.382  23.582  26.530  1.00  0.00    -0.164 F 
ATOM     26  F   UNL A   1      35.820  24.677  25.478  1.00  0.00    -0.164 F 
ATOM     27  F   UNL A   1      35.262  23.231  26.984  1.00  0.00    -0.164 F 
ENDBRANCH  18  24
ENDBRANCH  16  18
ENDBRANCH   8  16
ENDBRANCH   4   7
ENDBRANCH   2   3
ENDBRANCH   1   2
BRANCH   1  28
ATOM     28  C   UNL A   1      33.966  28.551  25.773  1.00  0.00     0.023 C 
BRANCH  28  29
ATOM     29  C   UNL A   1      33.554  28.763  27.223  1.00  0.00     0.116 C 
BRANCH  29  30
ATOM     30  N   UNL A   1      33.577  30.150  27.665  1.00  0.00    -0.352 N 
ATOM     31  C   UNL A   1      34.639  30.833  28.229  1.00  0.00     0.251 C 
ATOM     32  H   UNL A   1      32.741  30.659  27.549  1.00  0.00     0.163 HD
ATOM     33  O   UNL A   1      34.514  31.979  28.620  1.00  0.00    -0.269 OA
BRANCH  31  34
ATOM     34  C   UNL A   1      35.924  30.107  28.385  1.00  0.00     0.039 A 
ATOM     35  C   UNL A   1      36.848  30.129  27.339  1.00  0.00     0.014 A 
ATOM     36  C   UNL A   1      36.252  29.522  29.610  1.00  0.00     0.014 A 
ATOM     37  C   UNL A   1      38.144  29.656  27.563  1.00  0.00     0.010 A 
ATOM     38  C   UNL A   1      37.563  29.131  29.854  1.00  0.00     0.010 A 
ATOM     39  C   UNL A   1      38.529  29.209  28.839  1.00  0.00    -0.014 A 
BRANCH  39  40
ATOM     40  C   UNL A   1      39.942  28.863  29.148  1.00  0.00     0.031 A 
ATOM     41  C   UNL A   1      40.856  29.881  29.775  1.00  0.00     0.074 A 
ATOM     42  C   UNL A   1      40.429  27.660  28.779  1.00  0.00     0.049 A 
ATOM     43  N   UNL A   1      42.131  29.784  30.050  1.00  0.00    -0.248 NA
ATOM     44  C   UNL A   1      40.268  31.189  30.105  1.00  0.00     0.031 C 
ATOM     45  C   UNL A   1      39.671  26.605  28.101  1.00  0.00     0.029 A 
ATOM     46  N   UNL A   1      41.687  27.124  28.915  1.00  0.00    -0.354 N 
ATOM     47  C   UNL A   1      42.503  31.021  30.564  1.00  0.00     0.074 A 
ATOM     48  C   UNL A   1      41.330  31.867  30.515  1.00  0.00     0.031 C 
ATOM     49  C   UNL A   1      40.468  25.542  27.910  1.00  0.00     0.029 A 
ATOM     50  C   UNL A   1      41.801  25.847  28.418  1.00  0.00     0.049 A 
ATOM     51  H   UNL A   1      42.437  27.609  29.329  1.00  0.00     0.167 HD
ATOM     52  C   UNL A   1      43.703  31.413  31.053  1.00  0.00     0.031 A 
ATOM     53  C   UNL A   1      42.858  25.012  28.374  1.00  0.00     0.031 A 
ATOM     54  C   UNL A   1      44.864  30.567  31.124  1.00  0.00     0.049 A 
ATOM     55  C   UNL A   1      44.173  25.458  28.949  1.00  0.00     0.074 A 
ATOM     56  C   UNL A   1      46.106  30.853  31.665  1.00  0.00     0.029 A 
ATOM     57  N   UNL A   1      44.927  29.269  30.642  1.00  0.00    -0.354 N 
ATOM     58  N   UNL A   1      44.483  26.609  29.497  1.00  0.00    -0.248 NA
ATOM     59  C   UNL A   1      45.277  24.490  28.912  1.00  0.00     0.031 C 
ATOM     60  C   UNL A   1      46.931  29.739  31.476  1.00  0.00     0.029 A 
ATOM     61  C   UNL A   1      46.190  28.744  30.859  1.00  0.00     0.049 A 
ATOM     62  H   UNL A   1      44.184  28.790  30.208  1.00  0.00     0.167 HD
ATOM     63  C   UNL A   1      45.811  26.495  29.889  1.00  0.00     0.074 A 
ATOM     64  C   UNL A   1      46.241  25.159  29.530  1.00  0.00     0.031 C 
ATOM     65  C   UNL A   1      46.604  27.414  30.493  1.00  0.00     0.031 A 
BRANCH  52  66
ATOM     66  C   UNL A   1      43.814  32.827  31.557  1.00  0.00    -0.014 A 
ATOM     67  C   UNL A   1      43.510  33.144  32.893  1.00  0.00     0.010 A 
ATOM     68  C   UNL A   1      44.247  33.848  30.692  1.00  0.00     0.010 A 
ATOM     69  C   UNL A   1      43.592  34.463  33.344  1.00  0.00     0.020 A 
ATOM     70  C   UNL A   1      44.356  35.165  31.146  1.00  0.00     0.020 A 
ATOM     71  C   UNL A   1      44.008  35.468  32.465  1.00  0.00     0.054 A 
BRANCH  71  72
ATOM     72  S   UNL A   1      44.117  37.170  33.078  1.00  0.00     0.124 S 
ATOM     73  O   UNL A   1      43.026  37.209  34.049  1.00  0.00    -0.237 OA
ATOM     74  O   UNL A   1      45.461  37.225  33.645  1.00  0.00    -0.237 OA
ATOM     75  O   UNL A   1      43.916  37.983  31.881  1.00  0.00    -0.744 OA
ENDBRANCH  71  72
ENDBRANCH  52  66
BRANCH  53  76
ATOM     76  C   UNL A   1      42.706  23.652  27.790  1.00  0.00    -0.014 A 
ATOM     77  C   UNL A   1      43.134  23.392  26.476  1.00  0.00     0.010 A 
ATOM     78  C   UNL A   1      42.147  22.607  28.548  1.00  0.00     0.010 A 
ATOM     79  C   UNL A   1      42.993  22.115  25.924  1.00  0.00     0.020 A 
ATOM     80  C   UNL A   1      42.026  21.323  28.008  1.00  0.00     0.020 A 
ATOM     81  C   UNL A   1      42.441  21.088  26.695  1.00  0.00     0.054 A 
BRANCH  81  82
ATOM     82  S   UNL A   1      42.322  19.424  25.981  1.00  0.00     0.124 S 
ATOM     83  O   UNL A   1      43.168  19.540  24.799  1.00  0.00    -0.237 OA
ATOM     84  O   UNL A   1      42.845  18.581  27.054  1.00  0.00    -0.237 OA
ATOM     85  O   UNL A   1      40.893  19.267  25.719  1.00  0.00    -0.744 OA
ENDBRANCH  81  82
ENDBRANCH  53  76
BRANCH  65  86
ATOM     86  C   UNL A   1      48.010  26.998  30.828  1.00  0.00    -0.014 A 
ATOM     87  C   UNL A   1      49.087  27.333  29.988  1.00  0.00     0.010 A 
ATOM     88  C   UNL A   1      48.260  26.298  32.022  1.00  0.00     0.010 A 
ATOM     89  C   UNL A   1      50.388  26.948  30.322  1.00  0.00     0.020 A 
ATOM     90  C   UNL A   1      49.563  25.931  32.370  1.00  0.00     0.020 A 
ATOM     91  C   UNL A   1      50.617  26.246  31.510  1.00  0.00     0.054 A 
BRANCH  91  92
ATOM     92  S   UNL A   1      52.318  25.786  31.941  1.00  0.00     0.124 S 
ATOM     93  O   UNL A   1      53.005  25.933  30.662  1.00  0.00    -0.237 OA
ATOM     94  O   UNL A   1      52.669  26.773  32.960  1.00  0.00    -0.237 OA
ATOM     95  O   UNL A   1      52.192  24.415  32.429  1.00  0.00    -0.744 OA
ENDBRANCH  91  92
ENDBRANCH  65  86
ENDBRANCH  39  40
ENDBRANCH  31  34
ENDBRANCH  29  30
ENDBRANCH  28  29
ENDBRANCH   1  28
TORSDOF 18
ENDMDL
