MODEL 1
REMARK VINA RESULT:      -7.8      0.000      0.000
REMARK SMILES CCSc1cccc(-c2ccc([C@@H](C)C(=O)NCCCCNC(=O)c3ccc(-c4c5nc(c(-c6ccc(S(=O)(=O)[O-])cc6)c6ccc([nH]6)c(-c6ccc(S(=O)(=O)[O-])cc6)c6nc(c(-c7ccc(S(=O)(=O)[O-])cc7)c7ccc4[nH]7)C=C6)C=C5)cc3)cc2)c1
REMARK SMILES IDX 19 1 18 2 17 3 15 4 16 5 13 7 14 8 12 9 9 10 10 11 86 12
REMARK SMILES IDX 11 13 85 14 8 15 4 16 5 17 87 18 6 19 7 20 3 21 2 22 1 23
REMARK SMILES IDX 20 24 21 25 22 26 23 27 24 29 25 30 26 31 84 32 27 33 83 34
REMARK SMILES IDX 28 35 29 36 30 37 77 38 31 39 82 40 76 41 78 42 32 43 81 44
REMARK SMILES IDX 75 45 74 46 33 48 63 49 44 50 62 51 45 52 48 53 61 54 79 55
REMARK SMILES IDX 46 56 47 57 60 59 80 60 49 61 34 62 35 63 43 64 36 65 42 66
REMARK SMILES IDX 37 67 38 68 39 69 40 70 41 71 64 72 65 73 73 74 66 75 72 76
REMARK SMILES IDX 67 77 68 78 69 79 70 80 71 81 50 82 51 83 59 84 52 85 58 86
REMARK SMILES IDX 53 87 54 88 55 89 56 90 57 91
REMARK H PARENT 17 6 22 28 78 47 48 58
REMARK Flexibility Score: inf
ROOT
ATOM      1  C   UNL A   1      37.220  33.088  30.738  1.00  0.00     0.023 C 
ENDROOT
BRANCH   1   2
ATOM      2  C   UNL A   1      37.689  34.105  31.780  1.00  0.00     0.116 C 
BRANCH   2   3
ATOM      3  N   UNL A   1      37.474  33.645  33.136  1.00  0.00    -0.356 N 
ATOM      4  C   UNL A   1      37.481  32.393  33.672  1.00  0.00     0.227 C 
ATOM      5  O   UNL A   1      37.211  32.302  34.876  1.00  0.00    -0.274 OA
ATOM      6  H   UNL A   1      37.291  34.363  33.784  1.00  0.00     0.163 HD
BRANCH   4   7
ATOM      7  C   UNL A   1      37.816  31.125  32.871  1.00  0.00     0.105 C 
ATOM      8  C   UNL A   1      36.668  30.118  32.794  1.00  0.00     0.023 C 
BRANCH   7   9
ATOM      9  C   UNL A   1      39.193  30.561  33.185  1.00  0.00    -0.036 A 
ATOM     10  C   UNL A   1      41.808  29.453  33.552  1.00  0.00    -0.018 A 
ATOM     11  C   UNL A   1      41.520  30.792  33.863  1.00  0.00     0.009 A 
ATOM     12  C   UNL A   1      40.735  28.672  33.090  1.00  0.00     0.009 A 
ATOM     13  C   UNL A   1      40.232  31.327  33.716  1.00  0.00     0.005 A 
ATOM     14  C   UNL A   1      39.461  29.219  32.889  1.00  0.00     0.005 A 
BRANCH  10  15
ATOM     15  C   UNL A   1      43.177  28.896  33.694  1.00  0.00    -0.017 A 
ATOM     16  C   UNL A   1      45.503  29.113  34.458  1.00  0.00     0.008 A 
ATOM     17  C   UNL A   1      45.789  27.838  33.966  1.00  0.00     0.015 A 
ATOM     18  C   UNL A   1      44.198  29.611  34.353  1.00  0.00     0.023 A 
ATOM     19  C   UNL A   1      44.798  27.097  33.332  1.00  0.00     0.002 A 
ATOM     20  C   UNL A   1      43.514  27.629  33.183  1.00  0.00     0.009 A 
BRANCH  16  21
ATOM     21  S   UNL A   1      46.826  30.050  35.205  1.00  0.00    -0.126 SA
BRANCH  21  22
ATOM     22  C   UNL A   1      48.294  29.334  34.384  1.00  0.00     0.071 C 
ATOM     23  C   UNL A   1      49.424  30.337  34.213  1.00  0.00     0.016 C 
ENDBRANCH  21  22
ENDBRANCH  16  21
ENDBRANCH  10  15
ENDBRANCH   7   9
ENDBRANCH   4   7
ENDBRANCH   2   3
ENDBRANCH   1   2
BRANCH   1  24
ATOM     24  C   UNL A   1      35.854  33.380  30.121  1.00  0.00     0.023 C 
BRANCH  24  25
ATOM     25  C   UNL A   1      35.762  33.195  28.608  1.00  0.00     0.116 C 
BRANCH  25  26
ATOM     26  N   UNL A   1      34.671  32.330  28.180  1.00  0.00    -0.352 N 
ATOM     27  C   UNL A   1      34.705  30.971  27.943  1.00  0.00     0.251 C 
ATOM     28  H   UNL A   1      33.801  32.769  28.042  1.00  0.00     0.163 HD
ATOM     29  O   UNL A   1      33.718  30.385  27.523  1.00  0.00    -0.269 OA
BRANCH  27  30
ATOM     30  C   UNL A   1      35.976  30.248  28.159  1.00  0.00     0.039 A 
ATOM     31  C   UNL A   1      36.927  30.236  27.135  1.00  0.00     0.014 A 
ATOM     32  C   UNL A   1      36.260  29.674  29.399  1.00  0.00     0.014 A 
ATOM     33  C   UNL A   1      38.205  29.738  27.392  1.00  0.00     0.010 A 
ATOM     34  C   UNL A   1      37.551  29.236  29.671  1.00  0.00     0.010 A 
ATOM     35  C   UNL A   1      38.542  29.286  28.678  1.00  0.00    -0.014 A 
BRANCH  35  36
ATOM     36  C   UNL A   1      39.932  28.908  29.033  1.00  0.00     0.031 A 
ATOM     37  C   UNL A   1      40.866  29.931  29.615  1.00  0.00     0.074 A 
ATOM     38  C   UNL A   1      40.385  27.675  28.728  1.00  0.00     0.049 A 
ATOM     39  N   UNL A   1      42.147  29.833  29.857  1.00  0.00    -0.248 NA
ATOM     40  C   UNL A   1      40.288  31.244  29.940  1.00  0.00     0.031 C 
ATOM     41  C   UNL A   1      39.588  26.603  28.122  1.00  0.00     0.029 A 
ATOM     42  N   UNL A   1      41.632  27.120  28.866  1.00  0.00    -0.354 N 
ATOM     43  C   UNL A   1      42.535  31.077  30.338  1.00  0.00     0.074 A 
ATOM     44  C   UNL A   1      41.361  31.923  30.321  1.00  0.00     0.031 C 
ATOM     45  C   UNL A   1      40.363  25.519  27.955  1.00  0.00     0.029 A 
ATOM     46  C   UNL A   1      41.719  25.830  28.397  1.00  0.00     0.049 A 
ATOM     47  H   UNL A   1      42.395  27.600  29.263  1.00  0.00     0.167 HD
ATOM     48  C   UNL A   1      43.756  31.475  30.768  1.00  0.00     0.031 A 
ATOM     49  C   UNL A   1      42.773  24.995  28.314  1.00  0.00     0.031 A 
ATOM     50  C   UNL A   1      44.917  30.627  30.802  1.00  0.00     0.049 A 
ATOM     51  C   UNL A   1      44.122  25.464  28.782  1.00  0.00     0.074 A 
ATOM     52  C   UNL A   1      46.178  30.916  31.289  1.00  0.00     0.029 A 
ATOM     53  N   UNL A   1      44.958  29.325  30.328  1.00  0.00    -0.354 N 
ATOM     54  N   UNL A   1      44.454  26.625  29.293  1.00  0.00    -0.248 NA
ATOM     55  C   UNL A   1      45.236  24.515  28.657  1.00  0.00     0.031 C 
ATOM     56  C   UNL A   1      46.996  29.802  31.070  1.00  0.00     0.029 A 
ATOM     57  C   UNL A   1      46.232  28.806  30.485  1.00  0.00     0.049 A 
ATOM     58  H   UNL A   1      44.195  28.841  29.937  1.00  0.00     0.167 HD
ATOM     59  C   UNL A   1      45.816  26.542  29.562  1.00  0.00     0.074 A 
ATOM     60  C   UNL A   1      46.241  25.213  29.171  1.00  0.00     0.031 C 
ATOM     61  C   UNL A   1      46.639  27.483  30.084  1.00  0.00     0.031 A 
BRANCH  48  62
ATOM     62  C   UNL A   1      43.894  32.899  31.230  1.00  0.00    -0.014 A 
ATOM     63  C   UNL A   1      44.286  33.914  30.339  1.00  0.00     0.010 A 
ATOM     64  C   UNL A   1      43.602  33.232  32.565  1.00  0.00     0.010 A 
ATOM     65  C   UNL A   1      44.430  35.230  30.786  1.00  0.00     0.020 A 
ATOM     66  C   UNL A   1      43.721  34.552  33.011  1.00  0.00     0.020 A 
ATOM     67  C   UNL A   1      44.155  35.539  32.121  1.00  0.00     0.054 A 
BRANCH  67  68
ATOM     68  S   UNL A   1      44.340  37.256  32.675  1.00  0.00     0.124 S 
ATOM     69  O   UNL A   1      43.854  37.998  31.514  1.00  0.00    -0.237 OA
ATOM     70  O   UNL A   1      43.483  37.308  33.856  1.00  0.00    -0.237 OA
ATOM     71  O   UNL A   1      45.770  37.382  32.941  1.00  0.00    -0.744 OA
ENDBRANCH  67  68
ENDBRANCH  48  62
BRANCH  49  72
ATOM     72  C   UNL A   1      42.594  23.627  27.756  1.00  0.00    -0.014 A 
ATOM     73  C   UNL A   1      42.778  23.394  26.382  1.00  0.00     0.010 A 
ATOM     74  C   UNL A   1      42.261  22.550  28.598  1.00  0.00     0.010 A 
ATOM     75  C   UNL A   1      42.621  22.108  25.857  1.00  0.00     0.020 A 
ATOM     76  C   UNL A   1      42.124  21.259  28.079  1.00  0.00     0.020 A 
ATOM     77  C   UNL A   1      42.297  21.048  26.709  1.00  0.00     0.054 A 
BRANCH  77  78
ATOM     78  S   UNL A   1      42.156  19.377  26.016  1.00  0.00     0.124 S 
ATOM     79  O   UNL A   1      43.029  19.457  24.850  1.00  0.00    -0.237 OA
ATOM     80  O   UNL A   1      42.636  18.537  27.111  1.00  0.00    -0.237 OA
ATOM     81  O   UNL A   1      40.729  19.249  25.725  1.00  0.00    -0.744 OA
ENDBRANCH  77  78
ENDBRANCH  49  72
BRANCH  61  82
ATOM     82  C   UNL A   1      48.084  27.114  30.271  1.00  0.00    -0.014 A 
ATOM     83  C   UNL A   1      49.018  27.324  29.242  1.00  0.00     0.010 A 
ATOM     84  C   UNL A   1      48.525  26.630  31.515  1.00  0.00     0.010 A 
ATOM     85  C   UNL A   1      50.370  27.045  29.451  1.00  0.00     0.020 A 
ATOM     86  C   UNL A   1      49.880  26.369  31.734  1.00  0.00     0.020 A 
ATOM     87  C   UNL A   1      50.794  26.572  30.697  1.00  0.00     0.054 A 
BRANCH  87  88
ATOM     88  S   UNL A   1      52.565  26.289  30.968  1.00  0.00     0.124 S 
ATOM     89  O   UNL A   1      52.562  25.033  31.711  1.00  0.00    -0.237 OA
ATOM     90  O   UNL A   1      53.092  26.214  29.608  1.00  0.00    -0.237 OA
ATOM     91  O   UNL A   1      52.990  27.462  31.729  1.00  0.00    -0.744 OA
ENDBRANCH  87  88
ENDBRANCH  61  82
ENDBRANCH  35  36
ENDBRANCH  27  30
ENDBRANCH  25  26
ENDBRANCH  24  25
ENDBRANCH   1  24
TORSDOF 18
ENDMDL
MODEL 2
REMARK VINA RESULT:      -7.7      2.845     10.187
REMARK SMILES CCSc1cccc(-c2ccc([C@@H](C)C(=O)NCCCCNC(=O)c3ccc(-c4c5nc(c(-c6ccc(S(=O)(=O)[O-])cc6)c6ccc([nH]6)c(-c6ccc(S(=O)(=O)[O-])cc6)c6nc(c(-c7ccc(S(=O)(=O)[O-])cc7)c7ccc4[nH]7)C=C6)C=C5)cc3)cc2)c1
REMARK SMILES IDX 19 1 18 2 17 3 15 4 16 5 13 7 14 8 12 9 9 10 10 11 86 12
REMARK SMILES IDX 11 13 85 14 8 15 4 16 5 17 87 18 6 19 7 20 3 21 2 22 1 23
REMARK SMILES IDX 20 24 21 25 22 26 23 27 24 29 25 30 26 31 84 32 27 33 83 34
REMARK SMILES IDX 28 35 29 36 30 37 77 38 31 39 82 40 76 41 78 42 32 43 81 44
REMARK SMILES IDX 75 45 74 46 33 48 63 49 44 50 62 51 45 52 48 53 61 54 79 55
REMARK SMILES IDX 46 56 47 57 60 59 80 60 49 61 34 62 35 63 43 64 36 65 42 66
REMARK SMILES IDX 37 67 38 68 39 69 40 70 41 71 64 72 65 73 73 74 66 75 72 76
REMARK SMILES IDX 67 77 68 78 69 79 70 80 71 81 50 82 51 83 59 84 52 85 58 86
REMARK SMILES IDX 53 87 54 88 55 89 56 90 57 91
REMARK H PARENT 17 6 22 28 78 47 48 58
REMARK Flexibility Score: inf
ROOT
ATOM      1  C   UNL A   1      41.982  19.681  26.732  1.00  0.00     0.023 C 
ENDROOT
BRANCH   1   2
ATOM      2  C   UNL A   1      42.706  19.535  25.393  1.00  0.00     0.116 C 
BRANCH   2   3
ATOM      3  N   UNL A   1      44.125  19.801  25.500  1.00  0.00    -0.356 N 
ATOM      4  C   UNL A   1      44.821  20.972  25.512  1.00  0.00     0.227 C 
ATOM      5  O   UNL A   1      46.055  20.884  25.567  1.00  0.00    -0.274 OA
ATOM      6  H   UNL A   1      44.684  18.995  25.579  1.00  0.00     0.163 HD
BRANCH   4   7
ATOM      7  C   UNL A   1      44.159  22.357  25.476  1.00  0.00     0.105 C 
ATOM      8  C   UNL A   1      44.526  23.190  24.248  1.00  0.00     0.023 C 
BRANCH   7   9
ATOM      9  C   UNL A   1      44.192  23.075  26.816  1.00  0.00    -0.036 A 
ATOM     10  C   UNL A   1      44.170  24.234  29.435  1.00  0.00    -0.018 A 
ATOM     11  C   UNL A   1      45.359  24.075  28.705  1.00  0.00     0.009 A 
ATOM     12  C   UNL A   1      42.984  23.833  28.797  1.00  0.00     0.009 A 
ATOM     13  C   UNL A   1      45.367  23.538  27.409  1.00  0.00     0.005 A 
ATOM     14  C   UNL A   1      42.995  23.246  27.525  1.00  0.00     0.005 A 
BRANCH  10  15
ATOM     15  C   UNL A   1      44.168  24.787  30.813  1.00  0.00    -0.017 A 
ATOM     16  C   UNL A   1      43.832  26.668  32.360  1.00  0.00     0.008 A 
ATOM     17  C   UNL A   1      44.167  25.848  33.438  1.00  0.00     0.015 A 
ATOM     18  C   UNL A   1      43.798  26.123  31.069  1.00  0.00     0.023 A 
ATOM     19  C   UNL A   1      44.514  24.519  33.221  1.00  0.00     0.002 A 
ATOM     20  C   UNL A   1      44.531  24.003  31.923  1.00  0.00     0.009 A 
BRANCH  16  21
ATOM     21  S   UNL A   1      43.457  28.383  32.683  1.00  0.00    -0.126 SA
BRANCH  21  22
ATOM     22  C   UNL A   1      41.781  28.264  33.404  1.00  0.00     0.071 C 
ATOM     23  C   UNL A   1      40.680  28.481  32.378  1.00  0.00     0.016 C 
ENDBRANCH  21  22
ENDBRANCH  16  21
ENDBRANCH  10  15
ENDBRANCH   7   9
ENDBRANCH   4   7
ENDBRANCH   2   3
ENDBRANCH   1   2
BRANCH   1  24
ATOM     24  C   UNL A   1      40.556  20.222  26.640  1.00  0.00     0.023 C 
BRANCH  24  25
ATOM     25  C   UNL A   1      40.427  21.653  26.127  1.00  0.00     0.116 C 
BRANCH  25  26
ATOM     26  N   UNL A   1      39.052  22.098  25.944  1.00  0.00    -0.352 N 
ATOM     27  C   UNL A   1      38.521  23.346  26.199  1.00  0.00     0.251 C 
ATOM     28  H   UNL A   1      38.423  21.426  25.596  1.00  0.00     0.163 HD
ATOM     29  O   UNL A   1      37.324  23.556  26.056  1.00  0.00    -0.269 OA
BRANCH  27  30
ATOM     30  C   UNL A   1      39.419  24.408  26.698  1.00  0.00     0.039 A 
ATOM     31  C   UNL A   1      40.138  25.171  25.775  1.00  0.00     0.014 A 
ATOM     32  C   UNL A   1      39.470  24.707  28.061  1.00  0.00     0.014 A 
ATOM     33  C   UNL A   1      40.828  26.304  26.211  1.00  0.00     0.010 A 
ATOM     34  C   UNL A   1      40.105  25.869  28.483  1.00  0.00     0.010 A 
ATOM     35  C   UNL A   1      40.770  26.691  27.559  1.00  0.00    -0.014 A 
BRANCH  35  36
ATOM     36  C   UNL A   1      41.348  27.974  28.028  1.00  0.00     0.031 A 
ATOM     37  C   UNL A   1      42.837  28.172  28.033  1.00  0.00     0.074 A 
ATOM     38  C   UNL A   1      40.539  28.917  28.553  1.00  0.00     0.049 A 
ATOM     39  N   UNL A   1      43.535  29.160  28.532  1.00  0.00    -0.248 NA
ATOM     40  C   UNL A   1      43.648  27.108  27.421  1.00  0.00     0.031 C 
ATOM     41  C   UNL A   1      39.078  28.828  28.644  1.00  0.00     0.029 A 
ATOM     42  N   UNL A   1      40.831  30.128  29.129  1.00  0.00    -0.354 N 
ATOM     43  C   UNL A   1      44.866  28.825  28.319  1.00  0.00     0.074 A 
ATOM     44  C   UNL A   1      44.879  27.528  27.676  1.00  0.00     0.031 C 
ATOM     45  C   UNL A   1      38.603  29.940  29.227  1.00  0.00     0.029 A 
ATOM     46  C   UNL A   1      39.724  30.801  29.591  1.00  0.00     0.049 A 
ATOM     47  H   UNL A   1      41.746  30.481  29.205  1.00  0.00     0.167 HD
ATOM     48  C   UNL A   1      45.977  29.538  28.619  1.00  0.00     0.031 A 
ATOM     49  C   UNL A   1      39.621  31.971  30.252  1.00  0.00     0.031 A 
ATOM     50  C   UNL A   1      45.961  30.835  29.240  1.00  0.00     0.049 A 
ATOM     51  C   UNL A   1      40.870  32.738  30.589  1.00  0.00     0.074 A 
ATOM     52  C   UNL A   1      47.029  31.669  29.517  1.00  0.00     0.029 A 
ATOM     53  N   UNL A   1      44.820  31.485  29.683  1.00  0.00    -0.354 N 
ATOM     54  N   UNL A   1      42.117  32.433  30.322  1.00  0.00    -0.248 NA
ATOM     55  C   UNL A   1      40.697  34.001  31.320  1.00  0.00     0.031 C 
ATOM     56  C   UNL A   1      46.538  32.806  30.166  1.00  0.00     0.029 A 
ATOM     57  C   UNL A   1      45.160  32.698  30.256  1.00  0.00     0.049 A 
ATOM     58  H   UNL A   1      43.903  31.136  29.601  1.00  0.00     0.167 HD
ATOM     59  C   UNL A   1      42.878  33.473  30.842  1.00  0.00     0.074 A 
ATOM     60  C   UNL A   1      41.951  34.422  31.426  1.00  0.00     0.031 C 
ATOM     61  C   UNL A   1      44.224  33.626  30.838  1.00  0.00     0.031 A 
BRANCH  48  62
ATOM     62  C   UNL A   1      47.305  28.920  28.282  1.00  0.00    -0.014 A 
ATOM     63  C   UNL A   1      47.983  28.109  29.210  1.00  0.00     0.010 A 
ATOM     64  C   UNL A   1      47.873  29.131  27.012  1.00  0.00     0.010 A 
ATOM     65  C   UNL A   1      49.226  27.557  28.892  1.00  0.00     0.020 A 
ATOM     66  C   UNL A   1      49.106  28.561  26.681  1.00  0.00     0.020 A 
ATOM     67  C   UNL A   1      49.784  27.794  27.632  1.00  0.00     0.054 A 
BRANCH  67  68
ATOM     68  S   UNL A   1      51.394  27.059  27.239  1.00  0.00     0.124 S 
ATOM     69  O   UNL A   1      52.186  28.240  26.902  1.00  0.00    -0.237 OA
ATOM     70  O   UNL A   1      51.760  26.396  28.488  1.00  0.00    -0.237 OA
ATOM     71  O   UNL A   1      51.104  26.164  26.123  1.00  0.00    -0.744 OA
ENDBRANCH  67  68
ENDBRANCH  48  62
BRANCH  49  72
ATOM     72  C   UNL A   1      38.282  32.486  30.646  1.00  0.00    -0.014 A 
ATOM     73  C   UNL A   1      37.740  32.160  31.901  1.00  0.00     0.010 A 
ATOM     74  C   UNL A   1      37.554  33.319  29.778  1.00  0.00     0.010 A 
ATOM     75  C   UNL A   1      36.486  32.650  32.278  1.00  0.00     0.020 A 
ATOM     76  C   UNL A   1      36.309  33.828  30.161  1.00  0.00     0.020 A 
ATOM     77  C   UNL A   1      35.779  33.483  31.406  1.00  0.00     0.054 A 
BRANCH  77  78
ATOM     78  S   UNL A   1      34.181  34.157  31.939  1.00  0.00     0.124 S 
ATOM     79  O   UNL A   1      33.494  34.350  30.667  1.00  0.00    -0.237 OA
ATOM     80  O   UNL A   1      33.654  33.091  32.788  1.00  0.00    -0.237 OA
ATOM     81  O   UNL A   1      34.548  35.382  32.648  1.00  0.00    -0.744 OA
ENDBRANCH  77  78
ENDBRANCH  49  72
BRANCH  61  82
ATOM     82  C   UNL A   1      44.782  34.867  31.478  1.00  0.00    -0.014 A 
ATOM     83  C   UNL A   1      44.904  36.060  30.745  1.00  0.00     0.010 A 
ATOM     84  C   UNL A   1      45.110  34.861  32.846  1.00  0.00     0.010 A 
ATOM     85  C   UNL A   1      45.354  37.226  31.368  1.00  0.00     0.020 A 
ATOM     86  C   UNL A   1      45.543  36.029  33.476  1.00  0.00     0.020 A 
ATOM     87  C   UNL A   1      45.669  37.205  32.731  1.00  0.00     0.054 A 
BRANCH  87  88
ATOM     88  S   UNL A   1      46.180  38.748  33.535  1.00  0.00     0.124 S 
ATOM     89  O   UNL A   1      45.347  38.757  34.734  1.00  0.00    -0.237 OA
ATOM     90  O   UNL A   1      47.607  38.537  33.762  1.00  0.00    -0.237 OA
ATOM     91  O   UNL A   1      45.859  39.775  32.546  1.00  0.00    -0.744 OA
ENDBRANCH  87  88
ENDBRANCH  61  82
ENDBRANCH  35  36
ENDBRANCH  27  30
ENDBRANCH  25  26
ENDBRANCH  24  25
ENDBRANCH   1  24
TORSDOF 18
ENDMDL
MODEL 3
REMARK VINA RESULT:      -7.7      3.908     10.756
REMARK SMILES CCSc1cccc(-c2ccc([C@@H](C)C(=O)NCCCCNC(=O)c3ccc(-c4c5nc(c(-c6ccc(S(=O)(=O)[O-])cc6)c6ccc([nH]6)c(-c6ccc(S(=O)(=O)[O-])cc6)c6nc(c(-c7ccc(S(=O)(=O)[O-])cc7)c7ccc4[nH]7)C=C6)C=C5)cc3)cc2)c1
REMARK SMILES IDX 19 1 18 2 17 3 15 4 16 5 13 7 14 8 12 9 9 10 10 11 86 12
REMARK SMILES IDX 11 13 85 14 8 15 4 16 5 17 87 18 6 19 7 20 3 21 2 22 1 23
REMARK SMILES IDX 20 24 21 25 22 26 23 27 24 29 25 30 26 31 84 32 27 33 83 34
REMARK SMILES IDX 28 35 29 36 30 37 77 38 31 39 82 40 76 41 78 42 32 43 81 44
REMARK SMILES IDX 75 45 74 46 33 48 63 49 44 50 62 51 45 52 48 53 61 54 79 55
REMARK SMILES IDX 46 56 47 57 60 59 80 60 49 61 34 62 35 63 43 64 36 65 42 66
REMARK SMILES IDX 37 67 38 68 39 69 40 70 41 71 64 72 65 73 73 74 66 75 72 76
REMARK SMILES IDX 67 77 68 78 69 79 70 80 71 81 50 82 51 83 59 84 52 85 58 86
REMARK SMILES IDX 53 87 54 88 55 89 56 90 57 91
REMARK H PARENT 17 6 22 28 78 47 48 58
REMARK Flexibility Score: inf
ROOT
ATOM      1  C   UNL A   1      34.568  22.662  26.312  1.00  0.00     0.023 C 
ENDROOT
BRANCH   1   2
ATOM      2  C   UNL A   1      33.255  22.583  25.533  1.00  0.00     0.116 C 
BRANCH   2   3
ATOM      3  N   UNL A   1      32.095  22.641  26.398  1.00  0.00    -0.356 N 
ATOM      4  C   UNL A   1      31.104  23.569  26.510  1.00  0.00     0.227 C 
ATOM      5  O   UNL A   1      30.255  23.371  27.389  1.00  0.00    -0.274 OA
ATOM      6  H   UNL A   1      32.008  21.877  27.012  1.00  0.00     0.163 HD
BRANCH   4   7
ATOM      7  C   UNL A   1      30.990  24.806  25.608  1.00  0.00     0.105 C 
ATOM      8  C   UNL A   1      31.139  24.505  24.116  1.00  0.00     0.023 C 
BRANCH   7   9
ATOM      9  C   UNL A   1      31.757  26.009  26.136  1.00  0.00    -0.036 A 
ATOM     10  C   UNL A   1      33.235  28.336  26.912  1.00  0.00    -0.018 A 
ATOM     11  C   UNL A   1      31.894  28.151  27.286  1.00  0.00     0.009 A 
ATOM     12  C   UNL A   1      33.828  27.300  26.171  1.00  0.00     0.009 A 
ATOM     13  C   UNL A   1      31.179  26.996  26.935  1.00  0.00     0.005 A 
ATOM     14  C   UNL A   1      33.100  26.171  25.772  1.00  0.00     0.005 A 
BRANCH  10  15
ATOM     15  C   UNL A   1      33.983  29.567  27.272  1.00  0.00    -0.017 A 
ATOM     16  C   UNL A   1      34.021  31.972  27.782  1.00  0.00     0.008 A 
ATOM     17  C   UNL A   1      35.404  31.919  27.957  1.00  0.00     0.015 A 
ATOM     18  C   UNL A   1      33.322  30.795  27.481  1.00  0.00     0.023 A 
ATOM     19  C   UNL A   1      36.083  30.717  27.781  1.00  0.00     0.002 A 
ATOM     20  C   UNL A   1      35.381  29.562  27.426  1.00  0.00     0.009 A 
BRANCH  16  21
ATOM     21  S   UNL A   1      33.204  33.550  27.954  1.00  0.00    -0.126 SA
BRANCH  21  22
ATOM     22  C   UNL A   1      34.625  34.700  27.968  1.00  0.00     0.071 C 
ATOM     23  C   UNL A   1      34.252  36.093  28.451  1.00  0.00     0.016 C 
ENDBRANCH  21  22
ENDBRANCH  16  21
ENDBRANCH  10  15
ENDBRANCH   7   9
ENDBRANCH   4   7
ENDBRANCH   2   3
ENDBRANCH   1   2
BRANCH   1  24
ATOM     24  C   UNL A   1      35.830  22.472  25.472  1.00  0.00     0.023 C 
BRANCH  24  25
ATOM     25  C   UNL A   1      37.097  23.112  26.033  1.00  0.00     0.116 C 
BRANCH  25  26
ATOM     26  N   UNL A   1      38.245  22.216  26.081  1.00  0.00    -0.352 N 
ATOM     27  C   UNL A   1      39.535  22.508  26.471  1.00  0.00     0.251 C 
ATOM     28  H   UNL A   1      38.080  21.287  25.800  1.00  0.00     0.163 HD
ATOM     29  O   UNL A   1      40.416  21.662  26.398  1.00  0.00    -0.269 OA
BRANCH  27  30
ATOM     30  C   UNL A   1      39.842  23.879  26.930  1.00  0.00     0.039 A 
ATOM     31  C   UNL A   1      40.174  24.082  28.272  1.00  0.00     0.014 A 
ATOM     32  C   UNL A   1      39.896  24.933  26.017  1.00  0.00     0.014 A 
ATOM     33  C   UNL A   1      40.663  25.325  28.677  1.00  0.00     0.010 A 
ATOM     34  C   UNL A   1      40.442  26.150  26.408  1.00  0.00     0.010 A 
ATOM     35  C   UNL A   1      40.852  26.350  27.737  1.00  0.00    -0.014 A 
BRANCH  35  36
ATOM     36  C   UNL A   1      41.524  27.624  28.095  1.00  0.00     0.031 A 
ATOM     37  C   UNL A   1      43.009  27.765  27.925  1.00  0.00     0.074 A 
ATOM     38  C   UNL A   1      40.812  28.611  28.677  1.00  0.00     0.049 A 
ATOM     39  N   UNL A   1      43.793  28.740  28.309  1.00  0.00    -0.248 NA
ATOM     40  C   UNL A   1      43.708  26.654  27.261  1.00  0.00     0.031 C 
ATOM     41  C   UNL A   1      39.369  28.579  28.935  1.00  0.00     0.029 A 
ATOM     42  N   UNL A   1      41.209  29.826  29.176  1.00  0.00    -0.354 N 
ATOM     43  C   UNL A   1      45.079  28.349  27.958  1.00  0.00     0.074 A 
ATOM     44  C   UNL A   1      44.974  27.034  27.361  1.00  0.00     0.031 C 
ATOM     45  C   UNL A   1      39.002  29.725  29.531  1.00  0.00     0.029 A 
ATOM     46  C   UNL A   1      40.186  30.553  29.738  1.00  0.00     0.049 A 
ATOM     47  H   UNL A   1      42.139  30.146  29.136  1.00  0.00     0.167 HD
ATOM     48  C   UNL A   1      46.241  29.028  28.108  1.00  0.00     0.031 A 
ATOM     49  C   UNL A   1      40.199  31.744  30.368  1.00  0.00     0.031 A 
ATOM     50  C   UNL A   1      46.340  30.342  28.683  1.00  0.00     0.049 A 
ATOM     51  C   UNL A   1      41.503  32.473  30.536  1.00  0.00     0.074 A 
ATOM     52  C   UNL A   1      47.461  31.142  28.810  1.00  0.00     0.029 A 
ATOM     53  N   UNL A   1      45.279  31.047  29.231  1.00  0.00    -0.354 N 
ATOM     54  N   UNL A   1      42.701  32.114  30.140  1.00  0.00    -0.248 NA
ATOM     55  C   UNL A   1      41.458  33.762  31.239  1.00  0.00     0.031 C 
ATOM     56  C   UNL A   1      47.086  32.316  29.473  1.00  0.00     0.029 A 
ATOM     57  C   UNL A   1      45.724  32.262  29.722  1.00  0.00     0.049 A 
ATOM     58  H   UNL A   1      44.348  30.730  29.265  1.00  0.00     0.167 HD
ATOM     59  C   UNL A   1      43.552  33.140  30.536  1.00  0.00     0.074 A 
ATOM     60  C   UNL A   1      42.730  34.139  31.189  1.00  0.00     0.031 C 
ATOM     61  C   UNL A   1      44.893  33.242  30.375  1.00  0.00     0.031 A 
BRANCH  48  62
ATOM     62  C   UNL A   1      47.500  28.351  27.643  1.00  0.00    -0.014 A 
ATOM     63  C   UNL A   1      48.230  27.512  28.503  1.00  0.00     0.010 A 
ATOM     64  C   UNL A   1      47.946  28.535  26.321  1.00  0.00     0.010 A 
ATOM     65  C   UNL A   1      49.409  26.904  28.066  1.00  0.00     0.020 A 
ATOM     66  C   UNL A   1      49.113  27.910  25.872  1.00  0.00     0.020 A 
ATOM     67  C   UNL A   1      49.848  27.114  26.755  1.00  0.00     0.054 A 
BRANCH  67  68
ATOM     68  S   UNL A   1      51.378  26.308  26.208  1.00  0.00     0.124 S 
ATOM     69  O   UNL A   1      52.397  27.146  26.835  1.00  0.00    -0.237 OA
ATOM     70  O   UNL A   1      51.247  24.962  26.758  1.00  0.00    -0.237 OA
ATOM     71  O   UNL A   1      51.312  26.393  24.751  1.00  0.00    -0.744 OA
ENDBRANCH  67  68
ENDBRANCH  48  62
BRANCH  49  72
ATOM     72  C   UNL A   1      38.932  32.320  30.893  1.00  0.00    -0.014 A 
ATOM     73  C   UNL A   1      38.464  31.955  32.167  1.00  0.00     0.010 A 
ATOM     74  C   UNL A   1      38.201  33.252  30.133  1.00  0.00     0.010 A 
ATOM     75  C   UNL A   1      37.278  32.502  32.667  1.00  0.00     0.020 A 
ATOM     76  C   UNL A   1      37.027  33.816  30.640  1.00  0.00     0.020 A 
ATOM     77  C   UNL A   1      36.569  33.431  31.901  1.00  0.00     0.054 A 
BRANCH  77  78
ATOM     78  S   UNL A   1      35.065  34.174  32.595  1.00  0.00     0.124 S 
ATOM     79  O   UNL A   1      34.114  34.012  31.500  1.00  0.00    -0.237 OA
ATOM     80  O   UNL A   1      34.818  33.348  33.775  1.00  0.00    -0.237 OA
ATOM     81  O   UNL A   1      35.467  35.550  32.880  1.00  0.00    -0.744 OA
ENDBRANCH  77  78
ENDBRANCH  49  72
BRANCH  61  82
ATOM     82  C   UNL A   1      45.562  34.478  30.906  1.00  0.00    -0.014 A 
ATOM     83  C   UNL A   1      45.632  35.647  30.130  1.00  0.00     0.010 A 
ATOM     84  C   UNL A   1      46.051  34.496  32.225  1.00  0.00     0.010 A 
ATOM     85  C   UNL A   1      46.191  36.813  30.659  1.00  0.00     0.020 A 
ATOM     86  C   UNL A   1      46.593  35.665  32.764  1.00  0.00     0.020 A 
ATOM     87  C   UNL A   1      46.666  36.815  31.975  1.00  0.00     0.054 A 
BRANCH  87  88
ATOM     88  S   UNL A   1      47.318  38.360  32.666  1.00  0.00     0.124 S 
ATOM     89  O   UNL A   1      46.784  39.356  31.741  1.00  0.00    -0.237 OA
ATOM     90  O   UNL A   1      46.746  38.380  34.010  1.00  0.00    -0.237 OA
ATOM     91  O   UNL A   1      48.767  38.177  32.616  1.00  0.00    -0.744 OA
ENDBRANCH  87  88
ENDBRANCH  61  82
ENDBRANCH  35  36
ENDBRANCH  27  30
ENDBRANCH  25  26
ENDBRANCH  24  25
ENDBRANCH   1  24
TORSDOF 18
ENDMDL
