MODEL 1
REMARK VINA RESULT:     -11.9      0.000      0.000
REMARK SMILES CCOC(=O)C1=NN(c2cc(F)cc(F)c2)[C@@H](C(=O)NCCCCNC(=O)c2ccc(-c3c4nc(c(-c5ccc(S(=O)(=O)[O-])cc5)c5ccc([nH]5)c(-c5ccc(S(=O)(=O)[O-])cc5)c5nc(c(-c6ccc(S(=O)(=O)[O-])cc6)c6ccc3[nH]6)C=C5)C=C4)cc2)C1
REMARK SMILES IDX 22 1 21 2 20 3 18 4 19 5 17 7 6 8 7 9 88 10 8 11 4 12 5 13
REMARK SMILES IDX 3 14 2 15 1 16 9 17 10 18 16 19 11 20 14 21 12 22 13 23
REMARK SMILES IDX 15 24 23 25 24 26 25 27 26 28 27 30 28 31 29 32 87 33 30 34
REMARK SMILES IDX 86 35 31 36 32 37 33 38 80 39 34 40 85 41 79 42 81 43 35 44
REMARK SMILES IDX 84 45 78 46 77 47 36 49 66 50 47 51 65 52 48 53 51 54 64 55
REMARK SMILES IDX 82 56 49 57 50 58 63 60 83 61 52 62 37 63 38 64 46 65 39 66
REMARK SMILES IDX 45 67 40 68 41 69 42 70 43 71 44 72 67 73 68 74 76 75 69 76
REMARK SMILES IDX 75 77 70 78 71 79 72 80 73 81 74 82 53 83 54 84 62 85 55 86
REMARK SMILES IDX 61 87 56 88 57 89 58 90 59 91 60 92
REMARK H PARENT 20 6 25 29 81 48 51 59
REMARK Flexibility Score: inf
ROOT
ATOM      1  C   UNL A   1      33.084  28.191  27.067  1.00  0.00     0.023 C 
ENDROOT
BRANCH   1   2
ATOM      2  C   UNL A   1      31.594  28.239  27.402  1.00  0.00     0.116 C 
BRANCH   2   3
ATOM      3  N   UNL A   1      30.870  27.104  26.858  1.00  0.00    -0.354 N 
ATOM      4  C   UNL A   1      30.846  26.590  25.591  1.00  0.00     0.245 C 
ATOM      5  O   UNL A   1      30.257  25.518  25.434  1.00  0.00    -0.273 OA
ATOM      6  H   UNL A   1      30.305  26.628  27.508  1.00  0.00     0.163 HD
BRANCH   4   7
ATOM      7  C   UNL A   1      31.578  27.312  24.450  1.00  0.00     0.203 C 
ATOM      8  C   UNL A   1      32.231  26.267  22.504  1.00  0.00     0.148 C 
ATOM      9  N   UNL A   1      31.145  26.883  22.160  1.00  0.00    -0.169 NA
ATOM     10  C   UNL A   1      32.690  26.415  23.914  1.00  0.00     0.103 C 
ATOM     11  N   UNL A   1      30.706  27.521  23.285  1.00  0.00    -0.252 N 
BRANCH   8  12
ATOM     12  C   UNL A   1      33.061  25.461  21.547  1.00  0.00     0.354 C 
ATOM     13  O   UNL A   1      33.124  25.728  20.363  1.00  0.00    -0.245 OA
BRANCH  12  14
ATOM     14  O   UNL A   1      33.726  24.512  22.233  1.00  0.00    -0.461 OA
BRANCH  14  15
ATOM     15  C   UNL A   1      33.163  23.194  22.162  1.00  0.00     0.230 C 
ATOM     16  C   UNL A   1      33.570  22.379  23.375  1.00  0.00     0.049 C 
ENDBRANCH  14  15
ENDBRANCH  12  14
ENDBRANCH   8  12
BRANCH  11  17
ATOM     17  C   UNL A   1      29.580  28.340  23.252  1.00  0.00     0.066 A 
ATOM     18  C   UNL A   1      29.671  29.732  23.088  1.00  0.00     0.067 A 
ATOM     19  C   UNL A   1      28.290  27.794  23.378  1.00  0.00     0.067 A 
ATOM     20  C   UNL A   1      28.524  30.527  23.050  1.00  0.00     0.128 A 
ATOM     21  C   UNL A   1      27.156  28.604  23.351  1.00  0.00     0.128 A 
ATOM     22  F   UNL A   1      28.654  31.849  22.870  1.00  0.00    -0.207 F 
ATOM     23  C   UNL A   1      27.262  29.976  23.184  1.00  0.00     0.078 A 
ATOM     24  F   UNL A   1      25.945  28.048  23.485  1.00  0.00    -0.207 F 
ENDBRANCH  11  17
ENDBRANCH   4   7
ENDBRANCH   2   3
ENDBRANCH   1   2
BRANCH   1  25
ATOM     25  C   UNL A   1      33.816  29.541  27.086  1.00  0.00     0.023 C 
BRANCH  25  26
ATOM     26  C   UNL A   1      35.180  29.564  27.778  1.00  0.00     0.116 C 
BRANCH  26  27
ATOM     27  N   UNL A   1      35.195  30.384  28.976  1.00  0.00    -0.352 N 
ATOM     28  C   UNL A   1      36.236  30.674  29.825  1.00  0.00     0.251 C 
ATOM     29  H   UNL A   1      34.332  30.791  29.216  1.00  0.00     0.163 HD
ATOM     30  O   UNL A   1      36.009  31.323  30.843  1.00  0.00    -0.269 OA
BRANCH  28  31
ATOM     31  C   UNL A   1      37.609  30.189  29.551  1.00  0.00     0.039 A 
ATOM     32  C   UNL A   1      38.019  30.096  28.215  1.00  0.00     0.014 A 
ATOM     33  C   UNL A   1      38.471  29.784  30.573  1.00  0.00     0.014 A 
ATOM     34  C   UNL A   1      39.307  29.651  27.907  1.00  0.00     0.010 A 
ATOM     35  C   UNL A   1      39.767  29.361  30.266  1.00  0.00     0.010 A 
ATOM     36  C   UNL A   1      40.197  29.298  28.931  1.00  0.00    -0.014 A 
BRANCH  36  37
ATOM     37  C   UNL A   1      41.584  28.882  28.618  1.00  0.00     0.031 A 
ATOM     38  C   UNL A   1      42.706  29.877  28.643  1.00  0.00     0.074 A 
ATOM     39  C   UNL A   1      41.828  27.608  28.259  1.00  0.00     0.049 A 
ATOM     40  N   UNL A   1      43.963  29.706  28.320  1.00  0.00    -0.248 NA
ATOM     41  C   UNL A   1      42.369  31.242  29.071  1.00  0.00     0.031 C 
ATOM     42  C   UNL A   1      40.822  26.549  28.164  1.00  0.00     0.029 A 
ATOM     43  N   UNL A   1      42.998  26.995  27.895  1.00  0.00    -0.354 N 
ATOM     44  C   UNL A   1      44.563  30.949  28.469  1.00  0.00     0.074 A 
ATOM     45  C   UNL A   1      43.532  31.861  28.926  1.00  0.00     0.031 C 
ATOM     46  C   UNL A   1      41.422  25.413  27.770  1.00  0.00     0.029 A 
ATOM     47  C   UNL A   1      42.846  25.669  27.573  1.00  0.00     0.049 A 
ATOM     48  H   UNL A   1      43.865  27.461  27.867  1.00  0.00     0.167 HD
ATOM     49  C   UNL A   1      45.849  31.305  28.240  1.00  0.00     0.031 A 
ATOM     50  C   UNL A   1      43.749  24.760  27.160  1.00  0.00     0.031 A 
ATOM     51  C   UNL A   1      46.887  30.405  27.817  1.00  0.00     0.049 A 
ATOM     52  C   UNL A   1      45.185  25.155  26.992  1.00  0.00     0.074 A 
ATOM     53  C   UNL A   1      48.225  30.677  27.584  1.00  0.00     0.029 A 
ATOM     54  N   UNL A   1      46.706  29.054  27.572  1.00  0.00    -0.354 N 
ATOM     55  N   UNL A   1      45.734  26.334  27.151  1.00  0.00    -0.248 NA
ATOM     56  C   UNL A   1      46.120  24.095  26.591  1.00  0.00     0.031 C 
ATOM     57  C   UNL A   1      48.854  29.484  27.198  1.00  0.00     0.029 A 
ATOM     58  C   UNL A   1      47.906  28.474  27.195  1.00  0.00     0.049 A 
ATOM     59  H   UNL A   1      45.849  28.575  27.655  1.00  0.00     0.167 HD
ATOM     60  C   UNL A   1      47.082  26.160  26.868  1.00  0.00     0.074 A 
ATOM     61  C   UNL A   1      47.267  24.760  26.537  1.00  0.00     0.031 C 
ATOM     62  C   UNL A   1      48.076  27.081  26.876  1.00  0.00     0.031 A 
BRANCH  49  63
ATOM     63  C   UNL A   1      46.181  32.755  28.427  1.00  0.00    -0.014 A 
ATOM     64  C   UNL A   1      46.075  33.659  27.356  1.00  0.00     0.010 A 
ATOM     65  C   UNL A   1      46.643  33.208  29.675  1.00  0.00     0.010 A 
ATOM     66  C   UNL A   1      46.471  34.989  27.517  1.00  0.00     0.020 A 
ATOM     67  C   UNL A   1      47.035  34.538  29.840  1.00  0.00     0.020 A 
ATOM     68  C   UNL A   1      46.969  35.414  28.753  1.00  0.00     0.054 A 
BRANCH  68  69
ATOM     69  S   UNL A   1      47.528  37.128  28.960  1.00  0.00     0.124 S 
ATOM     70  O   UNL A   1      48.910  37.049  28.491  1.00  0.00    -0.237 OA
ATOM     71  O   UNL A   1      46.620  37.886  28.104  1.00  0.00    -0.237 OA
ATOM     72  O   UNL A   1      47.367  37.359  30.393  1.00  0.00    -0.744 OA
ENDBRANCH  68  69
ENDBRANCH  49  63
BRANCH  50  73
ATOM     73  C   UNL A   1      43.299  23.375  26.883  1.00  0.00    -0.014 A 
ATOM     74  C   UNL A   1      43.114  22.947  25.558  1.00  0.00     0.010 A 
ATOM     75  C   UNL A   1      43.125  22.465  27.940  1.00  0.00     0.010 A 
ATOM     76  C   UNL A   1      42.772  21.619  25.289  1.00  0.00     0.020 A 
ATOM     77  C   UNL A   1      42.788  21.136  27.673  1.00  0.00     0.020 A 
ATOM     78  C   UNL A   1      42.614  20.722  26.349  1.00  0.00     0.054 A 
BRANCH  78  79
ATOM     79  S   UNL A   1      42.274  18.973  26.004  1.00  0.00     0.124 S 
ATOM     80  O   UNL A   1      43.158  18.710  24.873  1.00  0.00    -0.237 OA
ATOM     81  O   UNL A   1      42.635  18.311  27.256  1.00  0.00    -0.237 OA
ATOM     82  O   UNL A   1      40.844  18.970  25.703  1.00  0.00    -0.744 OA
ENDBRANCH  78  79
ENDBRANCH  50  73
BRANCH  62  83
ATOM     83  C   UNL A   1      49.451  26.597  26.522  1.00  0.00    -0.014 A 
ATOM     84  C   UNL A   1      50.269  26.006  27.501  1.00  0.00     0.010 A 
ATOM     85  C   UNL A   1      49.919  26.712  25.203  1.00  0.00     0.010 A 
ATOM     86  C   UNL A   1      51.550  25.555  27.169  1.00  0.00     0.020 A 
ATOM     87  C   UNL A   1      51.198  26.258  24.868  1.00  0.00     0.020 A 
ATOM     88  C   UNL A   1      52.010  25.694  25.855  1.00  0.00     0.054 A 
BRANCH  88  89
ATOM     89  S   UNL A   1      53.661  25.082  25.414  1.00  0.00     0.124 S 
ATOM     90  O   UNL A   1      53.446  23.639  25.365  1.00  0.00    -0.237 OA
ATOM     91  O   UNL A   1      53.923  25.721  24.126  1.00  0.00    -0.237 OA
ATOM     92  O   UNL A   1      54.497  25.555  26.515  1.00  0.00    -0.744 OA
ENDBRANCH  88  89
ENDBRANCH  62  83
ENDBRANCH  36  37
ENDBRANCH  28  31
ENDBRANCH  26  27
ENDBRANCH  25  26
ENDBRANCH   1  25
TORSDOF 18
ENDMDL
MODEL 2
REMARK VINA RESULT:     -11.6      6.684     12.261
REMARK SMILES CCOC(=O)C1=NN(c2cc(F)cc(F)c2)[C@@H](C(=O)NCCCCNC(=O)c2ccc(-c3c4nc(c(-c5ccc(S(=O)(=O)[O-])cc5)c5ccc([nH]5)c(-c5ccc(S(=O)(=O)[O-])cc5)c5nc(c(-c6ccc(S(=O)(=O)[O-])cc6)c6ccc3[nH]6)C=C5)C=C4)cc2)C1
REMARK SMILES IDX 22 1 21 2 20 3 18 4 19 5 17 7 6 8 7 9 88 10 8 11 4 12 5 13
REMARK SMILES IDX 3 14 2 15 1 16 9 17 10 18 16 19 11 20 14 21 12 22 13 23
REMARK SMILES IDX 15 24 23 25 24 26 25 27 26 28 27 30 28 31 29 32 87 33 30 34
REMARK SMILES IDX 86 35 31 36 32 37 33 38 80 39 34 40 85 41 79 42 81 43 35 44
REMARK SMILES IDX 84 45 78 46 77 47 36 49 66 50 47 51 65 52 48 53 51 54 64 55
REMARK SMILES IDX 82 56 49 57 50 58 63 60 83 61 52 62 37 63 38 64 46 65 39 66
REMARK SMILES IDX 45 67 40 68 41 69 42 70 43 71 44 72 67 73 68 74 76 75 69 76
REMARK SMILES IDX 75 77 70 78 71 79 72 80 73 81 74 82 53 83 54 84 62 85 55 86
REMARK SMILES IDX 61 87 56 88 57 89 58 90 59 91 60 92
REMARK H PARENT 20 6 25 29 81 48 51 59
REMARK Flexibility Score: inf
ROOT
ATOM      1  C   UNL A   1      38.435  22.456  26.040  1.00  0.00     0.023 C 
ENDROOT
BRANCH   1   2
ATOM      2  C   UNL A   1      37.759  21.383  25.189  1.00  0.00     0.116 C 
BRANCH   2   3
ATOM      3  N   UNL A   1      36.869  21.949  24.193  1.00  0.00    -0.354 N 
ATOM      4  C   UNL A   1      35.525  22.201  24.242  1.00  0.00     0.245 C 
ATOM      5  O   UNL A   1      35.040  22.832  23.300  1.00  0.00    -0.273 OA
ATOM      6  H   UNL A   1      37.303  22.190  23.343  1.00  0.00     0.163 HD
BRANCH   4   7
ATOM      7  C   UNL A   1      34.700  21.754  25.457  1.00  0.00     0.203 C 
ATOM      8  C   UNL A   1      32.659  22.671  26.008  1.00  0.00     0.148 C 
ATOM      9  N   UNL A   1      32.338  21.564  25.417  1.00  0.00    -0.169 NA
ATOM     10  C   UNL A   1      34.110  22.980  26.148  1.00  0.00     0.103 C 
ATOM     11  N   UNL A   1      33.517  20.975  25.061  1.00  0.00    -0.252 N 
BRANCH   8  12
ATOM     12  C   UNL A   1      31.651  23.618  26.591  1.00  0.00     0.354 C 
ATOM     13  O   UNL A   1      30.976  23.328  27.560  1.00  0.00    -0.245 OA
BRANCH  12  14
ATOM     14  O   UNL A   1      31.704  24.785  25.921  1.00  0.00    -0.461 OA
BRANCH  14  15
ATOM     15  C   UNL A   1      30.467  25.508  25.847  1.00  0.00     0.230 C 
ATOM     16  C   UNL A   1      30.729  26.973  25.555  1.00  0.00     0.049 C 
ENDBRANCH  14  15
ENDBRANCH  12  14
ENDBRANCH   8  12
BRANCH  11  17
ATOM     17  C   UNL A   1      33.539  19.722  24.454  1.00  0.00     0.066 A 
ATOM     18  C   UNL A   1      34.470  18.732  24.811  1.00  0.00     0.067 A 
ATOM     19  C   UNL A   1      32.611  19.393  23.450  1.00  0.00     0.067 A 
ATOM     20  C   UNL A   1      34.462  17.482  24.192  1.00  0.00     0.128 A 
ATOM     21  C   UNL A   1      32.626  18.144  22.832  1.00  0.00     0.128 A 
ATOM     22  F   UNL A   1      35.355  16.558  24.578  1.00  0.00    -0.207 F 
ATOM     23  C   UNL A   1      33.548  17.177  23.199  1.00  0.00     0.078 A 
ATOM     24  F   UNL A   1      31.732  17.872  21.871  1.00  0.00    -0.207 F 
ENDBRANCH  11  17
ENDBRANCH   4   7
ENDBRANCH   2   3
ENDBRANCH   1   2
BRANCH   1  25
ATOM     25  C   UNL A   1      39.825  22.098  26.586  1.00  0.00     0.023 C 
BRANCH  25  26
ATOM     26  C   UNL A   1      40.683  23.266  27.078  1.00  0.00     0.116 C 
BRANCH  26  27
ATOM     27  N   UNL A   1      41.434  23.906  26.013  1.00  0.00    -0.352 N 
ATOM     28  C   UNL A   1      41.877  25.203  25.912  1.00  0.00     0.251 C 
ATOM     29  H   UNL A   1      41.659  23.326  25.250  1.00  0.00     0.163 HD
ATOM     30  O   UNL A   1      42.423  25.565  24.873  1.00  0.00    -0.269 OA
BRANCH  28  31
ATOM     31  C   UNL A   1      41.675  26.171  27.015  1.00  0.00     0.039 A 
ATOM     32  C   UNL A   1      40.682  25.892  27.962  1.00  0.00     0.014 A 
ATOM     33  C   UNL A   1      42.406  27.359  27.103  1.00  0.00     0.014 A 
ATOM     34  C   UNL A   1      40.460  26.772  29.025  1.00  0.00     0.010 A 
ATOM     35  C   UNL A   1      42.199  28.227  28.179  1.00  0.00     0.010 A 
ATOM     36  C   UNL A   1      41.230  27.937  29.150  1.00  0.00    -0.014 A 
BRANCH  36  37
ATOM     37  C   UNL A   1      41.042  28.845  30.306  1.00  0.00     0.031 A 
ATOM     38  C   UNL A   1      41.929  28.743  31.512  1.00  0.00     0.074 A 
ATOM     39  C   UNL A   1      40.034  29.736  30.290  1.00  0.00     0.049 A 
ATOM     40  N   UNL A   1      41.857  29.402  32.640  1.00  0.00    -0.248 NA
ATOM     41  C   UNL A   1      43.025  27.767  31.445  1.00  0.00     0.031 C 
ATOM     42  C   UNL A   1      39.081  29.916  29.193  1.00  0.00     0.029 A 
ATOM     43  N   UNL A   1      39.638  30.648  31.233  1.00  0.00    -0.354 N 
ATOM     44  C   UNL A   1      42.875  28.896  33.437  1.00  0.00     0.074 A 
ATOM     45  C   UNL A   1      43.558  27.884  32.654  1.00  0.00     0.031 C 
ATOM     46  C   UNL A   1      38.211  30.884  29.527  1.00  0.00     0.029 A 
ATOM     47  C   UNL A   1      38.538  31.380  30.861  1.00  0.00     0.049 A 
ATOM     48  H   UNL A   1      40.099  30.768  32.095  1.00  0.00     0.167 HD
ATOM     49  C   UNL A   1      43.209  29.231  34.706  1.00  0.00     0.031 A 
ATOM     50  C   UNL A   1      37.862  32.339  31.520  1.00  0.00     0.031 A 
ATOM     51  C   UNL A   1      42.561  30.252  35.483  1.00  0.00     0.049 A 
ATOM     52  C   UNL A   1      38.298  32.754  32.892  1.00  0.00     0.074 A 
ATOM     53  C   UNL A   1      42.851  30.674  36.770  1.00  0.00     0.029 A 
ATOM     54  N   UNL A   1      41.497  31.020  35.041  1.00  0.00    -0.354 N 
ATOM     55  N   UNL A   1      39.273  32.271  33.623  1.00  0.00    -0.248 NA
ATOM     56  C   UNL A   1      37.544  33.845  33.525  1.00  0.00     0.031 C 
ATOM     57  C   UNL A   1      41.958  31.702  37.105  1.00  0.00     0.029 A 
ATOM     58  C   UNL A   1      41.117  31.918  36.025  1.00  0.00     0.049 A 
ATOM     59  H   UNL A   1      41.071  30.940  34.156  1.00  0.00     0.167 HD
ATOM     60  C   UNL A   1      39.250  32.998  34.805  1.00  0.00     0.074 A 
ATOM     61  C   UNL A   1      38.171  33.960  34.689  1.00  0.00     0.031 C 
ATOM     62  C   UNL A   1      40.049  32.873  35.893  1.00  0.00     0.031 A 
BRANCH  49  63
ATOM     63  C   UNL A   1      44.325  28.447  35.330  1.00  0.00    -0.014 A 
ATOM     64  C   UNL A   1      44.060  27.269  36.047  1.00  0.00     0.010 A 
ATOM     65  C   UNL A   1      45.646  28.919  35.231  1.00  0.00     0.010 A 
ATOM     66  C   UNL A   1      45.096  26.595  36.698  1.00  0.00     0.020 A 
ATOM     67  C   UNL A   1      46.684  28.245  35.877  1.00  0.00     0.020 A 
ATOM     68  C   UNL A   1      46.398  27.100  36.627  1.00  0.00     0.054 A 
BRANCH  68  69
ATOM     69  S   UNL A   1      47.744  26.257  37.506  1.00  0.00     0.124 S 
ATOM     70  O   UNL A   1      48.208  27.305  38.412  1.00  0.00    -0.237 OA
ATOM     71  O   UNL A   1      47.075  25.128  38.146  1.00  0.00    -0.237 OA
ATOM     72  O   UNL A   1      48.670  25.902  36.434  1.00  0.00    -0.744 OA
ENDBRANCH  68  69
ENDBRANCH  49  63
BRANCH  50  73
ATOM     73  C   UNL A   1      36.692  32.973  30.866  1.00  0.00    -0.014 A 
ATOM     74  C   UNL A   1      35.409  32.825  31.419  1.00  0.00     0.010 A 
ATOM     75  C   UNL A   1      36.871  33.782  29.730  1.00  0.00     0.010 A 
ATOM     76  C   UNL A   1      34.318  33.489  30.853  1.00  0.00     0.020 A 
ATOM     77  C   UNL A   1      35.783  34.452  29.167  1.00  0.00     0.020 A 
ATOM     78  C   UNL A   1      34.512  34.300  29.732  1.00  0.00     0.054 A 
BRANCH  78  79
ATOM     79  S   UNL A   1      33.121  35.249  29.056  1.00  0.00     0.124 S 
ATOM     80  O   UNL A   1      32.578  34.326  28.065  1.00  0.00    -0.237 OA
ATOM     81  O   UNL A   1      32.280  35.485  30.228  1.00  0.00    -0.237 OA
ATOM     82  O   UNL A   1      33.770  36.444  28.519  1.00  0.00    -0.744 OA
ENDBRANCH  78  79
ENDBRANCH  50  73
BRANCH  62  83
ATOM     83  C   UNL A   1      39.785  33.807  37.037  1.00  0.00    -0.014 A 
ATOM     84  C   UNL A   1      38.943  33.416  38.092  1.00  0.00     0.010 A 
ATOM     85  C   UNL A   1      40.397  35.070  37.070  1.00  0.00     0.010 A 
ATOM     86  C   UNL A   1      38.698  34.287  39.157  1.00  0.00     0.020 A 
ATOM     87  C   UNL A   1      40.157  35.942  38.136  1.00  0.00     0.020 A 
ATOM     88  C   UNL A   1      39.299  35.550  39.167  1.00  0.00     0.054 A 
BRANCH  88  89
ATOM     89  S   UNL A   1      39.007  36.672  40.563  1.00  0.00     0.124 S 
ATOM     90  O   UNL A   1      38.505  37.867  39.890  1.00  0.00    -0.237 OA
ATOM     91  O   UNL A   1      38.027  35.952  41.374  1.00  0.00    -0.237 OA
ATOM     92  O   UNL A   1      40.330  36.803  41.169  1.00  0.00    -0.744 OA
ENDBRANCH  88  89
ENDBRANCH  62  83
ENDBRANCH  36  37
ENDBRANCH  28  31
ENDBRANCH  26  27
ENDBRANCH  25  26
ENDBRANCH   1  25
TORSDOF 18
ENDMDL
MODEL 3
REMARK VINA RESULT:     -11.5      5.507      7.275
REMARK SMILES CCOC(=O)C1=NN(c2cc(F)cc(F)c2)[C@@H](C(=O)NCCCCNC(=O)c2ccc(-c3c4nc(c(-c5ccc(S(=O)(=O)[O-])cc5)c5ccc([nH]5)c(-c5ccc(S(=O)(=O)[O-])cc5)c5nc(c(-c6ccc(S(=O)(=O)[O-])cc6)c6ccc3[nH]6)C=C5)C=C4)cc2)C1
REMARK SMILES IDX 22 1 21 2 20 3 18 4 19 5 17 7 6 8 7 9 88 10 8 11 4 12 5 13
REMARK SMILES IDX 3 14 2 15 1 16 9 17 10 18 16 19 11 20 14 21 12 22 13 23
REMARK SMILES IDX 15 24 23 25 24 26 25 27 26 28 27 30 28 31 29 32 87 33 30 34
REMARK SMILES IDX 86 35 31 36 32 37 33 38 80 39 34 40 85 41 79 42 81 43 35 44
REMARK SMILES IDX 84 45 78 46 77 47 36 49 66 50 47 51 65 52 48 53 51 54 64 55
REMARK SMILES IDX 82 56 49 57 50 58 63 60 83 61 52 62 37 63 38 64 46 65 39 66
REMARK SMILES IDX 45 67 40 68 41 69 42 70 43 71 44 72 67 73 68 74 76 75 69 76
REMARK SMILES IDX 75 77 70 78 71 79 72 80 73 81 74 82 53 83 54 84 62 85 55 86
REMARK SMILES IDX 61 87 56 88 57 89 58 90 59 91 60 92
REMARK H PARENT 20 6 25 29 81 48 51 59
REMARK Flexibility Score: inf
ROOT
ATOM      1  C   UNL A   1      33.451  26.216  25.702  1.00  0.00     0.023 C 
ENDROOT
BRANCH   1   2
ATOM      2  C   UNL A   1      32.749  25.566  24.511  1.00  0.00     0.116 C 
BRANCH   2   3
ATOM      3  N   UNL A   1      33.684  24.940  23.595  1.00  0.00    -0.354 N 
ATOM      4  C   UNL A   1      34.213  23.678  23.589  1.00  0.00     0.245 C 
ATOM      5  O   UNL A   1      34.875  23.354  22.600  1.00  0.00    -0.273 OA
ATOM      6  H   UNL A   1      33.988  25.518  22.859  1.00  0.00     0.163 HD
BRANCH   4   7
ATOM      7  C   UNL A   1      33.926  22.715  24.751  1.00  0.00     0.203 C 
ATOM      8  C   UNL A   1      33.399  20.493  24.452  1.00  0.00     0.148 C 
ATOM      9  N   UNL A   1      34.654  20.460  24.771  1.00  0.00    -0.169 NA
ATOM     10  C   UNL A   1      32.739  21.827  24.391  1.00  0.00     0.103 C 
ATOM     11  N   UNL A   1      35.026  21.761  24.957  1.00  0.00    -0.252 N 
BRANCH   8  12
ATOM     12  C   UNL A   1      32.582  19.260  24.192  1.00  0.00     0.354 C 
ATOM     13  O   UNL A   1      32.241  18.936  23.071  1.00  0.00    -0.245 OA
BRANCH  12  14
ATOM     14  O   UNL A   1      32.392  18.605  25.353  1.00  0.00    -0.461 OA
BRANCH  14  15
ATOM     15  C   UNL A   1      32.523  17.178  25.282  1.00  0.00     0.230 C 
ATOM     16  C   UNL A   1      33.980  16.790  25.112  1.00  0.00     0.049 C 
ENDBRANCH  14  15
ENDBRANCH  12  14
ENDBRANCH   8  12
BRANCH  11  17
ATOM     17  C   UNL A   1      36.313  22.087  25.376  1.00  0.00     0.066 A 
ATOM     18  C   UNL A   1      36.642  23.363  25.863  1.00  0.00     0.067 A 
ATOM     19  C   UNL A   1      37.346  21.133  25.333  1.00  0.00     0.067 A 
ATOM     20  C   UNL A   1      37.939  23.658  26.285  1.00  0.00     0.128 A 
ATOM     21  C   UNL A   1      38.639  21.450  25.747  1.00  0.00     0.128 A 
ATOM     22  F   UNL A   1      38.205  24.883  26.763  1.00  0.00    -0.207 F 
ATOM     23  C   UNL A   1      38.947  22.712  26.228  1.00  0.00     0.078 A 
ATOM     24  F   UNL A   1      39.599  20.517  25.680  1.00  0.00    -0.207 F 
ENDBRANCH  11  17
ENDBRANCH   4   7
ENDBRANCH   2   3
ENDBRANCH   1   2
BRANCH   1  25
ATOM     25  C   UNL A   1      33.030  27.658  26.021  1.00  0.00     0.023 C 
BRANCH  25  26
ATOM     26  C   UNL A   1      34.154  28.693  26.093  1.00  0.00     0.116 C 
BRANCH  26  27
ATOM     27  N   UNL A   1      33.698  29.996  26.544  1.00  0.00    -0.352 N 
ATOM     28  C   UNL A   1      34.246  30.839  27.479  1.00  0.00     0.251 C 
ATOM     29  H   UNL A   1      32.874  30.323  26.116  1.00  0.00     0.163 HD
ATOM     30  O   UNL A   1      33.643  31.867  27.779  1.00  0.00    -0.269 OA
BRANCH  28  31
ATOM     31  C   UNL A   1      35.524  30.512  28.153  1.00  0.00     0.039 A 
ATOM     32  C   UNL A   1      35.480  29.688  29.284  1.00  0.00     0.014 A 
ATOM     33  C   UNL A   1      36.746  31.036  27.722  1.00  0.00     0.014 A 
ATOM     34  C   UNL A   1      36.660  29.345  29.949  1.00  0.00     0.010 A 
ATOM     35  C   UNL A   1      37.929  30.675  28.374  1.00  0.00     0.010 A 
ATOM     36  C   UNL A   1      37.895  29.822  29.487  1.00  0.00    -0.014 A 
BRANCH  36  37
ATOM     37  C   UNL A   1      39.157  29.416  30.149  1.00  0.00     0.031 A 
ATOM     38  C   UNL A   1      39.646  30.135  31.371  1.00  0.00     0.074 A 
ATOM     39  C   UNL A   1      39.895  28.425  29.616  1.00  0.00     0.049 A 
ATOM     40  N   UNL A   1      40.764  29.966  32.031  1.00  0.00    -0.248 NA
ATOM     41  C   UNL A   1      38.774  31.187  31.912  1.00  0.00     0.031 C 
ATOM     42  C   UNL A   1      39.549  27.666  28.412  1.00  0.00     0.029 A 
ATOM     43  N   UNL A   1      41.095  27.896  30.014  1.00  0.00    -0.354 N 
ATOM     44  C   UNL A   1      40.750  30.914  33.044  1.00  0.00     0.074 A 
ATOM     45  C   UNL A   1      39.505  31.646  32.919  1.00  0.00     0.031 C 
ATOM     46  C   UNL A   1      40.516  26.765  28.173  1.00  0.00     0.029 A 
ATOM     47  C   UNL A   1      41.552  26.894  29.195  1.00  0.00     0.049 A 
ATOM     48  H   UNL A   1      41.583  28.206  30.811  1.00  0.00     0.167 HD
ATOM     49  C   UNL A   1      41.690  31.164  33.988  1.00  0.00     0.031 A 
ATOM     50  C   UNL A   1      42.680  26.163  29.253  1.00  0.00     0.031 A 
ATOM     51  C   UNL A   1      42.914  30.427  34.142  1.00  0.00     0.049 A 
ATOM     52  C   UNL A   1      43.669  26.399  30.355  1.00  0.00     0.074 A 
ATOM     53  C   UNL A   1      43.912  30.597  35.088  1.00  0.00     0.029 A 
ATOM     54  N   UNL A   1      43.305  29.371  33.336  1.00  0.00    -0.354 N 
ATOM     55  N   UNL A   1      43.630  27.293  31.312  1.00  0.00    -0.248 NA
ATOM     56  C   UNL A   1      44.849  25.524  30.384  1.00  0.00     0.031 C 
ATOM     57  C   UNL A   1      44.908  29.639  34.850  1.00  0.00     0.029 A 
ATOM     58  C   UNL A   1      44.526  28.875  33.760  1.00  0.00     0.049 A 
ATOM     59  H   UNL A   1      42.790  29.024  32.571  1.00  0.00     0.167 HD
ATOM     60  C   UNL A   1      44.783  27.092  32.058  1.00  0.00     0.074 A 
ATOM     61  C   UNL A   1      45.494  25.984  31.449  1.00  0.00     0.031 C 
ATOM     62  C   UNL A   1      45.216  27.770  33.149  1.00  0.00     0.031 A 
BRANCH  49  63
ATOM     63  C   UNL A   1      41.416  32.314  34.911  1.00  0.00    -0.014 A 
ATOM     64  C   UNL A   1      41.843  33.612  34.585  1.00  0.00     0.010 A 
ATOM     65  C   UNL A   1      40.763  32.083  36.134  1.00  0.00     0.010 A 
ATOM     66  C   UNL A   1      41.661  34.660  35.491  1.00  0.00     0.020 A 
ATOM     67  C   UNL A   1      40.576  33.129  37.040  1.00  0.00     0.020 A 
ATOM     68  C   UNL A   1      41.048  34.406  36.722  1.00  0.00     0.054 A 
BRANCH  68  69
ATOM     69  S   UNL A   1      40.848  35.750  37.925  1.00  0.00     0.124 S 
ATOM     70  O   UNL A   1      39.993  36.680  37.192  1.00  0.00    -0.237 OA
ATOM     71  O   UNL A   1      40.219  35.091  39.067  1.00  0.00    -0.237 OA
ATOM     72  O   UNL A   1      42.218  36.202  38.150  1.00  0.00    -0.744 OA
ENDBRANCH  68  69
ENDBRANCH  49  63
BRANCH  50  73
ATOM     73  C   UNL A   1      42.920  25.127  28.220  1.00  0.00    -0.014 A 
ATOM     74  C   UNL A   1      43.662  25.439  27.068  1.00  0.00     0.010 A 
ATOM     75  C   UNL A   1      42.467  23.812  28.421  1.00  0.00     0.010 A 
ATOM     76  C   UNL A   1      43.961  24.445  26.133  1.00  0.00     0.020 A 
ATOM     77  C   UNL A   1      42.771  22.815  27.491  1.00  0.00     0.020 A 
ATOM     78  C   UNL A   1      43.516  23.139  26.352  1.00  0.00     0.054 A 
BRANCH  78  79
ATOM     79  S   UNL A   1      43.990  21.821  25.198  1.00  0.00     0.124 S 
ATOM     80  O   UNL A   1      43.883  22.496  23.908  1.00  0.00    -0.237 OA
ATOM     81  O   UNL A   1      45.347  21.481  25.622  1.00  0.00    -0.237 OA
ATOM     82  O   UNL A   1      42.992  20.785  25.455  1.00  0.00    -0.744 OA
ENDBRANCH  78  79
ENDBRANCH  50  73
BRANCH  62  83
ATOM     83  C   UNL A   1      46.515  27.323  33.752  1.00  0.00    -0.014 A 
ATOM     84  C   UNL A   1      47.731  27.861  33.295  1.00  0.00     0.010 A 
ATOM     85  C   UNL A   1      46.522  26.380  34.791  1.00  0.00     0.010 A 
ATOM     86  C   UNL A   1      48.941  27.444  33.857  1.00  0.00     0.020 A 
ATOM     87  C   UNL A   1      47.730  25.964  35.358  1.00  0.00     0.020 A 
ATOM     88  C   UNL A   1      48.933  26.490  34.879  1.00  0.00     0.054 A 
BRANCH  88  89
ATOM     89  S   UNL A   1      50.500  25.968  35.631  1.00  0.00     0.124 S 
ATOM     90  O   UNL A   1      50.057  25.445  36.921  1.00  0.00    -0.237 OA
ATOM     91  O   UNL A   1      51.008  24.970  34.691  1.00  0.00    -0.237 OA
ATOM     92  O   UNL A   1      51.272  27.207  35.689  1.00  0.00    -0.744 OA
ENDBRANCH  88  89
ENDBRANCH  62  83
ENDBRANCH  36  37
ENDBRANCH  28  31
ENDBRANCH  26  27
ENDBRANCH  25  26
ENDBRANCH   1  25
TORSDOF 18
ENDMDL
