MODEL 1
REMARK VINA RESULT:     -11.6      0.000      0.000
REMARK SMILES Cc1nc(NC(=O)[C@H]2[C@@H]3CC[C@@H](C3)[C@@H]2C(=O)NCCCCNC(=O)c2ccc(-c3c4nc(c(-c5ccc(S(=O)(=O)[O-])cc5)c5ccc([nH]5)c(-c5ccc(S(=O)(=O)[O-])cc5)c5nc(c(-c6ccc(S(=O)(=O)[O-])cc6)c6ccc3[nH]6)C=C5)C=C4)cc2)sc1-c1ccccc1
REMARK SMILES IDX 19 1 18 2 17 3 15 4 16 5 14 7 8 8 9 9 10 10 13 11 12 12
REMARK SMILES IDX 11 13 6 14 5 15 7 17 4 18 1 19 2 20 3 21 86 22 85 23 87 24
REMARK SMILES IDX 88 25 92 26 89 27 91 28 90 29 20 30 21 31 22 32 23 33 24 35
REMARK SMILES IDX 25 36 26 37 84 38 27 39 83 40 28 41 29 42 30 43 77 44 31 45
REMARK SMILES IDX 82 46 76 47 78 48 32 49 81 50 75 51 74 52 33 54 63 55 44 56
REMARK SMILES IDX 62 57 45 58 48 59 61 60 79 61 46 62 47 63 60 65 80 66 49 67
REMARK SMILES IDX 34 68 35 69 43 70 36 71 42 72 37 73 38 74 39 75 40 76 41 77
REMARK SMILES IDX 64 78 65 79 73 80 66 81 72 82 67 83 68 84 69 85 70 86 71 87
REMARK SMILES IDX 50 88 51 89 59 90 52 91 58 92 53 93 54 94 55 95 56 96 57 97
REMARK H PARENT 17 6 5 16 22 34 78 53 48 64
REMARK Flexibility Score: inf
ROOT
ATOM      1  C   UNL A   1      34.678  23.722  26.155  1.00  0.00     0.023 C 
ENDROOT
BRANCH   1   2
ATOM      2  C   UNL A   1      33.707  24.885  25.990  1.00  0.00     0.116 C 
BRANCH   2   3
ATOM      3  N   UNL A   1      34.212  25.970  25.175  1.00  0.00    -0.356 N 
ATOM      4  C   UNL A   1      33.839  27.272  25.030  1.00  0.00     0.224 C 
ATOM      5  O   UNL A   1      34.617  27.974  24.378  1.00  0.00    -0.275 OA
ATOM      6  H   UNL A   1      34.978  25.715  24.610  1.00  0.00     0.163 HD
BRANCH   4   7
ATOM      7  C   UNL A   1      32.528  27.831  25.620  1.00  0.00     0.094 C 
ATOM      8  C   UNL A   1      32.138  29.190  24.931  1.00  0.00     0.094 C 
ATOM      9  C   UNL A   1      32.198  30.166  26.159  1.00  0.00     0.002 C 
ATOM     10  C   UNL A   1      33.636  30.311  26.693  1.00  0.00     0.005 C 
ATOM     11  C   UNL A   1      31.545  29.309  27.239  1.00  0.00     0.009 C 
ATOM     12  C   UNL A   1      32.596  28.212  27.122  1.00  0.00     0.002 C 
ATOM     13  C   UNL A   1      33.882  28.988  27.422  1.00  0.00     0.005 C 
BRANCH   8  14
ATOM     14  C   UNL A   1      30.745  29.380  24.269  1.00  0.00     0.230 C 
ATOM     15  N   UNL A   1      30.033  28.448  23.595  1.00  0.00    -0.302 N 
ATOM     16  H   UNL A   1      29.109  28.697  23.366  1.00  0.00     0.172 HD
ATOM     17  O   UNL A   1      30.185  30.488  24.341  1.00  0.00    -0.274 OA
BRANCH  15  18
ATOM     18  C   UNL A   1      30.427  27.217  23.194  1.00  0.00     0.190 A 
ATOM     19  C   UNL A   1      32.673  25.060  21.496  1.00  0.00     0.068 C 
ATOM     20  C   UNL A   1      31.569  25.574  22.330  1.00  0.00     0.058 A 
ATOM     21  N   UNL A   1      31.296  26.922  22.275  1.00  0.00    -0.225 NA
ATOM     22  C   UNL A   1      30.878  24.871  23.301  1.00  0.00     0.059 A 
ATOM     23  S   UNL A   1      29.749  25.905  24.061  1.00  0.00    -0.096 S 
BRANCH  22  24
ATOM     24  C   UNL A   1      31.121  23.487  23.682  1.00  0.00    -0.006 A 
ATOM     25  C   UNL A   1      31.870  22.659  22.838  1.00  0.00     0.009 A 
ATOM     26  C   UNL A   1      30.901  23.100  25.012  1.00  0.00     0.009 A 
ATOM     27  C   UNL A   1      32.444  21.489  23.338  1.00  0.00     0.001 A 
ATOM     28  C   UNL A   1      31.475  21.928  25.508  1.00  0.00     0.001 A 
ATOM     29  C   UNL A   1      32.261  21.134  24.674  1.00  0.00     0.000 A 
ENDBRANCH  22  24
ENDBRANCH  15  18
ENDBRANCH   8  14
ENDBRANCH   4   7
ENDBRANCH   2   3
ENDBRANCH   1   2
BRANCH   1  30
ATOM     30  C   UNL A   1      35.481  23.366  24.900  1.00  0.00     0.023 C 
BRANCH  30  31
ATOM     31  C   UNL A   1      36.932  23.810  24.922  1.00  0.00     0.116 C 
BRANCH  31  32
ATOM     32  N   UNL A   1      37.821  22.746  25.355  1.00  0.00    -0.352 N 
ATOM     33  C   UNL A   1      38.984  22.844  26.079  1.00  0.00     0.251 C 
ATOM     34  H   UNL A   1      37.554  21.834  25.095  1.00  0.00     0.163 HD
ATOM     35  O   UNL A   1      39.742  21.888  26.158  1.00  0.00    -0.269 OA
BRANCH  33  36
ATOM     36  C   UNL A   1      39.305  24.124  26.743  1.00  0.00     0.039 A 
ATOM     37  C   UNL A   1      38.881  24.334  28.055  1.00  0.00     0.014 A 
ATOM     38  C   UNL A   1      40.046  25.100  26.070  1.00  0.00     0.014 A 
ATOM     39  C   UNL A   1      39.247  25.508  28.712  1.00  0.00     0.010 A 
ATOM     40  C   UNL A   1      40.487  26.223  26.756  1.00  0.00     0.010 A 
ATOM     41  C   UNL A   1      40.080  26.446  28.078  1.00  0.00    -0.014 A 
BRANCH  41  42
ATOM     42  C   UNL A   1      40.529  27.673  28.779  1.00  0.00     0.031 A 
ATOM     43  C   UNL A   1      41.889  27.712  29.421  1.00  0.00     0.074 A 
ATOM     44  C   UNL A   1      39.688  28.720  28.886  1.00  0.00     0.049 A 
ATOM     45  N   UNL A   1      42.440  28.671  30.119  1.00  0.00    -0.248 NA
ATOM     46  C   UNL A   1      42.729  26.509  29.290  1.00  0.00     0.031 C 
ATOM     47  C   UNL A   1      38.325  28.773  28.348  1.00  0.00     0.029 A 
ATOM     48  N   UNL A   1      39.849  29.941  29.488  1.00  0.00    -0.354 N 
ATOM     49  C   UNL A   1      43.677  28.181  30.522  1.00  0.00     0.074 A 
ATOM     50  C   UNL A   1      43.777  26.823  30.038  1.00  0.00     0.031 C 
ATOM     51  C   UNL A   1      37.789  29.974  28.618  1.00  0.00     0.029 A 
ATOM     52  C   UNL A   1      38.748  30.759  29.387  1.00  0.00     0.049 A 
ATOM     53  H   UNL A   1      40.677  30.209  29.950  1.00  0.00     0.167 HD
ATOM     54  C   UNL A   1      44.651  28.815  31.214  1.00  0.00     0.031 A 
ATOM     55  C   UNL A   1      38.531  31.998  29.868  1.00  0.00     0.031 A 
ATOM     56  C   UNL A   1      44.550  30.174  31.675  1.00  0.00     0.049 A 
ATOM     57  C   UNL A   1      39.632  32.679  30.636  1.00  0.00     0.074 A 
ATOM     58  C   UNL A   1      45.506  30.934  32.324  1.00  0.00     0.029 A 
ATOM     59  N   UNL A   1      43.425  30.973  31.537  1.00  0.00    -0.354 N 
ATOM     60  N   UNL A   1      40.829  32.229  30.932  1.00  0.00    -0.248 NA
ATOM     61  C   UNL A   1      39.360  34.037  31.124  1.00  0.00     0.031 C 
ATOM     62  C   UNL A   1      44.937  32.172  32.636  1.00  0.00     0.029 A 
ATOM     63  C   UNL A   1      43.653  32.209  32.119  1.00  0.00     0.049 A 
ATOM     64  H   UNL A   1      42.590  30.704  31.092  1.00  0.00     0.167 HD
ATOM     65  C   UNL A   1      41.460  33.260  31.619  1.00  0.00     0.074 A 
ATOM     66  C   UNL A   1      40.522  34.362  31.673  1.00  0.00     0.031 C 
ATOM     67  C   UNL A   1      42.704  33.292  32.160  1.00  0.00     0.031 A 
BRANCH  54  68
ATOM     68  C   UNL A   1      45.913  28.051  31.519  1.00  0.00    -0.014 A 
ATOM     69  C   UNL A   1      47.035  28.129  30.674  1.00  0.00     0.010 A 
ATOM     70  C   UNL A   1      46.003  27.300  32.706  1.00  0.00     0.010 A 
ATOM     71  C   UNL A   1      48.214  27.451  30.998  1.00  0.00     0.020 A 
ATOM     72  C   UNL A   1      47.190  26.645  33.049  1.00  0.00     0.020 A 
ATOM     73  C   UNL A   1      48.286  26.718  32.186  1.00  0.00     0.054 A 
BRANCH  73  74
ATOM     74  S   UNL A   1      49.848  25.899  32.606  1.00  0.00     0.124 S 
ATOM     75  O   UNL A   1      49.386  24.739  33.363  1.00  0.00    -0.237 OA
ATOM     76  O   UNL A   1      50.416  25.606  31.293  1.00  0.00    -0.237 OA
ATOM     77  O   UNL A   1      50.570  26.903  33.384  1.00  0.00    -0.744 OA
ENDBRANCH  73  74
ENDBRANCH  54  68
BRANCH  55  78
ATOM     78  C   UNL A   1      37.223  32.673  29.642  1.00  0.00    -0.014 A 
ATOM     79  C   UNL A   1      36.971  33.379  28.453  1.00  0.00     0.010 A 
ATOM     80  C   UNL A   1      36.218  32.618  30.627  1.00  0.00     0.010 A 
ATOM     81  C   UNL A   1      35.756  34.045  28.265  1.00  0.00     0.020 A 
ATOM     82  C   UNL A   1      34.989  33.253  30.429  1.00  0.00     0.020 A 
ATOM     83  C   UNL A   1      34.772  33.976  29.255  1.00  0.00     0.054 A 
BRANCH  83  84
ATOM     84  S   UNL A   1      33.191  34.824  28.981  1.00  0.00     0.124 S 
ATOM     85  O   UNL A   1      32.603  34.809  30.315  1.00  0.00    -0.237 OA
ATOM     86  O   UNL A   1      33.618  36.133  28.489  1.00  0.00    -0.237 OA
ATOM     87  O   UNL A   1      32.522  33.985  27.990  1.00  0.00    -0.744 OA
ENDBRANCH  83  84
ENDBRANCH  55  78
BRANCH  67  88
ATOM     88  C   UNL A   1      43.135  34.571  32.826  1.00  0.00    -0.014 A 
ATOM     89  C   UNL A   1      43.690  35.630  32.085  1.00  0.00     0.010 A 
ATOM     90  C   UNL A   1      42.925  34.736  34.208  1.00  0.00     0.010 A 
ATOM     91  C   UNL A   1      44.062  36.817  32.722  1.00  0.00     0.020 A 
ATOM     92  C   UNL A   1      43.263  35.933  34.841  1.00  0.00     0.020 A 
ATOM     93  C   UNL A   1      43.843  36.961  34.096  1.00  0.00     0.054 A 
BRANCH  93  94
ATOM     94  S   UNL A   1      44.293  38.529  34.888  1.00  0.00     0.124 S 
ATOM     95  O   UNL A   1      43.439  39.481  34.183  1.00  0.00    -0.237 OA
ATOM     96  O   UNL A   1      43.948  38.291  36.287  1.00  0.00    -0.237 OA
ATOM     97  O   UNL A   1      45.723  38.656  34.617  1.00  0.00    -0.744 OA
ENDBRANCH  93  94
ENDBRANCH  67  88
ENDBRANCH  41  42
ENDBRANCH  33  36
ENDBRANCH  31  32
ENDBRANCH  30  31
ENDBRANCH   1  30
TORSDOF 17
ENDMDL
MODEL 2
REMARK VINA RESULT:     -11.3      2.616      8.977
REMARK SMILES Cc1nc(NC(=O)[C@H]2[C@@H]3CC[C@@H](C3)[C@@H]2C(=O)NCCCCNC(=O)c2ccc(-c3c4nc(c(-c5ccc(S(=O)(=O)[O-])cc5)c5ccc([nH]5)c(-c5ccc(S(=O)(=O)[O-])cc5)c5nc(c(-c6ccc(S(=O)(=O)[O-])cc6)c6ccc3[nH]6)C=C5)C=C4)cc2)sc1-c1ccccc1
REMARK SMILES IDX 19 1 18 2 17 3 15 4 16 5 14 7 8 8 9 9 10 10 13 11 12 12
REMARK SMILES IDX 11 13 6 14 5 15 7 17 4 18 1 19 2 20 3 21 86 22 85 23 87 24
REMARK SMILES IDX 88 25 92 26 89 27 91 28 90 29 20 30 21 31 22 32 23 33 24 35
REMARK SMILES IDX 25 36 26 37 84 38 27 39 83 40 28 41 29 42 30 43 77 44 31 45
REMARK SMILES IDX 82 46 76 47 78 48 32 49 81 50 75 51 74 52 33 54 63 55 44 56
REMARK SMILES IDX 62 57 45 58 48 59 61 60 79 61 46 62 47 63 60 65 80 66 49 67
REMARK SMILES IDX 34 68 35 69 43 70 36 71 42 72 37 73 38 74 39 75 40 76 41 77
REMARK SMILES IDX 64 78 65 79 73 80 66 81 72 82 67 83 68 84 69 85 70 86 71 87
REMARK SMILES IDX 50 88 51 89 59 90 52 91 58 92 53 93 54 94 55 95 56 96 57 97
REMARK H PARENT 17 6 5 16 22 34 78 53 48 64
REMARK Flexibility Score: inf
ROOT
ATOM      1  C   UNL A   1      32.134  27.699  27.279  1.00  0.00     0.023 C 
ENDROOT
BRANCH   1   2
ATOM      2  C   UNL A   1      31.255  26.921  26.306  1.00  0.00     0.116 C 
BRANCH   2   3
ATOM      3  N   UNL A   1      30.902  25.591  26.757  1.00  0.00    -0.356 N 
ATOM      4  C   UNL A   1      31.452  24.364  26.541  1.00  0.00     0.224 C 
ATOM      5  O   UNL A   1      30.998  23.453  27.240  1.00  0.00    -0.275 OA
ATOM      6  H   UNL A   1      30.104  25.569  27.334  1.00  0.00     0.163 HD
BRANCH   4   7
ATOM      7  C   UNL A   1      32.549  24.119  25.484  1.00  0.00     0.094 C 
ATOM      8  C   UNL A   1      32.308  22.759  24.731  1.00  0.00     0.094 C 
ATOM      9  C   UNL A   1      33.604  21.971  25.133  1.00  0.00     0.002 C 
ATOM     10  C   UNL A   1      33.633  21.666  26.643  1.00  0.00     0.005 C 
ATOM     11  C   UNL A   1      34.657  23.068  25.012  1.00  0.00     0.009 C 
ATOM     12  C   UNL A   1      33.981  23.948  26.055  1.00  0.00     0.002 C 
ATOM     13  C   UNL A   1      33.967  23.020  27.275  1.00  0.00     0.005 C 
BRANCH   8  14
ATOM     14  C   UNL A   1      32.210  22.711  23.181  1.00  0.00     0.230 C 
ATOM     15  N   UNL A   1      32.132  23.767  22.339  1.00  0.00    -0.302 N 
ATOM     16  H   UNL A   1      32.222  23.559  21.381  1.00  0.00     0.172 HD
ATOM     17  O   UNL A   1      32.201  21.607  22.608  1.00  0.00    -0.274 OA
BRANCH  15  18
ATOM     18  C   UNL A   1      31.947  25.073  22.643  1.00  0.00     0.190 A 
ATOM     19  C   UNL A   1      33.030  28.451  22.679  1.00  0.00     0.068 C 
ATOM     20  C   UNL A   1      32.210  27.229  22.811  1.00  0.00     0.058 A 
ATOM     21  N   UNL A   1      32.841  26.014  22.676  1.00  0.00    -0.225 NA
ATOM     22  C   UNL A   1      30.830  27.173  22.888  1.00  0.00     0.059 A 
ATOM     23  S   UNL A   1      30.328  25.540  22.943  1.00  0.00    -0.096 S 
BRANCH  22  24
ATOM     24  C   UNL A   1      29.929  28.316  22.848  1.00  0.00    -0.006 A 
ATOM     25  C   UNL A   1      30.274  29.442  22.093  1.00  0.00     0.009 A 
ATOM     26  C   UNL A   1      28.603  28.151  23.277  1.00  0.00     0.009 A 
ATOM     27  C   UNL A   1      29.292  30.360  21.719  1.00  0.00     0.001 A 
ATOM     28  C   UNL A   1      27.623  29.071  22.902  1.00  0.00     0.001 A 
ATOM     29  C   UNL A   1      27.966  30.164  22.107  1.00  0.00     0.000 A 
ENDBRANCH  22  24
ENDBRANCH  15  18
ENDBRANCH   8  14
ENDBRANCH   4   7
ENDBRANCH   2   3
ENDBRANCH   1   2
BRANCH   1  30
ATOM     30  C   UNL A   1      33.625  27.719  26.931  1.00  0.00     0.023 C 
BRANCH  30  31
ATOM     31  C   UNL A   1      34.062  28.883  26.059  1.00  0.00     0.116 C 
BRANCH  31  32
ATOM     32  N   UNL A   1      33.821  30.164  26.699  1.00  0.00    -0.352 N 
ATOM     33  C   UNL A   1      34.543  30.772  27.696  1.00  0.00     0.251 C 
ATOM     34  H   UNL A   1      33.035  30.662  26.375  1.00  0.00     0.163 HD
ATOM     35  O   UNL A   1      34.079  31.732  28.294  1.00  0.00    -0.269 OA
BRANCH  33  36
ATOM     36  C   UNL A   1      35.877  30.236  28.039  1.00  0.00     0.039 A 
ATOM     37  C   UNL A   1      36.924  30.388  27.131  1.00  0.00     0.014 A 
ATOM     38  C   UNL A   1      36.088  29.607  29.270  1.00  0.00     0.014 A 
ATOM     39  C   UNL A   1      38.201  29.951  27.483  1.00  0.00     0.010 A 
ATOM     40  C   UNL A   1      37.375  29.260  29.654  1.00  0.00     0.010 A 
ATOM     41  C   UNL A   1      38.442  29.414  28.759  1.00  0.00    -0.014 A 
BRANCH  41  42
ATOM     42  C   UNL A   1      39.804  28.999  29.174  1.00  0.00     0.031 A 
ATOM     43  C   UNL A   1      40.699  29.976  29.887  1.00  0.00     0.074 A 
ATOM     44  C   UNL A   1      40.248  27.768  28.852  1.00  0.00     0.049 A 
ATOM     45  N   UNL A   1      41.934  29.818  30.285  1.00  0.00    -0.248 NA
ATOM     46  C   UNL A   1      40.148  31.314  30.164  1.00  0.00     0.031 C 
ATOM     47  C   UNL A   1      39.485  26.757  28.115  1.00  0.00     0.029 A 
ATOM     48  N   UNL A   1      41.450  27.157  29.098  1.00  0.00    -0.354 N 
ATOM     49  C   UNL A   1      42.311  31.036  30.840  1.00  0.00     0.074 A 
ATOM     50  C   UNL A   1      41.195  31.941  30.681  1.00  0.00     0.031 C 
ATOM     51  C   UNL A   1      40.227  25.644  27.996  1.00  0.00     0.029 A 
ATOM     52  C   UNL A   1      41.531  25.876  28.606  1.00  0.00     0.049 A 
ATOM     53  H   UNL A   1      42.188  27.596  29.582  1.00  0.00     0.167 HD
ATOM     54  C   UNL A   1      43.475  31.364  31.446  1.00  0.00     0.031 A 
ATOM     55  C   UNL A   1      42.546  24.991  28.633  1.00  0.00     0.031 A 
ATOM     56  C   UNL A   1      44.573  30.450  31.615  1.00  0.00     0.049 A 
ATOM     57  C   UNL A   1      43.830  25.383  29.313  1.00  0.00     0.074 A 
ATOM     58  C   UNL A   1      45.770  30.660  32.277  1.00  0.00     0.029 A 
ATOM     59  N   UNL A   1      44.609  29.157  31.118  1.00  0.00    -0.354 N 
ATOM     60  N   UNL A   1      44.134  26.512  29.908  1.00  0.00    -0.248 NA
ATOM     61  C   UNL A   1      44.902  24.379  29.336  1.00  0.00     0.031 C 
ATOM     62  C   UNL A   1      46.556  29.514  32.124  1.00  0.00     0.029 A 
ATOM     63  C   UNL A   1      45.821  28.567  31.429  1.00  0.00     0.049 A 
ATOM     64  H   UNL A   1      43.881  28.722  30.618  1.00  0.00     0.167 HD
ATOM     65  C   UNL A   1      45.424  26.344  30.399  1.00  0.00     0.074 A 
ATOM     66  C   UNL A   1      45.831  24.998  30.051  1.00  0.00     0.031 C 
ATOM     67  C   UNL A   1      46.205  27.224  31.074  1.00  0.00     0.031 A 
BRANCH  54  68
ATOM     68  C   UNL A   1      43.627  32.767  31.972  1.00  0.00    -0.014 A 
ATOM     69  C   UNL A   1      44.098  33.807  31.151  1.00  0.00     0.010 A 
ATOM     70  C   UNL A   1      43.227  33.065  33.289  1.00  0.00     0.010 A 
ATOM     71  C   UNL A   1      44.188  35.113  31.642  1.00  0.00     0.020 A 
ATOM     72  C   UNL A   1      43.287  34.374  33.774  1.00  0.00     0.020 A 
ATOM     73  C   UNL A   1      43.777  35.389  32.949  1.00  0.00     0.054 A 
BRANCH  73  74
ATOM     74  S   UNL A   1      43.850  37.102  33.538  1.00  0.00     0.124 S 
ATOM     75  O   UNL A   1      45.045  37.082  34.377  1.00  0.00    -0.237 OA
ATOM     76  O   UNL A   1      43.969  37.860  32.295  1.00  0.00    -0.237 OA
ATOM     77  O   UNL A   1      42.589  37.279  34.255  1.00  0.00    -0.744 OA
ENDBRANCH  73  74
ENDBRANCH  54  68
BRANCH  55  78
ATOM     78  C   UNL A   1      42.393  23.653  27.996  1.00  0.00    -0.014 A 
ATOM     79  C   UNL A   1      41.972  22.541  28.747  1.00  0.00     0.010 A 
ATOM     80  C   UNL A   1      42.675  23.483  26.628  1.00  0.00     0.010 A 
ATOM     81  C   UNL A   1      41.870  21.279  28.151  1.00  0.00     0.020 A 
ATOM     82  C   UNL A   1      42.541  22.231  26.021  1.00  0.00     0.020 A 
ATOM     83  C   UNL A   1      42.155  21.133  26.791  1.00  0.00     0.054 A 
BRANCH  83  84
ATOM     84  S   UNL A   1      41.989  19.494  26.032  1.00  0.00     0.124 S 
ATOM     85  O   UNL A   1      42.436  18.615  27.106  1.00  0.00    -0.237 OA
ATOM     86  O   UNL A   1      40.563  19.437  25.716  1.00  0.00    -0.237 OA
ATOM     87  O   UNL A   1      42.873  19.565  24.871  1.00  0.00    -0.744 OA
ENDBRANCH  83  84
ENDBRANCH  55  78
BRANCH  67  88
ATOM     88  C   UNL A   1      47.564  26.748  31.512  1.00  0.00    -0.014 A 
ATOM     89  C   UNL A   1      48.707  26.981  30.727  1.00  0.00     0.010 A 
ATOM     90  C   UNL A   1      47.706  26.110  32.758  1.00  0.00     0.010 A 
ATOM     91  C   UNL A   1      49.962  26.551  31.164  1.00  0.00     0.020 A 
ATOM     92  C   UNL A   1      48.963  25.710  33.214  1.00  0.00     0.020 A 
ATOM     93  C   UNL A   1      50.081  25.920  32.406  1.00  0.00     0.054 A 
BRANCH  93  94
ATOM     94  S   UNL A   1      51.729  25.413  32.969  1.00  0.00     0.124 S 
ATOM     95  O   UNL A   1      52.229  26.638  33.587  1.00  0.00    -0.237 OA
ATOM     96  O   UNL A   1      51.430  24.320  33.891  1.00  0.00    -0.237 OA
ATOM     97  O   UNL A   1      52.408  25.014  31.738  1.00  0.00    -0.744 OA
ENDBRANCH  93  94
ENDBRANCH  67  88
ENDBRANCH  41  42
ENDBRANCH  33  36
ENDBRANCH  31  32
ENDBRANCH  30  31
ENDBRANCH   1  30
TORSDOF 17
ENDMDL
MODEL 3
REMARK VINA RESULT:     -11.1      1.497      2.469
REMARK SMILES Cc1nc(NC(=O)[C@H]2[C@@H]3CC[C@@H](C3)[C@@H]2C(=O)NCCCCNC(=O)c2ccc(-c3c4nc(c(-c5ccc(S(=O)(=O)[O-])cc5)c5ccc([nH]5)c(-c5ccc(S(=O)(=O)[O-])cc5)c5nc(c(-c6ccc(S(=O)(=O)[O-])cc6)c6ccc3[nH]6)C=C5)C=C4)cc2)sc1-c1ccccc1
REMARK SMILES IDX 19 1 18 2 17 3 15 4 16 5 14 7 8 8 9 9 10 10 13 11 12 12
REMARK SMILES IDX 11 13 6 14 5 15 7 17 4 18 1 19 2 20 3 21 86 22 85 23 87 24
REMARK SMILES IDX 88 25 92 26 89 27 91 28 90 29 20 30 21 31 22 32 23 33 24 35
REMARK SMILES IDX 25 36 26 37 84 38 27 39 83 40 28 41 29 42 30 43 77 44 31 45
REMARK SMILES IDX 82 46 76 47 78 48 32 49 81 50 75 51 74 52 33 54 63 55 44 56
REMARK SMILES IDX 62 57 45 58 48 59 61 60 79 61 46 62 47 63 60 65 80 66 49 67
REMARK SMILES IDX 34 68 35 69 43 70 36 71 42 72 37 73 38 74 39 75 40 76 41 77
REMARK SMILES IDX 64 78 65 79 73 80 66 81 72 82 67 83 68 84 69 85 70 86 71 87
REMARK SMILES IDX 50 88 51 89 59 90 52 91 58 92 53 93 54 94 55 95 56 96 57 97
REMARK H PARENT 17 6 5 16 22 34 78 53 48 64
REMARK Flexibility Score: inf
ROOT
ATOM      1  C   UNL A   1      34.932  24.143  23.581  1.00  0.00     0.023 C 
ENDROOT
BRANCH   1   2
ATOM      2  C   UNL A   1      33.786  23.474  22.832  1.00  0.00     0.116 C 
BRANCH   2   3
ATOM      3  N   UNL A   1      32.728  24.379  22.436  1.00  0.00    -0.356 N 
ATOM      4  C   UNL A   1      32.030  25.339  23.105  1.00  0.00     0.224 C 
ATOM      5  O   UNL A   1      31.316  26.059  22.402  1.00  0.00    -0.275 OA
ATOM      6  H   UNL A   1      32.457  24.281  21.494  1.00  0.00     0.163 HD
BRANCH   4   7
ATOM      7  C   UNL A   1      32.105  25.505  24.637  1.00  0.00     0.094 C 
ATOM      8  C   UNL A   1      30.722  25.977  25.219  1.00  0.00     0.094 C 
ATOM      9  C   UNL A   1      31.123  27.368  25.826  1.00  0.00     0.002 C 
ATOM     10  C   UNL A   1      31.529  28.367  24.725  1.00  0.00     0.005 C 
ATOM     11  C   UNL A   1      32.469  27.030  26.458  1.00  0.00     0.009 C 
ATOM     12  C   UNL A   1      33.081  26.606  25.129  1.00  0.00     0.002 C 
ATOM     13  C   UNL A   1      32.916  27.881  24.296  1.00  0.00     0.005 C 
BRANCH   8  14
ATOM     14  C   UNL A   1      30.015  25.177  26.347  1.00  0.00     0.230 C 
ATOM     15  N   UNL A   1      30.413  23.998  26.879  1.00  0.00    -0.302 N 
ATOM     16  H   UNL A   1      29.926  23.705  27.683  1.00  0.00     0.172 HD
ATOM     17  O   UNL A   1      28.969  25.629  26.847  1.00  0.00    -0.274 OA
BRANCH  15  18
ATOM     18  C   UNL A   1      31.393  23.170  26.448  1.00  0.00     0.190 A 
ATOM     19  C   UNL A   1      34.528  21.565  26.868  1.00  0.00     0.068 C 
ATOM     20  C   UNL A   1      33.207  21.969  26.345  1.00  0.00     0.058 A 
ATOM     21  N   UNL A   1      32.606  23.074  26.902  1.00  0.00    -0.225 NA
ATOM     22  C   UNL A   1      32.421  21.250  25.461  1.00  0.00     0.059 A 
ATOM     23  S   UNL A   1      30.944  22.072  25.214  1.00  0.00    -0.096 S 
BRANCH  22  24
ATOM     24  C   UNL A   1      32.755  19.954  24.888  1.00  0.00    -0.006 A 
ATOM     25  C   UNL A   1      32.883  18.840  25.724  1.00  0.00     0.009 A 
ATOM     26  C   UNL A   1      32.612  19.767  23.505  1.00  0.00     0.009 A 
ATOM     27  C   UNL A   1      32.807  17.553  25.190  1.00  0.00     0.001 A 
ATOM     28  C   UNL A   1      32.538  18.478  22.973  1.00  0.00     0.001 A 
ATOM     29  C   UNL A   1      32.616  17.373  23.820  1.00  0.00     0.000 A 
ENDBRANCH  22  24
ENDBRANCH  15  18
ENDBRANCH   8  14
ENDBRANCH   4   7
ENDBRANCH   2   3
ENDBRANCH   1   2
BRANCH   1  30
ATOM     30  C   UNL A   1      36.137  23.240  23.863  1.00  0.00     0.023 C 
BRANCH  30  31
ATOM     31  C   UNL A   1      37.027  23.698  25.004  1.00  0.00     0.116 C 
BRANCH  31  32
ATOM     32  N   UNL A   1      37.948  22.658  25.428  1.00  0.00    -0.352 N 
ATOM     33  C   UNL A   1      39.124  22.789  26.125  1.00  0.00     0.251 C 
ATOM     34  H   UNL A   1      37.696  21.738  25.182  1.00  0.00     0.163 HD
ATOM     35  O   UNL A   1      39.905  21.851  26.197  1.00  0.00    -0.269 OA
BRANCH  33  36
ATOM     36  C   UNL A   1      39.431  24.082  26.771  1.00  0.00     0.039 A 
ATOM     37  C   UNL A   1      38.994  24.312  28.075  1.00  0.00     0.014 A 
ATOM     38  C   UNL A   1      40.171  25.052  26.087  1.00  0.00     0.014 A 
ATOM     39  C   UNL A   1      39.346  25.500  28.714  1.00  0.00     0.010 A 
ATOM     40  C   UNL A   1      40.599  26.190  26.757  1.00  0.00     0.010 A 
ATOM     41  C   UNL A   1      40.178  26.433  28.072  1.00  0.00    -0.014 A 
BRANCH  41  42
ATOM     42  C   UNL A   1      40.613  27.674  28.756  1.00  0.00     0.031 A 
ATOM     43  C   UNL A   1      41.975  27.740  29.393  1.00  0.00     0.074 A 
ATOM     44  C   UNL A   1      39.758  28.711  28.853  1.00  0.00     0.049 A 
ATOM     45  N   UNL A   1      42.515  28.715  30.076  1.00  0.00    -0.248 NA
ATOM     46  C   UNL A   1      42.831  26.547  29.273  1.00  0.00     0.031 C 
ATOM     47  C   UNL A   1      38.393  28.738  28.319  1.00  0.00     0.029 A 
ATOM     48  N   UNL A   1      39.905  29.942  29.438  1.00  0.00    -0.354 N 
ATOM     49  C   UNL A   1      43.761  28.247  30.480  1.00  0.00     0.074 A 
ATOM     50  C   UNL A   1      43.877  26.885  30.014  1.00  0.00     0.031 C 
ATOM     51  C   UNL A   1      37.842  29.935  28.576  1.00  0.00     0.029 A 
ATOM     52  C   UNL A   1      38.793  30.743  29.331  1.00  0.00     0.049 A 
ATOM     53  H   UNL A   1      40.731  30.226  29.894  1.00  0.00     0.167 HD
ATOM     54  C   UNL A   1      44.728  28.903  31.161  1.00  0.00     0.031 A 
ATOM     55  C   UNL A   1      38.561  31.985  29.797  1.00  0.00     0.031 A 
ATOM     56  C   UNL A   1      44.610  30.266  31.605  1.00  0.00     0.049 A 
ATOM     57  C   UNL A   1      39.655  32.690  30.552  1.00  0.00     0.074 A 
ATOM     58  C   UNL A   1      45.558  31.047  32.241  1.00  0.00     0.029 A 
ATOM     59  N   UNL A   1      43.474  31.048  31.461  1.00  0.00    -0.354 N 
ATOM     60  N   UNL A   1      40.859  32.260  30.849  1.00  0.00    -0.248 NA
ATOM     61  C   UNL A   1      39.366  34.051  31.024  1.00  0.00     0.031 C 
ATOM     62  C   UNL A   1      44.973  32.281  32.540  1.00  0.00     0.029 A 
ATOM     63  C   UNL A   1      43.687  32.294  32.026  1.00  0.00     0.049 A 
ATOM     64  H   UNL A   1      42.641  30.762  31.023  1.00  0.00     0.167 HD
ATOM     65  C   UNL A   1      41.478  33.308  31.521  1.00  0.00     0.074 A 
ATOM     66  C   UNL A   1      40.525  34.398  31.565  1.00  0.00     0.031 C 
ATOM     67  C   UNL A   1      42.723  33.365  32.057  1.00  0.00     0.031 A 
BRANCH  54  68
ATOM     68  C   UNL A   1      46.001  28.160  31.471  1.00  0.00    -0.014 A 
ATOM     69  C   UNL A   1      47.106  28.212  30.602  1.00  0.00     0.010 A 
ATOM     70  C   UNL A   1      46.120  27.457  32.685  1.00  0.00     0.010 A 
ATOM     71  C   UNL A   1      48.296  27.555  30.929  1.00  0.00     0.020 A 
ATOM     72  C   UNL A   1      47.318  26.824  33.029  1.00  0.00     0.020 A 
ATOM     73  C   UNL A   1      48.396  26.870  32.143  1.00  0.00     0.054 A 
BRANCH  73  74
ATOM     74  S   UNL A   1      49.972  26.079  32.565  1.00  0.00     0.124 S 
ATOM     75  O   UNL A   1      50.682  26.122  31.289  1.00  0.00    -0.237 OA
ATOM     76  O   UNL A   1      50.499  26.956  33.607  1.00  0.00    -0.237 OA
ATOM     77  O   UNL A   1      49.583  24.744  33.015  1.00  0.00    -0.744 OA
ENDBRANCH  73  74
ENDBRANCH  54  68
BRANCH  55  78
ATOM     78  C   UNL A   1      37.242  32.639  29.567  1.00  0.00    -0.014 A 
ATOM     79  C   UNL A   1      37.029  33.457  28.444  1.00  0.00     0.010 A 
ATOM     80  C   UNL A   1      36.189  32.451  30.482  1.00  0.00     0.010 A 
ATOM     81  C   UNL A   1      35.802  34.101  28.257  1.00  0.00     0.020 A 
ATOM     82  C   UNL A   1      34.950  33.065  30.281  1.00  0.00     0.020 A 
ATOM     83  C   UNL A   1      34.770  33.900  29.177  1.00  0.00     0.054 A 
BRANCH  83  84
ATOM     84  S   UNL A   1      33.176  34.722  28.901  1.00  0.00     0.124 S 
ATOM     85  O   UNL A   1      32.537  33.831  27.940  1.00  0.00    -0.237 OA
ATOM     86  O   UNL A   1      32.592  34.733  30.241  1.00  0.00    -0.237 OA
ATOM     87  O   UNL A   1      33.554  36.035  28.385  1.00  0.00    -0.744 OA
ENDBRANCH  83  84
ENDBRANCH  55  78
BRANCH  67  88
ATOM     88  C   UNL A   1      43.139  34.658  32.706  1.00  0.00    -0.014 A 
ATOM     89  C   UNL A   1      43.630  35.733  31.943  1.00  0.00     0.010 A 
ATOM     90  C   UNL A   1      42.979  34.818  34.094  1.00  0.00     0.010 A 
ATOM     91  C   UNL A   1      43.988  36.932  32.564  1.00  0.00     0.020 A 
ATOM     92  C   UNL A   1      43.303  36.026  34.714  1.00  0.00     0.020 A 
ATOM     93  C   UNL A   1      43.820  37.070  33.946  1.00  0.00     0.054 A 
BRANCH  93  94
ATOM     94  S   UNL A   1      44.250  38.653  34.720  1.00  0.00     0.124 S 
ATOM     95  O   UNL A   1      43.950  38.395  36.125  1.00  0.00    -0.237 OA
ATOM     96  O   UNL A   1      45.667  38.794  34.394  1.00  0.00    -0.237 OA
ATOM     97  O   UNL A   1      43.366  39.613  34.060  1.00  0.00    -0.744 OA
ENDBRANCH  93  94
ENDBRANCH  67  88
ENDBRANCH  41  42
ENDBRANCH  33  36
ENDBRANCH  31  32
ENDBRANCH  30  31
ENDBRANCH   1  30
TORSDOF 17
ENDMDL
