MODEL 1
REMARK VINA RESULT:     -11.5      0.000      0.000
REMARK SMILES [NH3+][C@H]1C=C[C@H](C(=O)N2CCCc3c(C(=O)NCCCCNC(=O)c4ccc(-c5c6nc(c(-c7ccc(S(=O)(=O)[O-])cc7)c7ccc([nH]7)c(-c7ccc(S(=O)(=O)[O-])cc7)c7nc(c(-c8ccc(S(=O)(=O)[O-])cc8)c8ccc5[nH]8)C=C7)C=C6)cc4)cccc32)C1
REMARK SMILES IDX 18 1 17 2 16 3 14 4 15 5 13 7 8 8 9 9 87 10 10 11 12 12
REMARK SMILES IDX 86 13 11 14 85 15 84 16 6 17 7 18 5 19 2 20 3 21 88 22 4 23
REMARK SMILES IDX 1 24 19 28 20 29 21 30 22 31 23 33 24 34 25 35 83 36 26 37
REMARK SMILES IDX 82 38 27 39 28 40 29 41 76 42 30 43 81 44 75 45 77 46 31 47
REMARK SMILES IDX 80 48 74 49 73 50 32 52 62 53 43 54 61 55 44 56 47 57 60 58
REMARK SMILES IDX 78 59 45 60 46 61 59 63 79 64 48 65 33 66 34 67 42 68 35 69
REMARK SMILES IDX 41 70 36 71 37 72 38 73 39 74 40 75 63 76 64 77 72 78 65 79
REMARK SMILES IDX 71 80 66 81 67 82 68 83 69 84 70 85 49 86 50 87 58 88 51 89
REMARK SMILES IDX 57 90 52 91 53 92 54 93 55 94 56 95
REMARK H PARENT 16 6 1 25 1 26 1 27 21 32 77 51 47 62
REMARK Flexibility Score: inf
ROOT
ATOM      1  C   UNL A   1      35.476  21.837  26.217  1.00  0.00     0.023 C 
ENDROOT
BRANCH   1   2
ATOM      2  C   UNL A   1      35.243  20.964  24.979  1.00  0.00     0.116 C 
BRANCH   2   3
ATOM      3  N   UNL A   1      33.913  20.393  24.991  1.00  0.00    -0.352 N 
ATOM      4  C   UNL A   1      32.608  20.788  25.025  1.00  0.00     0.251 C 
ATOM      5  O   UNL A   1      31.836  19.815  25.016  1.00  0.00    -0.269 OA
ATOM      6  H   UNL A   1      33.968  19.411  24.967  1.00  0.00     0.163 HD
BRANCH   4   7
ATOM      7  C   UNL A   1      31.975  22.164  25.055  1.00  0.00     0.045 A 
ATOM      8  N   UNL A   1      31.602  25.689  23.728  1.00  0.00    -0.312 N 
ATOM      9  C   UNL A   1      31.913  25.415  22.332  1.00  0.00     0.126 C 
ATOM     10  C   UNL A   1      31.515  24.541  24.586  1.00  0.00     0.048 A 
ATOM     11  C   UNL A   1      33.210  24.641  22.295  1.00  0.00     0.027 C 
ATOM     12  C   UNL A   1      32.138  23.306  24.225  1.00  0.00    -0.011 A 
ATOM     13  C   UNL A   1      30.757  24.638  25.757  1.00  0.00     0.027 A 
ATOM     14  C   UNL A   1      33.001  23.306  22.999  1.00  0.00     0.040 C 
ATOM     15  C   UNL A   1      30.564  23.529  26.558  1.00  0.00     0.003 A 
ATOM     16  C   UNL A   1      31.153  22.321  26.203  1.00  0.00     0.014 A 
BRANCH   8  17
ATOM     17  C   UNL A   1      31.604  26.984  24.258  1.00  0.00     0.234 C 
ATOM     18  O   UNL A   1      30.593  27.688  24.296  1.00  0.00    -0.274 OA
BRANCH  17  19
ATOM     19  C   UNL A   1      32.968  27.523  24.719  1.00  0.00     0.108 C 
ATOM     20  C   UNL A   1      32.977  28.760  26.846  1.00  0.00     0.205 C 
ATOM     21  C   UNL A   1      33.027  29.677  25.677  1.00  0.00     0.033 C 
ATOM     22  C   UNL A   1      33.240  27.381  26.222  1.00  0.00     0.087 C 
ATOM     23  C   UNL A   1      33.033  29.012  24.517  1.00  0.00    -0.012 C 
BRANCH  20  24
ATOM     24  N   UNL A   1      33.985  29.120  27.830  1.00  0.00    -0.352 N 
ATOM     25  H   UNL A   1      33.534  29.317  28.723  1.00  0.00     0.345 HD
ATOM     26  H   UNL A   1      34.489  29.948  27.513  1.00  0.00     0.345 HD
ATOM     27  H   UNL A   1      34.641  28.346  27.944  1.00  0.00     0.345 HD
ENDBRANCH  20  24
ENDBRANCH  17  19
ENDBRANCH   8  17
ENDBRANCH   4   7
ENDBRANCH   2   3
ENDBRANCH   1   2
BRANCH   1  28
ATOM     28  C   UNL A   1      35.788  23.301  25.934  1.00  0.00     0.023 C 
BRANCH  28  29
ATOM     29  C   UNL A   1      37.029  23.513  25.081  1.00  0.00     0.116 C 
BRANCH  29  30
ATOM     30  N   UNL A   1      38.122  22.600  25.391  1.00  0.00    -0.352 N 
ATOM     31  C   UNL A   1      39.236  22.858  26.165  1.00  0.00     0.251 C 
ATOM     32  H   UNL A   1      38.059  21.696  25.006  1.00  0.00     0.163 HD
ATOM     33  O   UNL A   1      40.113  22.021  26.303  1.00  0.00    -0.269 OA
BRANCH  31  34
ATOM     34  C   UNL A   1      39.358  24.202  26.767  1.00  0.00     0.039 A 
ATOM     35  C   UNL A   1      38.877  24.406  28.061  1.00  0.00     0.014 A 
ATOM     36  C   UNL A   1      40.073  25.202  26.102  1.00  0.00     0.014 A 
ATOM     37  C   UNL A   1      39.194  25.591  28.726  1.00  0.00     0.010 A 
ATOM     38  C   UNL A   1      40.458  26.340  26.797  1.00  0.00     0.010 A 
ATOM     39  C   UNL A   1      40.030  26.543  28.118  1.00  0.00    -0.014 A 
BRANCH  39  40
ATOM     40  C   UNL A   1      40.474  27.757  28.845  1.00  0.00     0.031 A 
ATOM     41  C   UNL A   1      41.836  27.792  29.480  1.00  0.00     0.074 A 
ATOM     42  C   UNL A   1      39.625  28.793  29.000  1.00  0.00     0.049 A 
ATOM     43  N   UNL A   1      42.380  28.730  30.211  1.00  0.00    -0.248 NA
ATOM     44  C   UNL A   1      42.685  26.604  29.296  1.00  0.00     0.031 C 
ATOM     45  C   UNL A   1      38.254  28.857  28.484  1.00  0.00     0.029 A 
ATOM     46  N   UNL A   1      39.791  29.994  29.643  1.00  0.00    -0.354 N 
ATOM     47  C   UNL A   1      43.621  28.237  30.592  1.00  0.00     0.074 A 
ATOM     48  C   UNL A   1      43.729  26.897  30.057  1.00  0.00     0.031 C 
ATOM     49  C   UNL A   1      37.719  30.048  28.800  1.00  0.00     0.029 A 
ATOM     50  C   UNL A   1      38.693  30.819  29.567  1.00  0.00     0.049 A 
ATOM     51  H   UNL A   1      40.618  30.243  30.115  1.00  0.00     0.167 HD
ATOM     52  C   UNL A   1      44.597  28.851  31.302  1.00  0.00     0.031 A 
ATOM     53  C   UNL A   1      38.496  32.059  30.054  1.00  0.00     0.031 A 
ATOM     54  C   UNL A   1      44.502  30.192  31.809  1.00  0.00     0.049 A 
ATOM     55  C   UNL A   1      39.605  32.734  30.811  1.00  0.00     0.074 A 
ATOM     56  C   UNL A   1      45.456  30.925  32.490  1.00  0.00     0.029 A 
ATOM     57  N   UNL A   1      43.386  31.004  31.679  1.00  0.00    -0.354 N 
ATOM     58  N   UNL A   1      40.796  32.272  31.111  1.00  0.00    -0.248 NA
ATOM     59  C   UNL A   1      39.351  34.102  31.282  1.00  0.00     0.031 C 
ATOM     60  C   UNL A   1      44.906  32.175  32.799  1.00  0.00     0.029 A 
ATOM     61  C   UNL A   1      43.625  32.231  32.275  1.00  0.00     0.049 A 
ATOM     62  H   UNL A   1      42.548  30.748  31.231  1.00  0.00     0.167 HD
ATOM     63  C   UNL A   1      41.441  33.302  31.785  1.00  0.00     0.074 A 
ATOM     64  C   UNL A   1      40.514  34.414  31.839  1.00  0.00     0.031 C 
ATOM     65  C   UNL A   1      42.690  33.325  32.314  1.00  0.00     0.031 A 
BRANCH  52  66
ATOM     66  C   UNL A   1      45.855  28.067  31.558  1.00  0.00    -0.014 A 
ATOM     67  C   UNL A   1      46.966  28.186  30.702  1.00  0.00     0.010 A 
ATOM     68  C   UNL A   1      45.934  27.206  32.667  1.00  0.00     0.010 A 
ATOM     69  C   UNL A   1      48.113  27.421  30.920  1.00  0.00     0.020 A 
ATOM     70  C   UNL A   1      47.091  26.459  32.904  1.00  0.00     0.020 A 
ATOM     71  C   UNL A   1      48.164  26.555  32.017  1.00  0.00     0.054 A 
BRANCH  71  72
ATOM     72  S   UNL A   1      49.667  25.574  32.281  1.00  0.00     0.124 S 
ATOM     73  O   UNL A   1      49.204  24.568  33.235  1.00  0.00    -0.237 OA
ATOM     74  O   UNL A   1      49.969  25.077  30.942  1.00  0.00    -0.237 OA
ATOM     75  O   UNL A   1      50.622  26.543  32.812  1.00  0.00    -0.744 OA
ENDBRANCH  71  72
ENDBRANCH  52  66
BRANCH  53  76
ATOM     76  C   UNL A   1      37.208  32.760  29.805  1.00  0.00    -0.014 A 
ATOM     77  C   UNL A   1      36.195  32.747  30.781  1.00  0.00     0.010 A 
ATOM     78  C   UNL A   1      36.990  33.455  28.602  1.00  0.00     0.010 A 
ATOM     79  C   UNL A   1      34.982  33.402  30.552  1.00  0.00     0.020 A 
ATOM     80  C   UNL A   1      35.786  34.129  28.378  1.00  0.00     0.020 A 
ATOM     81  C   UNL A   1      34.785  34.089  29.352  1.00  0.00     0.054 A 
BRANCH  81  82
ATOM     82  S   UNL A   1      33.223  34.979  29.097  1.00  0.00     0.124 S 
ATOM     83  O   UNL A   1      33.690  36.289  28.653  1.00  0.00    -0.237 OA
ATOM     84  O   UNL A   1      32.558  34.167  28.080  1.00  0.00    -0.237 OA
ATOM     85  O   UNL A   1      32.595  34.949  30.415  1.00  0.00    -0.744 OA
ENDBRANCH  81  82
ENDBRANCH  53  76
BRANCH  65  86
ATOM     86  C   UNL A   1      43.137  34.603  32.966  1.00  0.00    -0.014 A 
ATOM     87  C   UNL A   1      43.671  35.656  32.204  1.00  0.00     0.010 A 
ATOM     88  C   UNL A   1      42.971  34.769  34.353  1.00  0.00     0.010 A 
ATOM     89  C   UNL A   1      44.059  36.847  32.824  1.00  0.00     0.020 A 
ATOM     90  C   UNL A   1      43.336  35.966  34.972  1.00  0.00     0.020 A 
ATOM     91  C   UNL A   1      43.892  36.993  34.205  1.00  0.00     0.054 A 
BRANCH  91  92
ATOM     92  S   UNL A   1      44.359  38.563  34.984  1.00  0.00     0.124 S 
ATOM     93  O   UNL A   1      45.797  38.607  34.737  1.00  0.00    -0.237 OA
ATOM     94  O   UNL A   1      43.564  39.541  34.244  1.00  0.00    -0.237 OA
ATOM     95  O   UNL A   1      43.971  38.385  36.381  1.00  0.00    -0.744 OA
ENDBRANCH  91  92
ENDBRANCH  65  86
ENDBRANCH  39  40
ENDBRANCH  31  34
ENDBRANCH  29  30
ENDBRANCH  28  29
ENDBRANCH   1  28
TORSDOF 17
ENDMDL
MODEL 2
REMARK VINA RESULT:     -11.4      2.478      9.350
REMARK SMILES [NH3+][C@H]1C=C[C@H](C(=O)N2CCCc3c(C(=O)NCCCCNC(=O)c4ccc(-c5c6nc(c(-c7ccc(S(=O)(=O)[O-])cc7)c7ccc([nH]7)c(-c7ccc(S(=O)(=O)[O-])cc7)c7nc(c(-c8ccc(S(=O)(=O)[O-])cc8)c8ccc5[nH]8)C=C7)C=C6)cc4)cccc32)C1
REMARK SMILES IDX 18 1 17 2 16 3 14 4 15 5 13 7 8 8 9 9 87 10 10 11 12 12
REMARK SMILES IDX 86 13 11 14 85 15 84 16 6 17 7 18 5 19 2 20 3 21 88 22 4 23
REMARK SMILES IDX 1 24 19 28 20 29 21 30 22 31 23 33 24 34 25 35 83 36 26 37
REMARK SMILES IDX 82 38 27 39 28 40 29 41 76 42 30 43 81 44 75 45 77 46 31 47
REMARK SMILES IDX 80 48 74 49 73 50 32 52 62 53 43 54 61 55 44 56 47 57 60 58
REMARK SMILES IDX 78 59 45 60 46 61 59 63 79 64 48 65 33 66 34 67 42 68 35 69
REMARK SMILES IDX 41 70 36 71 37 72 38 73 39 74 40 75 63 76 64 77 72 78 65 79
REMARK SMILES IDX 71 80 66 81 67 82 68 83 69 84 70 85 49 86 50 87 58 88 51 89
REMARK SMILES IDX 57 90 52 91 53 92 54 93 55 94 56 95
REMARK H PARENT 16 6 1 25 1 26 1 27 21 32 77 51 47 62
REMARK Flexibility Score: inf
ROOT
ATOM      1  C   UNL A   1      32.283  29.145  24.993  1.00  0.00     0.023 C 
ENDROOT
BRANCH   1   2
ATOM      2  C   UNL A   1      31.804  28.510  23.684  1.00  0.00     0.116 C 
BRANCH   2   3
ATOM      3  N   UNL A   1      30.680  27.629  23.916  1.00  0.00    -0.352 N 
ATOM      4  C   UNL A   1      30.418  26.366  24.358  1.00  0.00     0.251 C 
ATOM      5  O   UNL A   1      29.200  26.122  24.350  1.00  0.00    -0.269 OA
ATOM      6  H   UNL A   1      29.840  28.085  23.682  1.00  0.00     0.163 HD
BRANCH   4   7
ATOM      7  C   UNL A   1      31.333  25.263  24.850  1.00  0.00     0.045 A 
ATOM      8  N   UNL A   1      33.783  22.444  24.236  1.00  0.00    -0.312 N 
ATOM      9  C   UNL A   1      34.392  22.966  23.020  1.00  0.00     0.126 C 
ATOM     10  C   UNL A   1      32.842  23.313  24.885  1.00  0.00     0.048 A 
ATOM     11  C   UNL A   1      33.277  23.326  22.066  1.00  0.00     0.027 C 
ATOM     12  C   UNL A   1      32.205  24.372  24.167  1.00  0.00    -0.011 A 
ATOM     13  C   UNL A   1      32.605  23.138  26.252  1.00  0.00     0.027 A 
ATOM     14  C   UNL A   1      32.446  24.440  22.689  1.00  0.00     0.040 C 
ATOM     15  C   UNL A   1      31.785  24.015  26.936  1.00  0.00     0.003 A 
ATOM     16  C   UNL A   1      31.176  25.057  26.247  1.00  0.00     0.014 A 
BRANCH   8  17
ATOM     17  C   UNL A   1      33.925  21.111  24.634  1.00  0.00     0.234 C 
ATOM     18  O   UNL A   1      35.019  20.612  24.909  1.00  0.00    -0.274 OA
BRANCH  17  19
ATOM     19  C   UNL A   1      32.642  20.265  24.632  1.00  0.00     0.108 C 
ATOM     20  C   UNL A   1      32.953  17.832  24.436  1.00  0.00     0.205 C 
ATOM     21  C   UNL A   1      32.536  18.438  23.144  1.00  0.00     0.033 C 
ATOM     22  C   UNL A   1      32.726  18.967  25.446  1.00  0.00     0.087 C 
ATOM     23  C   UNL A   1      32.356  19.760  23.245  1.00  0.00    -0.012 C 
BRANCH  20  24
ATOM     24  N   UNL A   1      32.150  16.658  24.739  1.00  0.00    -0.352 N 
ATOM     25  H   UNL A   1      32.720  15.977  25.241  1.00  0.00     0.345 HD
ATOM     26  H   UNL A   1      31.812  16.244  23.871  1.00  0.00     0.345 HD
ATOM     27  H   UNL A   1      31.355  16.929  25.318  1.00  0.00     0.345 HD
ENDBRANCH  20  24
ENDBRANCH  17  19
ENDBRANCH   8  17
ENDBRANCH   4   7
ENDBRANCH   2   3
ENDBRANCH   1   2
BRANCH   1  28
ATOM     28  C   UNL A   1      33.426  28.420  25.692  1.00  0.00     0.023 C 
BRANCH  28  29
ATOM     29  C   UNL A   1      33.442  28.606  27.201  1.00  0.00     0.116 C 
BRANCH  29  30
ATOM     30  N   UNL A   1      33.422  30.001  27.625  1.00  0.00    -0.352 N 
ATOM     31  C   UNL A   1      34.469  30.733  28.146  1.00  0.00     0.251 C 
ATOM     32  H   UNL A   1      32.565  30.475  27.526  1.00  0.00     0.163 HD
ATOM     33  O   UNL A   1      34.308  31.884  28.518  1.00  0.00    -0.269 OA
BRANCH  31  34
ATOM     34  C   UNL A   1      35.774  30.055  28.300  1.00  0.00     0.039 A 
ATOM     35  C   UNL A   1      36.686  30.106  27.245  1.00  0.00     0.014 A 
ATOM     36  C   UNL A   1      36.133  29.503  29.532  1.00  0.00     0.014 A 
ATOM     37  C   UNL A   1      37.997  29.680  27.458  1.00  0.00     0.010 A 
ATOM     38  C   UNL A   1      37.458  29.162  29.765  1.00  0.00     0.010 A 
ATOM     39  C   UNL A   1      38.405  29.253  28.733  1.00  0.00    -0.014 A 
BRANCH  39  40
ATOM     40  C   UNL A   1      39.819  28.904  29.014  1.00  0.00     0.031 A 
ATOM     41  C   UNL A   1      40.736  29.928  29.622  1.00  0.00     0.074 A 
ATOM     42  C   UNL A   1      40.295  27.695  28.652  1.00  0.00     0.049 A 
ATOM     43  N   UNL A   1      42.014  29.838  29.882  1.00  0.00    -0.248 NA
ATOM     44  C   UNL A   1      40.146  31.236  29.953  1.00  0.00     0.031 C 
ATOM     45  C   UNL A   1      39.521  26.635  27.998  1.00  0.00     0.029 A 
ATOM     46  N   UNL A   1      41.550  27.156  28.780  1.00  0.00    -0.354 N 
ATOM     47  C   UNL A   1      42.385  31.080  30.382  1.00  0.00     0.074 A 
ATOM     48  C   UNL A   1      41.210  31.923  30.340  1.00  0.00     0.031 C 
ATOM     49  C   UNL A   1      40.310  25.563  27.816  1.00  0.00     0.029 A 
ATOM     50  C   UNL A   1      41.650  25.868  28.308  1.00  0.00     0.049 A 
ATOM     51  H   UNL A   1      42.309  27.645  29.173  1.00  0.00     0.167 HD
ATOM     52  C   UNL A   1      43.588  31.479  30.858  1.00  0.00     0.031 A 
ATOM     53  C   UNL A   1      42.700  25.025  28.282  1.00  0.00     0.031 A 
ATOM     54  C   UNL A   1      44.748  30.634  30.927  1.00  0.00     0.049 A 
ATOM     55  C   UNL A   1      44.017  25.478  28.846  1.00  0.00     0.074 A 
ATOM     56  C   UNL A   1      45.996  30.925  31.443  1.00  0.00     0.029 A 
ATOM     57  N   UNL A   1      44.795  29.325  30.470  1.00  0.00    -0.354 N 
ATOM     58  N   UNL A   1      44.333  26.640  29.369  1.00  0.00    -0.248 NA
ATOM     59  C   UNL A   1      45.117  24.504  28.830  1.00  0.00     0.031 C 
ATOM     60  C   UNL A   1      46.811  29.799  31.274  1.00  0.00     0.029 A 
ATOM     61  C   UNL A   1      46.056  28.797  30.688  1.00  0.00     0.049 A 
ATOM     62  H   UNL A   1      44.045  28.844  30.053  1.00  0.00     0.167 HD
ATOM     63  C   UNL A   1      45.659  26.527  29.766  1.00  0.00     0.074 A 
ATOM     64  C   UNL A   1      46.084  25.182  29.434  1.00  0.00     0.031 C 
ATOM     65  C   UNL A   1      46.456  27.454  30.353  1.00  0.00     0.031 A 
BRANCH  52  66
ATOM     66  C   UNL A   1      43.695  32.896  31.349  1.00  0.00    -0.014 A 
ATOM     67  C   UNL A   1      44.065  33.937  30.477  1.00  0.00     0.010 A 
ATOM     68  C   UNL A   1      43.416  33.197  32.694  1.00  0.00     0.010 A 
ATOM     69  C   UNL A   1      44.206  35.242  30.951  1.00  0.00     0.020 A 
ATOM     70  C   UNL A   1      43.530  34.507  33.167  1.00  0.00     0.020 A 
ATOM     71  C   UNL A   1      43.945  35.518  32.297  1.00  0.00     0.054 A 
BRANCH  71  72
ATOM     72  S   UNL A   1      44.131  37.222  32.888  1.00  0.00     0.124 S 
ATOM     73  O   UNL A   1      43.960  37.987  31.655  1.00  0.00    -0.237 OA
ATOM     74  O   UNL A   1      43.047  37.348  33.859  1.00  0.00    -0.237 OA
ATOM     75  O   UNL A   1      45.477  37.245  33.456  1.00  0.00    -0.744 OA
ENDBRANCH  71  72
ENDBRANCH  52  66
BRANCH  53  76
ATOM     76  C   UNL A   1      42.538  23.651  27.738  1.00  0.00    -0.014 A 
ATOM     77  C   UNL A   1      42.890  23.372  26.405  1.00  0.00     0.010 A 
ATOM     78  C   UNL A   1      42.045  22.612  28.547  1.00  0.00     0.010 A 
ATOM     79  C   UNL A   1      42.738  22.083  25.886  1.00  0.00     0.020 A 
ATOM     80  C   UNL A   1      41.911  21.316  28.038  1.00  0.00     0.020 A 
ATOM     81  C   UNL A   1      42.249  21.063  26.706  1.00  0.00     0.054 A 
BRANCH  81  82
ATOM     82  S   UNL A   1      42.110  19.384  26.030  1.00  0.00     0.124 S 
ATOM     83  O   UNL A   1      40.682  19.288  25.748  1.00  0.00    -0.237 OA
ATOM     84  O   UNL A   1      42.984  19.440  24.860  1.00  0.00    -0.237 OA
ATOM     85  O   UNL A   1      42.594  18.538  27.119  1.00  0.00    -0.744 OA
ENDBRANCH  81  82
ENDBRANCH  53  76
BRANCH  65  86
ATOM     86  C   UNL A   1      47.856  27.035  30.704  1.00  0.00    -0.014 A 
ATOM     87  C   UNL A   1      48.903  27.156  29.774  1.00  0.00     0.010 A 
ATOM     88  C   UNL A   1      48.135  26.564  31.999  1.00  0.00     0.010 A 
ATOM     89  C   UNL A   1      50.204  26.785  30.127  1.00  0.00     0.020 A 
ATOM     90  C   UNL A   1      49.437  26.214  32.362  1.00  0.00     0.020 A 
ATOM     91  C   UNL A   1      50.461  26.313  31.418  1.00  0.00     0.054 A 
BRANCH  91  92
ATOM     92  S   UNL A   1      52.164  25.880  31.869  1.00  0.00     0.124 S 
ATOM     93  O   UNL A   1      52.904  26.282  30.677  1.00  0.00    -0.237 OA
ATOM     94  O   UNL A   1      52.400  26.691  33.060  1.00  0.00    -0.237 OA
ATOM     95  O   UNL A   1      52.101  24.440  32.107  1.00  0.00    -0.744 OA
ENDBRANCH  91  92
ENDBRANCH  65  86
ENDBRANCH  39  40
ENDBRANCH  31  34
ENDBRANCH  29  30
ENDBRANCH  28  29
ENDBRANCH   1  28
TORSDOF 17
ENDMDL
MODEL 3
REMARK VINA RESULT:     -11.3      2.413      9.277
REMARK SMILES [NH3+][C@H]1C=C[C@H](C(=O)N2CCCc3c(C(=O)NCCCCNC(=O)c4ccc(-c5c6nc(c(-c7ccc(S(=O)(=O)[O-])cc7)c7ccc([nH]7)c(-c7ccc(S(=O)(=O)[O-])cc7)c7nc(c(-c8ccc(S(=O)(=O)[O-])cc8)c8ccc5[nH]8)C=C7)C=C6)cc4)cccc32)C1
REMARK SMILES IDX 18 1 17 2 16 3 14 4 15 5 13 7 8 8 9 9 87 10 10 11 12 12
REMARK SMILES IDX 86 13 11 14 85 15 84 16 6 17 7 18 5 19 2 20 3 21 88 22 4 23
REMARK SMILES IDX 1 24 19 28 20 29 21 30 22 31 23 33 24 34 25 35 83 36 26 37
REMARK SMILES IDX 82 38 27 39 28 40 29 41 76 42 30 43 81 44 75 45 77 46 31 47
REMARK SMILES IDX 80 48 74 49 73 50 32 52 62 53 43 54 61 55 44 56 47 57 60 58
REMARK SMILES IDX 78 59 45 60 46 61 59 63 79 64 48 65 33 66 34 67 42 68 35 69
REMARK SMILES IDX 41 70 36 71 37 72 38 73 39 74 40 75 63 76 64 77 72 78 65 79
REMARK SMILES IDX 71 80 66 81 67 82 68 83 69 84 70 85 49 86 50 87 58 88 51 89
REMARK SMILES IDX 57 90 52 91 53 92 54 93 55 94 56 95
REMARK H PARENT 16 6 1 25 1 26 1 27 21 32 77 51 47 62
REMARK Flexibility Score: inf
ROOT
ATOM      1  C   UNL A   1      32.336  28.786  25.063  1.00  0.00     0.023 C 
ENDROOT
BRANCH   1   2
ATOM      2  C   UNL A   1      31.239  29.797  24.715  1.00  0.00     0.116 C 
BRANCH   2   3
ATOM      3  N   UNL A   1      30.130  29.148  24.050  1.00  0.00    -0.352 N 
ATOM      4  C   UNL A   1      29.819  27.961  23.454  1.00  0.00     0.251 C 
ATOM      5  O   UNL A   1      28.652  27.954  23.030  1.00  0.00    -0.269 OA
ATOM      6  H   UNL A   1      29.355  29.754  24.017  1.00  0.00     0.163 HD
BRANCH   4   7
ATOM      7  C   UNL A   1      30.630  26.697  23.249  1.00  0.00     0.045 A 
ATOM      8  N   UNL A   1      32.014  23.393  24.468  1.00  0.00    -0.312 N 
ATOM      9  C   UNL A   1      30.926  23.036  25.368  1.00  0.00     0.126 C 
ATOM     10  C   UNL A   1      31.812  24.578  23.682  1.00  0.00     0.048 A 
ATOM     11  C   UNL A   1      30.672  24.220  26.272  1.00  0.00     0.027 C 
ATOM     12  C   UNL A   1      30.864  25.570  24.081  1.00  0.00    -0.011 A 
ATOM     13  C   UNL A   1      32.521  24.713  22.484  1.00  0.00     0.027 A 
ATOM     14  C   UNL A   1      30.208  25.393  25.418  1.00  0.00     0.040 C 
ATOM     15  C   UNL A   1      32.282  25.787  21.649  1.00  0.00     0.003 A 
ATOM     16  C   UNL A   1      31.348  26.747  22.024  1.00  0.00     0.014 A 
BRANCH   8  17
ATOM     17  C   UNL A   1      33.264  22.765  24.515  1.00  0.00     0.234 C 
ATOM     18  O   UNL A   1      33.530  21.764  23.845  1.00  0.00    -0.274 OA
BRANCH  17  19
ATOM     19  C   UNL A   1      34.274  23.344  25.519  1.00  0.00     0.108 C 
ATOM     20  C   UNL A   1      36.646  23.155  24.894  1.00  0.00     0.205 C 
ATOM     21  C   UNL A   1      36.259  22.129  25.899  1.00  0.00     0.033 C 
ATOM     22  C   UNL A   1      35.443  24.109  24.885  1.00  0.00     0.087 C 
ATOM     23  C   UNL A   1      34.973  22.232  26.251  1.00  0.00    -0.012 C 
BRANCH  20  24
ATOM     24  N   UNL A   1      37.877  23.823  25.285  1.00  0.00    -0.352 N 
ATOM     25  H   UNL A   1      38.676  23.258  25.001  1.00  0.00     0.345 HD
ATOM     26  H   UNL A   1      37.889  23.947  26.298  1.00  0.00     0.345 HD
ATOM     27  H   UNL A   1      37.927  24.736  24.831  1.00  0.00     0.345 HD
ENDBRANCH  20  24
ENDBRANCH  17  19
ENDBRANCH   8  17
ENDBRANCH   4   7
ENDBRANCH   2   3
ENDBRANCH   1   2
BRANCH   1  28
ATOM     28  C   UNL A   1      32.324  28.275  26.499  1.00  0.00     0.023 C 
BRANCH  28  29
ATOM     29  C   UNL A   1      33.554  28.667  27.302  1.00  0.00     0.116 C 
BRANCH  29  30
ATOM     30  N   UNL A   1      33.539  30.047  27.770  1.00  0.00    -0.352 N 
ATOM     31  C   UNL A   1      34.588  30.756  28.320  1.00  0.00     0.251 C 
ATOM     32  H   UNL A   1      32.685  30.528  27.684  1.00  0.00     0.163 HD
ATOM     33  O   UNL A   1      34.431  31.896  28.728  1.00  0.00    -0.269 OA
BRANCH  31  34
ATOM     34  C   UNL A   1      35.888  30.067  28.457  1.00  0.00     0.039 A 
ATOM     35  C   UNL A   1      36.789  30.113  27.393  1.00  0.00     0.014 A 
ATOM     36  C   UNL A   1      36.256  29.508  29.683  1.00  0.00     0.014 A 
ATOM     37  C   UNL A   1      38.099  29.675  27.590  1.00  0.00     0.010 A 
ATOM     38  C   UNL A   1      37.580  29.154  29.901  1.00  0.00     0.010 A 
ATOM     39  C   UNL A   1      38.517  29.241  28.859  1.00  0.00    -0.014 A 
BRANCH  39  40
ATOM     40  C   UNL A   1      39.931  28.878  29.123  1.00  0.00     0.031 A 
ATOM     41  C   UNL A   1      40.860  29.889  29.735  1.00  0.00     0.074 A 
ATOM     42  C   UNL A   1      40.395  27.671  28.742  1.00  0.00     0.049 A 
ATOM     43  N   UNL A   1      42.140  29.787  29.982  1.00  0.00    -0.248 NA
ATOM     44  C   UNL A   1      40.282  31.197  30.086  1.00  0.00     0.031 C 
ATOM     45  C   UNL A   1      39.609  26.624  28.083  1.00  0.00     0.029 A 
ATOM     46  N   UNL A   1      41.648  27.122  28.853  1.00  0.00    -0.354 N 
ATOM     47  C   UNL A   1      42.523  31.020  30.494  1.00  0.00     0.074 A 
ATOM     48  C   UNL A   1      41.354  31.872  30.473  1.00  0.00     0.031 C 
ATOM     49  C   UNL A   1      40.388  25.549  27.881  1.00  0.00     0.029 A 
ATOM     50  C   UNL A   1      41.734  25.838  28.364  1.00  0.00     0.049 A 
ATOM     51  H   UNL A   1      42.414  27.600  29.244  1.00  0.00     0.167 HD
ATOM     52  C   UNL A   1      43.734  31.406  30.964  1.00  0.00     0.031 A 
ATOM     53  C   UNL A   1      42.778  24.989  28.319  1.00  0.00     0.031 A 
ATOM     54  C   UNL A   1      44.888  30.551  31.013  1.00  0.00     0.049 A 
ATOM     55  C   UNL A   1      44.103  25.427  28.877  1.00  0.00     0.074 A 
ATOM     56  C   UNL A   1      46.143  30.828  31.521  1.00  0.00     0.029 A 
ATOM     57  N   UNL A   1      44.922  29.248  30.540  1.00  0.00    -0.354 N 
ATOM     58  N   UNL A   1      44.432  26.580  29.411  1.00  0.00    -0.248 NA
ATOM     59  C   UNL A   1      45.196  24.445  28.840  1.00  0.00     0.031 C 
ATOM     60  C   UNL A   1      46.948  29.698  31.332  1.00  0.00     0.029 A 
ATOM     61  C   UNL A   1      46.181  28.709  30.740  1.00  0.00     0.049 A 
ATOM     62  H   UNL A   1      44.165  28.777  30.124  1.00  0.00     0.167 HD
ATOM     63  C   UNL A   1      45.761  26.453  29.795  1.00  0.00     0.074 A 
ATOM     64  C   UNL A   1      46.173  25.109  29.443  1.00  0.00     0.031 C 
ATOM     65  C   UNL A   1      46.569  27.368  30.385  1.00  0.00     0.031 A 
BRANCH  52  66
ATOM     66  C   UNL A   1      43.854  32.816  31.471  1.00  0.00    -0.014 A 
ATOM     67  C   UNL A   1      43.694  33.107  32.839  1.00  0.00     0.010 A 
ATOM     68  C   UNL A   1      44.137  33.864  30.576  1.00  0.00     0.010 A 
ATOM     69  C   UNL A   1      43.762  34.425  33.295  1.00  0.00     0.020 A 
ATOM     70  C   UNL A   1      44.232  35.181  31.033  1.00  0.00     0.020 A 
ATOM     71  C   UNL A   1      44.023  35.455  32.386  1.00  0.00     0.054 A 
BRANCH  71  72
ATOM     72  S   UNL A   1      44.111  37.158  33.004  1.00  0.00     0.124 S 
ATOM     73  O   UNL A   1      45.303  37.110  33.848  1.00  0.00    -0.237 OA
ATOM     74  O   UNL A   1      44.243  37.941  31.777  1.00  0.00    -0.237 OA
ATOM     75  O   UNL A   1      42.848  37.332  33.717  1.00  0.00    -0.744 OA
ENDBRANCH  71  72
ENDBRANCH  52  66
BRANCH  53  76
ATOM     76  C   UNL A   1      42.602  23.622  27.760  1.00  0.00    -0.014 A 
ATOM     77  C   UNL A   1      42.852  23.378  26.397  1.00  0.00     0.010 A 
ATOM     78  C   UNL A   1      42.198  22.557  28.584  1.00  0.00     0.010 A 
ATOM     79  C   UNL A   1      42.685  22.097  25.865  1.00  0.00     0.020 A 
ATOM     80  C   UNL A   1      42.051  21.269  28.059  1.00  0.00     0.020 A 
ATOM     81  C   UNL A   1      42.286  21.050  26.699  1.00  0.00     0.054 A 
BRANCH  81  82
ATOM     82  S   UNL A   1      42.128  19.382  26.000  1.00  0.00     0.124 S 
ATOM     83  O   UNL A   1      42.609  18.547  27.096  1.00  0.00    -0.237 OA
ATOM     84  O   UNL A   1      40.698  19.291  25.716  1.00  0.00    -0.237 OA
ATOM     85  O   UNL A   1      42.987  19.426  24.819  1.00  0.00    -0.744 OA
ENDBRANCH  81  82
ENDBRANCH  53  76
BRANCH  65  86
ATOM     86  C   UNL A   1      47.969  26.935  30.719  1.00  0.00    -0.014 A 
ATOM     87  C   UNL A   1      49.044  27.239  29.866  1.00  0.00     0.010 A 
ATOM     88  C   UNL A   1      48.218  26.261  31.929  1.00  0.00     0.010 A 
ATOM     89  C   UNL A   1      50.343  26.850  30.205  1.00  0.00     0.020 A 
ATOM     90  C   UNL A   1      49.517  25.892  32.281  1.00  0.00     0.020 A 
ATOM     91  C   UNL A   1      50.570  26.176  31.409  1.00  0.00     0.054 A 
BRANCH  91  92
ATOM     92  S   UNL A   1      52.270  25.721  31.851  1.00  0.00     0.124 S 
ATOM     93  O   UNL A   1      52.562  26.657  32.932  1.00  0.00    -0.237 OA
ATOM     94  O   UNL A   1      52.137  24.321  32.250  1.00  0.00    -0.237 OA
ATOM     95  O   UNL A   1      53.018  25.941  30.616  1.00  0.00    -0.744 OA
ENDBRANCH  91  92
ENDBRANCH  65  86
ENDBRANCH  39  40
ENDBRANCH  31  34
ENDBRANCH  29  30
ENDBRANCH  28  29
ENDBRANCH   1  28
TORSDOF 17
ENDMDL
