MODEL 1
REMARK VINA RESULT:     -10.5      0.000      0.000
REMARK SMILES O=C(/C=C/c1ccc(O)cc1)NC[C@@H]1CC[C@H](C(=O)NCCCCNC(=O)c2ccc(-c3c4nc(c(-c5ccc(S(=O)(=O)[O-])cc5)c5ccc([nH]5)c(-c5ccc(S(=O)(=O)[O-])cc5)c5nc(c(-c6ccc(S(=O)(=O)[O-])cc6)c6ccc3[nH]6)C=C5)C=C4)cc2)O1
REMARK SMILES IDX 21 1 20 2 18 3 19 4 17 6 14 7 15 8 88 9 16 10 13 11 12 12
REMARK SMILES IDX 1 13 2 14 3 16 4 17 5 18 6 19 11 20 7 21 10 22 8 23 9 24
REMARK SMILES IDX 22 26 23 27 24 28 25 29 26 30 27 32 28 33 29 34 87 35 30 36
REMARK SMILES IDX 86 37 31 38 32 39 33 40 80 41 34 42 85 43 79 44 81 45 35 46
REMARK SMILES IDX 84 47 78 48 77 49 36 51 66 52 47 53 65 54 48 55 51 56 64 57
REMARK SMILES IDX 82 58 49 59 50 60 63 62 83 63 52 64 37 65 38 66 46 67 39 68
REMARK SMILES IDX 45 69 40 70 41 71 42 72 43 73 44 74 67 75 68 76 76 77 69 78
REMARK SMILES IDX 75 79 70 80 71 81 72 82 73 83 74 84 53 85 54 86 62 87 55 88
REMARK SMILES IDX 61 89 56 90 57 91 58 92 59 93 60 94
REMARK H PARENT 20 5 12 15 9 25 25 31 81 50 51 61
REMARK Flexibility Score: inf
ROOT
ATOM      1  C   UNL A   1      38.173  23.993  26.274  1.00  0.00     0.116 C 
ENDROOT
BRANCH   1   2
ATOM      2  N   UNL A   1      37.020  23.149  26.492  1.00  0.00    -0.354 N 
ATOM      3  C   UNL A   1      35.847  23.080  25.797  1.00  0.00     0.249 C 
ATOM      4  O   UNL A   1      35.010  22.252  26.170  1.00  0.00    -0.272 OA
ATOM      5  H   UNL A   1      37.091  22.533  27.256  1.00  0.00     0.163 HD
BRANCH   3   6
ATOM      6  C   UNL A   1      35.536  24.026  24.613  1.00  0.00     0.207 C 
ATOM      7  C   UNL A   1      33.626  25.029  23.706  1.00  0.00     0.138 C 
ATOM      8  C   UNL A   1      33.812  23.714  22.968  1.00  0.00     0.037 C 
ATOM      9  O   UNL A   1      34.504  24.989  24.844  1.00  0.00    -0.363 OA
ATOM     10  C   UNL A   1      35.216  23.289  23.319  1.00  0.00     0.045 C 
BRANCH   7  11
ATOM     11  C   UNL A   1      32.182  25.240  24.186  1.00  0.00     0.148 C 
BRANCH  11  12
ATOM     12  N   UNL A   1      31.511  26.313  23.482  1.00  0.00    -0.350 N 
ATOM     13  O   UNL A   1      31.186  27.570  25.371  1.00  0.00    -0.270 OA
ATOM     14  C   UNL A   1      31.054  27.408  24.163  1.00  0.00     0.244 C 
ATOM     15  H   UNL A   1      31.382  26.253  22.508  1.00  0.00     0.163 HD
BRANCH  14  16
ATOM     16  C   UNL A   1      30.351  28.447  23.376  1.00  0.00     0.072 C 
ATOM     17  C   UNL A   1      29.613  29.454  23.866  1.00  0.00     0.014 C 
BRANCH  17  18
ATOM     18  C   UNL A   1      29.103  30.524  23.002  1.00  0.00    -0.025 A 
ATOM     19  C   UNL A   1      29.010  31.855  23.430  1.00  0.00     0.012 A 
ATOM     20  C   UNL A   1      28.687  30.193  21.706  1.00  0.00     0.012 A 
ATOM     21  C   UNL A   1      28.467  32.833  22.592  1.00  0.00     0.047 A 
ATOM     22  C   UNL A   1      28.145  31.169  20.868  1.00  0.00     0.047 A 
ATOM     23  C   UNL A   1      28.030  32.476  21.321  1.00  0.00     0.115 A 
BRANCH  23  24
ATOM     24  O   UNL A   1      27.472  33.393  20.479  1.00  0.00    -0.508 OA
ATOM     25  H   UNL A   1      27.977  34.125  20.184  1.00  0.00     0.293 HD
ENDBRANCH  23  24
ENDBRANCH  17  18
ENDBRANCH  14  16
ENDBRANCH  11  12
ENDBRANCH   7  11
ENDBRANCH   3   6
ENDBRANCH   1   2
BRANCH   1  26
ATOM     26  C   UNL A   1      39.486  23.271  26.561  1.00  0.00     0.023 C 
BRANCH  26  27
ATOM     27  C   UNL A   1      39.477  21.787  26.201  1.00  0.00     0.023 C 
BRANCH  27  28
ATOM     28  C   UNL A   1      40.425  20.919  27.026  1.00  0.00     0.116 C 
BRANCH  28  29
ATOM     29  N   UNL A   1      41.201  19.975  26.234  1.00  0.00    -0.352 N 
ATOM     30  C   UNL A   1      42.445  20.164  25.677  1.00  0.00     0.251 C 
ATOM     31  H   UNL A   1      40.786  19.097  26.078  1.00  0.00     0.163 HD
ATOM     32  O   UNL A   1      42.943  19.307  24.952  1.00  0.00    -0.269 OA
BRANCH  30  33
ATOM     33  C   UNL A   1      43.150  21.437  25.924  1.00  0.00     0.039 A 
ATOM     34  C   UNL A   1      43.133  22.422  24.934  1.00  0.00     0.014 A 
ATOM     35  C   UNL A   1      43.758  21.682  27.158  1.00  0.00     0.014 A 
ATOM     36  C   UNL A   1      43.653  23.687  25.214  1.00  0.00     0.010 A 
ATOM     37  C   UNL A   1      44.212  22.962  27.458  1.00  0.00     0.010 A 
ATOM     38  C   UNL A   1      44.156  23.979  26.492  1.00  0.00    -0.014 A 
BRANCH  38  39
ATOM     39  C   UNL A   1      44.609  25.346  26.849  1.00  0.00     0.031 A 
ATOM     40  C   UNL A   1      43.632  26.344  27.404  1.00  0.00     0.074 A 
ATOM     41  C   UNL A   1      45.882  25.713  26.596  1.00  0.00     0.049 A 
ATOM     42  N   UNL A   1      43.822  27.603  27.704  1.00  0.00    -0.248 NA
ATOM     43  C   UNL A   1      42.253  25.875  27.622  1.00  0.00     0.031 C 
ATOM     44  C   UNL A   1      46.913  24.853  26.009  1.00  0.00     0.029 A 
ATOM     45  N   UNL A   1      46.523  26.910  26.792  1.00  0.00    -0.354 N 
ATOM     46  C   UNL A   1      42.585  28.082  28.122  1.00  0.00     0.074 A 
ATOM     47  C   UNL A   1      41.644  26.991  27.996  1.00  0.00     0.031 C 
ATOM     48  C   UNL A   1      48.061  25.544  25.913  1.00  0.00     0.029 A 
ATOM     49  C   UNL A   1      47.841  26.903  26.399  1.00  0.00     0.049 A 
ATOM     50  H   UNL A   1      46.081  27.702  27.178  1.00  0.00     0.167 HD
ATOM     51  C   UNL A   1      42.266  29.314  28.585  1.00  0.00     0.031 A 
ATOM     52  C   UNL A   1      48.768  27.880  26.423  1.00  0.00     0.031 A 
ATOM     53  C   UNL A   1      43.208  30.391  28.731  1.00  0.00     0.049 A 
ATOM     54  C   UNL A   1      48.397  29.231  26.966  1.00  0.00     0.074 A 
ATOM     55  C   UNL A   1      42.996  31.653  29.255  1.00  0.00     0.029 A 
ATOM     56  N   UNL A   1      44.541  30.331  28.354  1.00  0.00    -0.354 N 
ATOM     57  N   UNL A   1      47.237  29.644  27.421  1.00  0.00    -0.248 NA
ATOM     58  C   UNL A   1      49.460  30.245  27.009  1.00  0.00     0.031 C 
ATOM     59  C   UNL A   1      44.193  32.372  29.160  1.00  0.00     0.029 A 
ATOM     60  C   UNL A   1      45.161  31.540  28.619  1.00  0.00     0.049 A 
ATOM     61  H   UNL A   1      44.982  29.545  27.957  1.00  0.00     0.167 HD
ATOM     62  C   UNL A   1      47.439  30.959  27.827  1.00  0.00     0.074 A 
ATOM     63  C   UNL A   1      48.832  31.268  27.576  1.00  0.00     0.031 C 
ATOM     64  C   UNL A   1      46.549  31.830  28.362  1.00  0.00     0.031 A 
BRANCH  51  65
ATOM     65  C   UNL A   1      40.830  29.559  28.966  1.00  0.00    -0.014 A 
ATOM     66  C   UNL A   1      40.451  29.695  30.313  1.00  0.00     0.010 A 
ATOM     67  C   UNL A   1      39.852  29.684  27.963  1.00  0.00     0.010 A 
ATOM     68  C   UNL A   1      39.114  29.907  30.654  1.00  0.00     0.020 A 
ATOM     69  C   UNL A   1      38.517  29.922  28.298  1.00  0.00     0.020 A 
ATOM     70  C   UNL A   1      38.153  30.013  29.644  1.00  0.00     0.054 A 
BRANCH  70  71
ATOM     71  S   UNL A   1      36.424  30.304  30.111  1.00  0.00     0.124 S 
ATOM     72  O   UNL A   1      36.398  31.756  30.271  1.00  0.00    -0.237 OA
ATOM     73  O   UNL A   1      35.688  29.786  28.961  1.00  0.00    -0.237 OA
ATOM     74  O   UNL A   1      36.266  29.537  31.344  1.00  0.00    -0.744 OA
ENDBRANCH  70  71
ENDBRANCH  51  65
BRANCH  52  75
ATOM     75  C   UNL A   1      50.147  27.603  25.938  1.00  0.00    -0.014 A 
ATOM     76  C   UNL A   1      51.149  27.200  26.838  1.00  0.00     0.010 A 
ATOM     77  C   UNL A   1      50.460  27.720  24.572  1.00  0.00     0.010 A 
ATOM     78  C   UNL A   1      52.442  26.929  26.382  1.00  0.00     0.020 A 
ATOM     79  C   UNL A   1      51.746  27.428  24.109  1.00  0.00     0.020 A 
ATOM     80  C   UNL A   1      52.732  27.043  25.020  1.00  0.00     0.054 A 
BRANCH  80  81
ATOM     81  S   UNL A   1      54.402  26.627  24.441  1.00  0.00     0.124 S 
ATOM     82  O   UNL A   1      55.241  27.296  25.430  1.00  0.00    -0.237 OA
ATOM     83  O   UNL A   1      54.401  25.167  24.495  1.00  0.00    -0.237 OA
ATOM     84  O   UNL A   1      54.445  27.192  23.094  1.00  0.00    -0.744 OA
ENDBRANCH  80  81
ENDBRANCH  52  75
BRANCH  64  85
ATOM     85  C   UNL A   1      47.058  33.194  28.739  1.00  0.00    -0.014 A 
ATOM     86  C   UNL A   1      47.615  33.436  30.007  1.00  0.00     0.010 A 
ATOM     87  C   UNL A   1      47.032  34.232  27.790  1.00  0.00     0.010 A 
ATOM     88  C   UNL A   1      48.114  34.701  30.328  1.00  0.00     0.020 A 
ATOM     89  C   UNL A   1      47.551  35.490  28.099  1.00  0.00     0.020 A 
ATOM     90  C   UNL A   1      48.077  35.721  29.371  1.00  0.00     0.054 A 
BRANCH  90  91
ATOM     91  S   UNL A   1      48.776  37.342  29.792  1.00  0.00     0.124 S 
ATOM     92  O   UNL A   1      47.759  37.887  30.688  1.00  0.00    -0.237 OA
ATOM     93  O   UNL A   1      50.047  36.992  30.423  1.00  0.00    -0.237 OA
ATOM     94  O   UNL A   1      48.893  38.014  28.500  1.00  0.00    -0.744 OA
ENDBRANCH  90  91
ENDBRANCH  64  85
ENDBRANCH  38  39
ENDBRANCH  30  33
ENDBRANCH  28  29
ENDBRANCH  27  28
ENDBRANCH  26  27
ENDBRANCH   1  26
TORSDOF 19
ENDMDL
MODEL 2
REMARK VINA RESULT:     -10.5      2.327      8.456
REMARK SMILES O=C(/C=C/c1ccc(O)cc1)NC[C@@H]1CC[C@H](C(=O)NCCCCNC(=O)c2ccc(-c3c4nc(c(-c5ccc(S(=O)(=O)[O-])cc5)c5ccc([nH]5)c(-c5ccc(S(=O)(=O)[O-])cc5)c5nc(c(-c6ccc(S(=O)(=O)[O-])cc6)c6ccc3[nH]6)C=C5)C=C4)cc2)O1
REMARK SMILES IDX 21 1 20 2 18 3 19 4 17 6 14 7 15 8 88 9 16 10 13 11 12 12
REMARK SMILES IDX 1 13 2 14 3 16 4 17 5 18 6 19 11 20 7 21 10 22 8 23 9 24
REMARK SMILES IDX 22 26 23 27 24 28 25 29 26 30 27 32 28 33 29 34 87 35 30 36
REMARK SMILES IDX 86 37 31 38 32 39 33 40 80 41 34 42 85 43 79 44 81 45 35 46
REMARK SMILES IDX 84 47 78 48 77 49 36 51 66 52 47 53 65 54 48 55 51 56 64 57
REMARK SMILES IDX 82 58 49 59 50 60 63 62 83 63 52 64 37 65 38 66 46 67 39 68
REMARK SMILES IDX 45 69 40 70 41 71 42 72 43 73 44 74 67 75 68 76 76 77 69 78
REMARK SMILES IDX 75 79 70 80 71 81 72 82 73 83 74 84 53 85 54 86 62 87 55 88
REMARK SMILES IDX 61 89 56 90 57 91 58 92 59 93 60 94
REMARK H PARENT 20 5 12 15 9 25 25 31 81 50 51 61
REMARK Flexibility Score: inf
ROOT
ATOM      1  C   UNL A   1      37.020  23.294  25.652  1.00  0.00     0.116 C 
ENDROOT
BRANCH   1   2
ATOM      2  N   UNL A   1      36.004  22.815  26.562  1.00  0.00    -0.354 N 
ATOM      3  C   UNL A   1      34.979  21.941  26.340  1.00  0.00     0.249 C 
ATOM      4  O   UNL A   1      34.244  21.669  27.295  1.00  0.00    -0.272 OA
ATOM      5  H   UNL A   1      36.059  23.174  27.477  1.00  0.00     0.163 HD
BRANCH   3   6
ATOM      6  C   UNL A   1      34.699  21.339  24.943  1.00  0.00     0.207 C 
ATOM      7  C   UNL A   1      32.984  21.473  23.355  1.00  0.00     0.138 C 
ATOM      8  C   UNL A   1      32.659  20.282  24.241  1.00  0.00     0.037 C 
ATOM      9  O   UNL A   1      34.032  22.202  24.018  1.00  0.00    -0.363 OA
ATOM     10  C   UNL A   1      33.938  20.021  24.995  1.00  0.00     0.045 C 
BRANCH   7  11
ATOM     11  C   UNL A   1      31.779  22.399  23.140  1.00  0.00     0.148 C 
BRANCH  11  12
ATOM     12  N   UNL A   1      31.888  23.639  23.879  1.00  0.00    -0.350 N 
ATOM     13  O   UNL A   1      32.037  24.939  21.997  1.00  0.00    -0.270 OA
ATOM     14  C   UNL A   1      32.019  24.830  23.218  1.00  0.00     0.244 C 
ATOM     15  H   UNL A   1      31.868  23.626  24.863  1.00  0.00     0.163 HD
BRANCH  14  16
ATOM     16  C   UNL A   1      32.156  26.050  24.045  1.00  0.00     0.072 C 
ATOM     17  C   UNL A   1      32.376  26.095  25.368  1.00  0.00     0.014 C 
BRANCH  17  18
ATOM     18  C   UNL A   1      32.665  27.358  26.056  1.00  0.00    -0.025 A 
ATOM     19  C   UNL A   1      31.663  28.135  26.653  1.00  0.00     0.012 A 
ATOM     20  C   UNL A   1      33.993  27.801  26.106  1.00  0.00     0.012 A 
ATOM     21  C   UNL A   1      31.976  29.358  27.250  1.00  0.00     0.047 A 
ATOM     22  C   UNL A   1      34.307  29.023  26.703  1.00  0.00     0.047 A 
ATOM     23  C   UNL A   1      33.297  29.795  27.260  1.00  0.00     0.115 A 
BRANCH  23  24
ATOM     24  O   UNL A   1      33.643  30.993  27.811  1.00  0.00    -0.508 OA
ATOM     25  H   UNL A   1      34.090  31.635  27.295  1.00  0.00     0.293 HD
ENDBRANCH  23  24
ENDBRANCH  17  18
ENDBRANCH  14  16
ENDBRANCH  11  12
ENDBRANCH   7  11
ENDBRANCH   3   6
ENDBRANCH   1   2
BRANCH   1  26
ATOM     26  C   UNL A   1      38.431  22.954  26.123  1.00  0.00     0.023 C 
BRANCH  26  27
ATOM     27  C   UNL A   1      38.889  21.544  25.758  1.00  0.00     0.023 C 
BRANCH  27  28
ATOM     28  C   UNL A   1      39.653  20.811  26.858  1.00  0.00     0.116 C 
BRANCH  28  29
ATOM     29  N   UNL A   1      40.510  19.740  26.370  1.00  0.00    -0.352 N 
ATOM     30  C   UNL A   1      41.849  19.805  26.060  1.00  0.00     0.251 C 
ATOM     31  H   UNL A   1      40.079  18.863  26.247  1.00  0.00     0.163 HD
ATOM     32  O   UNL A   1      42.425  18.839  25.569  1.00  0.00    -0.269 OA
BRANCH  30  33
ATOM     33  C   UNL A   1      42.569  21.075  26.281  1.00  0.00     0.039 A 
ATOM     34  C   UNL A   1      42.798  21.919  25.192  1.00  0.00     0.014 A 
ATOM     35  C   UNL A   1      42.947  21.460  27.570  1.00  0.00     0.014 A 
ATOM     36  C   UNL A   1      43.331  23.191  25.410  1.00  0.00     0.010 A 
ATOM     37  C   UNL A   1      43.413  22.751  27.792  1.00  0.00     0.010 A 
ATOM     38  C   UNL A   1      43.601  23.632  26.715  1.00  0.00    -0.014 A 
BRANCH  38  39
ATOM     39  C   UNL A   1      44.059  25.018  26.982  1.00  0.00     0.031 A 
ATOM     40  C   UNL A   1      45.501  25.390  26.772  1.00  0.00     0.074 A 
ATOM     41  C   UNL A   1      43.195  25.919  27.493  1.00  0.00     0.049 A 
ATOM     42  N   UNL A   1      46.103  26.524  27.021  1.00  0.00    -0.248 NA
ATOM     43  C   UNL A   1      46.388  24.341  26.241  1.00  0.00     0.031 C 
ATOM     44  C   UNL A   1      41.783  25.665  27.793  1.00  0.00     0.029 A 
ATOM     45  N   UNL A   1      43.381  27.228  27.859  1.00  0.00    -0.354 N 
ATOM     46  C   UNL A   1      47.441  26.318  26.701  1.00  0.00     0.074 A 
ATOM     47  C   UNL A   1      47.568  24.940  26.282  1.00  0.00     0.031 C 
ATOM     48  C   UNL A   1      41.228  26.789  28.277  1.00  0.00     0.029 A 
ATOM     49  C   UNL A   1      42.248  27.830  28.353  1.00  0.00     0.049 A 
ATOM     50  H   UNL A   1      44.245  27.693  27.777  1.00  0.00     0.167 HD
ATOM     51  C   UNL A   1      48.465  27.202  26.737  1.00  0.00     0.031 A 
ATOM     52  C   UNL A   1      42.051  29.079  28.819  1.00  0.00     0.031 A 
ATOM     53  C   UNL A   1      48.331  28.578  27.132  1.00  0.00     0.049 A 
ATOM     54  C   UNL A   1      43.198  30.050  28.823  1.00  0.00     0.074 A 
ATOM     55  C   UNL A   1      49.296  29.570  27.136  1.00  0.00     0.029 A 
ATOM     56  N   UNL A   1      47.158  29.158  27.592  1.00  0.00    -0.354 N 
ATOM     57  N   UNL A   1      44.441  29.855  28.452  1.00  0.00    -0.248 NA
ATOM     58  C   UNL A   1      42.914  31.411  29.300  1.00  0.00     0.031 C 
ATOM     59  C   UNL A   1      48.716  30.741  27.635  1.00  0.00     0.029 A 
ATOM     60  C   UNL A   1      47.379  30.490  27.897  1.00  0.00     0.049 A 
ATOM     61  H   UNL A   1      46.297  28.691  27.686  1.00  0.00     0.167 HD
ATOM     62  C   UNL A   1      45.082  31.077  28.627  1.00  0.00     0.074 A 
ATOM     63  C   UNL A   1      44.088  32.006  29.125  1.00  0.00     0.031 C 
ATOM     64  C   UNL A   1      46.378  31.400  28.393  1.00  0.00     0.031 A 
BRANCH  51  65
ATOM     65  C   UNL A   1      49.827  26.700  26.336  1.00  0.00    -0.014 A 
ATOM     66  C   UNL A   1      50.649  26.024  27.255  1.00  0.00     0.010 A 
ATOM     67  C   UNL A   1      50.278  26.880  25.017  1.00  0.00     0.010 A 
ATOM     68  C   UNL A   1      51.917  25.577  26.875  1.00  0.00     0.020 A 
ATOM     69  C   UNL A   1      51.535  26.411  24.624  1.00  0.00     0.020 A 
ATOM     70  C   UNL A   1      52.355  25.779  25.562  1.00  0.00     0.054 A 
BRANCH  70  71
ATOM     71  S   UNL A   1      53.998  25.175  25.089  1.00  0.00     0.124 S 
ATOM     72  O   UNL A   1      54.818  25.631  26.209  1.00  0.00    -0.237 OA
ATOM     73  O   UNL A   1      53.798  23.731  25.005  1.00  0.00    -0.237 OA
ATOM     74  O   UNL A   1      54.257  25.840  23.815  1.00  0.00    -0.744 OA
ENDBRANCH  70  71
ENDBRANCH  51  65
BRANCH  52  75
ATOM     75  C   UNL A   1      40.702  29.487  29.295  1.00  0.00    -0.014 A 
ATOM     76  C   UNL A   1      40.420  29.540  30.671  1.00  0.00     0.010 A 
ATOM     77  C   UNL A   1      39.699  29.845  28.376  1.00  0.00     0.010 A 
ATOM     78  C   UNL A   1      39.156  29.933  31.120  1.00  0.00     0.020 A 
ATOM     79  C   UNL A   1      38.441  30.260  28.822  1.00  0.00     0.020 A 
ATOM     80  C   UNL A   1      38.175  30.292  30.192  1.00  0.00     0.054 A 
BRANCH  80  81
ATOM     81  S   UNL A   1      36.560  30.859  30.798  1.00  0.00     0.124 S 
ATOM     82  O   UNL A   1      36.280  29.898  31.859  1.00  0.00    -0.237 OA
ATOM     83  O   UNL A   1      36.847  32.223  31.237  1.00  0.00    -0.237 OA
ATOM     84  O   UNL A   1      35.701  30.762  29.620  1.00  0.00    -0.744 OA
ENDBRANCH  80  81
ENDBRANCH  52  75
BRANCH  64  85
ATOM     85  C   UNL A   1      46.792  32.823  28.647  1.00  0.00    -0.014 A 
ATOM     86  C   UNL A   1      47.256  33.230  29.910  1.00  0.00     0.010 A 
ATOM     87  C   UNL A   1      46.772  33.750  27.589  1.00  0.00     0.010 A 
ATOM     88  C   UNL A   1      47.669  34.549  30.117  1.00  0.00     0.020 A 
ATOM     89  C   UNL A   1      47.207  35.062  27.787  1.00  0.00     0.020 A 
ATOM     90  C   UNL A   1      47.641  35.458  29.054  1.00  0.00     0.054 A 
BRANCH  90  91
ATOM     91  S   UNL A   1      48.229  37.151  29.334  1.00  0.00     0.124 S 
ATOM     92  O   UNL A   1      48.660  37.095  30.728  1.00  0.00    -0.237 OA
ATOM     93  O   UNL A   1      49.300  37.288  28.350  1.00  0.00    -0.237 OA
ATOM     94  O   UNL A   1      47.048  37.973  29.079  1.00  0.00    -0.744 OA
ENDBRANCH  90  91
ENDBRANCH  64  85
ENDBRANCH  38  39
ENDBRANCH  30  33
ENDBRANCH  28  29
ENDBRANCH  27  28
ENDBRANCH  26  27
ENDBRANCH   1  26
TORSDOF 19
ENDMDL
MODEL 3
REMARK VINA RESULT:     -10.4      2.909      9.542
REMARK SMILES O=C(/C=C/c1ccc(O)cc1)NC[C@@H]1CC[C@H](C(=O)NCCCCNC(=O)c2ccc(-c3c4nc(c(-c5ccc(S(=O)(=O)[O-])cc5)c5ccc([nH]5)c(-c5ccc(S(=O)(=O)[O-])cc5)c5nc(c(-c6ccc(S(=O)(=O)[O-])cc6)c6ccc3[nH]6)C=C5)C=C4)cc2)O1
REMARK SMILES IDX 21 1 20 2 18 3 19 4 17 6 14 7 15 8 88 9 16 10 13 11 12 12
REMARK SMILES IDX 1 13 2 14 3 16 4 17 5 18 6 19 11 20 7 21 10 22 8 23 9 24
REMARK SMILES IDX 22 26 23 27 24 28 25 29 26 30 27 32 28 33 29 34 87 35 30 36
REMARK SMILES IDX 86 37 31 38 32 39 33 40 80 41 34 42 85 43 79 44 81 45 35 46
REMARK SMILES IDX 84 47 78 48 77 49 36 51 66 52 47 53 65 54 48 55 51 56 64 57
REMARK SMILES IDX 82 58 49 59 50 60 63 62 83 63 52 64 37 65 38 66 46 67 39 68
REMARK SMILES IDX 45 69 40 70 41 71 42 72 43 73 44 74 67 75 68 76 76 77 69 78
REMARK SMILES IDX 75 79 70 80 71 81 72 82 73 83 74 84 53 85 54 86 62 87 55 88
REMARK SMILES IDX 61 89 56 90 57 91 58 92 59 93 60 94
REMARK H PARENT 20 5 12 15 9 25 25 31 81 50 51 61
REMARK Flexibility Score: inf
ROOT
ATOM      1  C   UNL A   1      32.362  30.123  26.092  1.00  0.00     0.116 C 
ENDROOT
BRANCH   1   2
ATOM      2  N   UNL A   1      33.082  29.674  24.923  1.00  0.00    -0.354 N 
ATOM      3  C   UNL A   1      33.216  28.414  24.414  1.00  0.00     0.249 C 
ATOM      4  O   UNL A   1      33.874  28.284  23.377  1.00  0.00    -0.272 OA
ATOM      5  H   UNL A   1      33.544  30.381  24.418  1.00  0.00     0.163 HD
BRANCH   3   6
ATOM      6  C   UNL A   1      32.617  27.174  25.119  1.00  0.00     0.207 C 
ATOM      7  C   UNL A   1      31.770  25.095  24.455  1.00  0.00     0.138 C 
ATOM      8  C   UNL A   1      30.585  26.045  24.511  1.00  0.00     0.037 C 
ATOM      9  O   UNL A   1      32.952  25.910  24.540  1.00  0.00    -0.363 OA
ATOM     10  C   UNL A   1      31.103  27.239  25.273  1.00  0.00     0.045 C 
BRANCH   7  11
ATOM     11  C   UNL A   1      31.811  24.273  23.159  1.00  0.00     0.148 C 
BRANCH  11  12
ATOM     12  N   UNL A   1      31.844  22.847  23.403  1.00  0.00    -0.350 N 
ATOM     13  O   UNL A   1      34.131  22.755  23.529  1.00  0.00    -0.270 OA
ATOM     14  C   UNL A   1      33.039  22.199  23.563  1.00  0.00     0.244 C 
ATOM     15  H   UNL A   1      31.001  22.339  23.454  1.00  0.00     0.163 HD
BRANCH  14  16
ATOM     16  C   UNL A   1      32.989  20.735  23.778  1.00  0.00     0.072 C 
ATOM     17  C   UNL A   1      33.988  19.962  24.228  1.00  0.00     0.014 C 
BRANCH  17  18
ATOM     18  C   UNL A   1      33.775  18.550  24.565  1.00  0.00    -0.025 A 
ATOM     19  C   UNL A   1      32.593  18.090  25.160  1.00  0.00     0.012 A 
ATOM     20  C   UNL A   1      34.800  17.636  24.287  1.00  0.00     0.012 A 
ATOM     21  C   UNL A   1      32.454  16.745  25.514  1.00  0.00     0.047 A 
ATOM     22  C   UNL A   1      34.663  16.293  24.640  1.00  0.00     0.047 A 
ATOM     23  C   UNL A   1      33.498  15.861  25.258  1.00  0.00     0.115 A 
BRANCH  23  24
ATOM     24  O   UNL A   1      33.414  14.546  25.608  1.00  0.00    -0.508 OA
ATOM     25  H   UNL A   1      32.575  14.138  25.702  1.00  0.00     0.293 HD
ENDBRANCH  23  24
ENDBRANCH  17  18
ENDBRANCH  14  16
ENDBRANCH  11  12
ENDBRANCH   7  11
ENDBRANCH   3   6
ENDBRANCH   1   2
BRANCH   1  26
ATOM     26  C   UNL A   1      33.289  30.422  27.268  1.00  0.00     0.023 C 
BRANCH  26  27
ATOM     27  C   UNL A   1      34.610  29.657  27.233  1.00  0.00     0.023 C 
BRANCH  27  28
ATOM     28  C   UNL A   1      35.724  30.259  28.085  1.00  0.00     0.116 C 
BRANCH  28  29
ATOM     29  N   UNL A   1      35.575  30.012  29.513  1.00  0.00    -0.352 N 
ATOM     30  C   UNL A   1      36.563  29.725  30.427  1.00  0.00     0.251 C 
ATOM     31  H   UNL A   1      34.658  30.057  29.866  1.00  0.00     0.163 HD
ATOM     32  O   UNL A   1      36.279  29.448  31.588  1.00  0.00    -0.269 OA
BRANCH  30  33
ATOM     33  C   UNL A   1      37.968  29.704  29.974  1.00  0.00     0.039 A 
ATOM     34  C   UNL A   1      38.979  29.505  30.917  1.00  0.00     0.014 A 
ATOM     35  C   UNL A   1      38.275  29.805  28.614  1.00  0.00     0.014 A 
ATOM     36  C   UNL A   1      40.294  29.321  30.485  1.00  0.00     0.010 A 
ATOM     37  C   UNL A   1      39.572  29.552  28.183  1.00  0.00     0.010 A 
ATOM     38  C   UNL A   1      40.593  29.299  29.113  1.00  0.00    -0.014 A 
BRANCH  38  39
ATOM     39  C   UNL A   1      41.960  28.993  28.626  1.00  0.00     0.031 A 
ATOM     40  C   UNL A   1      42.304  27.603  28.166  1.00  0.00     0.074 A 
ATOM     41  C   UNL A   1      42.914  29.945  28.676  1.00  0.00     0.049 A 
ATOM     42  N   UNL A   1      43.458  27.127  27.779  1.00  0.00    -0.248 NA
ATOM     43  C   UNL A   1      41.215  26.613  28.170  1.00  0.00     0.031 C 
ATOM     44  C   UNL A   1      42.720  31.317  29.153  1.00  0.00     0.029 A 
ATOM     45  N   UNL A   1      44.241  29.900  28.330  1.00  0.00    -0.354 N 
ATOM     46  C   UNL A   1      43.241  25.778  27.517  1.00  0.00     0.074 A 
ATOM     47  C   UNL A   1      41.856  25.505  27.831  1.00  0.00     0.031 C 
ATOM     48  C   UNL A   1      43.879  31.987  29.049  1.00  0.00     0.029 A 
ATOM     49  C   UNL A   1      44.906  31.087  28.531  1.00  0.00     0.049 A 
ATOM     50  H   UNL A   1      44.678  29.093  27.972  1.00  0.00     0.167 HD
ATOM     51  C   UNL A   1      44.112  24.857  27.043  1.00  0.00     0.031 A 
ATOM     52  C   UNL A   1      46.196  31.415  28.326  1.00  0.00     0.031 A 
ATOM     53  C   UNL A   1      45.482  25.136  26.709  1.00  0.00     0.049 A 
ATOM     54  C   UNL A   1      47.137  30.382  27.773  1.00  0.00     0.074 A 
ATOM     55  C   UNL A   1      46.424  24.287  26.157  1.00  0.00     0.029 A 
ATOM     56  N   UNL A   1      46.107  26.361  26.895  1.00  0.00    -0.354 N 
ATOM     57  N   UNL A   1      46.894  29.129  27.468  1.00  0.00    -0.248 NA
ATOM     58  C   UNL A   1      48.522  30.808  27.528  1.00  0.00     0.031 C 
ATOM     59  C   UNL A   1      47.630  24.986  26.044  1.00  0.00     0.029 A 
ATOM     60  C   UNL A   1      47.426  26.285  26.483  1.00  0.00     0.049 A 
ATOM     61  H   UNL A   1      45.675  27.165  27.264  1.00  0.00     0.167 HD
ATOM     62  C   UNL A   1      48.091  28.624  26.971  1.00  0.00     0.074 A 
ATOM     63  C   UNL A   1      49.051  29.709  27.005  1.00  0.00     0.031 C 
ATOM     64  C   UNL A   1      48.368  27.375  26.525  1.00  0.00     0.031 A 
BRANCH  51  65
ATOM     65  C   UNL A   1      43.600  23.453  26.858  1.00  0.00    -0.014 A 
ATOM     66  C   UNL A   1      43.270  22.650  27.964  1.00  0.00     0.010 A 
ATOM     67  C   UNL A   1      43.422  22.939  25.561  1.00  0.00     0.010 A 
ATOM     68  C   UNL A   1      42.812  21.344  27.778  1.00  0.00     0.020 A 
ATOM     69  C   UNL A   1      42.938  21.641  25.370  1.00  0.00     0.020 A 
ATOM     70  C   UNL A   1      42.654  20.845  26.482  1.00  0.00     0.054 A 
BRANCH  70  71
ATOM     71  S   UNL A   1      42.042  19.151  26.268  1.00  0.00     0.124 S 
ATOM     72  O   UNL A   1      40.643  19.380  25.918  1.00  0.00    -0.237 OA
ATOM     73  O   UNL A   1      42.883  18.639  25.188  1.00  0.00    -0.237 OA
ATOM     74  O   UNL A   1      42.267  18.535  27.572  1.00  0.00    -0.744 OA
ENDBRANCH  70  71
ENDBRANCH  51  65
BRANCH  52  75
ATOM     75  C   UNL A   1      46.665  32.795  28.623  1.00  0.00    -0.014 A 
ATOM     76  C   UNL A   1      46.584  33.799  27.642  1.00  0.00     0.010 A 
ATOM     77  C   UNL A   1      47.173  33.119  29.894  1.00  0.00     0.010 A 
ATOM     78  C   UNL A   1      47.014  35.099  27.923  1.00  0.00     0.020 A 
ATOM     79  C   UNL A   1      47.582  34.423  30.185  1.00  0.00     0.020 A 
ATOM     80  C   UNL A   1      47.510  35.403  29.193  1.00  0.00     0.054 A 
BRANCH  80  81
ATOM     81  S   UNL A   1      48.005  37.112  29.556  1.00  0.00     0.124 S 
ATOM     82  O   UNL A   1      47.816  37.182  31.001  1.00  0.00    -0.237 OA
ATOM     83  O   UNL A   1      49.391  37.145  29.095  1.00  0.00    -0.237 OA
ATOM     84  O   UNL A   1      47.074  37.911  28.761  1.00  0.00    -0.744 OA
ENDBRANCH  80  81
ENDBRANCH  52  75
BRANCH  64  85
ATOM     85  C   UNL A   1      49.757  27.116  26.010  1.00  0.00    -0.014 A 
ATOM     86  C   UNL A   1      50.780  26.678  26.869  1.00  0.00     0.010 A 
ATOM     87  C   UNL A   1      50.025  27.257  24.636  1.00  0.00     0.010 A 
ATOM     88  C   UNL A   1      52.056  26.411  26.366  1.00  0.00     0.020 A 
ATOM     89  C   UNL A   1      51.293  26.967  24.127  1.00  0.00     0.020 A 
ATOM     90  C   UNL A   1      52.305  26.558  24.997  1.00  0.00     0.054 A 
BRANCH  90  91
ATOM     91  S   UNL A   1      53.955  26.157  24.359  1.00  0.00     0.124 S 
ATOM     92  O   UNL A   1      54.776  27.201  24.966  1.00  0.00    -0.237 OA
ATOM     93  O   UNL A   1      54.178  24.806  24.868  1.00  0.00    -0.237 OA
ATOM     94  O   UNL A   1      53.797  26.252  22.910  1.00  0.00    -0.744 OA
ENDBRANCH  90  91
ENDBRANCH  64  85
ENDBRANCH  38  39
ENDBRANCH  30  33
ENDBRANCH  28  29
ENDBRANCH  27  28
ENDBRANCH  26  27
ENDBRANCH   1  26
TORSDOF 19
ENDMDL
