MODEL 1
REMARK VINA RESULT:     -11.8      0.000      0.000
REMARK SMILES COc1cc2cc(C(=O)NCCCCNC(=O)c3ccc(-c4c5nc(c(-c6ccc(S(=O)(=O)[O-])cc6)c6ccc([nH]6)c(-c6ccc(S(=O)(=O)[O-])cc6)c6nc(c(-c7ccc(S(=O)(=O)[O-])cc7)c7ccc4[nH]7)C=C6)C=C5)cc3)n(Cc3ccccc3)c2c(OC)c1OC
REMARK SMILES IDX 13 1 12 2 11 3 10 4 8 5 9 6 7 8 3 9 4 10 90 11 5 12 87 13
REMARK SMILES IDX 6 14 86 15 78 16 2 17 1 18 91 19 92 20 88 21 89 22 79 23
REMARK SMILES IDX 80 24 81 25 85 26 82 27 84 28 83 29 14 30 15 31 16 32 17 34
REMARK SMILES IDX 18 35 19 36 77 37 20 38 76 39 21 40 22 41 23 42 70 43 24 44
REMARK SMILES IDX 75 45 69 46 71 47 25 48 74 49 68 50 67 51 26 53 56 54 37 55
REMARK SMILES IDX 55 56 38 57 41 58 54 59 72 60 39 61 40 62 53 64 73 65 42 66
REMARK SMILES IDX 27 67 28 68 36 69 29 70 35 71 30 72 31 73 32 74 33 75 34 76
REMARK SMILES IDX 57 77 58 78 66 79 59 80 65 81 60 82 61 83 62 84 63 85 64 86
REMARK SMILES IDX 43 87 44 88 52 89 45 90 51 91 46 92 47 93 48 94 49 95 50 96
REMARK H PARENT 10 7 15 33 71 52 41 63
REMARK Flexibility Score: inf
ROOT
ATOM      1  C   UNL A   1      33.955  31.825  27.834  1.00  0.00     0.023 C 
ENDROOT
BRANCH   1   2
ATOM      2  C   UNL A   1      35.033  30.761  27.596  1.00  0.00     0.023 C 
BRANCH   2   3
ATOM      3  C   UNL A   1      34.592  29.448  26.943  1.00  0.00     0.116 C 
BRANCH   3   4
ATOM      4  N   UNL A   1      33.150  29.311  26.953  1.00  0.00    -0.351 N 
ATOM      5  C   UNL A   1      32.262  28.350  26.549  1.00  0.00     0.267 C 
ATOM      6  O   UNL A   1      31.100  28.574  26.908  1.00  0.00    -0.268 OA
ATOM      7  H   UNL A   1      32.701  30.094  27.345  1.00  0.00     0.163 HD
BRANCH   5   8
ATOM      8  C   UNL A   1      32.574  27.131  25.804  1.00  0.00     0.108 A 
ATOM      9  C   UNL A   1      34.260  23.075  24.215  1.00  0.00     0.165 A 
ATOM     10  C   UNL A   1      34.480  23.996  25.258  1.00  0.00     0.061 A 
ATOM     11  C   UNL A   1      33.360  23.350  23.170  1.00  0.00     0.205 A 
ATOM     12  C   UNL A   1      33.702  25.168  25.316  1.00  0.00     0.008 A 
ATOM     13  C   UNL A   1      32.632  24.566  23.185  1.00  0.00     0.189 A 
ATOM     14  C   UNL A   1      33.636  26.291  26.174  1.00  0.00     0.042 A 
ATOM     15  C   UNL A   1      32.744  25.381  24.340  1.00  0.00     0.096 A 
ATOM     16  N   UNL A   1      31.908  26.403  24.828  1.00  0.00    -0.329 N 
BRANCH   9  17
ATOM     17  O   UNL A   1      34.852  21.841  24.339  1.00  0.00    -0.493 OA
ATOM     18  C   UNL A   1      34.448  21.157  25.521  1.00  0.00     0.278 C 
ENDBRANCH   9  17
BRANCH  11  19
ATOM     19  O   UNL A   1      33.050  22.499  22.141  1.00  0.00    -0.490 OA
ATOM     20  C   UNL A   1      32.107  21.459  22.302  1.00  0.00     0.278 C 
ENDBRANCH  11  19
BRANCH  13  21
ATOM     21  O   UNL A   1      31.836  25.074  22.196  1.00  0.00    -0.491 OA
ATOM     22  C   UNL A   1      32.398  25.798  21.117  1.00  0.00     0.278 C 
ENDBRANCH  13  21
BRANCH  16  23
ATOM     23  C   UNL A   1      30.516  26.468  24.375  1.00  0.00     0.158 C 
BRANCH  23  24
ATOM     24  C   UNL A   1      29.999  27.675  23.631  1.00  0.00    -0.028 A 
ATOM     25  C   UNL A   1      30.762  28.612  22.929  1.00  0.00     0.005 A 
ATOM     26  C   UNL A   1      28.591  27.802  23.594  1.00  0.00     0.005 A 
ATOM     27  C   UNL A   1      30.136  29.573  22.127  1.00  0.00     0.000 A 
ATOM     28  C   UNL A   1      27.970  28.776  22.815  1.00  0.00     0.000 A 
ATOM     29  C   UNL A   1      28.745  29.646  22.060  1.00  0.00     0.000 A 
ENDBRANCH  23  24
ENDBRANCH  16  23
ENDBRANCH   5   8
ENDBRANCH   3   4
ENDBRANCH   2   3
ENDBRANCH   1   2
BRANCH   1  30
ATOM     30  C   UNL A   1      34.405  33.026  28.660  1.00  0.00     0.116 C 
BRANCH  30  31
ATOM     31  N   UNL A   1      34.204  32.840  30.083  1.00  0.00    -0.352 N 
ATOM     32  C   UNL A   1      34.898  32.243  31.097  1.00  0.00     0.251 C 
ATOM     33  H   UNL A   1      33.361  33.241  30.395  1.00  0.00     0.163 HD
ATOM     34  O   UNL A   1      34.376  32.334  32.213  1.00  0.00    -0.269 OA
BRANCH  32  35
ATOM     35  C   UNL A   1      36.188  31.509  30.969  1.00  0.00     0.039 A 
ATOM     36  C   UNL A   1      37.442  32.080  30.753  1.00  0.00     0.014 A 
ATOM     37  C   UNL A   1      36.101  30.103  31.036  1.00  0.00     0.014 A 
ATOM     38  C   UNL A   1      38.569  31.272  30.581  1.00  0.00     0.010 A 
ATOM     39  C   UNL A   1      37.222  29.293  30.872  1.00  0.00     0.010 A 
ATOM     40  C   UNL A   1      38.458  29.878  30.619  1.00  0.00    -0.014 A 
BRANCH  40  41
ATOM     41  C   UNL A   1      39.679  29.079  30.481  1.00  0.00     0.031 A 
ATOM     42  C   UNL A   1      40.433  28.815  31.743  1.00  0.00     0.074 A 
ATOM     43  C   UNL A   1      40.064  28.473  29.338  1.00  0.00     0.049 A 
ATOM     44  N   UNL A   1      41.646  29.151  32.040  1.00  0.00    -0.248 NA
ATOM     45  C   UNL A   1      39.710  28.155  32.840  1.00  0.00     0.031 C 
ATOM     46  C   UNL A   1      39.310  28.336  28.091  1.00  0.00     0.029 A 
ATOM     47  N   UNL A   1      41.193  27.743  29.099  1.00  0.00    -0.354 N 
ATOM     48  C   UNL A   1      41.906  28.611  33.301  1.00  0.00     0.074 A 
ATOM     49  C   UNL A   1      40.645  28.112  33.790  1.00  0.00     0.031 C 
ATOM     50  C   UNL A   1      39.887  27.381  27.325  1.00  0.00     0.029 A 
ATOM     51  C   UNL A   1      41.125  26.958  27.956  1.00  0.00     0.049 A 
ATOM     52  H   UNL A   1      41.984  27.771  29.684  1.00  0.00     0.167 HD
ATOM     53  C   UNL A   1      43.170  28.465  33.792  1.00  0.00     0.031 A 
ATOM     54  C   UNL A   1      41.987  25.976  27.594  1.00  0.00     0.031 A 
ATOM     55  C   UNL A   1      44.129  29.232  33.046  1.00  0.00     0.049 A 
ATOM     56  C   UNL A   1      43.263  26.206  28.311  1.00  0.00     0.074 A 
ATOM     57  C   UNL A   1      44.336  30.575  32.807  1.00  0.00     0.029 A 
ATOM     58  N   UNL A   1      44.897  28.558  32.129  1.00  0.00    -0.354 N 
ATOM     59  N   UNL A   1      44.047  27.223  28.092  1.00  0.00    -0.248 NA
ATOM     60  C   UNL A   1      43.503  25.488  29.552  1.00  0.00     0.031 C 
ATOM     61  C   UNL A   1      44.847  30.638  31.479  1.00  0.00     0.029 A 
ATOM     62  C   UNL A   1      44.961  29.331  31.000  1.00  0.00     0.049 A 
ATOM     63  H   UNL A   1      45.324  27.680  32.259  1.00  0.00     0.167 HD
ATOM     64  C   UNL A   1      44.586  27.528  29.332  1.00  0.00     0.074 A 
ATOM     65  C   UNL A   1      44.312  26.357  30.159  1.00  0.00     0.031 C 
ATOM     66  C   UNL A   1      44.959  28.803  29.648  1.00  0.00     0.031 A 
BRANCH  53  67
ATOM     67  C   UNL A   1      43.605  27.381  34.755  1.00  0.00    -0.014 A 
ATOM     68  C   UNL A   1      43.395  26.009  34.520  1.00  0.00     0.010 A 
ATOM     69  C   UNL A   1      44.488  27.716  35.807  1.00  0.00     0.010 A 
ATOM     70  C   UNL A   1      44.040  25.021  35.268  1.00  0.00     0.020 A 
ATOM     71  C   UNL A   1      45.176  26.733  36.535  1.00  0.00     0.020 A 
ATOM     72  C   UNL A   1      44.949  25.389  36.254  1.00  0.00     0.054 A 
BRANCH  72  73
ATOM     73  S   UNL A   1      45.894  24.083  37.077  1.00  0.00     0.124 S 
ATOM     74  O   UNL A   1      45.726  22.963  36.154  1.00  0.00    -0.237 OA
ATOM     75  O   UNL A   1      47.235  24.658  37.134  1.00  0.00    -0.237 OA
ATOM     76  O   UNL A   1      45.225  23.937  38.367  1.00  0.00    -0.744 OA
ENDBRANCH  72  73
ENDBRANCH  53  67
BRANCH  54  77
ATOM     77  C   UNL A   1      41.644  24.657  27.004  1.00  0.00    -0.014 A 
ATOM     78  C   UNL A   1      40.642  23.864  27.602  1.00  0.00     0.010 A 
ATOM     79  C   UNL A   1      42.499  24.044  26.069  1.00  0.00     0.010 A 
ATOM     80  C   UNL A   1      40.551  22.494  27.344  1.00  0.00     0.020 A 
ATOM     81  C   UNL A   1      42.416  22.666  25.808  1.00  0.00     0.020 A 
ATOM     82  C   UNL A   1      41.464  21.894  26.481  1.00  0.00     0.054 A 
BRANCH  82  83
ATOM     83  S   UNL A   1      41.450  20.085  26.334  1.00  0.00     0.124 S 
ATOM     84  O   UNL A   1      42.515  19.854  25.354  1.00  0.00    -0.237 OA
ATOM     85  O   UNL A   1      41.764  19.658  27.701  1.00  0.00    -0.237 OA
ATOM     86  O   UNL A   1      40.106  19.779  25.881  1.00  0.00    -0.744 OA
ENDBRANCH  82  83
ENDBRANCH  54  77
BRANCH  66  87
ATOM     87  C   UNL A   1      45.092  29.828  28.543  1.00  0.00    -0.014 A 
ATOM     88  C   UNL A   1      46.343  30.452  28.384  1.00  0.00     0.010 A 
ATOM     89  C   UNL A   1      43.995  30.328  27.814  1.00  0.00     0.010 A 
ATOM     90  C   UNL A   1      46.490  31.567  27.556  1.00  0.00     0.020 A 
ATOM     91  C   UNL A   1      44.143  31.431  26.959  1.00  0.00     0.020 A 
ATOM     92  C   UNL A   1      45.386  32.060  26.859  1.00  0.00     0.054 A 
BRANCH  92  93
ATOM     93  S   UNL A   1      45.603  33.553  25.853  1.00  0.00     0.124 S 
ATOM     94  O   UNL A   1      44.856  33.221  24.642  1.00  0.00    -0.237 OA
ATOM     95  O   UNL A   1      45.006  34.595  26.686  1.00  0.00    -0.237 OA
ATOM     96  O   UNL A   1      47.050  33.656  25.678  1.00  0.00    -0.744 OA
ENDBRANCH  92  93
ENDBRANCH  66  87
ENDBRANCH  40  41
ENDBRANCH  32  35
ENDBRANCH  30  31
ENDBRANCH   1  30
TORSDOF 19
ENDMDL
MODEL 2
REMARK VINA RESULT:     -10.7      5.277     12.597
REMARK SMILES COc1cc2cc(C(=O)NCCCCNC(=O)c3ccc(-c4c5nc(c(-c6ccc(S(=O)(=O)[O-])cc6)c6ccc([nH]6)c(-c6ccc(S(=O)(=O)[O-])cc6)c6nc(c(-c7ccc(S(=O)(=O)[O-])cc7)c7ccc4[nH]7)C=C6)C=C5)cc3)n(Cc3ccccc3)c2c(OC)c1OC
REMARK SMILES IDX 13 1 12 2 11 3 10 4 8 5 9 6 7 8 3 9 4 10 90 11 5 12 87 13
REMARK SMILES IDX 6 14 86 15 78 16 2 17 1 18 91 19 92 20 88 21 89 22 79 23
REMARK SMILES IDX 80 24 81 25 85 26 82 27 84 28 83 29 14 30 15 31 16 32 17 34
REMARK SMILES IDX 18 35 19 36 77 37 20 38 76 39 21 40 22 41 23 42 70 43 24 44
REMARK SMILES IDX 75 45 69 46 71 47 25 48 74 49 68 50 67 51 26 53 56 54 37 55
REMARK SMILES IDX 55 56 38 57 41 58 54 59 72 60 39 61 40 62 53 64 73 65 42 66
REMARK SMILES IDX 27 67 28 68 36 69 29 70 35 71 30 72 31 73 32 74 33 75 34 76
REMARK SMILES IDX 57 77 58 78 66 79 59 80 65 81 60 82 61 83 62 84 63 85 64 86
REMARK SMILES IDX 43 87 44 88 52 89 45 90 51 91 46 92 47 93 48 94 49 95 50 96
REMARK H PARENT 10 7 15 33 71 52 41 63
REMARK Flexibility Score: inf
ROOT
ATOM      1  C   UNL A   1      43.657  22.625  24.805  1.00  0.00     0.023 C 
ENDROOT
BRANCH   1   2
ATOM      2  C   UNL A   1      44.373  23.836  25.414  1.00  0.00     0.023 C 
BRANCH   2   3
ATOM      3  C   UNL A   1      43.776  25.218  25.139  1.00  0.00     0.116 C 
BRANCH   3   4
ATOM      4  N   UNL A   1      44.811  26.211  24.933  1.00  0.00    -0.351 N 
ATOM      5  C   UNL A   1      45.822  26.733  25.695  1.00  0.00     0.267 C 
ATOM      6  O   UNL A   1      46.596  27.455  25.054  1.00  0.00    -0.268 OA
ATOM      7  H   UNL A   1      44.781  26.603  24.031  1.00  0.00     0.163 HD
BRANCH   5   8
ATOM      8  C   UNL A   1      46.065  26.481  27.115  1.00  0.00     0.108 A 
ATOM      9  C   UNL A   1      45.793  25.523  31.678  1.00  0.00     0.165 A 
ATOM     10  C   UNL A   1      44.949  25.706  30.565  1.00  0.00     0.061 A 
ATOM     11  C   UNL A   1      47.175  25.772  31.599  1.00  0.00     0.205 A 
ATOM     12  C   UNL A   1      45.514  26.036  29.320  1.00  0.00     0.008 A 
ATOM     13  C   UNL A   1      47.736  26.182  30.364  1.00  0.00     0.189 A 
ATOM     14  C   UNL A   1      45.011  26.297  28.023  1.00  0.00     0.042 A 
ATOM     15  C   UNL A   1      46.888  26.177  29.228  1.00  0.00     0.096 A 
ATOM     16  N   UNL A   1      47.194  26.154  27.854  1.00  0.00    -0.329 N 
BRANCH   9  17
ATOM     17  O   UNL A   1      45.235  24.956  32.798  1.00  0.00    -0.493 OA
ATOM     18  C   UNL A   1      44.456  23.801  32.496  1.00  0.00     0.278 C 
ENDBRANCH   9  17
BRANCH  11  19
ATOM     19  O   UNL A   1      48.077  25.581  32.614  1.00  0.00    -0.490 OA
ATOM     20  C   UNL A   1      48.258  26.544  33.631  1.00  0.00     0.278 C 
ENDBRANCH  11  19
BRANCH  13  21
ATOM     21  O   UNL A   1      49.012  26.612  30.129  1.00  0.00    -0.491 OA
ATOM     22  C   UNL A   1      49.378  27.958  30.374  1.00  0.00     0.278 C 
ENDBRANCH  13  21
BRANCH  16  23
ATOM     23  C   UNL A   1      48.515  25.690  27.421  1.00  0.00     0.158 C 
BRANCH  23  24
ATOM     24  C   UNL A   1      49.415  26.578  26.596  1.00  0.00    -0.028 A 
ATOM     25  C   UNL A   1      49.632  27.946  26.778  1.00  0.00     0.005 A 
ATOM     26  C   UNL A   1      50.160  25.915  25.594  1.00  0.00     0.005 A 
ATOM     27  C   UNL A   1      50.637  28.603  26.061  1.00  0.00     0.000 A 
ATOM     28  C   UNL A   1      51.144  26.576  24.862  1.00  0.00     0.000 A 
ATOM     29  C   UNL A   1      51.399  27.917  25.116  1.00  0.00     0.000 A 
ENDBRANCH  23  24
ENDBRANCH  16  23
ENDBRANCH   5   8
ENDBRANCH   3   4
ENDBRANCH   2   3
ENDBRANCH   1   2
BRANCH   1  30
ATOM     30  C   UNL A   1      43.068  21.647  25.817  1.00  0.00     0.116 C 
BRANCH  30  31
ATOM     31  N   UNL A   1      41.619  21.646  25.823  1.00  0.00    -0.352 N 
ATOM     32  C   UNL A   1      40.644  22.482  26.287  1.00  0.00     0.251 C 
ATOM     33  H   UNL A   1      41.246  20.845  25.388  1.00  0.00     0.163 HD
ATOM     34  O   UNL A   1      39.486  22.117  26.057  1.00  0.00    -0.269 OA
BRANCH  32  35
ATOM     35  C   UNL A   1      40.857  23.757  27.029  1.00  0.00     0.039 A 
ATOM     36  C   UNL A   1      41.731  23.951  28.098  1.00  0.00     0.014 A 
ATOM     37  C   UNL A   1      40.057  24.843  26.618  1.00  0.00     0.014 A 
ATOM     38  C   UNL A   1      41.786  25.184  28.754  1.00  0.00     0.010 A 
ATOM     39  C   UNL A   1      40.111  26.077  27.265  1.00  0.00     0.010 A 
ATOM     40  C   UNL A   1      40.962  26.242  28.353  1.00  0.00    -0.014 A 
BRANCH  40  41
ATOM     41  C   UNL A   1      41.093  27.527  29.044  1.00  0.00     0.031 A 
ATOM     42  C   UNL A   1      42.187  28.420  28.558  1.00  0.00     0.074 A 
ATOM     43  C   UNL A   1      40.221  27.986  29.965  1.00  0.00     0.049 A 
ATOM     44  N   UNL A   1      43.205  28.875  29.214  1.00  0.00    -0.248 NA
ATOM     45  C   UNL A   1      42.178  28.793  27.135  1.00  0.00     0.031 C 
ATOM     46  C   UNL A   1      38.924  27.420  30.341  1.00  0.00     0.029 A 
ATOM     47  N   UNL A   1      40.273  29.144  30.688  1.00  0.00    -0.354 N 
ATOM     48  C   UNL A   1      43.890  29.722  28.340  1.00  0.00     0.074 A 
ATOM     49  C   UNL A   1      43.279  29.540  27.046  1.00  0.00     0.031 C 
ATOM     50  C   UNL A   1      38.216  28.346  31.028  1.00  0.00     0.029 A 
ATOM     51  C   UNL A   1      39.065  29.500  31.270  1.00  0.00     0.049 A 
ATOM     52  H   UNL A   1      41.094  29.678  30.785  1.00  0.00     0.167 HD
ATOM     53  C   UNL A   1      44.807  30.636  28.769  1.00  0.00     0.031 A 
ATOM     54  C   UNL A   1      38.761  30.690  31.845  1.00  0.00     0.031 A 
ATOM     55  C   UNL A   1      45.229  30.381  30.119  1.00  0.00     0.049 A 
ATOM     56  C   UNL A   1      40.034  31.353  32.212  1.00  0.00     0.074 A 
ATOM     57  C   UNL A   1      45.894  29.356  30.759  1.00  0.00     0.029 A 
ATOM     58  N   UNL A   1      44.672  31.152  31.109  1.00  0.00    -0.354 N 
ATOM     59  N   UNL A   1      40.845  30.912  33.132  1.00  0.00    -0.248 NA
ATOM     60  C   UNL A   1      40.600  32.330  31.296  1.00  0.00     0.031 C 
ATOM     61  C   UNL A   1      45.322  29.302  32.062  1.00  0.00     0.029 A 
ATOM     62  C   UNL A   1      44.371  30.322  32.155  1.00  0.00     0.049 A 
ATOM     63  H   UNL A   1      44.519  32.125  31.073  1.00  0.00     0.167 HD
ATOM     64  C   UNL A   1      42.113  31.224  32.664  1.00  0.00     0.074 A 
ATOM     65  C   UNL A   1      41.892  32.198  31.599  1.00  0.00     0.031 C 
ATOM     66  C   UNL A   1      43.196  30.462  32.995  1.00  0.00     0.031 A 
BRANCH  53  67
ATOM     67  C   UNL A   1      45.098  31.955  28.088  1.00  0.00    -0.014 A 
ATOM     68  C   UNL A   1      44.098  32.887  27.748  1.00  0.00     0.010 A 
ATOM     69  C   UNL A   1      46.435  32.408  28.017  1.00  0.00     0.010 A 
ATOM     70  C   UNL A   1      44.402  34.201  27.382  1.00  0.00     0.020 A 
ATOM     71  C   UNL A   1      46.750  33.737  27.695  1.00  0.00     0.020 A 
ATOM     72  C   UNL A   1      45.726  34.626  27.384  1.00  0.00     0.054 A 
BRANCH  72  73
ATOM     73  S   UNL A   1      46.062  36.379  27.078  1.00  0.00     0.124 S 
ATOM     74  O   UNL A   1      44.766  36.987  27.365  1.00  0.00    -0.237 OA
ATOM     75  O   UNL A   1      47.121  36.665  28.041  1.00  0.00    -0.237 OA
ATOM     76  O   UNL A   1      46.471  36.409  25.676  1.00  0.00    -0.744 OA
ENDBRANCH  72  73
ENDBRANCH  53  67
BRANCH  54  77
ATOM     77  C   UNL A   1      37.489  31.445  31.719  1.00  0.00    -0.014 A 
ATOM     78  C   UNL A   1      37.381  32.477  30.763  1.00  0.00     0.010 A 
ATOM     79  C   UNL A   1      36.510  31.378  32.728  1.00  0.00     0.010 A 
ATOM     80  C   UNL A   1      36.387  33.454  30.859  1.00  0.00     0.020 A 
ATOM     81  C   UNL A   1      35.510  32.360  32.833  1.00  0.00     0.020 A 
ATOM     82  C   UNL A   1      35.483  33.414  31.917  1.00  0.00     0.054 A 
BRANCH  82  83
ATOM     83  S   UNL A   1      34.344  34.811  32.130  1.00  0.00     0.124 S 
ATOM     84  O   UNL A   1      33.242  34.192  32.872  1.00  0.00    -0.237 OA
ATOM     85  O   UNL A   1      35.153  35.760  32.901  1.00  0.00    -0.237 OA
ATOM     86  O   UNL A   1      34.033  35.221  30.773  1.00  0.00    -0.744 OA
ENDBRANCH  82  83
ENDBRANCH  54  77
BRANCH  66  87
ATOM     87  C   UNL A   1      43.081  29.470  34.132  1.00  0.00    -0.014 A 
ATOM     88  C   UNL A   1      43.086  28.102  33.802  1.00  0.00     0.010 A 
ATOM     89  C   UNL A   1      42.769  29.839  35.455  1.00  0.00     0.010 A 
ATOM     90  C   UNL A   1      42.750  27.132  34.749  1.00  0.00     0.020 A 
ATOM     91  C   UNL A   1      42.457  28.868  36.418  1.00  0.00     0.020 A 
ATOM     92  C   UNL A   1      42.422  27.521  36.049  1.00  0.00     0.054 A 
BRANCH  92  93
ATOM     93  S   UNL A   1      41.920  26.238  37.228  1.00  0.00     0.124 S 
ATOM     94  O   UNL A   1      40.573  26.666  37.596  1.00  0.00    -0.237 OA
ATOM     95  O   UNL A   1      41.988  25.017  36.427  1.00  0.00    -0.237 OA
ATOM     96  O   UNL A   1      42.913  26.331  38.297  1.00  0.00    -0.744 OA
ENDBRANCH  92  93
ENDBRANCH  66  87
ENDBRANCH  40  41
ENDBRANCH  32  35
ENDBRANCH  30  31
ENDBRANCH   1  30
TORSDOF 19
ENDMDL
MODEL 3
REMARK VINA RESULT:     -10.7      3.018      7.324
REMARK SMILES COc1cc2cc(C(=O)NCCCCNC(=O)c3ccc(-c4c5nc(c(-c6ccc(S(=O)(=O)[O-])cc6)c6ccc([nH]6)c(-c6ccc(S(=O)(=O)[O-])cc6)c6nc(c(-c7ccc(S(=O)(=O)[O-])cc7)c7ccc4[nH]7)C=C6)C=C5)cc3)n(Cc3ccccc3)c2c(OC)c1OC
REMARK SMILES IDX 13 1 12 2 11 3 10 4 8 5 9 6 7 8 3 9 4 10 90 11 5 12 87 13
REMARK SMILES IDX 6 14 86 15 78 16 2 17 1 18 91 19 92 20 88 21 89 22 79 23
REMARK SMILES IDX 80 24 81 25 85 26 82 27 84 28 83 29 14 30 15 31 16 32 17 34
REMARK SMILES IDX 18 35 19 36 77 37 20 38 76 39 21 40 22 41 23 42 70 43 24 44
REMARK SMILES IDX 75 45 69 46 71 47 25 48 74 49 68 50 67 51 26 53 56 54 37 55
REMARK SMILES IDX 55 56 38 57 41 58 54 59 72 60 39 61 40 62 53 64 73 65 42 66
REMARK SMILES IDX 27 67 28 68 36 69 29 70 35 71 30 72 31 73 32 74 33 75 34 76
REMARK SMILES IDX 57 77 58 78 66 79 59 80 65 81 60 82 61 83 62 84 63 85 64 86
REMARK SMILES IDX 43 87 44 88 52 89 45 90 51 91 46 92 47 93 48 94 49 95 50 96
REMARK H PARENT 10 7 15 33 71 52 41 63
REMARK Flexibility Score: inf
ROOT
ATOM      1  C   UNL A   1      31.595  32.126  27.103  1.00  0.00     0.023 C 
ENDROOT
BRANCH   1   2
ATOM      2  C   UNL A   1      30.924  31.357  25.958  1.00  0.00     0.023 C 
BRANCH   2   3
ATOM      3  C   UNL A   1      31.542  30.016  25.556  1.00  0.00     0.116 C 
BRANCH   3   4
ATOM      4  N   UNL A   1      32.894  29.884  26.060  1.00  0.00    -0.351 N 
ATOM      5  C   UNL A   1      33.874  28.932  25.975  1.00  0.00     0.267 C 
ATOM      6  O   UNL A   1      34.964  29.309  26.423  1.00  0.00    -0.268 OA
ATOM      7  H   UNL A   1      33.175  30.665  26.588  1.00  0.00     0.163 HD
BRANCH   5   8
ATOM      8  C   UNL A   1      33.747  27.597  25.390  1.00  0.00     0.108 A 
ATOM      9  C   UNL A   1      33.356  23.023  24.536  1.00  0.00     0.165 A 
ATOM     10  C   UNL A   1      33.541  23.902  25.620  1.00  0.00     0.061 A 
ATOM     11  C   UNL A   1      33.379  23.482  23.206  1.00  0.00     0.205 A 
ATOM     12  C   UNL A   1      33.641  25.284  25.376  1.00  0.00     0.008 A 
ATOM     13  C   UNL A   1      33.558  24.864  22.954  1.00  0.00     0.189 A 
ATOM     14  C   UNL A   1      33.830  26.437  26.175  1.00  0.00     0.042 A 
ATOM     15  C   UNL A   1      33.557  25.738  24.071  1.00  0.00     0.096 A 
ATOM     16  N   UNL A   1      33.335  27.126  24.152  1.00  0.00    -0.329 N 
BRANCH   9  17
ATOM     17  O   UNL A   1      33.009  21.727  24.835  1.00  0.00    -0.493 OA
ATOM     18  C   UNL A   1      33.407  21.344  26.149  1.00  0.00     0.278 C 
ENDBRANCH   9  17
BRANCH  11  19
ATOM     19  O   UNL A   1      33.164  22.710  22.094  1.00  0.00    -0.490 OA
ATOM     20  C   UNL A   1      32.108  21.773  22.038  1.00  0.00     0.278 C 
ENDBRANCH  11  19
BRANCH  13  21
ATOM     21  O   UNL A   1      33.757  25.473  21.746  1.00  0.00    -0.491 OA
ATOM     22  C   UNL A   1      32.742  25.467  20.758  1.00  0.00     0.278 C 
ENDBRANCH  13  21
BRANCH  16  23
ATOM     23  C   UNL A   1      32.628  27.803  23.061  1.00  0.00     0.158 C 
BRANCH  23  24
ATOM     24  C   UNL A   1      31.119  27.842  23.022  1.00  0.00    -0.028 A 
ATOM     25  C   UNL A   1      30.246  26.926  23.613  1.00  0.00     0.005 A 
ATOM     26  C   UNL A   1      30.563  28.972  22.380  1.00  0.00     0.005 A 
ATOM     27  C   UNL A   1      28.872  27.189  23.658  1.00  0.00     0.000 A 
ATOM     28  C   UNL A   1      29.193  29.220  22.405  1.00  0.00     0.000 A 
ATOM     29  C   UNL A   1      28.350  28.339  23.068  1.00  0.00     0.000 A 
ENDBRANCH  23  24
ENDBRANCH  16  23
ENDBRANCH   5   8
ENDBRANCH   3   4
ENDBRANCH   2   3
ENDBRANCH   1   2
BRANCH   1  30
ATOM     30  C   UNL A   1      32.067  33.532  26.747  1.00  0.00     0.116 C 
BRANCH  30  31
ATOM     31  N   UNL A   1      32.128  34.414  27.895  1.00  0.00    -0.352 N 
ATOM     32  C   UNL A   1      33.061  34.717  28.846  1.00  0.00     0.251 C 
ATOM     33  H   UNL A   1      31.291  34.918  28.021  1.00  0.00     0.163 HD
ATOM     34  O   UNL A   1      32.716  35.576  29.664  1.00  0.00    -0.269 OA
BRANCH  32  35
ATOM     35  C   UNL A   1      34.416  34.109  28.974  1.00  0.00     0.039 A 
ATOM     36  C   UNL A   1      35.371  34.007  27.964  1.00  0.00     0.014 A 
ATOM     37  C   UNL A   1      34.720  33.557  30.236  1.00  0.00     0.014 A 
ATOM     38  C   UNL A   1      36.582  33.350  28.198  1.00  0.00     0.010 A 
ATOM     39  C   UNL A   1      35.928  32.906  30.476  1.00  0.00     0.010 A 
ATOM     40  C   UNL A   1      36.854  32.780  29.447  1.00  0.00    -0.014 A 
BRANCH  40  41
ATOM     41  C   UNL A   1      38.159  32.144  29.652  1.00  0.00     0.031 A 
ATOM     42  C   UNL A   1      38.236  30.692  29.315  1.00  0.00     0.074 A 
ATOM     43  C   UNL A   1      39.284  32.811  29.982  1.00  0.00     0.049 A 
ATOM     44  N   UNL A   1      38.528  29.700  30.093  1.00  0.00    -0.248 NA
ATOM     45  C   UNL A   1      37.868  30.291  27.949  1.00  0.00     0.031 C 
ATOM     46  C   UNL A   1      39.492  34.260  30.038  1.00  0.00     0.029 A 
ATOM     47  N   UNL A   1      40.531  32.310  30.229  1.00  0.00    -0.354 N 
ATOM     48  C   UNL A   1      38.540  28.559  29.288  1.00  0.00     0.074 A 
ATOM     49  C   UNL A   1      38.013  28.966  28.009  1.00  0.00     0.031 C 
ATOM     50  C   UNL A   1      40.820  34.518  30.062  1.00  0.00     0.029 A 
ATOM     51  C   UNL A   1      41.540  33.262  30.180  1.00  0.00     0.049 A 
ATOM     52  H   UNL A   1      40.697  31.360  30.425  1.00  0.00     0.167 HD
ATOM     53  C   UNL A   1      39.130  27.392  29.675  1.00  0.00     0.031 A 
ATOM     54  C   UNL A   1      42.876  33.027  30.161  1.00  0.00     0.031 A 
ATOM     55  C   UNL A   1      39.404  27.369  31.086  1.00  0.00     0.049 A 
ATOM     56  C   UNL A   1      43.104  31.669  30.708  1.00  0.00     0.074 A 
ATOM     57  C   UNL A   1      38.638  27.406  32.232  1.00  0.00     0.029 A 
ATOM     58  N   UNL A   1      40.694  27.623  31.480  1.00  0.00    -0.354 N 
ATOM     59  N   UNL A   1      42.881  31.337  31.948  1.00  0.00    -0.248 NA
ATOM     60  C   UNL A   1      43.242  30.559  29.779  1.00  0.00     0.031 C 
ATOM     61  C   UNL A   1      39.421  28.129  33.176  1.00  0.00     0.029 A 
ATOM     62  C   UNL A   1      40.635  28.456  32.566  1.00  0.00     0.049 A 
ATOM     63  H   UNL A   1      41.512  27.270  31.060  1.00  0.00     0.167 HD
ATOM     64  C   UNL A   1      42.438  30.025  31.889  1.00  0.00     0.074 A 
ATOM     65  C   UNL A   1      42.798  29.566  30.551  1.00  0.00     0.031 C 
ATOM     66  C   UNL A   1      41.580  29.525  32.827  1.00  0.00     0.031 A 
BRANCH  53  67
ATOM     67  C   UNL A   1      39.756  26.386  28.734  1.00  0.00    -0.014 A 
ATOM     68  C   UNL A   1      41.147  26.232  28.580  1.00  0.00     0.010 A 
ATOM     69  C   UNL A   1      38.941  25.374  28.176  1.00  0.00     0.010 A 
ATOM     70  C   UNL A   1      41.704  25.127  27.931  1.00  0.00     0.020 A 
ATOM     71  C   UNL A   1      39.491  24.238  27.562  1.00  0.00     0.020 A 
ATOM     72  C   UNL A   1      40.873  24.122  27.449  1.00  0.00     0.054 A 
BRANCH  72  73
ATOM     73  S   UNL A   1      41.640  22.627  26.775  1.00  0.00     0.124 S 
ATOM     74  O   UNL A   1      42.519  22.221  27.869  1.00  0.00    -0.237 OA
ATOM     75  O   UNL A   1      40.486  21.764  26.539  1.00  0.00    -0.237 OA
ATOM     76  O   UNL A   1      42.318  23.103  25.572  1.00  0.00    -0.744 OA
ENDBRANCH  72  73
ENDBRANCH  53  67
BRANCH  54  77
ATOM     77  C   UNL A   1      43.894  33.724  29.336  1.00  0.00    -0.014 A 
ATOM     78  C   UNL A   1      43.604  34.050  27.995  1.00  0.00     0.010 A 
ATOM     79  C   UNL A   1      45.238  33.781  29.751  1.00  0.00     0.010 A 
ATOM     80  C   UNL A   1      44.620  34.337  27.080  1.00  0.00     0.020 A 
ATOM     81  C   UNL A   1      46.266  34.064  28.836  1.00  0.00     0.020 A 
ATOM     82  C   UNL A   1      45.949  34.302  27.496  1.00  0.00     0.054 A 
BRANCH  82  83
ATOM     83  S   UNL A   1      47.249  34.469  26.240  1.00  0.00     0.124 S 
ATOM     84  O   UNL A   1      47.855  33.135  26.254  1.00  0.00    -0.237 OA
ATOM     85  O   UNL A   1      46.478  34.786  25.034  1.00  0.00    -0.237 OA
ATOM     86  O   UNL A   1      48.086  35.543  26.741  1.00  0.00    -0.744 OA
ENDBRANCH  82  83
ENDBRANCH  54  77
BRANCH  66  87
ATOM     87  C   UNL A   1      41.365  30.292  34.113  1.00  0.00    -0.014 A 
ATOM     88  C   UNL A   1      40.523  31.419  34.063  1.00  0.00     0.010 A 
ATOM     89  C   UNL A   1      42.109  30.063  35.287  1.00  0.00     0.010 A 
ATOM     90  C   UNL A   1      40.455  32.314  35.133  1.00  0.00     0.020 A 
ATOM     91  C   UNL A   1      42.024  30.943  36.376  1.00  0.00     0.020 A 
ATOM     92  C   UNL A   1      41.218  32.080  36.278  1.00  0.00     0.054 A 
BRANCH  92  93
ATOM     93  S   UNL A   1      41.158  33.304  37.614  1.00  0.00     0.124 S 
ATOM     94  O   UNL A   1      39.846  33.917  37.414  1.00  0.00    -0.237 OA
ATOM     95  O   UNL A   1      41.283  32.480  38.815  1.00  0.00    -0.237 OA
ATOM     96  O   UNL A   1      42.297  34.180  37.345  1.00  0.00    -0.744 OA
ENDBRANCH  92  93
ENDBRANCH  66  87
ENDBRANCH  40  41
ENDBRANCH  32  35
ENDBRANCH  30  31
ENDBRANCH   1  30
TORSDOF 19
ENDMDL
