MODEL 1
REMARK VINA RESULT:     -10.7      0.000      0.000
REMARK SMILES O=C(CN1C(=O)N[C@](c2cccs2)(C2CC2)C1=O)NCCCCNC(=O)c1ccc(-c2c3nc(c(-c4ccc(S(=O)(=O)[O-])cc4)c4ccc([nH]4)c(-c4ccc(S(=O)(=O)[O-])cc4)c4nc(c(-c5ccc(S(=O)(=O)[O-])cc5)c5ccc2[nH]5)C=C4)C=C3)cc1
REMARK SMILES IDX 22 1 21 2 20 3 19 4 1 5 2 6 3 8 4 9 5 10 17 11 6 12 7 13
REMARK SMILES IDX 8 14 18 15 14 17 15 18 16 19 9 20 10 21 13 22 11 23 12 24
REMARK SMILES IDX 23 25 24 26 25 27 26 29 27 30 28 31 86 32 29 33 85 34 30 35
REMARK SMILES IDX 31 36 32 37 79 38 33 39 84 40 78 41 80 42 34 43 83 44 77 45
REMARK SMILES IDX 76 46 35 48 65 49 46 50 64 51 47 52 50 53 63 54 81 55 48 56
REMARK SMILES IDX 49 57 62 59 82 60 51 61 36 62 37 63 45 64 38 65 44 66 39 67
REMARK SMILES IDX 40 68 41 69 42 70 43 71 66 72 67 73 75 74 68 75 74 76 69 77
REMARK SMILES IDX 70 78 71 79 72 80 73 81 52 82 53 83 61 84 54 85 60 86 55 87
REMARK SMILES IDX 56 88 57 89 58 90 59 91
REMARK H PARENT 19 7 7 16 24 28 80 47 50 58
REMARK Flexibility Score: inf
ROOT
ATOM      1  C   UNL A   1      33.646  27.935  25.573  1.00  0.00     0.023 C 
ENDROOT
BRANCH   1   2
ATOM      2  C   UNL A   1      33.685  29.155  24.647  1.00  0.00     0.023 C 
BRANCH   2   3
ATOM      3  C   UNL A   1      33.221  28.903  23.213  1.00  0.00     0.116 C 
BRANCH   3   4
ATOM      4  N   UNL A   1      32.841  27.521  23.001  1.00  0.00    -0.355 N 
ATOM      5  O   UNL A   1      30.651  27.906  22.419  1.00  0.00    -0.273 OA
ATOM      6  C   UNL A   1      31.574  27.124  22.627  1.00  0.00     0.240 C 
ATOM      7  H   UNL A   1      33.526  26.827  23.132  1.00  0.00     0.163 HD
BRANCH   6   8
ATOM      8  C   UNL A   1      31.395  25.605  22.551  1.00  0.00     0.230 C 
BRANCH   8   9
ATOM      9  N   UNL A   1      32.181  24.930  23.563  1.00  0.00    -0.252 N 
ATOM     10  C   UNL A   1      31.905  24.952  24.892  1.00  0.00     0.325 C 
ATOM     11  C   UNL A   1      33.254  24.115  23.313  1.00  0.00     0.262 C 
ATOM     12  O   UNL A   1      30.995  25.568  25.429  1.00  0.00    -0.248 OA
ATOM     13  N   UNL A   1      32.824  24.189  25.558  1.00  0.00    -0.318 N 
ATOM     14  C   UNL A   1      33.779  23.548  24.677  1.00  0.00     0.158 C 
ATOM     15  O   UNL A   1      33.721  23.871  22.207  1.00  0.00    -0.271 OA
ATOM     16  H   UNL A   1      32.836  24.086  26.536  1.00  0.00     0.166 HD
BRANCH  14  17
ATOM     17  C   UNL A   1      35.136  24.173  24.953  1.00  0.00     0.030 C 
ATOM     18  C   UNL A   1      36.117  23.705  26.002  1.00  0.00     0.007 C 
ATOM     19  C   UNL A   1      36.462  23.579  24.538  1.00  0.00     0.007 C 
ENDBRANCH  14  17
BRANCH  14  20
ATOM     20  C   UNL A   1      33.453  22.052  24.727  1.00  0.00     0.040 A 
ATOM     21  C   UNL A   1      32.853  21.289  23.727  1.00  0.00     0.018 A 
ATOM     22  S   UNL A   1      33.676  21.075  26.124  1.00  0.00    -0.146 S 
ATOM     23  C   UNL A   1      32.613  19.936  24.102  1.00  0.00     0.012 A 
ATOM     24  C   UNL A   1      33.029  19.685  25.385  1.00  0.00     0.065 A 
ENDBRANCH  14  20
ENDBRANCH   8   9
ENDBRANCH   6   8
ENDBRANCH   3   4
ENDBRANCH   2   3
ENDBRANCH   1   2
BRANCH   1  25
ATOM     25  C   UNL A   1      33.434  28.237  27.055  1.00  0.00     0.116 C 
BRANCH  25  26
ATOM     26  N   UNL A   1      33.368  29.663  27.337  1.00  0.00    -0.352 N 
ATOM     27  C   UNL A   1      34.308  30.489  27.906  1.00  0.00     0.251 C 
ATOM     28  H   UNL A   1      32.523  30.101  27.083  1.00  0.00     0.163 HD
ATOM     29  O   UNL A   1      34.004  31.645  28.193  1.00  0.00    -0.269 OA
BRANCH  27  30
ATOM     30  C   UNL A   1      35.671  29.989  28.202  1.00  0.00     0.039 A 
ATOM     31  C   UNL A   1      36.636  30.022  27.192  1.00  0.00     0.014 A 
ATOM     32  C   UNL A   1      36.002  29.483  29.462  1.00  0.00     0.014 A 
ATOM     33  C   UNL A   1      37.948  29.620  27.466  1.00  0.00     0.010 A 
ATOM     34  C   UNL A   1      37.325  29.156  29.755  1.00  0.00     0.010 A 
ATOM     35  C   UNL A   1      38.315  29.223  28.762  1.00  0.00    -0.014 A 
BRANCH  35  36
ATOM     36  C   UNL A   1      39.727  28.892  29.099  1.00  0.00     0.031 A 
ATOM     37  C   UNL A   1      40.626  29.925  29.725  1.00  0.00     0.074 A 
ATOM     38  C   UNL A   1      40.221  27.677  28.783  1.00  0.00     0.049 A 
ATOM     39  N   UNL A   1      41.895  29.837  30.032  1.00  0.00    -0.248 NA
ATOM     40  C   UNL A   1      40.026  31.235  30.028  1.00  0.00     0.031 C 
ATOM     41  C   UNL A   1      39.469  26.597  28.140  1.00  0.00     0.029 A 
ATOM     42  N   UNL A   1      41.477  27.146  28.955  1.00  0.00    -0.354 N 
ATOM     43  C   UNL A   1      42.248  31.077  30.552  1.00  0.00     0.074 A 
ATOM     44  C   UNL A   1      41.074  31.918  30.467  1.00  0.00     0.031 C 
ATOM     45  C   UNL A   1      40.268  25.528  27.994  1.00  0.00     0.029 A 
ATOM     46  C   UNL A   1      41.601  25.858  28.487  1.00  0.00     0.049 A 
ATOM     47  H   UNL A   1      42.217  27.641  29.374  1.00  0.00     0.167 HD
ATOM     48  C   UNL A   1      43.435  31.476  31.071  1.00  0.00     0.031 A 
ATOM     49  C   UNL A   1      42.669  25.037  28.444  1.00  0.00     0.031 A 
ATOM     50  C   UNL A   1      44.603  30.639  31.152  1.00  0.00     0.049 A 
ATOM     51  C   UNL A   1      43.985  25.512  29.000  1.00  0.00     0.074 A 
ATOM     52  C   UNL A   1      45.839  30.939  31.701  1.00  0.00     0.029 A 
ATOM     53  N   UNL A   1      44.686  29.341  30.670  1.00  0.00    -0.354 N 
ATOM     54  N   UNL A   1      44.280  26.669  29.543  1.00  0.00    -0.248 NA
ATOM     55  C   UNL A   1      45.109  24.566  28.946  1.00  0.00     0.031 C 
ATOM     56  C   UNL A   1      46.686  29.846  31.494  1.00  0.00     0.029 A 
ATOM     57  C   UNL A   1      45.960  28.838  30.883  1.00  0.00     0.049 A 
ATOM     58  H   UNL A   1      43.949  28.850  30.240  1.00  0.00     0.167 HD
ATOM     59  C   UNL A   1      45.615  26.578  29.924  1.00  0.00     0.074 A 
ATOM     60  C   UNL A   1      46.064  25.249  29.564  1.00  0.00     0.031 C 
ATOM     61  C   UNL A   1      46.397  27.512  30.520  1.00  0.00     0.031 A 
BRANCH  48  62
ATOM     62  C   UNL A   1      43.531  32.890  31.587  1.00  0.00    -0.014 A 
ATOM     63  C   UNL A   1      43.204  33.202  32.919  1.00  0.00     0.010 A 
ATOM     64  C   UNL A   1      44.002  33.914  30.744  1.00  0.00     0.010 A 
ATOM     65  C   UNL A   1      43.303  34.515  33.386  1.00  0.00     0.020 A 
ATOM     66  C   UNL A   1      44.135  35.223  31.216  1.00  0.00     0.020 A 
ATOM     67  C   UNL A   1      43.767  35.518  32.529  1.00  0.00     0.054 A 
BRANCH  67  68
ATOM     68  S   UNL A   1      43.907  37.209  33.171  1.00  0.00     0.124 S 
ATOM     69  O   UNL A   1      43.831  38.003  31.946  1.00  0.00    -0.237 OA
ATOM     70  O   UNL A   1      42.751  37.312  34.057  1.00  0.00    -0.237 OA
ATOM     71  O   UNL A   1      45.205  37.221  33.840  1.00  0.00    -0.744 OA
ENDBRANCH  67  68
ENDBRANCH  48  62
BRANCH  49  72
ATOM     72  C   UNL A   1      42.537  23.676  27.852  1.00  0.00    -0.014 A 
ATOM     73  C   UNL A   1      42.079  22.595  28.627  1.00  0.00     0.010 A 
ATOM     74  C   UNL A   1      42.865  23.454  26.502  1.00  0.00     0.010 A 
ATOM     75  C   UNL A   1      41.971  21.317  28.070  1.00  0.00     0.020 A 
ATOM     76  C   UNL A   1      42.727  22.186  25.932  1.00  0.00     0.020 A 
ATOM     77  C   UNL A   1      42.293  21.121  26.724  1.00  0.00     0.054 A 
BRANCH  77  78
ATOM     78  S   UNL A   1      42.100  19.465  26.009  1.00  0.00     0.124 S 
ATOM     79  O   UNL A   1      42.909  19.561  24.798  1.00  0.00    -0.237 OA
ATOM     80  O   UNL A   1      42.635  18.604  27.062  1.00  0.00    -0.237 OA
ATOM     81  O   UNL A   1      40.659  19.351  25.793  1.00  0.00    -0.744 OA
ENDBRANCH  77  78
ENDBRANCH  49  72
BRANCH  61  82
ATOM     82  C   UNL A   1      47.813  27.123  30.860  1.00  0.00    -0.014 A 
ATOM     83  C   UNL A   1      48.132  26.511  32.085  1.00  0.00     0.010 A 
ATOM     84  C   UNL A   1      48.832  27.322  29.909  1.00  0.00     0.010 A 
ATOM     85  C   UNL A   1      49.450  26.137  32.367  1.00  0.00     0.020 A 
ATOM     86  C   UNL A   1      50.143  26.921  30.173  1.00  0.00     0.020 A 
ATOM     87  C   UNL A   1      50.447  26.343  31.408  1.00  0.00     0.054 A 
BRANCH  87  88
ATOM     88  S   UNL A   1      52.139  25.809  31.781  1.00  0.00     0.124 S 
ATOM     89  O   UNL A   1      52.830  26.085  30.525  1.00  0.00    -0.237 OA
ATOM     90  O   UNL A   1      52.506  26.670  32.903  1.00  0.00    -0.237 OA
ATOM     91  O   UNL A   1      51.991  24.393  32.112  1.00  0.00    -0.744 OA
ENDBRANCH  87  88
ENDBRANCH  61  82
ENDBRANCH  35  36
ENDBRANCH  27  30
ENDBRANCH  25  26
ENDBRANCH   1  25
TORSDOF 17
ENDMDL
MODEL 2
REMARK VINA RESULT:     -10.2      1.303      2.321
REMARK SMILES O=C(CN1C(=O)N[C@](c2cccs2)(C2CC2)C1=O)NCCCCNC(=O)c1ccc(-c2c3nc(c(-c4ccc(S(=O)(=O)[O-])cc4)c4ccc([nH]4)c(-c4ccc(S(=O)(=O)[O-])cc4)c4nc(c(-c5ccc(S(=O)(=O)[O-])cc5)c5ccc2[nH]5)C=C4)C=C3)cc1
REMARK SMILES IDX 22 1 21 2 20 3 19 4 1 5 2 6 3 8 4 9 5 10 17 11 6 12 7 13
REMARK SMILES IDX 8 14 18 15 14 17 15 18 16 19 9 20 10 21 13 22 11 23 12 24
REMARK SMILES IDX 23 25 24 26 25 27 26 29 27 30 28 31 86 32 29 33 85 34 30 35
REMARK SMILES IDX 31 36 32 37 79 38 33 39 84 40 78 41 80 42 34 43 83 44 77 45
REMARK SMILES IDX 76 46 35 48 65 49 46 50 64 51 47 52 50 53 63 54 81 55 48 56
REMARK SMILES IDX 49 57 62 59 82 60 51 61 36 62 37 63 45 64 38 65 44 66 39 67
REMARK SMILES IDX 40 68 41 69 42 70 43 71 66 72 67 73 75 74 68 75 74 76 69 77
REMARK SMILES IDX 70 78 71 79 72 80 73 81 52 82 53 83 61 84 54 85 60 86 55 87
REMARK SMILES IDX 56 88 57 89 58 90 59 91
REMARK H PARENT 19 7 7 16 24 28 80 47 50 58
REMARK Flexibility Score: inf
ROOT
ATOM      1  C   UNL A   1      33.671  28.329  25.386  1.00  0.00     0.023 C 
ENDROOT
BRANCH   1   2
ATOM      2  C   UNL A   1      33.704  26.880  24.889  1.00  0.00     0.023 C 
BRANCH   2   3
ATOM      3  C   UNL A   1      33.966  25.826  25.964  1.00  0.00     0.116 C 
BRANCH   3   4
ATOM      4  N   UNL A   1      33.083  24.685  25.831  1.00  0.00    -0.355 N 
ATOM      5  O   UNL A   1      31.300  25.559  26.989  1.00  0.00    -0.273 OA
ATOM      6  C   UNL A   1      31.812  24.634  26.364  1.00  0.00     0.240 C 
ATOM      7  H   UNL A   1      33.409  23.903  25.331  1.00  0.00     0.163 HD
BRANCH   6   8
ATOM      8  C   UNL A   1      31.107  23.289  26.166  1.00  0.00     0.230 C 
BRANCH   8   9
ATOM      9  N   UNL A   1      31.916  22.380  25.380  1.00  0.00    -0.252 N 
ATOM     10  C   UNL A   1      31.856  22.272  24.028  1.00  0.00     0.325 C 
ATOM     11  C   UNL A   1      32.904  21.572  25.879  1.00  0.00     0.262 C 
ATOM     12  O   UNL A   1      31.095  22.881  23.288  1.00  0.00    -0.248 OA
ATOM     13  N   UNL A   1      32.772  21.348  23.607  1.00  0.00    -0.318 N 
ATOM     14  C   UNL A   1      33.563  20.796  24.688  1.00  0.00     0.158 C 
ATOM     15  O   UNL A   1      33.217  21.476  27.059  1.00  0.00    -0.271 OA
ATOM     16  H   UNL A   1      32.883  21.084  22.665  1.00  0.00     0.166 HD
BRANCH  14  17
ATOM     17  C   UNL A   1      33.185  19.329  24.818  1.00  0.00     0.030 C 
ATOM     18  C   UNL A   1      32.537  18.494  23.739  1.00  0.00     0.007 C 
ATOM     19  C   UNL A   1      33.942  18.182  24.192  1.00  0.00     0.007 C 
ENDBRANCH  14  17
BRANCH  14  20
ATOM     20  C   UNL A   1      34.980  21.343  24.489  1.00  0.00     0.040 A 
ATOM     21  C   UNL A   1      36.159  20.838  25.033  1.00  0.00     0.018 A 
ATOM     22  S   UNL A   1      35.330  22.790  23.630  1.00  0.00    -0.146 S 
ATOM     23  C   UNL A   1      37.313  21.612  24.723  1.00  0.00     0.012 A 
ATOM     24  C   UNL A   1      37.000  22.702  23.951  1.00  0.00     0.065 A 
ENDBRANCH  14  20
ENDBRANCH   8   9
ENDBRANCH   6   8
ENDBRANCH   3   4
ENDBRANCH   2   3
ENDBRANCH   1   2
BRANCH   1  25
ATOM     25  C   UNL A   1      33.567  28.506  26.899  1.00  0.00     0.116 C 
BRANCH  25  26
ATOM     26  N   UNL A   1      33.461  29.902  27.298  1.00  0.00    -0.352 N 
ATOM     27  C   UNL A   1      34.357  30.688  27.984  1.00  0.00     0.251 C 
ATOM     28  H   UNL A   1      32.624  30.349  27.038  1.00  0.00     0.163 HD
ATOM     29  O   UNL A   1      34.019  31.810  28.353  1.00  0.00    -0.269 OA
BRANCH  27  30
ATOM     30  C   UNL A   1      35.711  30.182  28.308  1.00  0.00     0.039 A 
ATOM     31  C   UNL A   1      36.702  30.228  27.323  1.00  0.00     0.014 A 
ATOM     32  C   UNL A   1      36.009  29.657  29.569  1.00  0.00     0.014 A 
ATOM     33  C   UNL A   1      38.005  29.820  27.626  1.00  0.00     0.010 A 
ATOM     34  C   UNL A   1      37.324  29.324  29.891  1.00  0.00     0.010 A 
ATOM     35  C   UNL A   1      38.339  29.403  28.925  1.00  0.00    -0.014 A 
BRANCH  35  36
ATOM     36  C   UNL A   1      39.741  29.066  29.293  1.00  0.00     0.031 A 
ATOM     37  C   UNL A   1      40.618  30.082  29.975  1.00  0.00     0.074 A 
ATOM     38  C   UNL A   1      40.248  27.861  28.957  1.00  0.00     0.049 A 
ATOM     39  N   UNL A   1      41.879  29.987  30.316  1.00  0.00    -0.248 NA
ATOM     40  C   UNL A   1      40.007  31.381  30.298  1.00  0.00     0.031 C 
ATOM     41  C   UNL A   1      39.517  26.799  28.260  1.00  0.00     0.029 A 
ATOM     42  N   UNL A   1      41.499  27.328  29.149  1.00  0.00    -0.354 N 
ATOM     43  C   UNL A   1      42.213  31.212  30.882  1.00  0.00     0.074 A 
ATOM     44  C   UNL A   1      41.039  32.052  30.788  1.00  0.00     0.031 C 
ATOM     45  C   UNL A   1      40.324  25.736  28.107  1.00  0.00     0.029 A 
ATOM     46  C   UNL A   1      41.641  26.055  28.647  1.00  0.00     0.049 A 
ATOM     47  H   UNL A   1      42.226  27.812  29.604  1.00  0.00     0.167 HD
ATOM     48  C   UNL A   1      43.383  31.598  31.447  1.00  0.00     0.031 A 
ATOM     49  C   UNL A   1      42.712  25.236  28.613  1.00  0.00     0.031 A 
ATOM     50  C   UNL A   1      44.551  30.761  31.538  1.00  0.00     0.049 A 
ATOM     51  C   UNL A   1      44.010  25.698  29.220  1.00  0.00     0.074 A 
ATOM     52  C   UNL A   1      45.769  31.047  32.131  1.00  0.00     0.029 A 
ATOM     53  N   UNL A   1      44.652  29.478  31.021  1.00  0.00    -0.354 N 
ATOM     54  N   UNL A   1      44.286  26.839  29.804  1.00  0.00    -0.248 NA
ATOM     55  C   UNL A   1      45.137  24.756  29.172  1.00  0.00     0.031 C 
ATOM     56  C   UNL A   1      46.625  29.963  31.917  1.00  0.00     0.029 A 
ATOM     57  C   UNL A   1      45.919  28.971  31.256  1.00  0.00     0.049 A 
ATOM     58  H   UNL A   1      43.928  28.999  30.555  1.00  0.00     0.167 HD
ATOM     59  C   UNL A   1      45.609  26.740  30.222  1.00  0.00     0.074 A 
ATOM     60  C   UNL A   1      46.072  25.422  29.837  1.00  0.00     0.031 C 
ATOM     61  C   UNL A   1      46.371  27.658  30.868  1.00  0.00     0.031 A 
BRANCH  48  62
ATOM     62  C   UNL A   1      43.461  32.996  32.006  1.00  0.00    -0.014 A 
ATOM     63  C   UNL A   1      43.053  33.276  33.324  1.00  0.00     0.010 A 
ATOM     64  C   UNL A   1      43.994  34.037  31.223  1.00  0.00     0.010 A 
ATOM     65  C   UNL A   1      43.135  34.576  33.831  1.00  0.00     0.020 A 
ATOM     66  C   UNL A   1      44.109  35.331  31.738  1.00  0.00     0.020 A 
ATOM     67  C   UNL A   1      43.662  35.595  33.033  1.00  0.00     0.054 A 
BRANCH  67  68
ATOM     68  S   UNL A   1      43.777  37.267  33.728  1.00  0.00     0.124 S 
ATOM     69  O   UNL A   1      42.763  37.226  34.780  1.00  0.00    -0.237 OA
ATOM     70  O   UNL A   1      45.160  37.326  34.193  1.00  0.00    -0.237 OA
ATOM     71  O   UNL A   1      43.465  38.136  32.597  1.00  0.00    -0.744 OA
ENDBRANCH  67  68
ENDBRANCH  48  62
BRANCH  49  72
ATOM     72  C   UNL A   1      42.601  23.893  27.978  1.00  0.00    -0.014 A 
ATOM     73  C   UNL A   1      42.329  22.751  28.752  1.00  0.00     0.010 A 
ATOM     74  C   UNL A   1      42.761  23.750  26.587  1.00  0.00     0.010 A 
ATOM     75  C   UNL A   1      42.241  21.491  28.152  1.00  0.00     0.020 A 
ATOM     76  C   UNL A   1      42.641  22.497  25.979  1.00  0.00     0.020 A 
ATOM     77  C   UNL A   1      42.394  21.373  26.768  1.00  0.00     0.054 A 
BRANCH  77  78
ATOM     78  S   UNL A   1      42.228  19.735  26.005  1.00  0.00     0.124 S 
ATOM     79  O   UNL A   1      43.254  19.777  24.969  1.00  0.00    -0.237 OA
ATOM     80  O   UNL A   1      42.496  18.838  27.126  1.00  0.00    -0.237 OA
ATOM     81  O   UNL A   1      40.849  19.721  25.521  1.00  0.00    -0.744 OA
ENDBRANCH  77  78
ENDBRANCH  49  72
BRANCH  61  82
ATOM     82  C   UNL A   1      47.777  27.261  31.237  1.00  0.00    -0.014 A 
ATOM     83  C   UNL A   1      48.873  27.600  30.424  1.00  0.00     0.010 A 
ATOM     84  C   UNL A   1      48.009  26.584  32.449  1.00  0.00     0.010 A 
ATOM     85  C   UNL A   1      50.171  27.241  30.801  1.00  0.00     0.020 A 
ATOM     86  C   UNL A   1      49.307  26.251  32.845  1.00  0.00     0.020 A 
ATOM     87  C   UNL A   1      50.379  26.570  32.010  1.00  0.00     0.054 A 
BRANCH  87  88
ATOM     88  S   UNL A   1      52.077  26.155  32.496  1.00  0.00     0.124 S 
ATOM     89  O   UNL A   1      51.863  25.357  33.699  1.00  0.00    -0.237 OA
ATOM     90  O   UNL A   1      52.571  25.420  31.333  1.00  0.00    -0.237 OA
ATOM     91  O   UNL A   1      52.704  27.457  32.715  1.00  0.00    -0.744 OA
ENDBRANCH  87  88
ENDBRANCH  61  82
ENDBRANCH  35  36
ENDBRANCH  27  30
ENDBRANCH  25  26
ENDBRANCH   1  25
TORSDOF 17
ENDMDL
MODEL 3
REMARK VINA RESULT:     -10.1      3.386      9.234
REMARK SMILES O=C(CN1C(=O)N[C@](c2cccs2)(C2CC2)C1=O)NCCCCNC(=O)c1ccc(-c2c3nc(c(-c4ccc(S(=O)(=O)[O-])cc4)c4ccc([nH]4)c(-c4ccc(S(=O)(=O)[O-])cc4)c4nc(c(-c5ccc(S(=O)(=O)[O-])cc5)c5ccc2[nH]5)C=C4)C=C3)cc1
REMARK SMILES IDX 22 1 21 2 20 3 19 4 1 5 2 6 3 8 4 9 5 10 17 11 6 12 7 13
REMARK SMILES IDX 8 14 18 15 14 17 15 18 16 19 9 20 10 21 13 22 11 23 12 24
REMARK SMILES IDX 23 25 24 26 25 27 26 29 27 30 28 31 86 32 29 33 85 34 30 35
REMARK SMILES IDX 31 36 32 37 79 38 33 39 84 40 78 41 80 42 34 43 83 44 77 45
REMARK SMILES IDX 76 46 35 48 65 49 46 50 64 51 47 52 50 53 63 54 81 55 48 56
REMARK SMILES IDX 49 57 62 59 82 60 51 61 36 62 37 63 45 64 38 65 44 66 39 67
REMARK SMILES IDX 40 68 41 69 42 70 43 71 66 72 67 73 75 74 68 75 74 76 69 77
REMARK SMILES IDX 70 78 71 79 72 80 73 81 52 82 53 83 61 84 54 85 60 86 55 87
REMARK SMILES IDX 56 88 57 89 58 90 59 91
REMARK H PARENT 19 7 7 16 24 28 80 47 50 58
REMARK Flexibility Score: inf
ROOT
ATOM      1  C   UNL A   1      37.767  20.684  25.007  1.00  0.00     0.023 C 
ENDROOT
BRANCH   1   2
ATOM      2  C   UNL A   1      36.787  21.816  24.680  1.00  0.00     0.023 C 
BRANCH   2   3
ATOM      3  C   UNL A   1      35.890  22.259  25.835  1.00  0.00     0.116 C 
BRANCH   3   4
ATOM      4  N   UNL A   1      34.490  22.255  25.466  1.00  0.00    -0.355 N 
ATOM      5  O   UNL A   1      33.629  22.022  27.584  1.00  0.00    -0.273 OA
ATOM      6  C   UNL A   1      33.458  22.127  26.373  1.00  0.00     0.240 C 
ATOM      7  H   UNL A   1      34.261  22.349  24.513  1.00  0.00     0.163 HD
BRANCH   6   8
ATOM      8  C   UNL A   1      32.069  22.063  25.731  1.00  0.00     0.230 C 
BRANCH   8   9
ATOM      9  N   UNL A   1      31.452  23.372  25.678  1.00  0.00    -0.252 N 
ATOM     10  C   UNL A   1      30.503  23.810  26.544  1.00  0.00     0.325 C 
ATOM     11  C   UNL A   1      31.797  24.370  24.804  1.00  0.00     0.262 C 
ATOM     12  O   UNL A   1      30.005  23.163  27.455  1.00  0.00    -0.248 OA
ATOM     13  N   UNL A   1      30.161  25.096  26.229  1.00  0.00    -0.318 N 
ATOM     14  C   UNL A   1      30.924  25.633  25.121  1.00  0.00     0.158 C 
ATOM     15  O   UNL A   1      32.646  24.286  23.926  1.00  0.00    -0.271 OA
ATOM     16  H   UNL A   1      29.468  25.605  26.707  1.00  0.00     0.166 HD
BRANCH  14  17
ATOM     17  C   UNL A   1      29.957  25.836  23.965  1.00  0.00     0.030 C 
ATOM     18  C   UNL A   1      28.607  26.506  24.063  1.00  0.00     0.007 C 
ATOM     19  C   UNL A   1      29.713  27.150  23.263  1.00  0.00     0.007 C 
ENDBRANCH  14  17
BRANCH  14  20
ATOM     20  C   UNL A   1      31.838  26.704  25.724  1.00  0.00     0.040 A 
ATOM     21  C   UNL A   1      31.721  27.298  26.979  1.00  0.00     0.018 A 
ATOM     22  S   UNL A   1      33.125  27.452  24.864  1.00  0.00    -0.146 S 
ATOM     23  C   UNL A   1      32.684  28.318  27.224  1.00  0.00     0.012 A 
ATOM     24  C   UNL A   1      33.521  28.493  26.151  1.00  0.00     0.065 A 
ENDBRANCH  14  20
ENDBRANCH   8   9
ENDBRANCH   6   8
ENDBRANCH   3   4
ENDBRANCH   2   3
ENDBRANCH   1   2
BRANCH   1  25
ATOM     25  C   UNL A   1      38.997  21.088  25.816  1.00  0.00     0.116 C 
BRANCH  25  26
ATOM     26  N   UNL A   1      39.934  19.991  26.005  1.00  0.00    -0.352 N 
ATOM     27  C   UNL A   1      41.283  20.026  26.269  1.00  0.00     0.251 C 
ATOM     28  H   UNL A   1      39.544  19.090  25.932  1.00  0.00     0.163 HD
ATOM     29  O   UNL A   1      41.931  18.982  26.251  1.00  0.00    -0.269 OA
BRANCH  27  30
ATOM     30  C   UNL A   1      41.965  21.313  26.544  1.00  0.00     0.039 A 
ATOM     31  C   UNL A   1      42.294  22.144  25.470  1.00  0.00     0.014 A 
ATOM     32  C   UNL A   1      42.289  21.701  27.847  1.00  0.00     0.014 A 
ATOM     33  C   UNL A   1      42.876  23.394  25.708  1.00  0.00     0.010 A 
ATOM     34  C   UNL A   1      42.797  22.976  28.088  1.00  0.00     0.010 A 
ATOM     35  C   UNL A   1      43.094  23.840  27.021  1.00  0.00    -0.014 A 
BRANCH  35  36
ATOM     36  C   UNL A   1      43.615  25.207  27.298  1.00  0.00     0.031 A 
ATOM     37  C   UNL A   1      45.066  25.534  27.067  1.00  0.00     0.074 A 
ATOM     38  C   UNL A   1      42.791  26.141  27.817  1.00  0.00     0.049 A 
ATOM     39  N   UNL A   1      45.709  26.649  27.307  1.00  0.00    -0.248 NA
ATOM     40  C   UNL A   1      45.911  24.463  26.515  1.00  0.00     0.031 C 
ATOM     41  C   UNL A   1      41.372  25.945  28.124  1.00  0.00     0.029 A 
ATOM     42  N   UNL A   1      43.030  27.443  28.186  1.00  0.00    -0.354 N 
ATOM     43  C   UNL A   1      47.030  26.412  26.946  1.00  0.00     0.074 A 
ATOM     44  C   UNL A   1      47.109  25.031  26.523  1.00  0.00     0.031 C 
ATOM     45  C   UNL A   1      40.864  27.089  28.610  1.00  0.00     0.029 A 
ATOM     46  C   UNL A   1      41.926  28.085  28.696  1.00  0.00     0.049 A 
ATOM     47  H   UNL A   1      43.910  27.876  28.093  1.00  0.00     0.167 HD
ATOM     48  C   UNL A   1      48.080  27.270  26.946  1.00  0.00     0.031 A 
ATOM     49  C   UNL A   1      41.781  29.331  29.190  1.00  0.00     0.031 A 
ATOM     50  C   UNL A   1      48.000  28.643  27.369  1.00  0.00     0.049 A 
ATOM     51  C   UNL A   1      42.968  30.257  29.208  1.00  0.00     0.074 A 
ATOM     52  C   UNL A   1      48.998  29.603  27.365  1.00  0.00     0.029 A 
ATOM     53  N   UNL A   1      46.862  29.255  27.875  1.00  0.00    -0.354 N 
ATOM     54  N   UNL A   1      44.195  30.030  28.804  1.00  0.00    -0.248 NA
ATOM     55  C   UNL A   1      42.747  31.610  29.738  1.00  0.00     0.031 C 
ATOM     56  C   UNL A   1      48.481  30.775  27.926  1.00  0.00     0.029 A 
ATOM     57  C   UNL A   1      47.142  30.570  28.212  1.00  0.00     0.049 A 
ATOM     58  H   UNL A   1      45.986  28.818  27.979  1.00  0.00     0.167 HD
ATOM     59  C   UNL A   1      44.885  31.222  29.003  1.00  0.00     0.074 A 
ATOM     60  C   UNL A   1      43.934  32.170  29.547  1.00  0.00     0.031 C 
ATOM     61  C   UNL A   1      46.188  31.505  28.754  1.00  0.00     0.031 A 
BRANCH  48  62
ATOM     62  C   UNL A   1      49.413  26.742  26.480  1.00  0.00    -0.014 A 
ATOM     63  C   UNL A   1      50.237  25.989  27.338  1.00  0.00     0.010 A 
ATOM     64  C   UNL A   1      49.829  26.957  25.153  1.00  0.00     0.010 A 
ATOM     65  C   UNL A   1      51.468  25.501  26.892  1.00  0.00     0.020 A 
ATOM     66  C   UNL A   1      51.043  26.442  24.693  1.00  0.00     0.020 A 
ATOM     67  C   UNL A   1      51.864  25.732  25.571  1.00  0.00     0.054 A 
BRANCH  67  68
ATOM     68  S   UNL A   1      53.457  25.066  25.015  1.00  0.00     0.124 S 
ATOM     69  O   UNL A   1      54.401  25.814  25.842  1.00  0.00    -0.237 OA
ATOM     70  O   UNL A   1      53.336  23.645  25.330  1.00  0.00    -0.237 OA
ATOM     71  O   UNL A   1      53.489  25.385  23.591  1.00  0.00    -0.744 OA
ENDBRANCH  67  68
ENDBRANCH  48  62
BRANCH  49  72
ATOM     72  C   UNL A   1      40.458  29.777  29.710  1.00  0.00    -0.014 A 
ATOM     73  C   UNL A   1      40.090  29.534  31.045  1.00  0.00     0.010 A 
ATOM     74  C   UNL A   1      39.556  30.455  28.869  1.00  0.00     0.010 A 
ATOM     75  C   UNL A   1      38.841  29.941  31.524  1.00  0.00     0.020 A 
ATOM     76  C   UNL A   1      38.321  30.893  29.352  1.00  0.00     0.020 A 
ATOM     77  C   UNL A   1      37.965  30.622  30.674  1.00  0.00     0.054 A 
BRANCH  77  78
ATOM     78  S   UNL A   1      36.369  31.183  31.329  1.00  0.00     0.124 S 
ATOM     79  O   UNL A   1      35.525  31.153  30.139  1.00  0.00    -0.237 OA
ATOM     80  O   UNL A   1      36.073  30.174  32.342  1.00  0.00    -0.237 OA
ATOM     81  O   UNL A   1      36.664  32.515  31.854  1.00  0.00    -0.744 OA
ENDBRANCH  77  78
ENDBRANCH  49  72
BRANCH  61  82
ATOM     82  C   UNL A   1      46.661  32.909  29.031  1.00  0.00    -0.014 A 
ATOM     83  C   UNL A   1      46.568  33.921  28.059  1.00  0.00     0.010 A 
ATOM     84  C   UNL A   1      47.157  33.232  30.308  1.00  0.00     0.010 A 
ATOM     85  C   UNL A   1      46.992  35.222  28.349  1.00  0.00     0.020 A 
ATOM     86  C   UNL A   1      47.552  34.538  30.612  1.00  0.00     0.020 A 
ATOM     87  C   UNL A   1      47.480  35.522  29.624  1.00  0.00     0.054 A 
BRANCH  87  88
ATOM     88  S   UNL A   1      47.982  37.226  29.987  1.00  0.00     0.124 S 
ATOM     89  O   UNL A   1      48.986  37.033  31.029  1.00  0.00    -0.237 OA
ATOM     90  O   UNL A   1      48.494  37.689  28.699  1.00  0.00    -0.237 OA
ATOM     91  O   UNL A   1      46.744  37.867  30.426  1.00  0.00    -0.744 OA
ENDBRANCH  87  88
ENDBRANCH  61  82
ENDBRANCH  35  36
ENDBRANCH  27  30
ENDBRANCH  25  26
ENDBRANCH   1  25
TORSDOF 17
ENDMDL
