MODEL 1
REMARK VINA RESULT:     -10.6      0.000      0.000
REMARK SMILES [NH3+][C@H](C(=O)NCCCCNC(=O)c1ccc(-c2c3nc(c(-c4ccc(S(=O)(=O)[O-])cc4)c4ccc([nH]4)c(-c4ccc(S(=O)(=O)[O-])cc4)c4nc(c(-c5ccc(S(=O)(=O)[O-])cc5)c5ccc2[nH]5)C=C4)C=C3)cc1)c1ccc(OCC(=O)N2CCCC2)cc1
REMARK SMILES IDX 7 1 6 2 5 3 3 4 4 5 2 7 1 8 73 12 74 13 87 14 75 15 86 16
REMARK SMILES IDX 76 17 77 18 78 19 79 20 80 21 81 22 82 23 85 24 83 25 84 26
REMARK SMILES IDX 8 27 9 28 10 29 11 30 12 32 13 33 14 34 72 35 15 36 71 37
REMARK SMILES IDX 16 38 17 39 18 40 65 41 19 42 70 43 64 44 66 45 20 46 69 47
REMARK SMILES IDX 63 48 62 49 21 51 51 52 32 53 50 54 33 55 36 56 49 57 67 58
REMARK SMILES IDX 34 59 35 60 48 62 68 63 37 64 22 65 23 66 31 67 24 68 30 69
REMARK SMILES IDX 25 70 26 71 27 72 28 73 29 74 52 75 53 76 61 77 54 78 60 79
REMARK SMILES IDX 55 80 56 81 57 82 58 83 59 84 38 85 39 86 47 87 40 88 46 89
REMARK SMILES IDX 41 90 42 91 43 92 44 93 45 94
REMARK H PARENT 5 6 1 9 1 10 1 11 10 31 66 50 36 61
REMARK Flexibility Score: inf
ROOT
ATOM      1  C   UNL A   1      35.414  22.105  26.305  1.00  0.00     0.023 C 
ENDROOT
BRANCH   1   2
ATOM      2  C   UNL A   1      35.293  21.138  25.123  1.00  0.00     0.116 C 
BRANCH   2   3
ATOM      3  N   UNL A   1      34.126  20.291  25.271  1.00  0.00    -0.351 N 
ATOM      4  C   UNL A   1      32.961  20.281  24.558  1.00  0.00     0.283 C 
ATOM      5  O   UNL A   1      32.039  19.578  24.992  1.00  0.00    -0.268 OA
ATOM      6  H   UNL A   1      34.181  19.625  25.993  1.00  0.00     0.163 HD
BRANCH   4   7
ATOM      7  C   UNL A   1      32.817  21.034  23.191  1.00  0.00     0.302 C 
BRANCH   7   8
ATOM      8  N   UNL A   1      31.852  20.262  22.358  1.00  0.00    -0.343 N 
ATOM      9  H   UNL A   1      30.998  20.098  22.890  1.00  0.00     0.345 HD
ATOM     10  H   UNL A   1      32.268  19.367  22.098  1.00  0.00     0.345 HD
ATOM     11  H   UNL A   1      31.632  20.792  21.514  1.00  0.00     0.345 HD
ENDBRANCH   7   8
BRANCH   7  12
ATOM     12  C   UNL A   1      32.387  22.488  23.339  1.00  0.00     0.019 A 
ATOM     13  C   UNL A   1      31.482  22.919  24.320  1.00  0.00     0.014 A 
ATOM     14  C   UNL A   1      32.933  23.467  22.496  1.00  0.00     0.014 A 
ATOM     15  C   UNL A   1      31.225  24.281  24.507  1.00  0.00     0.047 A 
ATOM     16  C   UNL A   1      32.739  24.831  22.730  1.00  0.00     0.047 A 
ATOM     17  C   UNL A   1      31.909  25.241  23.764  1.00  0.00     0.120 A 
BRANCH  17  18
ATOM     18  O   UNL A   1      31.671  26.536  24.119  1.00  0.00    -0.484 OA
BRANCH  18  19
ATOM     19  C   UNL A   1      31.767  26.842  25.500  1.00  0.00     0.329 C 
BRANCH  19  20
ATOM     20  C   UNL A   1      33.132  27.221  26.108  1.00  0.00     0.260 C 
ATOM     21  O   UNL A   1      34.101  26.470  25.971  1.00  0.00    -0.271 OA
ATOM     22  N   UNL A   1      33.254  28.465  26.687  1.00  0.00    -0.340 N 
ATOM     23  C   UNL A   1      32.187  29.356  27.099  1.00  0.00     0.119 C 
ATOM     24  C   UNL A   1      34.558  29.033  26.993  1.00  0.00     0.119 C 
ATOM     25  C   UNL A   1      32.842  30.725  27.106  1.00  0.00     0.023 C 
ATOM     26  C   UNL A   1      34.274  30.428  27.541  1.00  0.00     0.023 C 
ENDBRANCH  19  20
ENDBRANCH  18  19
ENDBRANCH  17  18
ENDBRANCH   7  12
ENDBRANCH   4   7
ENDBRANCH   2   3
ENDBRANCH   1   2
BRANCH   1  27
ATOM     27  C   UNL A   1      35.921  23.495  25.936  1.00  0.00     0.023 C 
BRANCH  27  28
ATOM     28  C   UNL A   1      37.131  23.482  25.012  1.00  0.00     0.116 C 
BRANCH  28  29
ATOM     29  N   UNL A   1      38.179  22.553  25.422  1.00  0.00    -0.352 N 
ATOM     30  C   UNL A   1      39.257  22.797  26.243  1.00  0.00     0.251 C 
ATOM     31  H   UNL A   1      38.107  21.638  25.067  1.00  0.00     0.163 HD
ATOM     32  O   UNL A   1      40.086  21.926  26.478  1.00  0.00    -0.269 OA
BRANCH  30  33
ATOM     33  C   UNL A   1      39.421  24.157  26.795  1.00  0.00     0.039 A 
ATOM     34  C   UNL A   1      38.977  24.419  28.093  1.00  0.00     0.014 A 
ATOM     35  C   UNL A   1      40.125  25.120  26.071  1.00  0.00     0.014 A 
ATOM     36  C   UNL A   1      39.316  25.628  28.701  1.00  0.00     0.010 A 
ATOM     37  C   UNL A   1      40.540  26.278  26.711  1.00  0.00     0.010 A 
ATOM     38  C   UNL A   1      40.142  26.546  28.033  1.00  0.00    -0.014 A 
BRANCH  38  39
ATOM     39  C   UNL A   1      40.593  27.811  28.664  1.00  0.00     0.031 A 
ATOM     40  C   UNL A   1      41.979  27.886  29.243  1.00  0.00     0.074 A 
ATOM     41  C   UNL A   1      39.736  28.840  28.819  1.00  0.00     0.049 A 
ATOM     42  N   UNL A   1      42.512  28.807  30.002  1.00  0.00    -0.248 NA
ATOM     43  C   UNL A   1      42.867  26.740  28.976  1.00  0.00     0.031 C 
ATOM     44  C   UNL A   1      38.351  28.877  28.344  1.00  0.00     0.029 A 
ATOM     45  N   UNL A   1      39.903  30.053  29.440  1.00  0.00    -0.354 N 
ATOM     46  C   UNL A   1      43.770  28.327  30.347  1.00  0.00     0.074 A 
ATOM     47  C   UNL A   1      43.902  27.015  29.752  1.00  0.00     0.031 C 
ATOM     48  C   UNL A   1      37.804  30.060  28.669  1.00  0.00     0.029 A 
ATOM     49  C   UNL A   1      38.782  30.848  29.413  1.00  0.00     0.049 A 
ATOM     50  H   UNL A   1      40.748  30.327  29.866  1.00  0.00     0.167 HD
ATOM     51  C   UNL A   1      44.737  28.931  31.076  1.00  0.00     0.031 A 
ATOM     52  C   UNL A   1      38.565  32.071  29.935  1.00  0.00     0.031 A 
ATOM     53  C   UNL A   1      44.621  30.258  31.615  1.00  0.00     0.049 A 
ATOM     54  C   UNL A   1      39.675  32.753  30.686  1.00  0.00     0.074 A 
ATOM     55  C   UNL A   1      45.565  30.992  32.308  1.00  0.00     0.029 A 
ATOM     56  N   UNL A   1      43.492  31.056  31.502  1.00  0.00    -0.354 N 
ATOM     57  N   UNL A   1      40.873  32.300  30.970  1.00  0.00    -0.248 NA
ATOM     58  C   UNL A   1      39.410  34.113  31.174  1.00  0.00     0.031 C 
ATOM     59  C   UNL A   1      44.999  32.230  32.635  1.00  0.00     0.029 A 
ATOM     60  C   UNL A   1      43.716  32.278  32.110  1.00  0.00     0.049 A 
ATOM     61  H   UNL A   1      42.656  30.792  31.056  1.00  0.00     0.167 HD
ATOM     62  C   UNL A   1      41.515  33.330  31.649  1.00  0.00     0.074 A 
ATOM     63  C   UNL A   1      40.576  34.431  31.724  1.00  0.00     0.031 C 
ATOM     64  C   UNL A   1      42.770  33.363  32.160  1.00  0.00     0.031 A 
BRANCH  51  65
ATOM     65  C   UNL A   1      46.000  28.150  31.324  1.00  0.00    -0.014 A 
ATOM     66  C   UNL A   1      47.101  28.251  30.453  1.00  0.00     0.010 A 
ATOM     67  C   UNL A   1      46.084  27.292  32.435  1.00  0.00     0.010 A 
ATOM     68  C   UNL A   1      48.235  27.460  30.650  1.00  0.00     0.020 A 
ATOM     69  C   UNL A   1      47.229  26.523  32.654  1.00  0.00     0.020 A 
ATOM     70  C   UNL A   1      48.287  26.592  31.744  1.00  0.00     0.054 A 
BRANCH  70  71
ATOM     71  S   UNL A   1      49.765  25.567  31.975  1.00  0.00     0.124 S 
ATOM     72  O   UNL A   1      49.318  24.624  32.998  1.00  0.00    -0.237 OA
ATOM     73  O   UNL A   1      49.974  24.997  30.646  1.00  0.00    -0.237 OA
ATOM     74  O   UNL A   1      50.783  26.521  32.408  1.00  0.00    -0.744 OA
ENDBRANCH  70  71
ENDBRANCH  51  65
BRANCH  52  75
ATOM     75  C   UNL A   1      37.253  32.742  29.730  1.00  0.00    -0.014 A 
ATOM     76  C   UNL A   1      36.305  32.774  30.769  1.00  0.00     0.010 A 
ATOM     77  C   UNL A   1      36.953  33.380  28.512  1.00  0.00     0.010 A 
ATOM     78  C   UNL A   1      35.080  33.423  30.593  1.00  0.00     0.020 A 
ATOM     79  C   UNL A   1      35.737  34.048  28.339  1.00  0.00     0.020 A 
ATOM     80  C   UNL A   1      34.804  34.059  29.379  1.00  0.00     0.054 A 
BRANCH  80  81
ATOM     81  S   UNL A   1      33.236  34.954  29.196  1.00  0.00     0.124 S 
ATOM     82  O   UNL A   1      32.546  34.156  28.188  1.00  0.00    -0.237 OA
ATOM     83  O   UNL A   1      32.676  34.892  30.544  1.00  0.00    -0.237 OA
ATOM     84  O   UNL A   1      33.652  36.287  28.765  1.00  0.00    -0.744 OA
ENDBRANCH  80  81
ENDBRANCH  52  75
BRANCH  64  85
ATOM     85  C   UNL A   1      43.222  34.643  32.807  1.00  0.00    -0.014 A 
ATOM     86  C   UNL A   1      43.711  35.712  32.039  1.00  0.00     0.010 A 
ATOM     87  C   UNL A   1      43.077  34.799  34.197  1.00  0.00     0.010 A 
ATOM     88  C   UNL A   1      44.067  36.915  32.656  1.00  0.00     0.020 A 
ATOM     89  C   UNL A   1      43.412  36.007  34.814  1.00  0.00     0.020 A 
ATOM     90  C   UNL A   1      43.914  37.055  34.039  1.00  0.00     0.054 A 
BRANCH  90  91
ATOM     91  S   UNL A   1      44.321  38.645  34.809  1.00  0.00     0.124 S 
ATOM     92  O   UNL A   1      45.762  38.732  34.581  1.00  0.00    -0.237 OA
ATOM     93  O   UNL A   1      43.507  39.590  34.049  1.00  0.00    -0.237 OA
ATOM     94  O   UNL A   1      43.920  38.468  36.203  1.00  0.00    -0.744 OA
ENDBRANCH  90  91
ENDBRANCH  64  85
ENDBRANCH  38  39
ENDBRANCH  30  33
ENDBRANCH  28  29
ENDBRANCH  27  28
ENDBRANCH   1  27
TORSDOF 19
ENDMDL
MODEL 2
REMARK VINA RESULT:     -10.1      4.385     11.357
REMARK SMILES [NH3+][C@H](C(=O)NCCCCNC(=O)c1ccc(-c2c3nc(c(-c4ccc(S(=O)(=O)[O-])cc4)c4ccc([nH]4)c(-c4ccc(S(=O)(=O)[O-])cc4)c4nc(c(-c5ccc(S(=O)(=O)[O-])cc5)c5ccc2[nH]5)C=C4)C=C3)cc1)c1ccc(OCC(=O)N2CCCC2)cc1
REMARK SMILES IDX 7 1 6 2 5 3 3 4 4 5 2 7 1 8 73 12 74 13 87 14 75 15 86 16
REMARK SMILES IDX 76 17 77 18 78 19 79 20 80 21 81 22 82 23 85 24 83 25 84 26
REMARK SMILES IDX 8 27 9 28 10 29 11 30 12 32 13 33 14 34 72 35 15 36 71 37
REMARK SMILES IDX 16 38 17 39 18 40 65 41 19 42 70 43 64 44 66 45 20 46 69 47
REMARK SMILES IDX 63 48 62 49 21 51 51 52 32 53 50 54 33 55 36 56 49 57 67 58
REMARK SMILES IDX 34 59 35 60 48 62 68 63 37 64 22 65 23 66 31 67 24 68 30 69
REMARK SMILES IDX 25 70 26 71 27 72 28 73 29 74 52 75 53 76 61 77 54 78 60 79
REMARK SMILES IDX 55 80 56 81 57 82 58 83 59 84 38 85 39 86 47 87 40 88 46 89
REMARK SMILES IDX 41 90 42 91 43 92 44 93 45 94
REMARK H PARENT 5 6 1 9 1 10 1 11 10 31 66 50 36 61
REMARK Flexibility Score: inf
ROOT
ATOM      1  C   UNL A   1      34.285  33.820  30.124  1.00  0.00     0.023 C 
ENDROOT
BRANCH   1   2
ATOM      2  C   UNL A   1      34.832  32.610  30.888  1.00  0.00     0.116 C 
BRANCH   2   3
ATOM      3  N   UNL A   1      34.836  32.864  32.315  1.00  0.00    -0.351 N 
ATOM      4  C   UNL A   1      35.891  33.004  33.171  1.00  0.00     0.283 C 
ATOM      5  O   UNL A   1      35.635  33.039  34.382  1.00  0.00    -0.268 OA
ATOM      6  H   UNL A   1      33.947  32.949  32.728  1.00  0.00     0.163 HD
BRANCH   4   7
ATOM      7  C   UNL A   1      37.357  33.219  32.658  1.00  0.00     0.302 C 
BRANCH   7   8
ATOM      8  N   UNL A   1      37.737  34.624  32.976  1.00  0.00    -0.343 N 
ATOM      9  H   UNL A   1      37.689  34.769  33.984  1.00  0.00     0.345 HD
ATOM     10  H   UNL A   1      37.095  35.263  32.508  1.00  0.00     0.345 HD
ATOM     11  H   UNL A   1      38.689  34.799  32.652  1.00  0.00     0.345 HD
ENDBRANCH   7   8
BRANCH   7  12
ATOM     12  C   UNL A   1      38.356  32.224  33.237  1.00  0.00     0.019 A 
ATOM     13  C   UNL A   1      38.167  30.836  33.184  1.00  0.00     0.014 A 
ATOM     14  C   UNL A   1      39.544  32.689  33.820  1.00  0.00     0.014 A 
ATOM     15  C   UNL A   1      39.175  29.961  33.603  1.00  0.00     0.047 A 
ATOM     16  C   UNL A   1      40.582  31.819  34.167  1.00  0.00     0.047 A 
ATOM     17  C   UNL A   1      40.410  30.450  34.023  1.00  0.00     0.120 A 
BRANCH  17  18
ATOM     18  O   UNL A   1      41.356  29.504  34.286  1.00  0.00    -0.484 OA
BRANCH  18  19
ATOM     19  C   UNL A   1      41.102  28.199  33.791  1.00  0.00     0.329 C 
BRANCH  19  20
ATOM     20  C   UNL A   1      41.651  26.973  34.547  1.00  0.00     0.260 C 
ATOM     21  O   UNL A   1      40.889  26.256  35.200  1.00  0.00    -0.271 OA
ATOM     22  N   UNL A   1      42.977  26.645  34.363  1.00  0.00    -0.340 N 
ATOM     23  C   UNL A   1      44.024  27.480  33.808  1.00  0.00     0.119 C 
ATOM     24  C   UNL A   1      43.498  25.349  34.766  1.00  0.00     0.119 C 
ATOM     25  C   UNL A   1      45.057  26.484  33.317  1.00  0.00     0.023 C 
ATOM     26  C   UNL A   1      44.960  25.346  34.329  1.00  0.00     0.023 C 
ENDBRANCH  19  20
ENDBRANCH  18  19
ENDBRANCH  17  18
ENDBRANCH   7  12
ENDBRANCH   4   7
ENDBRANCH   2   3
ENDBRANCH   1   2
BRANCH   1  27
ATOM     27  C   UNL A   1      33.867  33.524  28.687  1.00  0.00     0.023 C 
BRANCH  27  28
ATOM     28  C   UNL A   1      34.781  32.540  27.971  1.00  0.00     0.116 C 
BRANCH  28  29
ATOM     29  N   UNL A   1      34.153  31.256  27.676  1.00  0.00    -0.352 N 
ATOM     30  C   UNL A   1      34.704  29.998  27.776  1.00  0.00     0.251 C 
ATOM     31  H   UNL A   1      33.219  31.294  27.367  1.00  0.00     0.163 HD
ATOM     32  O   UNL A   1      34.068  29.000  27.460  1.00  0.00    -0.269 OA
BRANCH  30  33
ATOM     33  C   UNL A   1      36.106  29.883  28.224  1.00  0.00     0.039 A 
ATOM     34  C   UNL A   1      36.367  29.447  29.525  1.00  0.00     0.014 A 
ATOM     35  C   UNL A   1      37.145  30.086  27.316  1.00  0.00     0.014 A 
ATOM     36  C   UNL A   1      37.676  29.130  29.891  1.00  0.00     0.010 A 
ATOM     37  C   UNL A   1      38.428  29.681  27.652  1.00  0.00     0.010 A 
ATOM     38  C   UNL A   1      38.709  29.197  28.942  1.00  0.00    -0.014 A 
BRANCH  38  39
ATOM     39  C   UNL A   1      40.103  28.799  29.259  1.00  0.00     0.031 A 
ATOM     40  C   UNL A   1      41.024  29.804  29.895  1.00  0.00     0.074 A 
ATOM     41  C   UNL A   1      40.572  27.595  28.877  1.00  0.00     0.049 A 
ATOM     42  N   UNL A   1      42.317  29.742  30.080  1.00  0.00    -0.248 NA
ATOM     43  C   UNL A   1      40.413  31.072  30.332  1.00  0.00     0.031 C 
ATOM     44  C   UNL A   1      39.794  26.547  28.210  1.00  0.00     0.029 A 
ATOM     45  N   UNL A   1      41.829  27.054  28.983  1.00  0.00    -0.354 N 
ATOM     46  C   UNL A   1      42.679  30.979  30.601  1.00  0.00     0.074 A 
ATOM     47  C   UNL A   1      41.479  31.785  30.659  1.00  0.00     0.031 C 
ATOM     48  C   UNL A   1      40.584  25.484  27.989  1.00  0.00     0.029 A 
ATOM     49  C   UNL A   1      41.934  25.787  28.457  1.00  0.00     0.049 A 
ATOM     50  H   UNL A   1      42.586  27.529  29.396  1.00  0.00     0.167 HD
ATOM     51  C   UNL A   1      43.898  31.401  31.013  1.00  0.00     0.031 A 
ATOM     52  C   UNL A   1      42.997  24.967  28.357  1.00  0.00     0.031 A 
ATOM     53  C   UNL A   1      45.074  30.576  31.005  1.00  0.00     0.049 A 
ATOM     54  C   UNL A   1      44.329  25.430  28.880  1.00  0.00     0.074 A 
ATOM     55  C   UNL A   1      46.342  30.880  31.466  1.00  0.00     0.029 A 
ATOM     56  N   UNL A   1      45.118  29.274  30.530  1.00  0.00    -0.354 N 
ATOM     57  N   UNL A   1      44.647  26.590  29.405  1.00  0.00    -0.248 NA
ATOM     58  C   UNL A   1      45.441  24.472  28.811  1.00  0.00     0.031 C 
ATOM     59  C   UNL A   1      47.161  29.766  31.246  1.00  0.00     0.029 A 
ATOM     60  C   UNL A   1      46.391  28.758  30.686  1.00  0.00     0.049 A 
ATOM     61  H   UNL A   1      44.356  28.790  30.138  1.00  0.00     0.167 HD
ATOM     62  C   UNL A   1      45.990  26.493  29.753  1.00  0.00     0.074 A 
ATOM     63  C   UNL A   1      46.421  25.159  29.387  1.00  0.00     0.031 C 
ATOM     64  C   UNL A   1      46.792  27.422  30.327  1.00  0.00     0.031 A 
BRANCH  51  65
ATOM     65  C   UNL A   1      44.004  32.821  31.504  1.00  0.00    -0.014 A 
ATOM     66  C   UNL A   1      44.139  33.109  32.875  1.00  0.00     0.010 A 
ATOM     67  C   UNL A   1      43.954  33.883  30.584  1.00  0.00     0.010 A 
ATOM     68  C   UNL A   1      44.155  34.431  33.322  1.00  0.00     0.020 A 
ATOM     69  C   UNL A   1      44.002  35.208  31.024  1.00  0.00     0.020 A 
ATOM     70  C   UNL A   1      44.075  35.474  32.394  1.00  0.00     0.054 A 
BRANCH  70  71
ATOM     71  S   UNL A   1      44.087  37.183  32.999  1.00  0.00     0.124 S 
ATOM     72  O   UNL A   1      45.260  37.183  33.871  1.00  0.00    -0.237 OA
ATOM     73  O   UNL A   1      44.219  37.960  31.770  1.00  0.00    -0.237 OA
ATOM     74  O   UNL A   1      42.803  37.316  33.682  1.00  0.00    -0.744 OA
ENDBRANCH  70  71
ENDBRANCH  51  65
BRANCH  52  75
ATOM     75  C   UNL A   1      42.835  23.610  27.769  1.00  0.00    -0.014 A 
ATOM     76  C   UNL A   1      42.503  22.519  28.592  1.00  0.00     0.010 A 
ATOM     77  C   UNL A   1      42.979  23.404  26.385  1.00  0.00     0.010 A 
ATOM     78  C   UNL A   1      42.326  21.245  28.044  1.00  0.00     0.020 A 
ATOM     79  C   UNL A   1      42.782  22.135  25.831  1.00  0.00     0.020 A 
ATOM     80  C   UNL A   1      42.464  21.061  26.666  1.00  0.00     0.054 A 
BRANCH  80  81
ATOM     81  S   UNL A   1      42.162  19.413  25.967  1.00  0.00     0.124 S 
ATOM     82  O   UNL A   1      42.586  18.539  27.055  1.00  0.00    -0.237 OA
ATOM     83  O   UNL A   1      40.726  19.441  25.699  1.00  0.00    -0.237 OA
ATOM     84  O   UNL A   1      43.007  19.388  24.775  1.00  0.00    -0.744 OA
ENDBRANCH  80  81
ENDBRANCH  52  75
BRANCH  64  85
ATOM     85  C   UNL A   1      48.207  27.019  30.639  1.00  0.00    -0.014 A 
ATOM     86  C   UNL A   1      49.273  27.411  29.812  1.00  0.00     0.010 A 
ATOM     87  C   UNL A   1      48.475  26.306  31.821  1.00  0.00     0.010 A 
ATOM     88  C   UNL A   1      50.586  27.077  30.155  1.00  0.00     0.020 A 
ATOM     89  C   UNL A   1      49.788  25.990  32.177  1.00  0.00     0.020 A 
ATOM     90  C   UNL A   1      50.835  26.371  31.335  1.00  0.00     0.054 A 
BRANCH  90  91
ATOM     91  S   UNL A   1      52.552  26.005  31.792  1.00  0.00     0.124 S 
ATOM     92  O   UNL A   1      52.923  27.195  32.554  1.00  0.00    -0.237 OA
ATOM     93  O   UNL A   1      52.424  24.776  32.571  1.00  0.00    -0.237 OA
ATOM     94  O   UNL A   1      53.227  25.852  30.506  1.00  0.00    -0.744 OA
ENDBRANCH  90  91
ENDBRANCH  64  85
ENDBRANCH  38  39
ENDBRANCH  30  33
ENDBRANCH  28  29
ENDBRANCH  27  28
ENDBRANCH   1  27
TORSDOF 19
ENDMDL
MODEL 3
REMARK VINA RESULT:     -10.0      3.450      4.245
REMARK SMILES [NH3+][C@H](C(=O)NCCCCNC(=O)c1ccc(-c2c3nc(c(-c4ccc(S(=O)(=O)[O-])cc4)c4ccc([nH]4)c(-c4ccc(S(=O)(=O)[O-])cc4)c4nc(c(-c5ccc(S(=O)(=O)[O-])cc5)c5ccc2[nH]5)C=C4)C=C3)cc1)c1ccc(OCC(=O)N2CCCC2)cc1
REMARK SMILES IDX 7 1 6 2 5 3 3 4 4 5 2 7 1 8 73 12 74 13 87 14 75 15 86 16
REMARK SMILES IDX 76 17 77 18 78 19 79 20 80 21 81 22 82 23 85 24 83 25 84 26
REMARK SMILES IDX 8 27 9 28 10 29 11 30 12 32 13 33 14 34 72 35 15 36 71 37
REMARK SMILES IDX 16 38 17 39 18 40 65 41 19 42 70 43 64 44 66 45 20 46 69 47
REMARK SMILES IDX 63 48 62 49 21 51 51 52 32 53 50 54 33 55 36 56 49 57 67 58
REMARK SMILES IDX 34 59 35 60 48 62 68 63 37 64 22 65 23 66 31 67 24 68 30 69
REMARK SMILES IDX 25 70 26 71 27 72 28 73 29 74 52 75 53 76 61 77 54 78 60 79
REMARK SMILES IDX 55 80 56 81 57 82 58 83 59 84 38 85 39 86 47 87 40 88 46 89
REMARK SMILES IDX 41 90 42 91 43 92 44 93 45 94
REMARK H PARENT 5 6 1 9 1 10 1 11 10 31 66 50 36 61
REMARK Flexibility Score: inf
ROOT
ATOM      1  C   UNL A   1      37.409  23.508  25.906  1.00  0.00     0.023 C 
ENDROOT
BRANCH   1   2
ATOM      2  C   UNL A   1      36.250  22.590  25.503  1.00  0.00     0.116 C 
BRANCH   2   3
ATOM      3  N   UNL A   1      35.482  22.195  26.667  1.00  0.00    -0.351 N 
ATOM      4  C   UNL A   1      34.164  22.410  26.954  1.00  0.00     0.283 C 
ATOM      5  O   UNL A   1      33.781  22.128  28.098  1.00  0.00    -0.268 OA
ATOM      6  H   UNL A   1      35.984  21.698  27.352  1.00  0.00     0.163 HD
BRANCH   4   7
ATOM      7  C   UNL A   1      33.143  22.891  25.866  1.00  0.00     0.302 C 
BRANCH   7   8
ATOM      8  N   UNL A   1      31.979  21.962  25.907  1.00  0.00    -0.343 N 
ATOM      9  H   UNL A   1      32.219  21.095  25.427  1.00  0.00     0.345 HD
ATOM     10  H   UNL A   1      31.180  22.397  25.446  1.00  0.00     0.345 HD
ATOM     11  H   UNL A   1      31.742  21.758  26.879  1.00  0.00     0.345 HD
ENDBRANCH   7   8
BRANCH   7  12
ATOM     12  C   UNL A   1      32.707  24.341  26.039  1.00  0.00     0.019 A 
ATOM     13  C   UNL A   1      33.598  25.420  25.951  1.00  0.00     0.014 A 
ATOM     14  C   UNL A   1      31.355  24.641  26.259  1.00  0.00     0.014 A 
ATOM     15  C   UNL A   1      33.130  26.738  25.978  1.00  0.00     0.047 A 
ATOM     16  C   UNL A   1      30.875  25.953  26.208  1.00  0.00     0.047 A 
ATOM     17  C   UNL A   1      31.763  27.004  26.031  1.00  0.00     0.120 A 
BRANCH  17  18
ATOM     18  O   UNL A   1      31.418  28.320  25.923  1.00  0.00    -0.484 OA
BRANCH  18  19
ATOM     19  C   UNL A   1      31.579  28.914  24.646  1.00  0.00     0.329 C 
BRANCH  19  20
ATOM     20  C   UNL A   1      30.562  28.615  23.528  1.00  0.00     0.260 C 
ATOM     21  O   UNL A   1      30.582  27.527  22.948  1.00  0.00    -0.271 OA
ATOM     22  N   UNL A   1      29.571  29.544  23.296  1.00  0.00    -0.340 N 
ATOM     23  C   UNL A   1      29.533  30.924  23.737  1.00  0.00     0.119 C 
ATOM     24  C   UNL A   1      28.397  29.216  22.501  1.00  0.00     0.119 C 
ATOM     25  C   UNL A   1      28.055  31.267  23.722  1.00  0.00     0.023 C 
ATOM     26  C   UNL A   1      27.517  30.461  22.544  1.00  0.00     0.023 C 
ENDBRANCH  19  20
ENDBRANCH  18  19
ENDBRANCH  17  18
ENDBRANCH   7  12
ENDBRANCH   4   7
ENDBRANCH   2   3
ENDBRANCH   1   2
BRANCH   1  27
ATOM     27  C   UNL A   1      38.673  22.775  26.344  1.00  0.00     0.023 C 
BRANCH  27  28
ATOM     28  C   UNL A   1      39.711  23.676  26.998  1.00  0.00     0.116 C 
BRANCH  28  29
ATOM     29  N   UNL A   1      40.788  24.085  26.103  1.00  0.00    -0.352 N 
ATOM     30  C   UNL A   1      41.464  25.285  26.080  1.00  0.00     0.251 C 
ATOM     31  H   UNL A   1      41.066  23.422  25.431  1.00  0.00     0.163 HD
ATOM     32  O   UNL A   1      42.331  25.509  25.244  1.00  0.00    -0.269 OA
BRANCH  30  33
ATOM     33  C   UNL A   1      41.080  26.322  27.058  1.00  0.00     0.039 A 
ATOM     34  C   UNL A   1      40.267  25.968  28.137  1.00  0.00     0.014 A 
ATOM     35  C   UNL A   1      41.630  27.601  26.967  1.00  0.00     0.014 A 
ATOM     36  C   UNL A   1      40.074  26.878  29.177  1.00  0.00     0.010 A 
ATOM     37  C   UNL A   1      41.514  28.467  28.044  1.00  0.00     0.010 A 
ATOM     38  C   UNL A   1      40.736  28.116  29.161  1.00  0.00    -0.014 A 
BRANCH  38  39
ATOM     39  C   UNL A   1      40.624  29.088  30.277  1.00  0.00     0.031 A 
ATOM     40  C   UNL A   1      41.526  28.937  31.472  1.00  0.00     0.074 A 
ATOM     41  C   UNL A   1      39.653  30.022  30.275  1.00  0.00     0.049 A 
ATOM     42  N   UNL A   1      41.476  29.540  32.630  1.00  0.00    -0.248 NA
ATOM     43  C   UNL A   1      42.597  27.929  31.365  1.00  0.00     0.031 C 
ATOM     44  C   UNL A   1      38.684  30.243  29.198  1.00  0.00     0.029 A 
ATOM     45  N   UNL A   1      39.309  30.953  31.222  1.00  0.00    -0.354 N 
ATOM     46  C   UNL A   1      42.467  28.948  33.405  1.00  0.00     0.074 A 
ATOM     47  C   UNL A   1      43.071  27.908  32.600  1.00  0.00     0.031 C 
ATOM     48  C   UNL A   1      37.873  31.259  29.535  1.00  0.00     0.029 A 
ATOM     49  C   UNL A   1      38.234  31.734  30.868  1.00  0.00     0.049 A 
ATOM     50  H   UNL A   1      39.788  31.053  32.077  1.00  0.00     0.167 HD
ATOM     51  C   UNL A   1      42.853  29.254  34.665  1.00  0.00     0.031 A 
ATOM     52  C   UNL A   1      37.606  32.716  31.544  1.00  0.00     0.031 A 
ATOM     53  C   UNL A   1      42.288  30.325  35.437  1.00  0.00     0.049 A 
ATOM     54  C   UNL A   1      38.094  33.085  32.918  1.00  0.00     0.074 A 
ATOM     55  C   UNL A   1      42.653  30.767  36.695  1.00  0.00     0.029 A 
ATOM     56  N   UNL A   1      41.248  31.138  35.010  1.00  0.00    -0.354 N 
ATOM     57  N   UNL A   1      39.058  32.539  33.621  1.00  0.00    -0.248 NA
ATOM     58  C   UNL A   1      37.420  34.208  33.583  1.00  0.00     0.031 C 
ATOM     59  C   UNL A   1      41.817  31.834  37.040  1.00  0.00     0.029 A 
ATOM     60  C   UNL A   1      40.958  32.081  35.979  1.00  0.00     0.049 A 
ATOM     61  H   UNL A   1      40.784  31.055  34.146  1.00  0.00     0.167 HD
ATOM     62  C   UNL A   1      39.124  33.270  34.802  1.00  0.00     0.074 A 
ATOM     63  C   UNL A   1      38.109  34.301  34.714  1.00  0.00     0.031 C 
ATOM     64  C   UNL A   1      39.952  33.105  35.862  1.00  0.00     0.031 A 
BRANCH  51  65
ATOM     65  C   UNL A   1      43.942  28.410  35.274  1.00  0.00    -0.014 A 
ATOM     66  C   UNL A   1      45.299  28.750  35.120  1.00  0.00     0.010 A 
ATOM     67  C   UNL A   1      43.604  27.253  35.999  1.00  0.00     0.010 A 
ATOM     68  C   UNL A   1      46.299  27.914  35.621  1.00  0.00     0.020 A 
ATOM     69  C   UNL A   1      44.602  26.431  36.530  1.00  0.00     0.020 A 
ATOM     70  C   UNL A   1      45.944  26.754  36.314  1.00  0.00     0.054 A 
BRANCH  70  71
ATOM     71  S   UNL A   1      47.260  25.678  36.946  1.00  0.00     0.124 S 
ATOM     72  O   UNL A   1      47.329  26.084  38.349  1.00  0.00    -0.237 OA
ATOM     73  O   UNL A   1      46.728  24.340  36.707  1.00  0.00    -0.237 OA
ATOM     74  O   UNL A   1      48.420  26.039  36.135  1.00  0.00    -0.744 OA
ENDBRANCH  70  71
ENDBRANCH  51  65
BRANCH  52  75
ATOM     75  C   UNL A   1      36.472  33.443  30.912  1.00  0.00    -0.014 A 
ATOM     76  C   UNL A   1      35.292  33.680  31.639  1.00  0.00     0.010 A 
ATOM     77  C   UNL A   1      36.573  33.930  29.596  1.00  0.00     0.010 A 
ATOM     78  C   UNL A   1      34.231  34.382  31.061  1.00  0.00     0.020 A 
ATOM     79  C   UNL A   1      35.522  34.651  29.022  1.00  0.00     0.020 A 
ATOM     80  C   UNL A   1      34.353  34.866  29.756  1.00  0.00     0.054 A 
BRANCH  80  81
ATOM     81  S   UNL A   1      32.991  35.835  29.049  1.00  0.00     0.124 S 
ATOM     82  O   UNL A   1      32.218  36.184  30.236  1.00  0.00    -0.237 OA
ATOM     83  O   UNL A   1      33.691  36.942  28.402  1.00  0.00    -0.237 OA
ATOM     84  O   UNL A   1      32.346  34.898  28.133  1.00  0.00    -0.744 OA
ENDBRANCH  80  81
ENDBRANCH  52  75
BRANCH  64  85
ATOM     85  C   UNL A   1      39.831  34.085  36.996  1.00  0.00    -0.014 A 
ATOM     86  C   UNL A   1      40.553  35.291  36.995  1.00  0.00     0.010 A 
ATOM     87  C   UNL A   1      38.920  33.827  38.035  1.00  0.00     0.010 A 
ATOM     88  C   UNL A   1      40.378  36.215  38.029  1.00  0.00     0.020 A 
ATOM     89  C   UNL A   1      38.726  34.758  39.058  1.00  0.00     0.020 A 
ATOM     90  C   UNL A   1      39.464  35.943  39.053  1.00  0.00     0.054 A 
BRANCH  90  91
ATOM     91  S   UNL A   1      39.206  37.185  40.349  1.00  0.00     0.124 S 
ATOM     92  O   UNL A   1      40.558  37.701  40.548  1.00  0.00    -0.237 OA
ATOM     93  O   UNL A   1      38.265  38.112  39.725  1.00  0.00    -0.237 OA
ATOM     94  O   UNL A   1      38.663  36.413  41.464  1.00  0.00    -0.744 OA
ENDBRANCH  90  91
ENDBRANCH  64  85
ENDBRANCH  38  39
ENDBRANCH  30  33
ENDBRANCH  28  29
ENDBRANCH  27  28
ENDBRANCH   1  27
TORSDOF 19
ENDMDL
