MODEL 1
REMARK VINA RESULT:     -10.2      0.000      0.000
REMARK SMILES CC(C)(C)c1cc(NC(=O)CSC[C@H]([NH3+])C(=O)NCCCCNC(=O)c2ccc(-c3c4nc(c(-c5ccc(S(=O)(=O)[O-])cc5)c5ccc([nH]5)c(-c5ccc(S(=O)(=O)[O-])cc5)c5nc(c(-c6ccc(S(=O)(=O)[O-])cc6)c6ccc3[nH]6)C=C5)C=C4)cc2)on1
REMARK SMILES IDX 19 1 18 2 16 3 17 4 14 6 13 7 12 8 11 9 9 10 8 11 10 13 7 14
REMARK SMILES IDX 5 15 6 16 87 17 86 18 2 19 1 20 3 21 4 22 15 23 20 27 21 28
REMARK SMILES IDX 22 29 23 30 24 31 25 33 26 34 27 35 85 36 28 37 84 38 29 39
REMARK SMILES IDX 30 40 31 41 78 42 32 43 83 44 77 45 79 46 33 47 82 48 76 49
REMARK SMILES IDX 75 50 34 52 64 53 45 54 63 55 46 56 49 57 62 58 80 59 47 60
REMARK SMILES IDX 48 61 61 63 81 64 50 65 35 66 36 67 44 68 37 69 43 70 38 71
REMARK SMILES IDX 39 72 40 73 41 74 42 75 65 76 66 77 74 78 67 79 73 80 68 81
REMARK SMILES IDX 69 82 70 83 71 84 72 85 51 86 52 87 60 88 53 89 59 90 54 91
REMARK SMILES IDX 55 92 56 93 57 94 58 95
REMARK H PARENT 18 5 8 12 15 24 15 25 15 26 23 32 79 51 49 62
REMARK Flexibility Score: inf
ROOT
ATOM      1  C   UNL A   1      31.305  28.997  23.837  1.00  0.00     0.116 C 
ENDROOT
BRANCH   1   2
ATOM      2  N   UNL A   1      32.500  28.640  23.096  1.00  0.00    -0.351 N 
ATOM      3  C   UNL A   1      32.798  27.552  22.336  1.00  0.00     0.279 C 
ATOM      4  O   UNL A   1      33.906  27.509  21.795  1.00  0.00    -0.268 OA
ATOM      5  H   UNL A   1      33.224  29.305  23.152  1.00  0.00     0.163 HD
BRANCH   3   6
ATOM      6  C   UNL A   1      31.784  26.414  22.141  1.00  0.00     0.280 C 
BRANCH   6   7
ATOM      7  C   UNL A   1      31.928  25.342  23.234  1.00  0.00     0.145 C 
BRANCH   7   8
ATOM      8  S   UNL A   1      30.502  25.190  24.369  1.00  0.00    -0.145 SA
BRANCH   8   9
ATOM      9  C   UNL A   1      30.684  23.504  25.055  1.00  0.00     0.170 C 
BRANCH   9  10
ATOM     10  C   UNL A   1      30.933  23.434  26.552  1.00  0.00     0.236 C 
ATOM     11  N   UNL A   1      32.170  23.489  27.117  1.00  0.00    -0.294 N 
ATOM     12  H   UNL A   1      32.189  23.436  28.100  1.00  0.00     0.173 HD
ATOM     13  O   UNL A   1      29.987  23.301  27.339  1.00  0.00    -0.274 OA
BRANCH  11  14
ATOM     14  C   UNL A   1      33.388  23.606  26.510  1.00  0.00     0.231 A 
ATOM     15  C   UNL A   1      35.386  23.336  25.614  1.00  0.00     0.091 A 
ATOM     16  C   UNL A   1      34.289  22.631  26.168  1.00  0.00     0.097 A 
ATOM     17  N   UNL A   1      35.132  24.653  25.588  1.00  0.00    -0.082 NA
ATOM     18  O   UNL A   1      33.879  24.810  26.138  1.00  0.00    -0.338 OA
BRANCH  15  19
ATOM     19  C   UNL A   1      36.700  22.813  25.075  1.00  0.00     0.008 C 
ATOM     20  C   UNL A   1      36.906  21.322  25.413  1.00  0.00     0.018 C 
ATOM     21  C   UNL A   1      37.879  23.600  25.684  1.00  0.00     0.018 C 
ATOM     22  C   UNL A   1      36.725  22.969  23.543  1.00  0.00     0.018 C 
ENDBRANCH  15  19
ENDBRANCH  11  14
ENDBRANCH   9  10
ENDBRANCH   8   9
ENDBRANCH   7   8
ENDBRANCH   6   7
BRANCH   6  23
ATOM     23  N   UNL A   1      31.882  25.859  20.765  1.00  0.00    -0.347 N 
ATOM     24  H   UNL A   1      32.332  24.944  20.799  1.00  0.00     0.345 HD
ATOM     25  H   UNL A   1      32.434  26.487  20.183  1.00  0.00     0.345 HD
ATOM     26  H   UNL A   1      30.946  25.762  20.370  1.00  0.00     0.345 HD
ENDBRANCH   6  23
ENDBRANCH   3   6
ENDBRANCH   1   2
BRANCH   1  27
ATOM     27  C   UNL A   1      31.604  29.142  25.324  1.00  0.00     0.023 C 
BRANCH  27  28
ATOM     28  C   UNL A   1      32.479  28.027  25.899  1.00  0.00     0.023 C 
BRANCH  28  29
ATOM     29  C   UNL A   1      33.703  28.506  26.674  1.00  0.00     0.116 C 
BRANCH  29  30
ATOM     30  N   UNL A   1      33.554  29.868  27.169  1.00  0.00    -0.352 N 
ATOM     31  C   UNL A   1      34.417  30.610  27.939  1.00  0.00     0.251 C 
ATOM     32  H   UNL A   1      32.717  30.320  26.917  1.00  0.00     0.163 HD
ATOM     33  O   UNL A   1      34.053  31.687  28.401  1.00  0.00    -0.269 OA
BRANCH  31  34
ATOM     34  C   UNL A   1      35.772  30.092  28.225  1.00  0.00     0.039 A 
ATOM     35  C   UNL A   1      36.748  30.158  27.227  1.00  0.00     0.014 A 
ATOM     36  C   UNL A   1      36.082  29.564  29.480  1.00  0.00     0.014 A 
ATOM     37  C   UNL A   1      38.055  29.759  27.514  1.00  0.00     0.010 A 
ATOM     38  C   UNL A   1      37.401  29.240  29.787  1.00  0.00     0.010 A 
ATOM     39  C   UNL A   1      38.401  29.333  28.808  1.00  0.00    -0.014 A 
BRANCH  39  40
ATOM     40  C   UNL A   1      39.804  28.990  29.159  1.00  0.00     0.031 A 
ATOM     41  C   UNL A   1      40.691  30.011  29.819  1.00  0.00     0.074 A 
ATOM     42  C   UNL A   1      40.298  27.781  28.823  1.00  0.00     0.049 A 
ATOM     43  N   UNL A   1      41.954  29.917  30.145  1.00  0.00    -0.248 NA
ATOM     44  C   UNL A   1      40.087  31.316  30.132  1.00  0.00     0.031 C 
ATOM     45  C   UNL A   1      39.553  26.719  28.142  1.00  0.00     0.029 A 
ATOM     46  N   UNL A   1      41.550  27.244  29.002  1.00  0.00    -0.354 N 
ATOM     47  C   UNL A   1      42.300  31.150  30.684  1.00  0.00     0.074 A 
ATOM     48  C   UNL A   1      41.127  31.993  30.595  1.00  0.00     0.031 C 
ATOM     49  C   UNL A   1      40.352  25.650  27.987  1.00  0.00     0.029 A 
ATOM     50  C   UNL A   1      41.677  25.964  28.515  1.00  0.00     0.049 A 
ATOM     51  H   UNL A   1      42.287  27.729  29.438  1.00  0.00     0.167 HD
ATOM     52  C   UNL A   1      43.479  31.541  31.223  1.00  0.00     0.031 A 
ATOM     53  C   UNL A   1      42.740  25.137  28.485  1.00  0.00     0.031 A 
ATOM     54  C   UNL A   1      44.641  30.697  31.318  1.00  0.00     0.049 A 
ATOM     55  C   UNL A   1      44.045  25.601  29.077  1.00  0.00     0.074 A 
ATOM     56  C   UNL A   1      45.866  30.983  31.896  1.00  0.00     0.029 A 
ATOM     57  N   UNL A   1      44.726  29.406  30.820  1.00  0.00    -0.354 N 
ATOM     58  N   UNL A   1      44.331  26.749  29.643  1.00  0.00    -0.248 NA
ATOM     59  C   UNL A   1      45.166  24.652  29.034  1.00  0.00     0.031 C 
ATOM     60  C   UNL A   1      46.710  29.886  31.698  1.00  0.00     0.029 A 
ATOM     61  C   UNL A   1      45.990  28.890  31.055  1.00  0.00     0.049 A 
ATOM     62  H   UNL A   1      43.996  28.927  30.366  1.00  0.00     0.167 HD
ATOM     63  C   UNL A   1      45.656  26.648  30.052  1.00  0.00     0.074 A 
ATOM     64  C   UNL A   1      46.109  25.323  29.681  1.00  0.00     0.031 C 
ATOM     65  C   UNL A   1      46.428  27.570  30.680  1.00  0.00     0.031 A 
BRANCH  52  66
ATOM     66  C   UNL A   1      43.573  32.949  31.751  1.00  0.00    -0.014 A 
ATOM     67  C   UNL A   1      43.904  34.023  30.904  1.00  0.00     0.010 A 
ATOM     68  C   UNL A   1      43.285  33.210  33.103  1.00  0.00     0.010 A 
ATOM     69  C   UNL A   1      43.985  35.324  31.408  1.00  0.00     0.020 A 
ATOM     70  C   UNL A   1      43.336  34.514  33.605  1.00  0.00     0.020 A 
ATOM     71  C   UNL A   1      43.703  35.561  32.756  1.00  0.00     0.054 A 
BRANCH  71  72
ATOM     72  S   UNL A   1      43.795  37.263  33.376  1.00  0.00     0.124 S 
ATOM     73  O   UNL A   1      42.508  37.406  34.053  1.00  0.00    -0.237 OA
ATOM     74  O   UNL A   1      44.963  37.221  34.252  1.00  0.00    -0.237 OA
ATOM     75  O   UNL A   1      43.954  38.066  32.166  1.00  0.00    -0.744 OA
ENDBRANCH  71  72
ENDBRANCH  52  66
BRANCH  53  76
ATOM     76  C   UNL A   1      42.614  23.780  27.886  1.00  0.00    -0.014 A 
ATOM     77  C   UNL A   1      42.199  22.689  28.668  1.00  0.00     0.010 A 
ATOM     78  C   UNL A   1      42.901  23.573  26.524  1.00  0.00     0.010 A 
ATOM     79  C   UNL A   1      42.094  21.412  28.107  1.00  0.00     0.020 A 
ATOM     80  C   UNL A   1      42.768  22.304  25.952  1.00  0.00     0.020 A 
ATOM     81  C   UNL A   1      42.378  21.229  26.751  1.00  0.00     0.054 A 
BRANCH  81  82
ATOM     82  S   UNL A   1      42.188  19.573  26.034  1.00  0.00     0.124 S 
ATOM     83  O   UNL A   1      42.639  18.717  27.127  1.00  0.00    -0.237 OA
ATOM     84  O   UNL A   1      40.760  19.520  25.735  1.00  0.00    -0.237 OA
ATOM     85  O   UNL A   1      43.062  19.606  24.864  1.00  0.00    -0.744 OA
ENDBRANCH  81  82
ENDBRANCH  53  76
BRANCH  65  86
ATOM     86  C   UNL A   1      47.833  27.168  31.043  1.00  0.00    -0.014 A 
ATOM     87  C   UNL A   1      48.108  26.439  32.212  1.00  0.00     0.010 A 
ATOM     88  C   UNL A   1      48.889  27.478  30.165  1.00  0.00     0.010 A 
ATOM     89  C   UNL A   1      49.417  26.055  32.514  1.00  0.00     0.020 A 
ATOM     90  C   UNL A   1      50.194  27.069  30.447  1.00  0.00     0.020 A 
ATOM     91  C   UNL A   1      50.453  26.371  31.629  1.00  0.00     0.054 A 
BRANCH  91  92
ATOM     92  S   UNL A   1      52.136  25.820  32.020  1.00  0.00     0.124 S 
ATOM     93  O   UNL A   1      52.772  25.828  30.705  1.00  0.00    -0.237 OA
ATOM     94  O   UNL A   1      52.600  26.847  32.949  1.00  0.00    -0.237 OA
ATOM     95  O   UNL A   1      51.940  24.498  32.610  1.00  0.00    -0.744 OA
ENDBRANCH  91  92
ENDBRANCH  65  86
ENDBRANCH  39  40
ENDBRANCH  31  34
ENDBRANCH  29  30
ENDBRANCH  28  29
ENDBRANCH  27  28
ENDBRANCH   1  27
TORSDOF 21
ENDMDL
MODEL 2
REMARK VINA RESULT:      -9.6      1.805      2.505
REMARK SMILES CC(C)(C)c1cc(NC(=O)CSC[C@H]([NH3+])C(=O)NCCCCNC(=O)c2ccc(-c3c4nc(c(-c5ccc(S(=O)(=O)[O-])cc5)c5ccc([nH]5)c(-c5ccc(S(=O)(=O)[O-])cc5)c5nc(c(-c6ccc(S(=O)(=O)[O-])cc6)c6ccc3[nH]6)C=C5)C=C4)cc2)on1
REMARK SMILES IDX 19 1 18 2 16 3 17 4 14 6 13 7 12 8 11 9 9 10 8 11 10 13 7 14
REMARK SMILES IDX 5 15 6 16 87 17 86 18 2 19 1 20 3 21 4 22 15 23 20 27 21 28
REMARK SMILES IDX 22 29 23 30 24 31 25 33 26 34 27 35 85 36 28 37 84 38 29 39
REMARK SMILES IDX 30 40 31 41 78 42 32 43 83 44 77 45 79 46 33 47 82 48 76 49
REMARK SMILES IDX 75 50 34 52 64 53 45 54 63 55 46 56 49 57 62 58 80 59 47 60
REMARK SMILES IDX 48 61 61 63 81 64 50 65 35 66 36 67 44 68 37 69 43 70 38 71
REMARK SMILES IDX 39 72 40 73 41 74 42 75 65 76 66 77 74 78 67 79 73 80 68 81
REMARK SMILES IDX 69 82 70 83 71 84 72 85 51 86 52 87 60 88 53 89 59 90 54 91
REMARK SMILES IDX 55 92 56 93 57 94 58 95
REMARK H PARENT 18 5 8 12 15 24 15 25 15 26 23 32 79 51 49 62
REMARK Flexibility Score: inf
ROOT
ATOM      1  C   UNL A   1      31.195  26.423  26.687  1.00  0.00     0.116 C 
ENDROOT
BRANCH   1   2
ATOM      2  N   UNL A   1      30.359  26.423  25.501  1.00  0.00    -0.351 N 
ATOM      3  C   UNL A   1      30.286  25.562  24.450  1.00  0.00     0.279 C 
ATOM      4  O   UNL A   1      29.459  25.797  23.565  1.00  0.00    -0.268 OA
ATOM      5  H   UNL A   1      29.733  27.181  25.448  1.00  0.00     0.163 HD
BRANCH   3   6
ATOM      6  C   UNL A   1      31.193  24.325  24.369  1.00  0.00     0.280 C 
BRANCH   6   7
ATOM      7  C   UNL A   1      31.564  23.996  22.912  1.00  0.00     0.145 C 
BRANCH   7   8
ATOM      8  S   UNL A   1      33.182  24.640  22.357  1.00  0.00    -0.145 SA
BRANCH   8   9
ATOM      9  C   UNL A   1      34.372  23.408  23.000  1.00  0.00     0.170 C 
BRANCH   9  10
ATOM     10  C   UNL A   1      34.697  23.528  24.480  1.00  0.00     0.236 C 
ATOM     11  N   UNL A   1      34.450  22.548  25.391  1.00  0.00    -0.294 N 
ATOM     12  H   UNL A   1      34.712  22.755  26.317  1.00  0.00     0.173 HD
ATOM     13  O   UNL A   1      35.198  24.567  24.929  1.00  0.00    -0.274 OA
BRANCH  11  14
ATOM     14  C   UNL A   1      33.888  21.318  25.200  1.00  0.00     0.231 A 
ATOM     15  C   UNL A   1      33.418  19.204  24.777  1.00  0.00     0.091 A 
ATOM     16  C   UNL A   1      34.491  20.121  24.908  1.00  0.00     0.097 A 
ATOM     17  N   UNL A   1      32.248  19.812  25.021  1.00  0.00    -0.082 NA
ATOM     18  O   UNL A   1      32.552  21.127  25.295  1.00  0.00    -0.338 OA
BRANCH  15  19
ATOM     19  C   UNL A   1      33.443  17.729  24.438  1.00  0.00     0.008 C 
ATOM     20  C   UNL A   1      32.605  16.897  25.431  1.00  0.00     0.018 C 
ATOM     21  C   UNL A   1      34.890  17.195  24.480  1.00  0.00     0.018 C 
ATOM     22  C   UNL A   1      32.867  17.517  23.024  1.00  0.00     0.018 C 
ENDBRANCH  15  19
ENDBRANCH  11  14
ENDBRANCH   9  10
ENDBRANCH   8   9
ENDBRANCH   7   8
ENDBRANCH   6   7
BRANCH   6  23
ATOM     23  N   UNL A   1      30.574  23.177  25.085  1.00  0.00    -0.347 N 
ATOM     24  H   UNL A   1      31.044  23.042  25.980  1.00  0.00     0.345 HD
ATOM     25  H   UNL A   1      30.670  22.333  24.521  1.00  0.00     0.345 HD
ATOM     26  H   UNL A   1      29.585  23.370  25.245  1.00  0.00     0.345 HD
ENDBRANCH   6  23
ENDBRANCH   3   6
ENDBRANCH   1   2
BRANCH   1  27
ATOM     27  C   UNL A   1      31.588  27.840  27.082  1.00  0.00     0.023 C 
BRANCH  27  28
ATOM     28  C   UNL A   1      32.741  28.422  26.262  1.00  0.00     0.023 C 
BRANCH  28  29
ATOM     29  C   UNL A   1      33.976  28.806  27.071  1.00  0.00     0.116 C 
BRANCH  29  30
ATOM     30  N   UNL A   1      33.901  30.163  27.595  1.00  0.00    -0.352 N 
ATOM     31  C   UNL A   1      34.822  30.856  28.343  1.00  0.00     0.251 C 
ATOM     32  H   UNL A   1      33.074  30.653  27.384  1.00  0.00     0.163 HD
ATOM     33  O   UNL A   1      34.519  31.938  28.838  1.00  0.00    -0.269 OA
BRANCH  31  34
ATOM     34  C   UNL A   1      36.165  30.280  28.567  1.00  0.00     0.039 A 
ATOM     35  C   UNL A   1      37.109  30.341  27.539  1.00  0.00     0.014 A 
ATOM     36  C   UNL A   1      36.496  29.702  29.794  1.00  0.00     0.014 A 
ATOM     37  C   UNL A   1      38.409  29.884  27.769  1.00  0.00     0.010 A 
ATOM     38  C   UNL A   1      37.811  29.320  30.046  1.00  0.00     0.010 A 
ATOM     39  C   UNL A   1      38.781  29.406  29.037  1.00  0.00    -0.014 A 
BRANCH  39  40
ATOM     40  C   UNL A   1      40.181  29.000  29.329  1.00  0.00     0.031 A 
ATOM     41  C   UNL A   1      41.136  29.976  29.963  1.00  0.00     0.074 A 
ATOM     42  C   UNL A   1      40.609  27.775  28.964  1.00  0.00     0.049 A 
ATOM     43  N   UNL A   1      42.405  29.825  30.237  1.00  0.00    -0.248 NA
ATOM     44  C   UNL A   1      40.600  31.302  30.310  1.00  0.00     0.031 C 
ATOM     45  C   UNL A   1      39.794  26.752  28.304  1.00  0.00     0.029 A 
ATOM     46  N   UNL A   1      41.843  27.184  29.088  1.00  0.00    -0.354 N 
ATOM     47  C   UNL A   1      42.824  31.037  30.773  1.00  0.00     0.074 A 
ATOM     48  C   UNL A   1      41.686  31.930  30.738  1.00  0.00     0.031 C 
ATOM     49  C   UNL A   1      40.539  25.653  28.108  1.00  0.00     0.029 A 
ATOM     50  C   UNL A   1      41.896  25.905  28.585  1.00  0.00     0.049 A 
ATOM     51  H   UNL A   1      42.616  27.633  29.499  1.00  0.00     0.167 HD
ATOM     52  C   UNL A   1      44.039  31.373  31.268  1.00  0.00     0.031 A 
ATOM     53  C   UNL A   1      42.921  25.034  28.507  1.00  0.00     0.031 A 
ATOM     54  C   UNL A   1      45.167  30.479  31.310  1.00  0.00     0.049 A 
ATOM     55  C   UNL A   1      44.267  25.436  29.050  1.00  0.00     0.074 A 
ATOM     56  C   UNL A   1      46.424  30.707  31.841  1.00  0.00     0.029 A 
ATOM     57  N   UNL A   1      45.177  29.191  30.798  1.00  0.00    -0.354 N 
ATOM     58  N   UNL A   1      44.623  26.565  29.615  1.00  0.00    -0.248 NA
ATOM     59  C   UNL A   1      45.344  24.442  28.955  1.00  0.00     0.031 C 
ATOM     60  C   UNL A   1      47.212  29.578  31.601  1.00  0.00     0.029 A 
ATOM     61  C   UNL A   1      46.426  28.620  30.978  1.00  0.00     0.049 A 
ATOM     62  H   UNL A   1      44.410  28.748  30.369  1.00  0.00     0.167 HD
ATOM     63  C   UNL A   1      45.958  26.404  29.970  1.00  0.00     0.074 A 
ATOM     64  C   UNL A   1      46.339  25.065  29.570  1.00  0.00     0.031 C 
ATOM     65  C   UNL A   1      46.792  27.286  30.575  1.00  0.00     0.031 A 
BRANCH  52  66
ATOM     66  C   UNL A   1      44.213  32.770  31.804  1.00  0.00    -0.014 A 
ATOM     67  C   UNL A   1      44.605  33.828  30.963  1.00  0.00     0.010 A 
ATOM     68  C   UNL A   1      43.941  33.039  33.158  1.00  0.00     0.010 A 
ATOM     69  C   UNL A   1      44.761  35.119  31.474  1.00  0.00     0.020 A 
ATOM     70  C   UNL A   1      44.066  34.335  33.667  1.00  0.00     0.020 A 
ATOM     71  C   UNL A   1      44.492  35.364  32.824  1.00  0.00     0.054 A 
BRANCH  71  72
ATOM     72  S   UNL A   1      44.682  37.054  33.454  1.00  0.00     0.124 S 
ATOM     73  O   UNL A   1      45.680  37.605  32.539  1.00  0.00    -0.237 OA
ATOM     74  O   UNL A   1      43.335  37.600  33.315  1.00  0.00    -0.237 OA
ATOM     75  O   UNL A   1      45.138  36.865  34.829  1.00  0.00    -0.744 OA
ENDBRANCH  71  72
ENDBRANCH  52  66
BRANCH  53  76
ATOM     76  C   UNL A   1      42.714  23.690  27.901  1.00  0.00    -0.014 A 
ATOM     77  C   UNL A   1      42.037  22.683  28.610  1.00  0.00     0.010 A 
ATOM     78  C   UNL A   1      43.187  23.411  26.605  1.00  0.00     0.010 A 
ATOM     79  C   UNL A   1      41.854  21.417  28.045  1.00  0.00     0.020 A 
ATOM     80  C   UNL A   1      42.981  22.156  26.025  1.00  0.00     0.020 A 
ATOM     81  C   UNL A   1      42.327  21.162  26.755  1.00  0.00     0.054 A 
BRANCH  81  82
ATOM     82  S   UNL A   1      42.037  19.527  26.024  1.00  0.00     0.124 S 
ATOM     83  O   UNL A   1      42.847  19.589  24.811  1.00  0.00    -0.237 OA
ATOM     84  O   UNL A   1      42.523  18.626  27.066  1.00  0.00    -0.237 OA
ATOM     85  O   UNL A   1      40.592  19.499  25.812  1.00  0.00    -0.744 OA
ENDBRANCH  81  82
ENDBRANCH  53  76
BRANCH  65  86
ATOM     86  C   UNL A   1      48.192  26.822  30.879  1.00  0.00    -0.014 A 
ATOM     87  C   UNL A   1      49.271  27.145  30.037  1.00  0.00     0.010 A 
ATOM     88  C   UNL A   1      48.439  26.098  32.061  1.00  0.00     0.010 A 
ATOM     89  C   UNL A   1      50.565  26.725  30.354  1.00  0.00     0.020 A 
ATOM     90  C   UNL A   1      49.736  25.703  32.397  1.00  0.00     0.020 A 
ATOM     91  C   UNL A   1      50.790  26.008  31.533  1.00  0.00     0.054 A 
BRANCH  91  92
ATOM     92  S   UNL A   1      52.486  25.514  31.946  1.00  0.00     0.124 S 
ATOM     93  O   UNL A   1      53.195  25.791  30.699  1.00  0.00    -0.237 OA
ATOM     94  O   UNL A   1      52.813  26.396  33.063  1.00  0.00    -0.237 OA
ATOM     95  O   UNL A   1      52.362  24.100  32.291  1.00  0.00    -0.744 OA
ENDBRANCH  91  92
ENDBRANCH  65  86
ENDBRANCH  39  40
ENDBRANCH  31  34
ENDBRANCH  29  30
ENDBRANCH  28  29
ENDBRANCH  27  28
ENDBRANCH   1  27
TORSDOF 21
ENDMDL
MODEL 3
REMARK VINA RESULT:      -9.5      2.777      3.403
REMARK SMILES CC(C)(C)c1cc(NC(=O)CSC[C@H]([NH3+])C(=O)NCCCCNC(=O)c2ccc(-c3c4nc(c(-c5ccc(S(=O)(=O)[O-])cc5)c5ccc([nH]5)c(-c5ccc(S(=O)(=O)[O-])cc5)c5nc(c(-c6ccc(S(=O)(=O)[O-])cc6)c6ccc3[nH]6)C=C5)C=C4)cc2)on1
REMARK SMILES IDX 19 1 18 2 16 3 17 4 14 6 13 7 12 8 11 9 9 10 8 11 10 13 7 14
REMARK SMILES IDX 5 15 6 16 87 17 86 18 2 19 1 20 3 21 4 22 15 23 20 27 21 28
REMARK SMILES IDX 22 29 23 30 24 31 25 33 26 34 27 35 85 36 28 37 84 38 29 39
REMARK SMILES IDX 30 40 31 41 78 42 32 43 83 44 77 45 79 46 33 47 82 48 76 49
REMARK SMILES IDX 75 50 34 52 64 53 45 54 63 55 46 56 49 57 62 58 80 59 47 60
REMARK SMILES IDX 48 61 61 63 81 64 50 65 35 66 36 67 44 68 37 69 43 70 38 71
REMARK SMILES IDX 39 72 40 73 41 74 42 75 65 76 66 77 74 78 67 79 73 80 68 81
REMARK SMILES IDX 69 82 70 83 71 84 72 85 51 86 52 87 60 88 53 89 59 90 54 91
REMARK SMILES IDX 55 92 56 93 57 94 58 95
REMARK H PARENT 18 5 8 12 15 24 15 25 15 26 23 32 79 51 49 62
REMARK Flexibility Score: inf
ROOT
ATOM      1  C   UNL A   1      31.300  29.315  24.919  1.00  0.00     0.116 C 
ENDROOT
BRANCH   1   2
ATOM      2  N   UNL A   1      30.450  29.249  23.746  1.00  0.00    -0.351 N 
ATOM      3  C   UNL A   1      29.667  28.249  23.256  1.00  0.00     0.279 C 
ATOM      4  O   UNL A   1      29.025  28.470  22.226  1.00  0.00    -0.268 OA
ATOM      5  H   UNL A   1      30.438  30.074  23.209  1.00  0.00     0.163 HD
BRANCH   3   6
ATOM      6  C   UNL A   1      29.570  26.891  23.967  1.00  0.00     0.280 C 
BRANCH   6   7
ATOM      7  C   UNL A   1      30.631  25.907  23.443  1.00  0.00     0.145 C 
BRANCH   7   8
ATOM      8  S   UNL A   1      31.730  25.197  24.719  1.00  0.00    -0.145 SA
BRANCH   8   9
ATOM      9  C   UNL A   1      30.907  23.624  25.159  1.00  0.00     0.170 C 
BRANCH   9  10
ATOM     10  C   UNL A   1      31.101  23.167  26.596  1.00  0.00     0.236 C 
ATOM     11  N   UNL A   1      32.219  22.534  27.045  1.00  0.00    -0.294 N 
ATOM     12  H   UNL A   1      32.216  22.296  28.000  1.00  0.00     0.173 HD
ATOM     13  O   UNL A   1      30.209  23.345  27.436  1.00  0.00    -0.274 OA
BRANCH  11  14
ATOM     14  C   UNL A   1      33.344  22.183  26.354  1.00  0.00     0.231 A 
ATOM     15  C   UNL A   1      35.303  22.050  25.347  1.00  0.00     0.091 A 
ATOM     16  C   UNL A   1      34.518  22.874  26.193  1.00  0.00     0.097 A 
ATOM     17  N   UNL A   1      34.650  20.915  25.059  1.00  0.00    -0.082 NA
ATOM     18  O   UNL A   1      33.433  21.002  25.701  1.00  0.00    -0.338 OA
BRANCH  15  19
ATOM     19  C   UNL A   1      36.692  22.280  24.792  1.00  0.00     0.008 C 
ATOM     20  C   UNL A   1      37.490  23.292  25.640  1.00  0.00     0.018 C 
ATOM     21  C   UNL A   1      36.607  22.835  23.354  1.00  0.00     0.018 C 
ATOM     22  C   UNL A   1      37.466  20.948  24.775  1.00  0.00     0.018 C 
ENDBRANCH  15  19
ENDBRANCH  11  14
ENDBRANCH   9  10
ENDBRANCH   8   9
ENDBRANCH   7   8
ENDBRANCH   6   7
BRANCH   6  23
ATOM     23  N   UNL A   1      28.186  26.355  23.880  1.00  0.00    -0.347 N 
ATOM     24  H   UNL A   1      28.158  25.420  24.287  1.00  0.00     0.345 HD
ATOM     25  H   UNL A   1      27.900  26.308  22.902  1.00  0.00     0.345 HD
ATOM     26  H   UNL A   1      27.551  26.967  24.392  1.00  0.00     0.345 HD
ENDBRANCH   6  23
ENDBRANCH   3   6
ENDBRANCH   1   2
BRANCH   1  27
ATOM     27  C   UNL A   1      32.772  29.220  24.538  1.00  0.00     0.023 C 
BRANCH  27  28
ATOM     28  C   UNL A   1      33.595  28.300  25.441  1.00  0.00     0.023 C 
BRANCH  28  29
ATOM     29  C   UNL A   1      34.449  29.018  26.482  1.00  0.00     0.116 C 
BRANCH  29  30
ATOM     30  N   UNL A   1      33.995  30.378  26.738  1.00  0.00    -0.352 N 
ATOM     31  C   UNL A   1      34.437  31.278  27.677  1.00  0.00     0.251 C 
ATOM     32  H   UNL A   1      33.269  30.697  26.155  1.00  0.00     0.163 HD
ATOM     33  O   UNL A   1      33.824  32.326  27.856  1.00  0.00    -0.269 OA
BRANCH  31  34
ATOM     34  C   UNL A   1      35.637  30.965  28.483  1.00  0.00     0.039 A 
ATOM     35  C   UNL A   1      35.573  29.931  29.420  1.00  0.00     0.014 A 
ATOM     36  C   UNL A   1      36.824  31.676  28.297  1.00  0.00     0.014 A 
ATOM     37  C   UNL A   1      36.724  29.565  30.121  1.00  0.00     0.010 A 
ATOM     38  C   UNL A   1      37.987  31.259  28.940  1.00  0.00     0.010 A 
ATOM     39  C   UNL A   1      37.950  30.200  29.858  1.00  0.00    -0.014 A 
BRANCH  39  40
ATOM     40  C   UNL A   1      39.204  29.766  30.526  1.00  0.00     0.031 A 
ATOM     41  C   UNL A   1      39.682  30.468  31.769  1.00  0.00     0.074 A 
ATOM     42  C   UNL A   1      39.947  28.784  29.976  1.00  0.00     0.049 A 
ATOM     43  N   UNL A   1      40.778  30.272  32.455  1.00  0.00    -0.248 NA
ATOM     44  C   UNL A   1      38.829  31.546  32.295  1.00  0.00     0.031 C 
ATOM     45  C   UNL A   1      39.615  28.054  28.750  1.00  0.00     0.029 A 
ATOM     46  N   UNL A   1      41.142  28.236  30.374  1.00  0.00    -0.354 N 
ATOM     47  C   UNL A   1      40.756  31.209  33.481  1.00  0.00     0.074 A 
ATOM     48  C   UNL A   1      39.563  32.007  33.298  1.00  0.00     0.031 C 
ATOM     49  C   UNL A   1      40.567  27.137  28.512  1.00  0.00     0.029 A 
ATOM     50  C   UNL A   1      41.599  27.241  29.540  1.00  0.00     0.049 A 
ATOM     51  H   UNL A   1      41.627  28.526  31.180  1.00  0.00     0.167 HD
ATOM     52  C   UNL A   1      41.636  31.380  34.496  1.00  0.00     0.031 A 
ATOM     53  C   UNL A   1      42.724  26.502  29.589  1.00  0.00     0.031 A 
ATOM     54  C   UNL A   1      42.818  30.578  34.681  1.00  0.00     0.049 A 
ATOM     55  C   UNL A   1      43.696  26.721  30.718  1.00  0.00     0.074 A 
ATOM     56  C   UNL A   1      43.743  30.637  35.708  1.00  0.00     0.029 A 
ATOM     57  N   UNL A   1      43.239  29.578  33.819  1.00  0.00    -0.354 N 
ATOM     58  N   UNL A   1      43.620  27.568  31.717  1.00  0.00    -0.248 NA
ATOM     59  C   UNL A   1      44.897  25.875  30.732  1.00  0.00     0.031 C 
ATOM     60  C   UNL A   1      44.755  29.710  35.438  1.00  0.00     0.029 A 
ATOM     61  C   UNL A   1      44.425  29.027  34.277  1.00  0.00     0.049 A 
ATOM     62  H   UNL A   1      42.766  29.299  33.002  1.00  0.00     0.167 HD
ATOM     63  C   UNL A   1      44.750  27.335  32.494  1.00  0.00     0.074 A 
ATOM     64  C   UNL A   1      45.481  26.260  31.859  1.00  0.00     0.031 C 
ATOM     65  C   UNL A   1      45.143  27.957  33.634  1.00  0.00     0.031 A 
BRANCH  52  66
ATOM     66  C   UNL A   1      41.356  32.479  35.487  1.00  0.00    -0.014 A 
ATOM     67  C   UNL A   1      40.566  32.247  36.628  1.00  0.00     0.010 A 
ATOM     68  C   UNL A   1      41.925  33.753  35.298  1.00  0.00     0.010 A 
ATOM     69  C   UNL A   1      40.317  33.276  37.539  1.00  0.00     0.020 A 
ATOM     70  C   UNL A   1      41.702  34.777  36.223  1.00  0.00     0.020 A 
ATOM     71  C   UNL A   1      40.885  34.536  37.330  1.00  0.00     0.054 A 
BRANCH  71  72
ATOM     72  S   UNL A   1      40.561  35.846  38.542  1.00  0.00     0.124 S 
ATOM     73  O   UNL A   1      39.838  36.827  37.736  1.00  0.00    -0.237 OA
ATOM     74  O   UNL A   1      39.765  35.156  39.553  1.00  0.00    -0.237 OA
ATOM     75  O   UNL A   1      41.894  36.258  38.974  1.00  0.00    -0.744 OA
ENDBRANCH  71  72
ENDBRANCH  52  66
BRANCH  53  76
ATOM     76  C   UNL A   1      42.989  25.477  28.542  1.00  0.00    -0.014 A 
ATOM     77  C   UNL A   1      42.601  24.140  28.737  1.00  0.00     0.010 A 
ATOM     78  C   UNL A   1      43.627  25.834  27.339  1.00  0.00     0.010 A 
ATOM     79  C   UNL A   1      42.862  23.175  27.759  1.00  0.00     0.020 A 
ATOM     80  C   UNL A   1      43.863  24.878  26.347  1.00  0.00     0.020 A 
ATOM     81  C   UNL A   1      43.491  23.551  26.569  1.00  0.00     0.054 A 
BRANCH  81  82
ATOM     82  S   UNL A   1      43.777  22.292  25.296  1.00  0.00     0.124 S 
ATOM     83  O   UNL A   1      44.984  21.634  25.786  1.00  0.00    -0.237 OA
ATOM     84  O   UNL A   1      42.553  21.498  25.356  1.00  0.00    -0.237 OA
ATOM     85  O   UNL A   1      43.943  23.074  24.073  1.00  0.00    -0.744 OA
ENDBRANCH  81  82
ENDBRANCH  53  76
BRANCH  65  86
ATOM     86  C   UNL A   1      46.405  27.465  34.293  1.00  0.00    -0.014 A 
ATOM     87  C   UNL A   1      47.651  28.056  34.024  1.00  0.00     0.010 A 
ATOM     88  C   UNL A   1      46.330  26.429  35.243  1.00  0.00     0.010 A 
ATOM     89  C   UNL A   1      48.804  27.600  34.668  1.00  0.00     0.020 A 
ATOM     90  C   UNL A   1      47.475  25.990  35.912  1.00  0.00     0.020 A 
ATOM     91  C   UNL A   1      48.709  26.569  35.609  1.00  0.00     0.054 A 
BRANCH  91  92
ATOM     92  S   UNL A   1      50.213  26.026  36.466  1.00  0.00     0.124 S 
ATOM     93  O   UNL A   1      49.839  26.187  37.868  1.00  0.00    -0.237 OA
ATOM     94  O   UNL A   1      50.360  24.647  36.009  1.00  0.00    -0.237 OA
ATOM     95  O   UNL A   1      51.238  26.949  35.984  1.00  0.00    -0.744 OA
ENDBRANCH  91  92
ENDBRANCH  65  86
ENDBRANCH  39  40
ENDBRANCH  31  34
ENDBRANCH  29  30
ENDBRANCH  28  29
ENDBRANCH  27  28
ENDBRANCH   1  27
TORSDOF 21
ENDMDL
