MODEL 1
REMARK VINA RESULT:     -11.4      0.000      0.000
REMARK SMILES C[C@@H](C(=O)NCCCCNC(=O)c1ccc(-c2c3nc(c(-c4ccc(S(=O)(=O)[O-])cc4)c4ccc([nH]4)c(-c4ccc(S(=O)(=O)[O-])cc4)c4nc(c(-c5ccc(S(=O)(=O)[O-])cc5)c5ccc2[nH]5)C=C4)C=C3)cc1)c1ccc(-c2ccccc2)cc1
REMARK SMILES IDX 8 1 7 2 6 3 5 4 3 5 4 6 2 8 1 9 73 10 74 11 84 12 75 13
REMARK SMILES IDX 83 14 76 15 77 16 78 17 82 18 79 19 81 20 80 21 9 22 10 23
REMARK SMILES IDX 11 24 12 26 13 27 14 28 72 29 15 30 71 31 16 32 17 33 18 34
REMARK SMILES IDX 65 35 19 36 70 37 64 38 66 39 20 40 69 41 63 42 62 43 21 45
REMARK SMILES IDX 51 46 32 47 50 48 33 49 36 50 49 51 67 52 34 53 35 54 48 56
REMARK SMILES IDX 68 57 37 58 22 59 23 60 31 61 24 62 30 63 25 64 26 65 27 66
REMARK SMILES IDX 28 67 29 68 52 69 53 70 61 71 54 72 60 73 55 74 56 75 57 76
REMARK SMILES IDX 58 77 59 78 38 79 39 80 47 81 40 82 46 83 41 84 42 85 43 86
REMARK SMILES IDX 44 87 45 88
REMARK H PARENT 5 7 10 25 66 44 36 55
REMARK Flexibility Score: inf
ROOT
ATOM      1  C   UNL A   1      33.799  28.173  25.753  1.00  0.00     0.023 C 
ENDROOT
BRANCH   1   2
ATOM      2  C   UNL A   1      33.062  29.067  24.752  1.00  0.00     0.023 C 
BRANCH   2   3
ATOM      3  C   UNL A   1      31.535  29.053  24.872  1.00  0.00     0.116 C 
BRANCH   3   4
ATOM      4  N   UNL A   1      30.910  29.572  23.671  1.00  0.00    -0.356 N 
ATOM      5  C   UNL A   1      30.414  28.909  22.583  1.00  0.00     0.227 C 
ATOM      6  O   UNL A   1      30.227  29.586  21.570  1.00  0.00    -0.274 OA
ATOM      7  H   UNL A   1      30.832  30.553  23.632  1.00  0.00     0.163 HD
BRANCH   5   8
ATOM      8  C   UNL A   1      30.144  27.394  22.667  1.00  0.00     0.105 C 
ATOM      9  C   UNL A   1      29.043  27.181  23.718  1.00  0.00     0.023 C 
BRANCH   8  10
ATOM     10  C   UNL A   1      31.362  26.503  22.956  1.00  0.00    -0.036 A 
ATOM     11  C   UNL A   1      32.560  26.588  22.236  1.00  0.00     0.005 A 
ATOM     12  C   UNL A   1      31.293  25.525  23.966  1.00  0.00     0.005 A 
ATOM     13  C   UNL A   1      33.680  25.827  22.594  1.00  0.00     0.009 A 
ATOM     14  C   UNL A   1      32.409  24.758  24.320  1.00  0.00     0.009 A 
ATOM     15  C   UNL A   1      33.631  24.921  23.659  1.00  0.00    -0.018 A 
BRANCH  15  16
ATOM     16  C   UNL A   1      34.829  24.190  24.091  1.00  0.00    -0.018 A 
ATOM     17  C   UNL A   1      35.447  23.263  23.234  1.00  0.00     0.009 A 
ATOM     18  C   UNL A   1      35.399  24.407  25.356  1.00  0.00     0.009 A 
ATOM     19  C   UNL A   1      36.597  22.576  23.629  1.00  0.00     0.001 A 
ATOM     20  C   UNL A   1      36.548  23.717  25.752  1.00  0.00     0.001 A 
ATOM     21  C   UNL A   1      37.145  22.801  24.888  1.00  0.00     0.000 A 
ENDBRANCH  15  16
ENDBRANCH   8  10
ENDBRANCH   5   8
ENDBRANCH   3   4
ENDBRANCH   2   3
ENDBRANCH   1   2
BRANCH   1  22
ATOM     22  C   UNL A   1      33.537  28.499  27.216  1.00  0.00     0.116 C 
BRANCH  22  23
ATOM     23  N   UNL A   1      33.452  29.930  27.465  1.00  0.00    -0.352 N 
ATOM     24  C   UNL A   1      34.396  30.758  28.023  1.00  0.00     0.251 C 
ATOM     25  H   UNL A   1      32.609  30.361  27.197  1.00  0.00     0.163 HD
ATOM     26  O   UNL A   1      34.114  31.921  28.292  1.00  0.00    -0.269 OA
BRANCH  24  27
ATOM     27  C   UNL A   1      35.740  30.222  28.323  1.00  0.00     0.039 A 
ATOM     28  C   UNL A   1      36.725  30.262  27.332  1.00  0.00     0.014 A 
ATOM     29  C   UNL A   1      36.031  29.713  29.592  1.00  0.00     0.014 A 
ATOM     30  C   UNL A   1      38.022  29.846  27.634  1.00  0.00     0.010 A 
ATOM     31  C   UNL A   1      37.339  29.365  29.908  1.00  0.00     0.010 A 
ATOM     32  C   UNL A   1      38.347  29.424  28.933  1.00  0.00    -0.014 A 
BRANCH  32  33
ATOM     33  C   UNL A   1      39.724  29.016  29.303  1.00  0.00     0.031 A 
ATOM     34  C   UNL A   1      40.639  30.008  29.968  1.00  0.00     0.074 A 
ATOM     35  C   UNL A   1      40.181  27.796  28.959  1.00  0.00     0.049 A 
ATOM     36  N   UNL A   1      41.913  29.900  30.244  1.00  0.00    -0.248 NA
ATOM     37  C   UNL A   1      40.048  31.303  30.340  1.00  0.00     0.031 C 
ATOM     38  C   UNL A   1      39.402  26.756  28.283  1.00  0.00     0.029 A 
ATOM     39  N   UNL A   1      41.423  27.232  29.115  1.00  0.00    -0.354 N 
ATOM     40  C   UNL A   1      42.283  31.123  30.790  1.00  0.00     0.074 A 
ATOM     41  C   UNL A   1      41.109  31.969  30.769  1.00  0.00     0.031 C 
ATOM     42  C   UNL A   1      40.180  25.677  28.096  1.00  0.00     0.029 A 
ATOM     43  C   UNL A   1      41.521  25.963  28.598  1.00  0.00     0.049 A 
ATOM     44  H   UNL A   1      42.171  27.694  29.557  1.00  0.00     0.167 HD
ATOM     45  C   UNL A   1      43.488  31.505  31.277  1.00  0.00     0.031 A 
ATOM     46  C   UNL A   1      42.576  25.127  28.523  1.00  0.00     0.031 A 
ATOM     47  C   UNL A   1      44.646  30.654  31.314  1.00  0.00     0.049 A 
ATOM     48  C   UNL A   1      43.902  25.565  29.081  1.00  0.00     0.074 A 
ATOM     49  C   UNL A   1      45.898  30.927  31.835  1.00  0.00     0.029 A 
ATOM     50  N   UNL A   1      44.692  29.361  30.814  1.00  0.00    -0.354 N 
ATOM     51  N   UNL A   1      44.222  26.710  29.634  1.00  0.00    -0.248 NA
ATOM     52  C   UNL A   1      45.003  24.595  29.014  1.00  0.00     0.031 C 
ATOM     53  C   UNL A   1      46.714  29.811  31.616  1.00  0.00     0.029 A 
ATOM     54  C   UNL A   1      45.954  28.826  31.004  1.00  0.00     0.049 A 
ATOM     55  H   UNL A   1      43.939  28.893  30.387  1.00  0.00     0.167 HD
ATOM     56  C   UNL A   1      45.556  26.588  30.009  1.00  0.00     0.074 A 
ATOM     57  C   UNL A   1      45.979  25.257  29.624  1.00  0.00     0.031 C 
ATOM     58  C   UNL A   1      46.355  27.496  30.622  1.00  0.00     0.031 A 
BRANCH  45  59
ATOM     59  C   UNL A   1      43.606  32.913  31.794  1.00  0.00    -0.014 A 
ATOM     60  C   UNL A   1      43.326  33.221  33.138  1.00  0.00     0.010 A 
ATOM     61  C   UNL A   1      44.008  33.945  30.926  1.00  0.00     0.010 A 
ATOM     62  C   UNL A   1      43.389  34.542  33.589  1.00  0.00     0.020 A 
ATOM     63  C   UNL A   1      44.100  35.263  31.380  1.00  0.00     0.020 A 
ATOM     64  C   UNL A   1      43.766  35.556  32.704  1.00  0.00     0.054 A 
BRANCH  64  65
ATOM     65  S   UNL A   1      43.832  37.263  33.312  1.00  0.00     0.124 S 
ATOM     66  O   UNL A   1      45.114  37.281  34.013  1.00  0.00    -0.237 OA
ATOM     67  O   UNL A   1      43.783  38.047  32.080  1.00  0.00    -0.237 OA
ATOM     68  O   UNL A   1      42.653  37.374  34.165  1.00  0.00    -0.744 OA
ENDBRANCH  64  65
ENDBRANCH  45  59
BRANCH  46  69
ATOM     69  C   UNL A   1      42.407  23.782  27.912  1.00  0.00    -0.014 A 
ATOM     70  C   UNL A   1      42.700  23.579  26.552  1.00  0.00     0.010 A 
ATOM     71  C   UNL A   1      41.986  22.689  28.693  1.00  0.00     0.010 A 
ATOM     72  C   UNL A   1      42.568  22.309  25.982  1.00  0.00     0.020 A 
ATOM     73  C   UNL A   1      41.877  21.414  28.131  1.00  0.00     0.020 A 
ATOM     74  C   UNL A   1      42.162  21.233  26.777  1.00  0.00     0.054 A 
BRANCH  74  75
ATOM     75  S   UNL A   1      42.070  19.581  26.031  1.00  0.00     0.124 S 
ATOM     76  O   UNL A   1      42.535  18.730  27.121  1.00  0.00    -0.237 OA
ATOM     77  O   UNL A   1      40.652  19.464  25.697  1.00  0.00    -0.237 OA
ATOM     78  O   UNL A   1      42.966  19.676  24.880  1.00  0.00    -0.744 OA
ENDBRANCH  74  75
ENDBRANCH  46  69
BRANCH  58  79
ATOM     79  C   UNL A   1      47.759  27.071  30.959  1.00  0.00    -0.014 A 
ATOM     80  C   UNL A   1      48.059  26.451  32.183  1.00  0.00     0.010 A 
ATOM     81  C   UNL A   1      48.776  27.231  30.001  1.00  0.00     0.010 A 
ATOM     82  C   UNL A   1      49.360  26.015  32.452  1.00  0.00     0.020 A 
ATOM     83  C   UNL A   1      50.072  26.776  30.255  1.00  0.00     0.020 A 
ATOM     84  C   UNL A   1      50.357  26.179  31.485  1.00  0.00     0.054 A 
BRANCH  84  85
ATOM     85  S   UNL A   1      52.024  25.551  31.831  1.00  0.00     0.124 S 
ATOM     86  O   UNL A   1      52.370  26.266  33.056  1.00  0.00    -0.237 OA
ATOM     87  O   UNL A   1      51.802  24.115  31.982  1.00  0.00    -0.237 OA
ATOM     88  O   UNL A   1      52.790  25.935  30.648  1.00  0.00    -0.744 OA
ENDBRANCH  84  85
ENDBRANCH  58  79
ENDBRANCH  32  33
ENDBRANCH  24  27
ENDBRANCH  22  23
ENDBRANCH   1  22
TORSDOF 16
ENDMDL
MODEL 2
REMARK VINA RESULT:     -11.1      3.042      6.164
REMARK SMILES C[C@@H](C(=O)NCCCCNC(=O)c1ccc(-c2c3nc(c(-c4ccc(S(=O)(=O)[O-])cc4)c4ccc([nH]4)c(-c4ccc(S(=O)(=O)[O-])cc4)c4nc(c(-c5ccc(S(=O)(=O)[O-])cc5)c5ccc2[nH]5)C=C4)C=C3)cc1)c1ccc(-c2ccccc2)cc1
REMARK SMILES IDX 8 1 7 2 6 3 5 4 3 5 4 6 2 8 1 9 73 10 74 11 84 12 75 13
REMARK SMILES IDX 83 14 76 15 77 16 78 17 82 18 79 19 81 20 80 21 9 22 10 23
REMARK SMILES IDX 11 24 12 26 13 27 14 28 72 29 15 30 71 31 16 32 17 33 18 34
REMARK SMILES IDX 65 35 19 36 70 37 64 38 66 39 20 40 69 41 63 42 62 43 21 45
REMARK SMILES IDX 51 46 32 47 50 48 33 49 36 50 49 51 67 52 34 53 35 54 48 56
REMARK SMILES IDX 68 57 37 58 22 59 23 60 31 61 24 62 30 63 25 64 26 65 27 66
REMARK SMILES IDX 28 67 29 68 52 69 53 70 61 71 54 72 60 73 55 74 56 75 57 76
REMARK SMILES IDX 58 77 59 78 38 79 39 80 47 81 40 82 46 83 41 84 42 85 43 86
REMARK SMILES IDX 44 87 45 88
REMARK H PARENT 5 7 10 25 66 44 36 55
REMARK Flexibility Score: inf
ROOT
ATOM      1  C   UNL A   1      35.256  33.386  28.192  1.00  0.00     0.023 C 
ENDROOT
BRANCH   1   2
ATOM      2  C   UNL A   1      36.603  33.653  28.868  1.00  0.00     0.023 C 
BRANCH   2   3
ATOM      3  C   UNL A   1      36.696  33.202  30.329  1.00  0.00     0.116 C 
BRANCH   3   4
ATOM      4  N   UNL A   1      36.663  34.337  31.231  1.00  0.00    -0.356 N 
ATOM      5  C   UNL A   1      36.317  34.398  32.552  1.00  0.00     0.227 C 
ATOM      6  O   UNL A   1      36.071  35.520  33.000  1.00  0.00    -0.274 OA
ATOM      7  H   UNL A   1      36.932  35.195  30.830  1.00  0.00     0.163 HD
BRANCH   5   8
ATOM      8  C   UNL A   1      36.231  33.104  33.383  1.00  0.00     0.105 C 
ATOM      9  C   UNL A   1      35.743  33.491  34.788  1.00  0.00     0.023 C 
BRANCH   8  10
ATOM     10  C   UNL A   1      37.513  32.259  33.458  1.00  0.00    -0.036 A 
ATOM     11  C   UNL A   1      38.754  32.786  33.838  1.00  0.00     0.005 A 
ATOM     12  C   UNL A   1      37.479  30.897  33.108  1.00  0.00     0.005 A 
ATOM     13  C   UNL A   1      39.878  31.964  33.990  1.00  0.00     0.009 A 
ATOM     14  C   UNL A   1      38.603  30.076  33.252  1.00  0.00     0.009 A 
ATOM     15  C   UNL A   1      39.814  30.591  33.727  1.00  0.00    -0.018 A 
BRANCH  15  16
ATOM     16  C   UNL A   1      40.966  29.715  33.972  1.00  0.00    -0.018 A 
ATOM     17  C   UNL A   1      42.166  30.240  34.480  1.00  0.00     0.009 A 
ATOM     18  C   UNL A   1      40.897  28.334  33.726  1.00  0.00     0.009 A 
ATOM     19  C   UNL A   1      43.262  29.413  34.733  1.00  0.00     0.001 A 
ATOM     20  C   UNL A   1      41.994  27.507  33.977  1.00  0.00     0.001 A 
ATOM     21  C   UNL A   1      43.177  28.046  34.479  1.00  0.00     0.000 A 
ENDBRANCH  15  16
ENDBRANCH   8  10
ENDBRANCH   5   8
ENDBRANCH   3   4
ENDBRANCH   2   3
ENDBRANCH   1   2
BRANCH   1  22
ATOM     22  C   UNL A   1      34.322  32.467  28.965  1.00  0.00     0.116 C 
BRANCH  22  23
ATOM     23  N   UNL A   1      33.798  31.385  28.147  1.00  0.00    -0.352 N 
ATOM     24  C   UNL A   1      34.456  30.274  27.676  1.00  0.00     0.251 C 
ATOM     25  H   UNL A   1      32.848  31.457  27.900  1.00  0.00     0.163 HD
ATOM     26  O   UNL A   1      33.904  29.523  26.879  1.00  0.00    -0.269 OA
BRANCH  24  27
ATOM     27  C   UNL A   1      35.842  30.015  28.115  1.00  0.00     0.039 A 
ATOM     28  C   UNL A   1      36.070  29.566  29.419  1.00  0.00     0.014 A 
ATOM     29  C   UNL A   1      36.908  30.186  27.228  1.00  0.00     0.014 A 
ATOM     30  C   UNL A   1      37.365  29.228  29.815  1.00  0.00     0.010 A 
ATOM     31  C   UNL A   1      38.185  29.784  27.604  1.00  0.00     0.010 A 
ATOM     32  C   UNL A   1      38.428  29.305  28.900  1.00  0.00    -0.014 A 
BRANCH  32  33
ATOM     33  C   UNL A   1      39.809  28.914  29.271  1.00  0.00     0.031 A 
ATOM     34  C   UNL A   1      40.714  29.920  29.931  1.00  0.00     0.074 A 
ATOM     35  C   UNL A   1      40.280  27.698  28.932  1.00  0.00     0.049 A 
ATOM     36  N   UNL A   1      41.988  29.827  30.207  1.00  0.00    -0.248 NA
ATOM     37  C   UNL A   1      40.108  31.210  30.298  1.00  0.00     0.031 C 
ATOM     38  C   UNL A   1      39.512  26.647  28.261  1.00  0.00     0.029 A 
ATOM     39  N   UNL A   1      41.529  27.149  29.090  1.00  0.00    -0.354 N 
ATOM     40  C   UNL A   1      42.345  31.057  30.748  1.00  0.00     0.074 A 
ATOM     41  C   UNL A   1      41.162  31.890  30.724  1.00  0.00     0.031 C 
ATOM     42  C   UNL A   1      40.303  25.576  28.078  1.00  0.00     0.029 A 
ATOM     43  C   UNL A   1      41.641  25.879  28.578  1.00  0.00     0.049 A 
ATOM     44  H   UNL A   1      42.272  27.622  29.529  1.00  0.00     0.167 HD
ATOM     45  C   UNL A   1      43.546  31.454  31.232  1.00  0.00     0.031 A 
ATOM     46  C   UNL A   1      42.705  25.055  28.505  1.00  0.00     0.031 A 
ATOM     47  C   UNL A   1      44.714  30.617  31.272  1.00  0.00     0.049 A 
ATOM     48  C   UNL A   1      44.026  25.510  29.061  1.00  0.00     0.074 A 
ATOM     49  C   UNL A   1      45.963  30.906  31.791  1.00  0.00     0.029 A 
ATOM     50  N   UNL A   1      44.774  29.323  30.777  1.00  0.00    -0.354 N 
ATOM     51  N   UNL A   1      44.334  26.662  29.609  1.00  0.00    -0.248 NA
ATOM     52  C   UNL A   1      45.139  24.553  28.998  1.00  0.00     0.031 C 
ATOM     53  C   UNL A   1      46.791  29.799  31.576  1.00  0.00     0.029 A 
ATOM     54  C   UNL A   1      46.043  28.803  30.969  1.00  0.00     0.049 A 
ATOM     55  H   UNL A   1      44.026  28.844  30.353  1.00  0.00     0.167 HD
ATOM     56  C   UNL A   1      45.669  26.556  29.984  1.00  0.00     0.074 A 
ATOM     57  C   UNL A   1      46.107  25.228  29.604  1.00  0.00     0.031 C 
ATOM     58  C   UNL A   1      46.459  27.475  30.592  1.00  0.00     0.031 A 
BRANCH  45  59
ATOM     59  C   UNL A   1      43.649  32.866  31.743  1.00  0.00    -0.014 A 
ATOM     60  C   UNL A   1      43.242  33.199  33.048  1.00  0.00     0.010 A 
ATOM     61  C   UNL A   1      44.163  33.876  30.908  1.00  0.00     0.010 A 
ATOM     62  C   UNL A   1      43.294  34.524  33.489  1.00  0.00     0.020 A 
ATOM     63  C   UNL A   1      44.243  35.197  31.355  1.00  0.00     0.020 A 
ATOM     64  C   UNL A   1      43.785  35.516  32.636  1.00  0.00     0.054 A 
BRANCH  64  65
ATOM     65  S   UNL A   1      43.835  37.230  33.228  1.00  0.00     0.124 S 
ATOM     66  O   UNL A   1      43.671  37.980  31.985  1.00  0.00    -0.237 OA
ATOM     67  O   UNL A   1      42.702  37.287  34.148  1.00  0.00    -0.237 OA
ATOM     68  O   UNL A   1      45.149  37.341  33.856  1.00  0.00    -0.744 OA
ENDBRANCH  64  65
ENDBRANCH  45  59
BRANCH  46  69
ATOM     69  C   UNL A   1      42.551  23.705  27.901  1.00  0.00    -0.014 A 
ATOM     70  C   UNL A   1      42.872  23.494  26.549  1.00  0.00     0.010 A 
ATOM     71  C   UNL A   1      42.116  22.617  28.681  1.00  0.00     0.010 A 
ATOM     72  C   UNL A   1      42.754  22.219  25.985  1.00  0.00     0.020 A 
ATOM     73  C   UNL A   1      42.021  21.338  28.125  1.00  0.00     0.020 A 
ATOM     74  C   UNL A   1      42.334  21.149  26.778  1.00  0.00     0.054 A 
BRANCH  74  75
ATOM     75  S   UNL A   1      42.260  19.492  26.042  1.00  0.00     0.124 S 
ATOM     76  O   UNL A   1      40.834  19.346  25.766  1.00  0.00    -0.237 OA
ATOM     77  O   UNL A   1      43.122  19.627  24.870  1.00  0.00    -0.237 OA
ATOM     78  O   UNL A   1      42.787  18.627  27.096  1.00  0.00    -0.744 OA
ENDBRANCH  74  75
ENDBRANCH  46  69
BRANCH  58  79
ATOM     79  C   UNL A   1      47.867  27.068  30.930  1.00  0.00    -0.014 A 
ATOM     80  C   UNL A   1      48.155  26.334  32.092  1.00  0.00     0.010 A 
ATOM     81  C   UNL A   1      48.905  27.365  30.028  1.00  0.00     0.010 A 
ATOM     82  C   UNL A   1      49.463  25.919  32.358  1.00  0.00     0.020 A 
ATOM     83  C   UNL A   1      50.209  26.932  30.278  1.00  0.00     0.020 A 
ATOM     84  C   UNL A   1      50.481  26.220  31.447  1.00  0.00     0.054 A 
BRANCH  84  85
ATOM     85  S   UNL A   1      52.161  25.619  31.781  1.00  0.00     0.124 S 
ATOM     86  O   UNL A   1      52.837  25.888  30.515  1.00  0.00    -0.237 OA
ATOM     87  O   UNL A   1      52.582  26.450  32.906  1.00  0.00    -0.237 OA
ATOM     88  O   UNL A   1      51.966  24.206  32.097  1.00  0.00    -0.744 OA
ENDBRANCH  84  85
ENDBRANCH  58  79
ENDBRANCH  32  33
ENDBRANCH  24  27
ENDBRANCH  22  23
ENDBRANCH   1  22
TORSDOF 16
ENDMDL
MODEL 3
REMARK VINA RESULT:     -11.1      2.846      9.260
REMARK SMILES C[C@@H](C(=O)NCCCCNC(=O)c1ccc(-c2c3nc(c(-c4ccc(S(=O)(=O)[O-])cc4)c4ccc([nH]4)c(-c4ccc(S(=O)(=O)[O-])cc4)c4nc(c(-c5ccc(S(=O)(=O)[O-])cc5)c5ccc2[nH]5)C=C4)C=C3)cc1)c1ccc(-c2ccccc2)cc1
REMARK SMILES IDX 8 1 7 2 6 3 5 4 3 5 4 6 2 8 1 9 73 10 74 11 84 12 75 13
REMARK SMILES IDX 83 14 76 15 77 16 78 17 82 18 79 19 81 20 80 21 9 22 10 23
REMARK SMILES IDX 11 24 12 26 13 27 14 28 72 29 15 30 71 31 16 32 17 33 18 34
REMARK SMILES IDX 65 35 19 36 70 37 64 38 66 39 20 40 69 41 63 42 62 43 21 45
REMARK SMILES IDX 51 46 32 47 50 48 33 49 36 50 49 51 67 52 34 53 35 54 48 56
REMARK SMILES IDX 68 57 37 58 22 59 23 60 31 61 24 62 30 63 25 64 26 65 27 66
REMARK SMILES IDX 28 67 29 68 52 69 53 70 61 71 54 72 60 73 55 74 56 75 57 76
REMARK SMILES IDX 58 77 59 78 38 79 39 80 47 81 40 82 46 83 41 84 42 85 43 86
REMARK SMILES IDX 44 87 45 88
REMARK H PARENT 5 7 10 25 66 44 36 55
REMARK Flexibility Score: inf
ROOT
ATOM      1  C   UNL A   1      35.312  23.072  26.261  1.00  0.00     0.023 C 
ENDROOT
BRANCH   1   2
ATOM      2  C   UNL A   1      35.148  21.566  26.039  1.00  0.00     0.023 C 
BRANCH   2   3
ATOM      3  C   UNL A   1      33.932  21.164  25.198  1.00  0.00     0.116 C 
BRANCH   3   4
ATOM      4  N   UNL A   1      33.966  21.794  23.892  1.00  0.00    -0.356 N 
ATOM      5  C   UNL A   1      33.074  22.648  23.306  1.00  0.00     0.227 C 
ATOM      6  O   UNL A   1      33.175  22.788  22.085  1.00  0.00    -0.274 OA
ATOM      7  H   UNL A   1      34.754  21.573  23.344  1.00  0.00     0.163 HD
BRANCH   5   8
ATOM      8  C   UNL A   1      32.008  23.352  24.167  1.00  0.00     0.105 C 
ATOM      9  C   UNL A   1      30.761  23.541  23.288  1.00  0.00     0.023 C 
BRANCH   8  10
ATOM     10  C   UNL A   1      32.429  24.678  24.819  1.00  0.00    -0.036 A 
ATOM     11  C   UNL A   1      33.412  25.517  24.278  1.00  0.00     0.005 A 
ATOM     12  C   UNL A   1      31.839  25.084  26.030  1.00  0.00     0.005 A 
ATOM     13  C   UNL A   1      33.697  26.764  24.849  1.00  0.00     0.009 A 
ATOM     14  C   UNL A   1      32.129  26.326  26.605  1.00  0.00     0.009 A 
ATOM     15  C   UNL A   1      33.040  27.202  26.004  1.00  0.00    -0.018 A 
BRANCH  15  16
ATOM     16  C   UNL A   1      33.274  28.544  26.551  1.00  0.00    -0.018 A 
ATOM     17  C   UNL A   1      34.514  28.875  27.124  1.00  0.00     0.009 A 
ATOM     18  C   UNL A   1      32.281  29.535  26.499  1.00  0.00     0.009 A 
ATOM     19  C   UNL A   1      34.753  30.155  27.630  1.00  0.00     0.001 A 
ATOM     20  C   UNL A   1      32.518  30.815  27.008  1.00  0.00     0.001 A 
ATOM     21  C   UNL A   1      33.754  31.123  27.574  1.00  0.00     0.000 A 
ENDBRANCH  15  16
ENDBRANCH   8  10
ENDBRANCH   5   8
ENDBRANCH   3   4
ENDBRANCH   2   3
ENDBRANCH   1   2
BRANCH   1  22
ATOM     22  C   UNL A   1      36.639  23.649  25.789  1.00  0.00     0.116 C 
BRANCH  22  23
ATOM     23  N   UNL A   1      37.737  22.702  25.915  1.00  0.00    -0.352 N 
ATOM     24  C   UNL A   1      39.012  22.929  26.374  1.00  0.00     0.251 C 
ATOM     25  H   UNL A   1      37.539  21.779  25.636  1.00  0.00     0.163 HD
ATOM     26  O   UNL A   1      39.864  22.051  26.285  1.00  0.00    -0.269 OA
BRANCH  24  27
ATOM     27  C   UNL A   1      39.351  24.249  26.943  1.00  0.00     0.039 A 
ATOM     28  C   UNL A   1      39.008  24.526  28.269  1.00  0.00     0.014 A 
ATOM     29  C   UNL A   1      40.034  25.196  26.175  1.00  0.00     0.014 A 
ATOM     30  C   UNL A   1      39.407  25.733  28.846  1.00  0.00     0.010 A 
ATOM     31  C   UNL A   1      40.488  26.367  26.773  1.00  0.00     0.010 A 
ATOM     32  C   UNL A   1      40.177  26.649  28.112  1.00  0.00    -0.014 A 
BRANCH  32  33
ATOM     33  C   UNL A   1      40.655  27.921  28.703  1.00  0.00     0.031 A 
ATOM     34  C   UNL A   1      42.058  28.010  29.240  1.00  0.00     0.074 A 
ATOM     35  C   UNL A   1      39.808  28.960  28.845  1.00  0.00     0.049 A 
ATOM     36  N   UNL A   1      42.624  28.975  29.916  1.00  0.00    -0.248 NA
ATOM     37  C   UNL A   1      42.926  26.844  29.011  1.00  0.00     0.031 C 
ATOM     38  C   UNL A   1      38.414  28.987  28.395  1.00  0.00     0.029 A 
ATOM     39  N   UNL A   1      39.993  30.189  29.429  1.00  0.00    -0.354 N 
ATOM     40  C   UNL A   1      43.900  28.520  30.224  1.00  0.00     0.074 A 
ATOM     41  C   UNL A   1      44.010  27.178  29.693  1.00  0.00     0.031 C 
ATOM     42  C   UNL A   1      37.876  30.178  28.707  1.00  0.00     0.029 A 
ATOM     43  C   UNL A   1      38.869  30.980  29.415  1.00  0.00     0.049 A 
ATOM     44  H   UNL A   1      40.850  30.475  29.819  1.00  0.00     0.167 HD
ATOM     45  C   UNL A   1      44.896  29.164  30.878  1.00  0.00     0.031 A 
ATOM     46  C   UNL A   1      38.658  32.208  29.927  1.00  0.00     0.031 A 
ATOM     47  C   UNL A   1      44.789  30.505  31.385  1.00  0.00     0.049 A 
ATOM     48  C   UNL A   1      39.781  32.912  30.638  1.00  0.00     0.074 A 
ATOM     49  C   UNL A   1      45.757  31.267  32.015  1.00  0.00     0.029 A 
ATOM     50  N   UNL A   1      43.645  31.285  31.317  1.00  0.00    -0.354 N 
ATOM     51  N   UNL A   1      40.996  32.483  30.880  1.00  0.00    -0.248 NA
ATOM     52  C   UNL A   1      39.507  34.268  31.134  1.00  0.00     0.031 C 
ATOM     53  C   UNL A   1      45.187  32.496  32.361  1.00  0.00     0.029 A 
ATOM     54  C   UNL A   1      43.878  32.518  31.902  1.00  0.00     0.049 A 
ATOM     55  H   UNL A   1      42.793  31.006  30.911  1.00  0.00     0.167 HD
ATOM     56  C   UNL A   1      41.643  33.528  31.532  1.00  0.00     0.074 A 
ATOM     57  C   UNL A   1      40.685  34.610  31.640  1.00  0.00     0.031 C 
ATOM     58  C   UNL A   1      42.916  33.587  31.993  1.00  0.00     0.031 A 
BRANCH  45  59
ATOM     59  C   UNL A   1      46.182  28.410  31.088  1.00  0.00    -0.014 A 
ATOM     60  C   UNL A   1      46.383  27.621  32.235  1.00  0.00     0.010 A 
ATOM     61  C   UNL A   1      47.202  28.487  30.122  1.00  0.00     0.010 A 
ATOM     62  C   UNL A   1      47.603  26.970  32.440  1.00  0.00     0.020 A 
ATOM     63  C   UNL A   1      48.413  27.815  30.310  1.00  0.00     0.020 A 
ATOM     64  C   UNL A   1      48.613  27.079  31.481  1.00  0.00     0.054 A 
BRANCH  64  65
ATOM     65  S   UNL A   1      50.190  26.231  31.774  1.00  0.00     0.124 S 
ATOM     66  O   UNL A   1      50.051  25.816  33.168  1.00  0.00    -0.237 OA
ATOM     67  O   UNL A   1      50.162  25.149  30.793  1.00  0.00    -0.237 OA
ATOM     68  O   UNL A   1      51.190  27.266  31.528  1.00  0.00    -0.744 OA
ENDBRANCH  64  65
ENDBRANCH  45  59
BRANCH  46  69
ATOM     69  C   UNL A   1      37.329  32.856  29.761  1.00  0.00    -0.014 A 
ATOM     70  C   UNL A   1      36.349  32.728  30.761  1.00  0.00     0.010 A 
ATOM     71  C   UNL A   1      37.048  33.632  28.622  1.00  0.00     0.010 A 
ATOM     72  C   UNL A   1      35.109  33.358  30.621  1.00  0.00     0.020 A 
ATOM     73  C   UNL A   1      35.818  34.283  28.490  1.00  0.00     0.020 A 
ATOM     74  C   UNL A   1      34.853  34.136  29.488  1.00  0.00     0.054 A 
BRANCH  74  75
ATOM     75  S   UNL A   1      33.264  35.003  29.364  1.00  0.00     0.124 S 
ATOM     76  O   UNL A   1      32.733  34.860  30.716  1.00  0.00    -0.237 OA
ATOM     77  O   UNL A   1      33.669  36.353  28.981  1.00  0.00    -0.237 OA
ATOM     78  O   UNL A   1      32.550  34.259  28.327  1.00  0.00    -0.744 OA
ENDBRANCH  74  75
ENDBRANCH  46  69
BRANCH  58  79
ATOM     79  C   UNL A   1      43.370  34.877  32.619  1.00  0.00    -0.014 A 
ATOM     80  C   UNL A   1      43.265  35.093  34.003  1.00  0.00     0.010 A 
ATOM     81  C   UNL A   1      43.977  35.857  31.814  1.00  0.00     0.010 A 
ATOM     82  C   UNL A   1      43.744  36.278  34.570  1.00  0.00     0.020 A 
ATOM     83  C   UNL A   1      44.478  37.032  32.379  1.00  0.00     0.020 A 
ATOM     84  C   UNL A   1      44.349  37.239  33.753  1.00  0.00     0.054 A 
BRANCH  84  85
ATOM     85  S   UNL A   1      45.018  38.742  34.518  1.00  0.00     0.124 S 
ATOM     86  O   UNL A   1      43.803  39.472  34.869  1.00  0.00    -0.237 OA
ATOM     87  O   UNL A   1      45.782  38.216  35.647  1.00  0.00    -0.237 OA
ATOM     88  O   UNL A   1      45.821  39.343  33.456  1.00  0.00    -0.744 OA
ENDBRANCH  84  85
ENDBRANCH  58  79
ENDBRANCH  32  33
ENDBRANCH  24  27
ENDBRANCH  22  23
ENDBRANCH   1  22
TORSDOF 16
ENDMDL
