MODEL 1
REMARK VINA RESULT:     -13.7      0.000      0.000
REMARK SMILES Cc1c(C[N@H+]2CC[C@@H](C(=O)NCCCCNC(=O)c3ccc(-c4c5nc(c(-c6ccc(S(=O)(=O)[O-])cc6)c6ccc([nH]6)c(-c6ccc(S(=O)(=O)[O-])cc6)c6nc(c(-c7ccc(S(=O)(=O)[O-])cc7)c7ccc4[nH]7)C=C6)C=C5)cc3)[C@@H]2C)cccc1[N+](=O)[O-]
REMARK SMILES IDX 13 1 12 2 11 3 9 4 10 5 8 7 5 8 6 9 79 10 7 12 80 13 4 14
REMARK SMILES IDX 3 15 1 16 2 17 84 18 81 19 83 20 82 21 85 22 86 23 87 24
REMARK SMILES IDX 14 25 15 26 16 27 17 28 18 30 19 31 20 32 78 33 21 34 77 35
REMARK SMILES IDX 22 36 23 37 24 38 71 39 25 40 76 41 70 42 72 43 26 44 75 45
REMARK SMILES IDX 69 46 68 47 27 49 57 50 38 51 56 52 39 53 42 54 55 55 73 56
REMARK SMILES IDX 40 57 41 58 54 60 74 61 43 62 28 63 29 64 37 65 30 66 36 67
REMARK SMILES IDX 31 68 32 69 33 70 34 71 35 72 58 73 59 74 67 75 60 76 66 77
REMARK SMILES IDX 61 78 62 79 63 80 64 81 65 82 44 83 45 84 53 85 46 86 52 87
REMARK SMILES IDX 47 88 48 89 49 90 50 91 51 92
REMARK H PARENT 11 6 5 11 16 29 72 48 42 59
REMARK Flexibility Score: inf
ROOT
ATOM      1  C   UNL A   1      39.330  21.030  26.204  1.00  0.00     0.023 C 
ENDROOT
BRANCH   1   2
ATOM      2  C   UNL A   1      37.481  21.343  25.062  1.00  0.00     0.116 C 
BRANCH   2   3
ATOM      3  N   UNL A   1      36.056  20.616  25.066  1.00  0.00    -0.356 N 
ATOM      4  C   UNL A   1      34.820  20.938  25.525  1.00  0.00     0.229 C 
ATOM      5  O   UNL A   1      33.897  20.173  25.222  1.00  0.00    -0.275 OA
ATOM      6  H   UNL A   1      36.080  19.732  24.635  1.00  0.00     0.163 HD
BRANCH   4   7
ATOM      7  C   UNL A   1      34.530  22.142  26.406  1.00  0.00     0.142 C 
ATOM      8  N   UNL A   1      32.479  23.420  26.402  1.00  0.00    -0.328 N 
ATOM      9  C   UNL A   1      32.555  22.717  27.683  1.00  0.00     0.263 C 
ATOM     10  C   UNL A   1      33.740  23.227  25.683  1.00  0.00     0.193 C 
ATOM     11  H   UNL A   1      32.356  24.411  26.616  1.00  0.00     0.348 HD
ATOM     12  C   UNL A   1      33.781  21.814  27.682  1.00  0.00     0.081 C 
ATOM     13  C   UNL A   1      34.477  24.560  25.598  1.00  0.00     0.076 C 
BRANCH   8  14
ATOM     14  C   UNL A   1      31.275  23.175  25.586  1.00  0.00     0.299 C 
BRANCH  14  15
ATOM     15  C   UNL A   1      30.946  24.259  24.584  1.00  0.00     0.016 A 
ATOM     16  C   UNL A   1      32.286  22.898  22.445  1.00  0.00     0.052 C 
ATOM     17  C   UNL A   1      31.726  24.195  22.955  1.00  0.00     0.036 A 
ATOM     18  C   UNL A   1      31.765  25.668  21.920  1.00  0.00     0.272 A 
ATOM     19  C   UNL A   1      30.095  25.776  25.109  1.00  0.00     0.010 A 
ATOM     20  C   UNL A   1      30.968  27.195  22.472  1.00  0.00     0.086 A 
ATOM     21  C   UNL A   1      30.126  27.252  24.060  1.00  0.00     0.008 A 
BRANCH  18  22
ATOM     22  N   UNL A   1      32.963  25.872  21.131  1.00  0.00     0.062 N 
ATOM     23  O   UNL A   1      33.909  26.369  21.752  1.00  0.00    -0.258 OA
ATOM     24  O   UNL A   1      33.013  25.314  20.028  1.00  0.00    -0.258 OA
ENDBRANCH  18  22
ENDBRANCH  14  15
ENDBRANCH   8  14
ENDBRANCH   4   7
ENDBRANCH   2   3
ENDBRANCH   1   2
BRANCH   1  25
ATOM     25  C   UNL A   1      40.318  21.941  27.317  1.00  0.00     0.023 C 
BRANCH  25  26
ATOM     26  C   UNL A   1      41.004  23.198  26.798  1.00  0.00     0.116 C 
BRANCH  26  27
ATOM     27  N   UNL A   1      40.174  24.207  26.155  1.00  0.00    -0.352 N 
ATOM     28  C   UNL A   1      39.233  24.914  26.914  1.00  0.00     0.251 C 
ATOM     29  H   UNL A   1      40.275  24.393  25.194  1.00  0.00     0.163 HD
ATOM     30  O   UNL A   1      38.033  24.686  26.945  1.00  0.00    -0.269 OA
BRANCH  28  31
ATOM     31  C   UNL A   1      39.830  25.941  27.795  1.00  0.00     0.039 A 
ATOM     32  C   UNL A   1      39.353  26.176  29.086  1.00  0.00     0.014 A 
ATOM     33  C   UNL A   1      40.715  26.824  27.187  1.00  0.00     0.014 A 
ATOM     34  C   UNL A   1      39.597  27.410  29.673  1.00  0.00     0.010 A 
ATOM     35  C   UNL A   1      40.761  28.102  27.647  1.00  0.00     0.010 A 
ATOM     36  C   UNL A   1      40.200  28.384  28.892  1.00  0.00    -0.014 A 
BRANCH  36  37
ATOM     37  C   UNL A   1      40.489  29.733  29.315  1.00  0.00     0.031 A 
ATOM     38  C   UNL A   1      39.364  30.670  29.174  1.00  0.00     0.074 A 
ATOM     39  C   UNL A   1      41.595  29.883  30.072  1.00  0.00     0.049 A 
ATOM     40  N   UNL A   1      39.458  31.941  29.270  1.00  0.00    -0.248 NA
ATOM     41  C   UNL A   1      37.995  30.241  28.844  1.00  0.00     0.031 C 
ATOM     42  C   UNL A   1      41.937  30.894  31.065  1.00  0.00     0.029 A 
ATOM     43  N   UNL A   1      42.741  29.099  30.021  1.00  0.00    -0.354 N 
ATOM     44  C   UNL A   1      38.177  32.413  29.460  1.00  0.00     0.074 A 
ATOM     45  C   UNL A   1      37.303  31.371  29.000  1.00  0.00     0.031 C 
ATOM     46  C   UNL A   1      43.269  30.863  31.281  1.00  0.00     0.029 A 
ATOM     47  C   UNL A   1      43.833  29.910  30.331  1.00  0.00     0.049 A 
ATOM     48  H   UNL A   1      42.775  28.139  29.806  1.00  0.00     0.167 HD
ATOM     49  C   UNL A   1      38.020  33.545  30.196  1.00  0.00     0.031 A 
ATOM     50  C   UNL A   1      44.777  30.186  29.382  1.00  0.00     0.031 A 
ATOM     51  C   UNL A   1      39.340  34.038  30.605  1.00  0.00     0.049 A 
ATOM     52  C   UNL A   1      44.589  31.640  29.008  1.00  0.00     0.074 A 
ATOM     53  C   UNL A   1      40.047  33.930  31.791  1.00  0.00     0.029 A 
ATOM     54  N   UNL A   1      40.273  34.340  29.617  1.00  0.00    -0.354 N 
ATOM     55  N   UNL A   1      43.427  32.249  29.003  1.00  0.00    -0.248 NA
ATOM     56  C   UNL A   1      45.714  32.552  28.834  1.00  0.00     0.031 C 
ATOM     57  C   UNL A   1      41.432  34.086  31.480  1.00  0.00     0.029 A 
ATOM     58  C   UNL A   1      41.564  34.266  30.110  1.00  0.00     0.049 A 
ATOM     59  H   UNL A   1      40.045  34.574  28.688  1.00  0.00     0.167 HD
ATOM     60  C   UNL A   1      43.642  33.600  29.009  1.00  0.00     0.074 A 
ATOM     61  C   UNL A   1      45.084  33.737  28.847  1.00  0.00     0.031 C 
ATOM     62  C   UNL A   1      42.691  34.555  29.232  1.00  0.00     0.031 A 
BRANCH  49  63
ATOM     63  C   UNL A   1      36.723  34.051  30.782  1.00  0.00    -0.014 A 
ATOM     64  C   UNL A   1      35.629  34.239  29.912  1.00  0.00     0.010 A 
ATOM     65  C   UNL A   1      36.492  34.363  32.138  1.00  0.00     0.010 A 
ATOM     66  C   UNL A   1      34.390  34.717  30.354  1.00  0.00     0.020 A 
ATOM     67  C   UNL A   1      35.255  34.852  32.597  1.00  0.00     0.020 A 
ATOM     68  C   UNL A   1      34.208  35.021  31.699  1.00  0.00     0.054 A 
BRANCH  68  69
ATOM     69  S   UNL A   1      32.579  35.593  32.248  1.00  0.00     0.124 S 
ATOM     70  O   UNL A   1      32.095  34.458  33.029  1.00  0.00    -0.237 OA
ATOM     71  O   UNL A   1      32.911  36.791  33.014  1.00  0.00    -0.237 OA
ATOM     72  O   UNL A   1      31.858  35.837  31.000  1.00  0.00    -0.744 OA
ENDBRANCH  68  69
ENDBRANCH  49  63
BRANCH  50  73
ATOM     73  C   UNL A   1      45.045  29.006  28.491  1.00  0.00    -0.014 A 
ATOM     74  C   UNL A   1      44.768  29.208  27.114  1.00  0.00     0.010 A 
ATOM     75  C   UNL A   1      46.019  28.050  28.836  1.00  0.00     0.010 A 
ATOM     76  C   UNL A   1      45.604  28.674  26.126  1.00  0.00     0.020 A 
ATOM     77  C   UNL A   1      46.856  27.509  27.838  1.00  0.00     0.020 A 
ATOM     78  C   UNL A   1      46.698  27.901  26.505  1.00  0.00     0.054 A 
BRANCH  78  79
ATOM     79  S   UNL A   1      48.007  27.606  25.271  1.00  0.00     0.124 S 
ATOM     80  O   UNL A   1      47.340  27.941  24.017  1.00  0.00    -0.237 OA
ATOM     81  O   UNL A   1      49.055  28.537  25.705  1.00  0.00    -0.237 OA
ATOM     82  O   UNL A   1      48.331  26.196  25.451  1.00  0.00    -0.744 OA
ENDBRANCH  78  79
ENDBRANCH  50  73
BRANCH  62  83
ATOM     83  C   UNL A   1      42.787  35.931  28.626  1.00  0.00    -0.014 A 
ATOM     84  C   UNL A   1      42.436  36.199  27.296  1.00  0.00     0.010 A 
ATOM     85  C   UNL A   1      43.067  37.044  29.455  1.00  0.00     0.010 A 
ATOM     86  C   UNL A   1      42.468  37.494  26.786  1.00  0.00     0.020 A 
ATOM     87  C   UNL A   1      43.013  38.351  28.979  1.00  0.00     0.020 A 
ATOM     88  C   UNL A   1      42.757  38.561  27.632  1.00  0.00     0.054 A 
BRANCH  88  89
ATOM     89  S   UNL A   1      42.770  40.223  26.941  1.00  0.00     0.124 S 
ATOM     90  O   UNL A   1      43.333  40.995  28.046  1.00  0.00    -0.237 OA
ATOM     91  O   UNL A   1      43.637  40.075  25.774  1.00  0.00    -0.237 OA
ATOM     92  O   UNL A   1      41.367  40.487  26.641  1.00  0.00    -0.744 OA
ENDBRANCH  88  89
ENDBRANCH  62  83
ENDBRANCH  36  37
ENDBRANCH  28  31
ENDBRANCH  26  27
ENDBRANCH  25  26
ENDBRANCH   1  25
TORSDOF 17
ENDMDL
MODEL 2
REMARK VINA RESULT:     -12.8      5.307      9.442
REMARK SMILES Cc1c(C[N@H+]2CC[C@@H](C(=O)NCCCCNC(=O)c3ccc(-c4c5nc(c(-c6ccc(S(=O)(=O)[O-])cc6)c6ccc([nH]6)c(-c6ccc(S(=O)(=O)[O-])cc6)c6nc(c(-c7ccc(S(=O)(=O)[O-])cc7)c7ccc4[nH]7)C=C6)C=C5)cc3)[C@@H]2C)cccc1[N+](=O)[O-]
REMARK SMILES IDX 13 1 12 2 11 3 9 4 10 5 8 7 5 8 6 9 79 10 7 12 80 13 4 14
REMARK SMILES IDX 3 15 1 16 2 17 84 18 81 19 83 20 82 21 85 22 86 23 87 24
REMARK SMILES IDX 14 25 15 26 16 27 17 28 18 30 19 31 20 32 78 33 21 34 77 35
REMARK SMILES IDX 22 36 23 37 24 38 71 39 25 40 76 41 70 42 72 43 26 44 75 45
REMARK SMILES IDX 69 46 68 47 27 49 57 50 38 51 56 52 39 53 42 54 55 55 73 56
REMARK SMILES IDX 40 57 41 58 54 60 74 61 43 62 28 63 29 64 37 65 30 66 36 67
REMARK SMILES IDX 31 68 32 69 33 70 34 71 35 72 58 73 59 74 67 75 60 76 66 77
REMARK SMILES IDX 61 78 62 79 63 80 64 81 65 82 44 83 45 84 53 85 46 86 52 87
REMARK SMILES IDX 47 88 48 89 49 90 50 91 51 92
REMARK H PARENT 11 6 5 11 16 29 72 48 42 59
REMARK Flexibility Score: inf
ROOT
ATOM      1  C   UNL A   1      39.442  21.847  26.452  1.00  0.00     0.023 C 
ENDROOT
BRANCH   1   2
ATOM      2  C   UNL A   1      37.793  21.759  25.005  1.00  0.00     0.116 C 
BRANCH   2   3
ATOM      3  N   UNL A   1      36.425  20.931  24.952  1.00  0.00    -0.356 N 
ATOM      4  C   UNL A   1      35.166  21.135  25.414  1.00  0.00     0.229 C 
ATOM      5  O   UNL A   1      34.304  20.322  25.058  1.00  0.00    -0.275 OA
ATOM      6  H   UNL A   1      36.519  20.076  24.474  1.00  0.00     0.163 HD
BRANCH   4   7
ATOM      7  C   UNL A   1      34.780  22.265  26.355  1.00  0.00     0.142 C 
ATOM      8  N   UNL A   1      32.625  23.355  26.427  1.00  0.00    -0.328 N 
ATOM      9  C   UNL A   1      32.777  22.599  27.672  1.00  0.00     0.263 C 
ATOM     10  C   UNL A   1      33.890  23.309  25.691  1.00  0.00     0.193 C 
ATOM     11  H   UNL A   1      32.417  24.319  26.691  1.00  0.00     0.348 HD
ATOM     12  C   UNL A   1      34.077  21.810  27.618  1.00  0.00     0.081 C 
ATOM     13  C   UNL A   1      34.506  24.705  25.668  1.00  0.00     0.076 C 
BRANCH   8  14
ATOM     14  C   UNL A   1      31.438  23.044  25.608  1.00  0.00     0.299 C 
BRANCH  14  15
ATOM     15  C   UNL A   1      31.045  24.115  24.615  1.00  0.00     0.016 A 
ATOM     16  C   UNL A   1      32.436  22.835  22.458  1.00  0.00     0.052 C 
ATOM     17  C   UNL A   1      31.813  24.099  22.979  1.00  0.00     0.036 A 
ATOM     18  C   UNL A   1      31.767  25.577  21.951  1.00  0.00     0.272 A 
ATOM     19  C   UNL A   1      30.121  25.582  25.155  1.00  0.00     0.010 A 
ATOM     20  C   UNL A   1      30.896  27.058  22.518  1.00  0.00     0.086 A 
ATOM     21  C   UNL A   1      30.066  27.064  24.113  1.00  0.00     0.008 A 
BRANCH  18  22
ATOM     22  N   UNL A   1      32.946  25.846  21.154  1.00  0.00     0.062 N 
ATOM     23  O   UNL A   1      33.959  26.116  21.809  1.00  0.00    -0.258 OA
ATOM     24  O   UNL A   1      32.899  25.539  19.956  1.00  0.00    -0.258 OA
ENDBRANCH  18  22
ENDBRANCH  14  15
ENDBRANCH   8  14
ENDBRANCH   4   7
ENDBRANCH   2   3
ENDBRANCH   1   2
BRANCH   1  25
ATOM     25  C   UNL A   1      40.462  23.075  27.158  1.00  0.00     0.023 C 
BRANCH  25  26
ATOM     26  C   UNL A   1      39.850  24.445  27.423  1.00  0.00     0.116 C 
BRANCH  26  27
ATOM     27  N   UNL A   1      40.667  25.618  27.147  1.00  0.00    -0.352 N 
ATOM     28  C   UNL A   1      40.186  26.889  27.482  1.00  0.00     0.251 C 
ATOM     29  H   UNL A   1      41.552  25.518  26.729  1.00  0.00     0.163 HD
ATOM     30  O   UNL A   1      39.688  27.687  26.701  1.00  0.00    -0.269 OA
BRANCH  28  31
ATOM     31  C   UNL A   1      40.229  27.178  28.932  1.00  0.00     0.039 A 
ATOM     32  C   UNL A   1      39.075  27.460  29.665  1.00  0.00     0.014 A 
ATOM     33  C   UNL A   1      41.491  27.403  29.469  1.00  0.00     0.014 A 
ATOM     34  C   UNL A   1      39.194  28.172  30.851  1.00  0.00     0.010 A 
ATOM     35  C   UNL A   1      41.602  28.291  30.493  1.00  0.00     0.010 A 
ATOM     36  C   UNL A   1      40.448  28.668  31.178  1.00  0.00    -0.014 A 
BRANCH  36  37
ATOM     37  C   UNL A   1      40.753  29.465  32.341  1.00  0.00     0.031 A 
ATOM     38  C   UNL A   1      41.154  28.688  33.524  1.00  0.00     0.074 A 
ATOM     39  C   UNL A   1      40.958  30.778  32.111  1.00  0.00     0.049 A 
ATOM     40  N   UNL A   1      41.248  29.161  34.708  1.00  0.00    -0.248 NA
ATOM     41  C   UNL A   1      41.437  27.244  33.482  1.00  0.00     0.031 C 
ATOM     42  C   UNL A   1      41.741  31.761  32.850  1.00  0.00     0.029 A 
ATOM     43  N   UNL A   1      40.383  31.536  31.099  1.00  0.00    -0.354 N 
ATOM     44  C   UNL A   1      41.995  28.254  35.430  1.00  0.00     0.074 A 
ATOM     45  C   UNL A   1      41.922  27.018  34.704  1.00  0.00     0.031 C 
ATOM     46  C   UNL A   1      41.354  32.999  32.476  1.00  0.00     0.029 A 
ATOM     47  C   UNL A   1      40.217  32.837  31.576  1.00  0.00     0.049 A 
ATOM     48  H   UNL A   1      40.137  31.213  30.202  1.00  0.00     0.167 HD
ATOM     49  C   UNL A   1      42.769  28.733  36.441  1.00  0.00     0.031 A 
ATOM     50  C   UNL A   1      38.963  33.345  31.768  1.00  0.00     0.031 A 
ATOM     51  C   UNL A   1      42.581  30.185  36.544  1.00  0.00     0.049 A 
ATOM     52  C   UNL A   1      38.765  33.431  33.265  1.00  0.00     0.074 A 
ATOM     53  C   UNL A   1      43.335  31.255  36.093  1.00  0.00     0.029 A 
ATOM     54  N   UNL A   1      41.297  30.674  36.768  1.00  0.00    -0.354 N 
ATOM     55  N   UNL A   1      39.289  32.587  34.121  1.00  0.00    -0.248 NA
ATOM     56  C   UNL A   1      38.153  34.590  33.906  1.00  0.00     0.031 C 
ATOM     57  C   UNL A   1      42.458  32.374  35.968  1.00  0.00     0.029 A 
ATOM     58  C   UNL A   1      41.175  31.978  36.321  1.00  0.00     0.049 A 
ATOM     59  H   UNL A   1      40.571  30.161  37.189  1.00  0.00     0.167 HD
ATOM     60  C   UNL A   1      39.254  33.150  35.367  1.00  0.00     0.074 A 
ATOM     61  C   UNL A   1      38.485  34.375  35.189  1.00  0.00     0.031 C 
ATOM     62  C   UNL A   1      39.905  32.678  36.472  1.00  0.00     0.031 A 
BRANCH  49  63
ATOM     63  C   UNL A   1      43.881  27.985  37.138  1.00  0.00    -0.014 A 
ATOM     64  C   UNL A   1      43.664  26.633  37.473  1.00  0.00     0.010 A 
ATOM     65  C   UNL A   1      45.138  28.515  37.498  1.00  0.00     0.010 A 
ATOM     66  C   UNL A   1      44.625  25.858  38.133  1.00  0.00     0.020 A 
ATOM     67  C   UNL A   1      46.112  27.752  38.168  1.00  0.00     0.020 A 
ATOM     68  C   UNL A   1      45.849  26.422  38.477  1.00  0.00     0.054 A 
BRANCH  68  69
ATOM     69  S   UNL A   1      47.089  25.380  39.288  1.00  0.00     0.124 S 
ATOM     70  O   UNL A   1      47.898  24.921  38.162  1.00  0.00    -0.237 OA
ATOM     71  O   UNL A   1      47.744  26.321  40.193  1.00  0.00    -0.237 OA
ATOM     72  O   UNL A   1      46.296  24.342  39.944  1.00  0.00    -0.744 OA
ENDBRANCH  68  69
ENDBRANCH  49  63
BRANCH  50  73
ATOM     73  C   UNL A   1      37.999  32.887  30.709  1.00  0.00    -0.014 A 
ATOM     74  C   UNL A   1      36.769  32.368  31.190  1.00  0.00     0.010 A 
ATOM     75  C   UNL A   1      38.018  33.458  29.422  1.00  0.00     0.010 A 
ATOM     76  C   UNL A   1      35.565  32.642  30.529  1.00  0.00     0.020 A 
ATOM     77  C   UNL A   1      36.805  33.727  28.756  1.00  0.00     0.020 A 
ATOM     78  C   UNL A   1      35.588  33.399  29.360  1.00  0.00     0.054 A 
BRANCH  78  79
ATOM     79  S   UNL A   1      34.018  34.121  28.778  1.00  0.00     0.124 S 
ATOM     80  O   UNL A   1      34.462  35.328  28.089  1.00  0.00    -0.237 OA
ATOM     81  O   UNL A   1      33.488  33.055  27.920  1.00  0.00    -0.237 OA
ATOM     82  O   UNL A   1      33.269  34.342  30.009  1.00  0.00    -0.744 OA
ENDBRANCH  78  79
ENDBRANCH  50  73
BRANCH  62  83
ATOM     83  C   UNL A   1      39.372  32.895  37.864  1.00  0.00    -0.014 A 
ATOM     84  C   UNL A   1      40.013  33.717  38.801  1.00  0.00     0.010 A 
ATOM     85  C   UNL A   1      38.087  32.409  38.206  1.00  0.00     0.010 A 
ATOM     86  C   UNL A   1      39.457  33.954  40.055  1.00  0.00     0.020 A 
ATOM     87  C   UNL A   1      37.481  32.715  39.421  1.00  0.00     0.020 A 
ATOM     88  C   UNL A   1      38.195  33.451  40.356  1.00  0.00     0.054 A 
BRANCH  88  89
ATOM     89  S   UNL A   1      37.501  33.795  41.981  1.00  0.00     0.124 S 
ATOM     90  O   UNL A   1      38.554  33.292  42.861  1.00  0.00    -0.237 OA
ATOM     91  O   UNL A   1      37.344  35.247  41.958  1.00  0.00    -0.237 OA
ATOM     92  O   UNL A   1      36.254  33.037  41.995  1.00  0.00    -0.744 OA
ENDBRANCH  88  89
ENDBRANCH  62  83
ENDBRANCH  36  37
ENDBRANCH  28  31
ENDBRANCH  26  27
ENDBRANCH  25  26
ENDBRANCH   1  25
TORSDOF 17
ENDMDL
MODEL 3
REMARK VINA RESULT:     -12.7      1.677      2.301
REMARK SMILES Cc1c(C[N@H+]2CC[C@@H](C(=O)NCCCCNC(=O)c3ccc(-c4c5nc(c(-c6ccc(S(=O)(=O)[O-])cc6)c6ccc([nH]6)c(-c6ccc(S(=O)(=O)[O-])cc6)c6nc(c(-c7ccc(S(=O)(=O)[O-])cc7)c7ccc4[nH]7)C=C6)C=C5)cc3)[C@@H]2C)cccc1[N+](=O)[O-]
REMARK SMILES IDX 13 1 12 2 11 3 9 4 10 5 8 7 5 8 6 9 79 10 7 12 80 13 4 14
REMARK SMILES IDX 3 15 1 16 2 17 84 18 81 19 83 20 82 21 85 22 86 23 87 24
REMARK SMILES IDX 14 25 15 26 16 27 17 28 18 30 19 31 20 32 78 33 21 34 77 35
REMARK SMILES IDX 22 36 23 37 24 38 71 39 25 40 76 41 70 42 72 43 26 44 75 45
REMARK SMILES IDX 69 46 68 47 27 49 57 50 38 51 56 52 39 53 42 54 55 55 73 56
REMARK SMILES IDX 40 57 41 58 54 60 74 61 43 62 28 63 29 64 37 65 30 66 36 67
REMARK SMILES IDX 31 68 32 69 33 70 34 71 35 72 58 73 59 74 67 75 60 76 66 77
REMARK SMILES IDX 61 78 62 79 63 80 64 81 65 82 44 83 45 84 53 85 46 86 52 87
REMARK SMILES IDX 47 88 48 89 49 90 50 91 51 92
REMARK H PARENT 11 6 5 11 16 29 72 48 42 59
REMARK Flexibility Score: inf
ROOT
ATOM      1  C   UNL A   1      39.332  21.193  26.108  1.00  0.00     0.023 C 
ENDROOT
BRANCH   1   2
ATOM      2  C   UNL A   1      37.214  21.391  25.563  1.00  0.00     0.116 C 
BRANCH   2   3
ATOM      3  N   UNL A   1      35.861  21.405  26.416  1.00  0.00    -0.356 N 
ATOM      4  C   UNL A   1      34.548  21.590  26.123  1.00  0.00     0.229 C 
ATOM      5  O   UNL A   1      33.741  21.390  27.038  1.00  0.00    -0.275 OA
ATOM      6  H   UNL A   1      36.015  21.242  27.374  1.00  0.00     0.163 HD
BRANCH   4   7
ATOM      7  C   UNL A   1      34.039  22.058  24.770  1.00  0.00     0.142 C 
ATOM      8  N   UNL A   1      33.600  24.353  24.155  1.00  0.00    -0.328 N 
ATOM      9  C   UNL A   1      34.753  23.902  23.373  1.00  0.00     0.263 C 
ATOM     10  C   UNL A   1      33.044  23.208  24.879  1.00  0.00     0.193 C 
ATOM     11  H   UNL A   1      32.911  24.704  23.488  1.00  0.00     0.348 HD
ATOM     12  C   UNL A   1      35.128  22.493  23.811  1.00  0.00     0.081 C 
ATOM     13  C   UNL A   1      31.668  22.877  24.309  1.00  0.00     0.076 C 
BRANCH   8  14
ATOM     14  C   UNL A   1      33.798  25.555  24.987  1.00  0.00     0.299 C 
BRANCH  14  15
ATOM     15  C   UNL A   1      33.045  26.784  24.529  1.00  0.00     0.016 A 
ATOM     16  C   UNL A   1      34.452  28.504  26.343  1.00  0.00     0.052 C 
ATOM     17  C   UNL A   1      33.248  28.318  25.463  1.00  0.00     0.036 A 
ATOM     18  C   UNL A   1      32.046  29.646  25.281  1.00  0.00     0.272 A 
ATOM     19  C   UNL A   1      31.699  26.646  23.318  1.00  0.00     0.010 A 
ATOM     20  C   UNL A   1      30.670  29.481  24.117  1.00  0.00     0.086 A 
ATOM     21  C   UNL A   1      30.497  27.989  23.128  1.00  0.00     0.008 A 
BRANCH  18  22
ATOM     22  N   UNL A   1      31.727  30.398  26.478  1.00  0.00     0.062 N 
ATOM     23  O   UNL A   1      31.620  31.618  26.305  1.00  0.00    -0.258 OA
ATOM     24  O   UNL A   1      31.351  29.754  27.465  1.00  0.00    -0.258 OA
ENDBRANCH  18  22
ENDBRANCH  14  15
ENDBRANCH   8  14
ENDBRANCH   4   7
ENDBRANCH   2   3
ENDBRANCH   1   2
BRANCH   1  25
ATOM     25  C   UNL A   1      40.502  22.088  27.043  1.00  0.00     0.023 C 
BRANCH  25  26
ATOM     26  C   UNL A   1      40.932  23.456  26.528  1.00  0.00     0.116 C 
BRANCH  26  27
ATOM     27  N   UNL A   1      39.889  24.384  26.114  1.00  0.00    -0.352 N 
ATOM     28  C   UNL A   1      38.980  24.868  27.062  1.00  0.00     0.251 C 
ATOM     29  H   UNL A   1      39.824  24.669  25.175  1.00  0.00     0.163 HD
ATOM     30  O   UNL A   1      37.839  24.461  27.223  1.00  0.00    -0.269 OA
BRANCH  28  31
ATOM     31  C   UNL A   1      39.552  25.888  27.968  1.00  0.00     0.039 A 
ATOM     32  C   UNL A   1      38.989  26.171  29.214  1.00  0.00     0.014 A 
ATOM     33  C   UNL A   1      40.517  26.720  27.413  1.00  0.00     0.014 A 
ATOM     34  C   UNL A   1      39.241  27.406  29.795  1.00  0.00     0.010 A 
ATOM     35  C   UNL A   1      40.584  28.005  27.852  1.00  0.00     0.010 A 
ATOM     36  C   UNL A   1      39.943  28.338  29.045  1.00  0.00    -0.014 A 
BRANCH  36  37
ATOM     37  C   UNL A   1      40.257  29.682  29.463  1.00  0.00     0.031 A 
ATOM     38  C   UNL A   1      39.162  30.648  29.283  1.00  0.00     0.074 A 
ATOM     39  C   UNL A   1      41.345  29.809  30.249  1.00  0.00     0.049 A 
ATOM     40  N   UNL A   1      39.288  31.916  29.370  1.00  0.00    -0.248 NA
ATOM     41  C   UNL A   1      37.791  30.253  28.919  1.00  0.00     0.031 C 
ATOM     42  C   UNL A   1      41.687  30.820  31.243  1.00  0.00     0.029 A 
ATOM     43  N   UNL A   1      42.470  28.994  30.237  1.00  0.00    -0.354 N 
ATOM     44  C   UNL A   1      38.015  32.425  29.520  1.00  0.00     0.074 A 
ATOM     45  C   UNL A   1      37.126  31.403  29.045  1.00  0.00     0.031 C 
ATOM     46  C   UNL A   1      43.011  30.755  31.496  1.00  0.00     0.029 A 
ATOM     47  C   UNL A   1      43.575  29.778  30.570  1.00  0.00     0.049 A 
ATOM     48  H   UNL A   1      42.484  28.031  30.032  1.00  0.00     0.167 HD
ATOM     49  C   UNL A   1      37.870  33.568  30.242  1.00  0.00     0.031 A 
ATOM     50  C   UNL A   1      44.552  30.020  29.646  1.00  0.00     0.031 A 
ATOM     51  C   UNL A   1      39.191  34.029  30.683  1.00  0.00     0.049 A 
ATOM     52  C   UNL A   1      44.415  31.474  29.254  1.00  0.00     0.074 A 
ATOM     53  C   UNL A   1      39.861  33.913  31.889  1.00  0.00     0.029 A 
ATOM     54  N   UNL A   1      40.159  34.295  29.718  1.00  0.00    -0.354 N 
ATOM     55  N   UNL A   1      43.270  32.114  29.211  1.00  0.00    -0.248 NA
ATOM     56  C   UNL A   1      45.568  32.353  29.103  1.00  0.00     0.031 C 
ATOM     57  C   UNL A   1      41.258  34.028  31.615  1.00  0.00     0.029 A 
ATOM     58  C   UNL A   1      41.433  34.192  30.248  1.00  0.00     0.049 A 
ATOM     59  H   UNL A   1      39.963  34.527  28.782  1.00  0.00     0.167 HD
ATOM     60  C   UNL A   1      43.521  33.459  29.211  1.00  0.00     0.074 A 
ATOM     61  C   UNL A   1      44.971  33.555  29.088  1.00  0.00     0.031 C 
ATOM     62  C   UNL A   1      42.591  34.442  29.399  1.00  0.00     0.031 A 
BRANCH  49  63
ATOM     63  C   UNL A   1      36.571  34.115  30.787  1.00  0.00    -0.014 A 
ATOM     64  C   UNL A   1      35.500  34.300  29.889  1.00  0.00     0.010 A 
ATOM     65  C   UNL A   1      36.319  34.467  32.128  1.00  0.00     0.010 A 
ATOM     66  C   UNL A   1      34.261  34.814  30.293  1.00  0.00     0.020 A 
ATOM     67  C   UNL A   1      35.083  34.992  32.549  1.00  0.00     0.020 A 
ATOM     68  C   UNL A   1      34.058  35.157  31.625  1.00  0.00     0.054 A 
BRANCH  68  69
ATOM     69  S   UNL A   1      32.430  35.775  32.124  1.00  0.00     0.124 S 
ATOM     70  O   UNL A   1      32.773  36.883  33.011  1.00  0.00    -0.237 OA
ATOM     71  O   UNL A   1      31.834  36.153  30.845  1.00  0.00    -0.237 OA
ATOM     72  O   UNL A   1      31.807  34.628  32.780  1.00  0.00    -0.744 OA
ENDBRANCH  68  69
ENDBRANCH  49  63
BRANCH  50  73
ATOM     73  C   UNL A   1      44.812  28.823  28.773  1.00  0.00    -0.014 A 
ATOM     74  C   UNL A   1      44.156  28.835  27.515  1.00  0.00     0.010 A 
ATOM     75  C   UNL A   1      46.013  28.097  28.886  1.00  0.00     0.010 A 
ATOM     76  C   UNL A   1      44.800  28.364  26.363  1.00  0.00     0.020 A 
ATOM     77  C   UNL A   1      46.656  27.619  27.726  1.00  0.00     0.020 A 
ATOM     78  C   UNL A   1      46.086  27.841  26.469  1.00  0.00     0.054 A 
BRANCH  78  79
ATOM     79  S   UNL A   1      47.065  27.666  24.941  1.00  0.00     0.124 S 
ATOM     80  O   UNL A   1      46.519  26.447  24.354  1.00  0.00    -0.237 OA
ATOM     81  O   UNL A   1      46.754  28.911  24.230  1.00  0.00    -0.237 OA
ATOM     82  O   UNL A   1      48.436  27.567  25.428  1.00  0.00    -0.744 OA
ENDBRANCH  78  79
ENDBRANCH  50  73
BRANCH  62  83
ATOM     83  C   UNL A   1      42.742  35.809  28.784  1.00  0.00    -0.014 A 
ATOM     84  C   UNL A   1      42.005  36.221  27.665  1.00  0.00     0.010 A 
ATOM     85  C   UNL A   1      43.514  36.794  29.445  1.00  0.00     0.010 A 
ATOM     86  C   UNL A   1      42.114  37.515  27.164  1.00  0.00     0.020 A 
ATOM     87  C   UNL A   1      43.560  38.114  29.007  1.00  0.00     0.020 A 
ATOM     88  C   UNL A   1      42.892  38.453  27.838  1.00  0.00     0.054 A 
BRANCH  88  89
ATOM     89  S   UNL A   1      42.994  40.121  27.171  1.00  0.00     0.124 S 
ATOM     90  O   UNL A   1      41.942  40.095  26.157  1.00  0.00    -0.237 OA
ATOM     91  O   UNL A   1      42.716  40.949  28.341  1.00  0.00    -0.237 OA
ATOM     92  O   UNL A   1      44.357  40.209  26.659  1.00  0.00    -0.744 OA
ENDBRANCH  88  89
ENDBRANCH  62  83
ENDBRANCH  36  37
ENDBRANCH  28  31
ENDBRANCH  26  27
ENDBRANCH  25  26
ENDBRANCH   1  25
TORSDOF 17
ENDMDL
