MODEL 1
REMARK VINA RESULT:     -11.1      0.000      0.000
REMARK SMILES CS(=O)(=O)Nc1ccc(-c2cc(Cl)cc3c2O[C@H](C(F)(F)F)C(C(=O)NCCCCNC(=O)c2ccc(-c4c5nc(c(-c6ccc(S(=O)(=O)[O-])cc6)c6ccc([nH]6)c(-c6ccc(S(=O)(=O)[O-])cc6)c6nc(c(-c7ccc(S(=O)(=O)[O-])cc7)c7ccc4[nH]7)C=C6)C=C5)cc2)=C3)cc1
REMARK SMILES IDX 28 1 27 2 26 3 24 4 25 5 23 7 10 8 11 9 16 10 12 11 15 12
REMARK SMILES IDX 17 13 13 14 14 15 94 16 18 17 9 18 6 19 7 20 96 21 8 22
REMARK SMILES IDX 95 23 5 24 2 26 1 27 3 28 4 29 19 30 20 31 21 32 22 33 29 34
REMARK SMILES IDX 30 35 31 36 32 37 33 39 34 40 35 41 93 42 36 43 92 44 37 45
REMARK SMILES IDX 38 46 39 47 86 48 40 49 91 50 85 51 87 52 41 53 90 54 84 55
REMARK SMILES IDX 83 56 42 58 72 59 53 60 71 61 54 62 57 63 70 64 88 65 55 66
REMARK SMILES IDX 56 67 69 69 89 70 58 71 43 72 44 73 52 74 45 75 51 76 46 77
REMARK SMILES IDX 47 78 48 79 49 80 50 81 73 82 74 83 82 84 75 85 81 86 76 87
REMARK SMILES IDX 77 88 78 89 79 90 80 91 59 92 60 93 68 94 61 95 67 96 62 97
REMARK SMILES IDX 63 98 64 99 65 100 66 101
REMARK H PARENT 26 6 5 25 31 38 87 57 57 68
REMARK Flexibility Score: inf
ROOT
ATOM      1  C   UNL A   1      34.449  24.053  27.124  1.00  0.00     0.023 C 
ENDROOT
BRANCH   1   2
ATOM      2  C   UNL A   1      33.271  24.578  26.291  1.00  0.00     0.116 C 
BRANCH   2   3
ATOM      3  N   UNL A   1      33.464  25.984  26.005  1.00  0.00    -0.352 N 
ATOM      4  C   UNL A   1      33.265  26.661  24.850  1.00  0.00     0.251 C 
ATOM      5  O   UNL A   1      33.977  27.631  24.613  1.00  0.00    -0.270 OA
ATOM      6  H   UNL A   1      33.789  26.526  26.759  1.00  0.00     0.163 HD
BRANCH   4   7
ATOM      7  C   UNL A   1      32.119  26.268  23.974  1.00  0.00     0.067 C 
ATOM      8  C   UNL A   1      32.929  22.288  23.631  1.00  0.00     0.026 A 
ATOM      9  C   UNL A   1      34.323  22.185  23.373  1.00  0.00     0.033 A 
ATOM     10  C   UNL A   1      32.371  23.571  23.498  1.00  0.00     0.135 A 
ATOM     11  C   UNL A   1      35.073  23.232  22.845  1.00  0.00     0.042 A 
ATOM     12  C   UNL A   1      33.118  24.585  22.844  1.00  0.00     0.019 A 
ATOM     13  O   UNL A   1      31.142  23.928  24.037  1.00  0.00    -0.475 OA
ATOM     14  Cl  UNL A   1      36.761  23.029  22.595  1.00  0.00    -0.084 Cl
ATOM     15  C   UNL A   1      34.456  24.415  22.500  1.00  0.00     0.032 A 
ATOM     16  C   UNL A   1      32.509  25.929  22.729  1.00  0.00     0.025 C 
ATOM     17  C   UNL A   1      31.121  25.310  24.617  1.00  0.00     0.314 C 
BRANCH   8  18
ATOM     18  C   UNL A   1      32.235  20.975  23.781  1.00  0.00    -0.014 A 
ATOM     19  C   UNL A   1      32.302  18.146  24.115  1.00  0.00     0.048 A 
ATOM     20  C   UNL A   1      32.184  18.994  25.218  1.00  0.00     0.027 A 
ATOM     21  C   UNL A   1      32.200  18.704  22.843  1.00  0.00     0.027 A 
ATOM     22  C   UNL A   1      32.116  20.387  25.056  1.00  0.00     0.011 A 
ATOM     23  C   UNL A   1      32.159  20.106  22.677  1.00  0.00     0.011 A 
BRANCH  19  24
ATOM     24  N   UNL A   1      32.711  16.808  24.387  1.00  0.00    -0.284 N 
ATOM     25  H   UNL A   1      32.016  16.206  24.740  1.00  0.00     0.180 HD
BRANCH  24  26
ATOM     26  S   UNL A   1      34.216  16.140  24.181  1.00  0.00     0.229 S 
ATOM     27  C   UNL A   1      35.336  17.377  24.815  1.00  0.00     0.183 C 
ATOM     28  O   UNL A   1      34.477  15.942  22.771  1.00  0.00    -0.207 OA
ATOM     29  O   UNL A   1      34.258  15.025  25.105  1.00  0.00    -0.207 OA
ENDBRANCH  24  26
ENDBRANCH  19  24
ENDBRANCH   8  18
BRANCH  17  30
ATOM     30  C   UNL A   1      29.715  25.942  24.523  1.00  0.00     0.429 C 
ATOM     31  F   UNL A   1      28.960  25.394  23.544  1.00  0.00    -0.167 F 
ATOM     32  F   UNL A   1      29.036  25.807  25.687  1.00  0.00    -0.167 F 
ATOM     33  F   UNL A   1      29.760  27.278  24.269  1.00  0.00    -0.167 F 
ENDBRANCH  17  30
ENDBRANCH   4   7
ENDBRANCH   2   3
ENDBRANCH   1   2
BRANCH   1  34
ATOM     34  C   UNL A   1      35.368  23.054  26.405  1.00  0.00     0.023 C 
BRANCH  34  35
ATOM     35  C   UNL A   1      36.659  23.647  25.856  1.00  0.00     0.116 C 
BRANCH  35  36
ATOM     36  N   UNL A   1      37.781  22.734  25.998  1.00  0.00    -0.352 N 
ATOM     37  C   UNL A   1      39.062  22.991  26.424  1.00  0.00     0.251 C 
ATOM     38  H   UNL A   1      37.597  21.798  25.753  1.00  0.00     0.163 HD
ATOM     39  O   UNL A   1      39.932  22.136  26.287  1.00  0.00    -0.269 OA
BRANCH  37  40
ATOM     40  C   UNL A   1      39.393  24.303  27.021  1.00  0.00     0.039 A 
ATOM     41  C   UNL A   1      38.998  24.567  28.335  1.00  0.00     0.014 A 
ATOM     42  C   UNL A   1      40.095  25.268  26.292  1.00  0.00     0.014 A 
ATOM     43  C   UNL A   1      39.366  25.773  28.938  1.00  0.00     0.010 A 
ATOM     44  C   UNL A   1      40.526  26.434  26.921  1.00  0.00     0.010 A 
ATOM     45  C   UNL A   1      40.166  26.700  28.250  1.00  0.00    -0.014 A 
BRANCH  45  46
ATOM     46  C   UNL A   1      40.651  27.940  28.914  1.00  0.00     0.031 A 
ATOM     47  C   UNL A   1      42.053  28.015  29.458  1.00  0.00     0.074 A 
ATOM     48  C   UNL A   1      39.807  28.978  29.082  1.00  0.00     0.049 A 
ATOM     49  N   UNL A   1      42.634  28.994  30.105  1.00  0.00    -0.248 NA
ATOM     50  C   UNL A   1      42.906  26.829  29.273  1.00  0.00     0.031 C 
ATOM     51  C   UNL A   1      38.410  29.016  28.640  1.00  0.00     0.029 A 
ATOM     52  N   UNL A   1      39.998  30.202  29.675  1.00  0.00    -0.354 N 
ATOM     53  C   UNL A   1      43.911  28.539  30.414  1.00  0.00     0.074 A 
ATOM     54  C   UNL A   1      44.001  27.178  29.932  1.00  0.00     0.031 C 
ATOM     55  C   UNL A   1      37.883  30.211  28.948  1.00  0.00     0.029 A 
ATOM     56  C   UNL A   1      38.883  31.009  29.650  1.00  0.00     0.049 A 
ATOM     57  H   UNL A   1      40.852  30.478  30.080  1.00  0.00     0.167 HD
ATOM     58  C   UNL A   1      44.923  29.198  31.027  1.00  0.00     0.031 A 
ATOM     59  C   UNL A   1      38.684  32.248  30.142  1.00  0.00     0.031 A 
ATOM     60  C   UNL A   1      44.831  30.554  31.502  1.00  0.00     0.049 A 
ATOM     61  C   UNL A   1      39.817  32.953  30.834  1.00  0.00     0.074 A 
ATOM     62  C   UNL A   1      45.819  31.328  32.087  1.00  0.00     0.029 A 
ATOM     63  N   UNL A   1      43.686  31.336  31.455  1.00  0.00    -0.354 N 
ATOM     64  N   UNL A   1      41.039  32.531  31.054  1.00  0.00    -0.248 NA
ATOM     65  C   UNL A   1      39.549  34.309  31.333  1.00  0.00     0.031 C 
ATOM     66  C   UNL A   1      45.254  32.556  32.447  1.00  0.00     0.029 A 
ATOM     67  C   UNL A   1      43.935  32.573  32.026  1.00  0.00     0.049 A 
ATOM     68  H   UNL A   1      42.825  31.052  31.072  1.00  0.00     0.167 HD
ATOM     69  C   UNL A   1      41.694  33.579  31.691  1.00  0.00     0.074 A 
ATOM     70  C   UNL A   1      40.736  34.660  31.807  1.00  0.00     0.031 C 
ATOM     71  C   UNL A   1      42.973  33.641  32.137  1.00  0.00     0.031 A 
BRANCH  58  72
ATOM     72  C   UNL A   1      46.220  28.456  31.228  1.00  0.00    -0.014 A 
ATOM     73  C   UNL A   1      46.435  27.662  32.370  1.00  0.00     0.010 A 
ATOM     74  C   UNL A   1      47.223  28.521  30.245  1.00  0.00     0.010 A 
ATOM     75  C   UNL A   1      47.644  26.985  32.545  1.00  0.00     0.020 A 
ATOM     76  C   UNL A   1      48.423  27.819  30.402  1.00  0.00     0.020 A 
ATOM     77  C   UNL A   1      48.633  27.070  31.561  1.00  0.00     0.054 A 
BRANCH  77  78
ATOM     78  S   UNL A   1      50.185  26.165  31.807  1.00  0.00     0.124 S 
ATOM     79  O   UNL A   1      50.159  25.216  30.697  1.00  0.00    -0.237 OA
ATOM     80  O   UNL A   1      51.190  27.221  31.707  1.00  0.00    -0.237 OA
ATOM     81  O   UNL A   1      50.035  25.574  33.135  1.00  0.00    -0.744 OA
ENDBRANCH  77  78
ENDBRANCH  58  72
BRANCH  59  82
ATOM     82  C   UNL A   1      37.357  32.904  29.982  1.00  0.00    -0.014 A 
ATOM     83  C   UNL A   1      36.384  32.810  30.993  1.00  0.00     0.010 A 
ATOM     84  C   UNL A   1      37.063  33.643  28.819  1.00  0.00     0.010 A 
ATOM     85  C   UNL A   1      35.138  33.425  30.838  1.00  0.00     0.020 A 
ATOM     86  C   UNL A   1      35.830  34.285  28.675  1.00  0.00     0.020 A 
ATOM     87  C   UNL A   1      34.870  34.162  29.681  1.00  0.00     0.054 A 
BRANCH  87  88
ATOM     88  S   UNL A   1      33.268  34.998  29.528  1.00  0.00     0.124 S 
ATOM     89  O   UNL A   1      33.651  36.288  28.961  1.00  0.00    -0.237 OA
ATOM     90  O   UNL A   1      32.533  34.107  28.634  1.00  0.00    -0.237 OA
ATOM     91  O   UNL A   1      32.770  35.040  30.901  1.00  0.00    -0.744 OA
ENDBRANCH  87  88
ENDBRANCH  59  82
BRANCH  71  92
ATOM     92  C   UNL A   1      43.430  34.935  32.762  1.00  0.00    -0.014 A 
ATOM     93  C   UNL A   1      43.202  35.211  34.121  1.00  0.00     0.010 A 
ATOM     94  C   UNL A   1      44.149  35.861  31.985  1.00  0.00     0.010 A 
ATOM     95  C   UNL A   1      43.659  36.407  34.685  1.00  0.00     0.020 A 
ATOM     96  C   UNL A   1      44.633  37.043  32.551  1.00  0.00     0.020 A 
ATOM     97  C   UNL A   1      44.372  37.315  33.895  1.00  0.00     0.054 A 
BRANCH  97  98
ATOM     98  S   UNL A   1      44.992  38.838  34.661  1.00  0.00     0.124 S 
ATOM     99  O   UNL A   1      44.751  39.824  33.613  1.00  0.00    -0.237 OA
ATOM    100  O   UNL A   1      44.151  38.963  35.849  1.00  0.00    -0.237 OA
ATOM    101  O   UNL A   1      46.398  38.544  34.930  1.00  0.00    -0.744 OA
ENDBRANCH  97  98
ENDBRANCH  71  92
ENDBRANCH  45  46
ENDBRANCH  37  40
ENDBRANCH  35  36
ENDBRANCH  34  35
ENDBRANCH   1  34
TORSDOF 18
ENDMDL
MODEL 2
REMARK VINA RESULT:     -11.0      7.425     14.155
REMARK SMILES CS(=O)(=O)Nc1ccc(-c2cc(Cl)cc3c2O[C@H](C(F)(F)F)C(C(=O)NCCCCNC(=O)c2ccc(-c4c5nc(c(-c6ccc(S(=O)(=O)[O-])cc6)c6ccc([nH]6)c(-c6ccc(S(=O)(=O)[O-])cc6)c6nc(c(-c7ccc(S(=O)(=O)[O-])cc7)c7ccc4[nH]7)C=C6)C=C5)cc2)=C3)cc1
REMARK SMILES IDX 28 1 27 2 26 3 24 4 25 5 23 7 10 8 11 9 16 10 12 11 15 12
REMARK SMILES IDX 17 13 13 14 14 15 94 16 18 17 9 18 6 19 7 20 96 21 8 22
REMARK SMILES IDX 95 23 5 24 2 26 1 27 3 28 4 29 19 30 20 31 21 32 22 33 29 34
REMARK SMILES IDX 30 35 31 36 32 37 33 39 34 40 35 41 93 42 36 43 92 44 37 45
REMARK SMILES IDX 38 46 39 47 86 48 40 49 91 50 85 51 87 52 41 53 90 54 84 55
REMARK SMILES IDX 83 56 42 58 72 59 53 60 71 61 54 62 57 63 70 64 88 65 55 66
REMARK SMILES IDX 56 67 69 69 89 70 58 71 43 72 44 73 52 74 45 75 51 76 46 77
REMARK SMILES IDX 47 78 48 79 49 80 50 81 73 82 74 83 82 84 75 85 81 86 76 87
REMARK SMILES IDX 77 88 78 89 79 90 80 91 59 92 60 93 68 94 61 95 67 96 62 97
REMARK SMILES IDX 63 98 64 99 65 100 66 101
REMARK H PARENT 26 6 5 25 31 38 87 57 57 68
REMARK Flexibility Score: inf
ROOT
ATOM      1  C   UNL A   1      39.372  30.087  34.017  1.00  0.00     0.023 C 
ENDROOT
BRANCH   1   2
ATOM      2  C   UNL A   1      40.057  31.151  34.887  1.00  0.00     0.116 C 
BRANCH   2   3
ATOM      3  N   UNL A   1      39.902  32.455  34.276  1.00  0.00    -0.352 N 
ATOM      4  C   UNL A   1      40.843  33.279  33.760  1.00  0.00     0.251 C 
ATOM      5  O   UNL A   1      40.655  34.489  33.821  1.00  0.00    -0.270 OA
ATOM      6  H   UNL A   1      38.978  32.790  34.230  1.00  0.00     0.163 HD
BRANCH   4   7
ATOM      7  C   UNL A   1      42.010  32.678  33.042  1.00  0.00     0.067 C 
ATOM      8  C   UNL A   1      41.856  34.900  29.629  1.00  0.00     0.026 A 
ATOM      9  C   UNL A   1      40.491  34.935  29.235  1.00  0.00     0.033 A 
ATOM     10  C   UNL A   1      42.191  33.954  30.613  1.00  0.00     0.135 A 
ATOM     11  C   UNL A   1      39.561  33.983  29.648  1.00  0.00     0.042 A 
ATOM     12  C   UNL A   1      41.266  32.923  30.923  1.00  0.00     0.019 A 
ATOM     13  O   UNL A   1      43.361  34.009  31.359  1.00  0.00    -0.475 OA
ATOM     14  Cl  UNL A   1      37.923  34.121  29.149  1.00  0.00    -0.084 Cl
ATOM     15  C   UNL A   1      39.963  32.922  30.431  1.00  0.00     0.032 A 
ATOM     16  C   UNL A   1      41.641  31.948  31.971  1.00  0.00     0.025 C 
ATOM     17  C   UNL A   1      43.172  33.635  32.797  1.00  0.00     0.314 C 
BRANCH   8  18
ATOM     18  C   UNL A   1      42.762  35.719  28.770  1.00  0.00    -0.014 A 
ATOM     19  C   UNL A   1      43.242  37.981  27.105  1.00  0.00     0.048 A 
ATOM     20  C   UNL A   1      43.544  38.019  28.469  1.00  0.00     0.027 A 
ATOM     21  C   UNL A   1      42.877  36.759  26.546  1.00  0.00     0.027 A 
ATOM     22  C   UNL A   1      43.341  36.895  29.285  1.00  0.00     0.011 A 
ATOM     23  C   UNL A   1      42.646  35.635  27.371  1.00  0.00     0.011 A 
BRANCH  19  24
ATOM     24  N   UNL A   1      43.149  39.240  26.444  1.00  0.00    -0.284 N 
ATOM     25  H   UNL A   1      43.956  39.540  25.966  1.00  0.00     0.180 HD
BRANCH  24  26
ATOM     26  S   UNL A   1      41.843  40.263  26.380  1.00  0.00     0.229 S 
ATOM     27  C   UNL A   1      42.328  41.522  25.211  1.00  0.00     0.183 C 
ATOM     28  O   UNL A   1      41.635  40.875  27.676  1.00  0.00    -0.207 OA
ATOM     29  O   UNL A   1      40.794  39.488  25.750  1.00  0.00    -0.207 OA
ENDBRANCH  24  26
ENDBRANCH  19  24
ENDBRANCH   8  18
BRANCH  17  30
ATOM     30  C   UNL A   1      44.451  33.004  33.391  1.00  0.00     0.429 C 
ATOM     31  F   UNL A   1      44.194  32.204  34.451  1.00  0.00    -0.167 F 
ATOM     32  F   UNL A   1      45.107  32.261  32.467  1.00  0.00    -0.167 F 
ATOM     33  F   UNL A   1      45.341  33.937  33.823  1.00  0.00    -0.167 F 
ENDBRANCH  17  30
ENDBRANCH   4   7
ENDBRANCH   2   3
ENDBRANCH   1   2
BRANCH   1  34
ATOM     34  C   UNL A   1      38.056  30.527  33.356  1.00  0.00     0.023 C 
BRANCH  34  35
ATOM     35  C   UNL A   1      38.160  30.857  31.872  1.00  0.00     0.116 C 
BRANCH  35  36
ATOM     36  N   UNL A   1      37.180  30.130  31.084  1.00  0.00    -0.352 N 
ATOM     37  C   UNL A   1      37.359  29.403  29.930  1.00  0.00     0.251 C 
ATOM     38  H   UNL A   1      36.257  30.162  31.423  1.00  0.00     0.163 HD
ATOM     39  O   UNL A   1      36.382  29.024  29.291  1.00  0.00    -0.269 OA
BRANCH  37  40
ATOM     40  C   UNL A   1      38.726  29.102  29.451  1.00  0.00     0.039 A 
ATOM     41  C   UNL A   1      39.068  29.427  28.136  1.00  0.00     0.014 A 
ATOM     42  C   UNL A   1      39.669  28.508  30.295  1.00  0.00     0.014 A 
ATOM     43  C   UNL A   1      40.376  29.217  27.690  1.00  0.00     0.010 A 
ATOM     44  C   UNL A   1      40.989  28.371  29.872  1.00  0.00     0.010 A 
ATOM     45  C   UNL A   1      41.358  28.723  28.565  1.00  0.00    -0.014 A 
BRANCH  45  46
ATOM     46  C   UNL A   1      42.776  28.590  28.135  1.00  0.00     0.031 A 
ATOM     47  C   UNL A   1      43.722  29.755  28.258  1.00  0.00     0.074 A 
ATOM     48  C   UNL A   1      43.196  27.437  27.575  1.00  0.00     0.049 A 
ATOM     49  N   UNL A   1      44.977  29.838  27.895  1.00  0.00    -0.248 NA
ATOM     50  C   UNL A   1      43.183  30.994  28.843  1.00  0.00     0.031 C 
ATOM     51  C   UNL A   1      42.367  26.249  27.359  1.00  0.00     0.029 A 
ATOM     52  N   UNL A   1      44.425  27.077  27.081  1.00  0.00    -0.354 N 
ATOM     53  C   UNL A   1      45.373  31.137  28.194  1.00  0.00     0.074 A 
ATOM     54  C   UNL A   1      44.211  31.822  28.717  1.00  0.00     0.031 C 
ATOM     55  C   UNL A   1      43.118  25.283  26.806  1.00  0.00     0.029 A 
ATOM     56  C   UNL A   1      44.466  25.794  26.584  1.00  0.00     0.049 A 
ATOM     57  H   UNL A   1      45.204  27.679  27.081  1.00  0.00     0.167 HD
ATOM     58  C   UNL A   1      46.595  31.704  28.062  1.00  0.00     0.031 A 
ATOM     59  C   UNL A   1      45.473  25.107  26.008  1.00  0.00     0.031 A 
ATOM     60  C   UNL A   1      47.751  31.019  27.545  1.00  0.00     0.049 A 
ATOM     61  C   UNL A   1      46.817  25.764  25.857  1.00  0.00     0.074 A 
ATOM     62  C   UNL A   1      49.047  31.491  27.423  1.00  0.00     0.029 A 
ATOM     63  N   UNL A   1      47.751  29.721  27.056  1.00  0.00    -0.354 N 
ATOM     64  N   UNL A   1      47.189  26.970  26.211  1.00  0.00    -0.248 NA
ATOM     65  C   UNL A   1      47.882  24.961  25.240  1.00  0.00     0.031 C 
ATOM     66  C   UNL A   1      49.816  30.499  26.806  1.00  0.00     0.029 A 
ATOM     67  C   UNL A   1      49.018  29.386  26.606  1.00  0.00     0.049 A 
ATOM     68  H   UNL A   1      46.967  29.126  27.033  1.00  0.00     0.167 HD
ATOM     69  C   UNL A   1      48.538  27.062  25.886  1.00  0.00     0.074 A 
ATOM     70  C   UNL A   1      48.919  25.783  25.322  1.00  0.00     0.031 C 
ATOM     71  C   UNL A   1      49.385  28.110  26.044  1.00  0.00     0.031 A 
BRANCH  58  72
ATOM     72  C   UNL A   1      46.746  33.146  28.478  1.00  0.00    -0.014 A 
ATOM     73  C   UNL A   1      47.285  33.490  29.732  1.00  0.00     0.010 A 
ATOM     74  C   UNL A   1      46.380  34.173  27.589  1.00  0.00     0.010 A 
ATOM     75  C   UNL A   1      47.414  34.830  30.105  1.00  0.00     0.020 A 
ATOM     76  C   UNL A   1      46.536  35.516  27.947  1.00  0.00     0.020 A 
ATOM     77  C   UNL A   1      47.035  35.835  29.211  1.00  0.00     0.054 A 
BRANCH  77  78
ATOM     78  S   UNL A   1      47.230  37.566  29.716  1.00  0.00     0.124 S 
ATOM     79  O   UNL A   1      48.610  37.585  30.196  1.00  0.00    -0.237 OA
ATOM     80  O   UNL A   1      46.988  38.292  28.471  1.00  0.00    -0.237 OA
ATOM     81  O   UNL A   1      46.210  37.744  30.747  1.00  0.00    -0.744 OA
ENDBRANCH  77  78
ENDBRANCH  58  72
BRANCH  59  82
ATOM     82  C   UNL A   1      45.248  23.709  25.546  1.00  0.00    -0.014 A 
ATOM     83  C   UNL A   1      45.609  22.619  26.357  1.00  0.00     0.010 A 
ATOM     84  C   UNL A   1      44.655  23.460  24.293  1.00  0.00     0.010 A 
ATOM     85  C   UNL A   1      45.399  21.308  25.918  1.00  0.00     0.020 A 
ATOM     86  C   UNL A   1      44.415  22.152  23.865  1.00  0.00     0.020 A 
ATOM     87  C   UNL A   1      44.800  21.082  24.676  1.00  0.00     0.054 A 
BRANCH  87  88
ATOM     88  S   UNL A   1      44.486  19.374  24.153  1.00  0.00     0.124 S 
ATOM     89  O   UNL A   1      44.515  19.492  22.699  1.00  0.00    -0.237 OA
ATOM     90  O   UNL A   1      45.605  18.652  24.753  1.00  0.00    -0.237 OA
ATOM     91  O   UNL A   1      43.179  19.073  24.732  1.00  0.00    -0.744 OA
ENDBRANCH  87  88
ENDBRANCH  59  82
BRANCH  71  92
ATOM     92  C   UNL A   1      50.822  27.910  25.635  1.00  0.00    -0.014 A 
ATOM     93  C   UNL A   1      51.273  28.267  24.352  1.00  0.00     0.010 A 
ATOM     94  C   UNL A   1      51.744  27.411  26.572  1.00  0.00     0.010 A 
ATOM     95  C   UNL A   1      52.617  28.097  24.004  1.00  0.00     0.020 A 
ATOM     96  C   UNL A   1      53.093  27.268  26.238  1.00  0.00     0.020 A 
ATOM     97  C   UNL A   1      53.518  27.599  24.951  1.00  0.00     0.054 A 
BRANCH  97  98
ATOM     98  S   UNL A   1      55.264  27.431  24.489  1.00  0.00     0.124 S 
ATOM     99  O   UNL A   1      55.812  26.705  25.630  1.00  0.00    -0.237 OA
ATOM    100  O   UNL A   1      55.192  26.677  23.239  1.00  0.00    -0.237 OA
ATOM    101  O   UNL A   1      55.722  28.811  24.350  1.00  0.00    -0.744 OA
ENDBRANCH  97  98
ENDBRANCH  71  92
ENDBRANCH  45  46
ENDBRANCH  37  40
ENDBRANCH  35  36
ENDBRANCH  34  35
ENDBRANCH   1  34
TORSDOF 18
ENDMDL
MODEL 3
REMARK VINA RESULT:     -11.0      6.517      9.612
REMARK SMILES CS(=O)(=O)Nc1ccc(-c2cc(Cl)cc3c2O[C@H](C(F)(F)F)C(C(=O)NCCCCNC(=O)c2ccc(-c4c5nc(c(-c6ccc(S(=O)(=O)[O-])cc6)c6ccc([nH]6)c(-c6ccc(S(=O)(=O)[O-])cc6)c6nc(c(-c7ccc(S(=O)(=O)[O-])cc7)c7ccc4[nH]7)C=C6)C=C5)cc2)=C3)cc1
REMARK SMILES IDX 28 1 27 2 26 3 24 4 25 5 23 7 10 8 11 9 16 10 12 11 15 12
REMARK SMILES IDX 17 13 13 14 14 15 94 16 18 17 9 18 6 19 7 20 96 21 8 22
REMARK SMILES IDX 95 23 5 24 2 26 1 27 3 28 4 29 19 30 20 31 21 32 22 33 29 34
REMARK SMILES IDX 30 35 31 36 32 37 33 39 34 40 35 41 93 42 36 43 92 44 37 45
REMARK SMILES IDX 38 46 39 47 86 48 40 49 91 50 85 51 87 52 41 53 90 54 84 55
REMARK SMILES IDX 83 56 42 58 72 59 53 60 71 61 54 62 57 63 70 64 88 65 55 66
REMARK SMILES IDX 56 67 69 69 89 70 58 71 43 72 44 73 52 74 45 75 51 76 46 77
REMARK SMILES IDX 47 78 48 79 49 80 50 81 73 82 74 83 82 84 75 85 81 86 76 87
REMARK SMILES IDX 77 88 78 89 79 90 80 91 59 92 60 93 68 94 61 95 67 96 62 97
REMARK SMILES IDX 63 98 64 99 65 100 66 101
REMARK H PARENT 26 6 5 25 31 38 87 57 57 68
REMARK Flexibility Score: inf
ROOT
ATOM      1  C   UNL A   1      39.656  26.926  28.665  1.00  0.00     0.023 C 
ENDROOT
BRANCH   1   2
ATOM      2  C   UNL A   1      39.442  27.532  30.060  1.00  0.00     0.116 C 
BRANCH   2   3
ATOM      3  N   UNL A   1      38.068  27.967  30.198  1.00  0.00    -0.352 N 
ATOM      4  C   UNL A   1      37.568  29.222  30.274  1.00  0.00     0.251 C 
ATOM      5  O   UNL A   1      36.549  29.404  30.933  1.00  0.00    -0.270 OA
ATOM      6  H   UNL A   1      37.401  27.245  30.243  1.00  0.00     0.163 HD
BRANCH   4   7
ATOM      7  C   UNL A   1      38.211  30.303  29.466  1.00  0.00     0.067 C 
ATOM      8  C   UNL A   1      34.844  32.122  28.062  1.00  0.00     0.026 A 
ATOM      9  C   UNL A   1      33.979  31.082  27.628  1.00  0.00     0.033 A 
ATOM     10  C   UNL A   1      36.177  31.752  28.314  1.00  0.00     0.135 A 
ATOM     11  C   UNL A   1      34.436  29.810  27.292  1.00  0.00     0.042 A 
ATOM     12  C   UNL A   1      36.644  30.495  27.849  1.00  0.00     0.019 A 
ATOM     13  O   UNL A   1      37.056  32.524  29.062  1.00  0.00    -0.475 OA
ATOM     14  Cl  UNL A   1      33.315  28.603  26.807  1.00  0.00    -0.084 Cl
ATOM     15  C   UNL A   1      35.787  29.533  27.323  1.00  0.00     0.032 A 
ATOM     16  C   UNL A   1      38.048  30.127  28.140  1.00  0.00     0.025 C 
ATOM     17  C   UNL A   1      37.942  31.720  29.963  1.00  0.00     0.314 C 
BRANCH   8  18
ATOM     18  C   UNL A   1      34.255  33.490  27.962  1.00  0.00    -0.014 A 
ATOM     19  C   UNL A   1      33.441  35.944  29.158  1.00  0.00     0.048 A 
ATOM     20  C   UNL A   1      34.707  35.814  28.583  1.00  0.00     0.027 A 
ATOM     21  C   UNL A   1      32.524  34.913  28.970  1.00  0.00     0.027 A 
ATOM     22  C   UNL A   1      35.099  34.618  27.962  1.00  0.00     0.011 A 
ATOM     23  C   UNL A   1      32.925  33.699  28.371  1.00  0.00     0.011 A 
BRANCH  19  24
ATOM     24  N   UNL A   1      33.263  37.040  30.053  1.00  0.00    -0.284 N 
ATOM     25  H   UNL A   1      33.315  37.939  29.652  1.00  0.00     0.180 HD
BRANCH  24  26
ATOM     26  S   UNL A   1      32.978  36.986  31.687  1.00  0.00     0.229 S 
ATOM     27  C   UNL A   1      34.234  35.884  32.315  1.00  0.00     0.183 C 
ATOM     28  O   UNL A   1      31.673  36.411  31.939  1.00  0.00    -0.207 OA
ATOM     29  O   UNL A   1      33.307  38.313  32.166  1.00  0.00    -0.207 OA
ENDBRANCH  24  26
ENDBRANCH  19  24
ENDBRANCH   8  18
BRANCH  17  30
ATOM     30  C   UNL A   1      39.301  32.418  30.190  1.00  0.00     0.429 C 
ATOM     31  F   UNL A   1      39.474  32.820  31.470  1.00  0.00    -0.167 F 
ATOM     32  F   UNL A   1      40.334  31.600  29.876  1.00  0.00    -0.167 F 
ATOM     33  F   UNL A   1      39.454  33.527  29.418  1.00  0.00    -0.167 F 
ENDBRANCH  17  30
ENDBRANCH   4   7
ENDBRANCH   2   3
ENDBRANCH   1   2
BRANCH   1  34
ATOM     34  C   UNL A   1      40.414  25.590  28.638  1.00  0.00     0.023 C 
BRANCH  34  35
ATOM     35  C   UNL A   1      41.431  25.451  27.512  1.00  0.00     0.116 C 
BRANCH  35  36
ATOM     36  N   UNL A   1      42.666  24.836  27.970  1.00  0.00    -0.352 N 
ATOM     37  C   UNL A   1      43.726  25.405  28.635  1.00  0.00     0.251 C 
ATOM     38  H   UNL A   1      42.758  23.875  27.775  1.00  0.00     0.163 HD
ATOM     39  O   UNL A   1      44.773  24.777  28.763  1.00  0.00    -0.269 OA
BRANCH  37  40
ATOM     40  C   UNL A   1      43.610  26.779  29.172  1.00  0.00     0.039 A 
ATOM     41  C   UNL A   1      44.116  27.052  30.445  1.00  0.00     0.014 A 
ATOM     42  C   UNL A   1      43.010  27.795  28.422  1.00  0.00     0.014 A 
ATOM     43  C   UNL A   1      44.080  28.360  30.937  1.00  0.00     0.010 A 
ATOM     44  C   UNL A   1      43.045  29.109  28.882  1.00  0.00     0.010 A 
ATOM     45  C   UNL A   1      43.580  29.407  30.144  1.00  0.00    -0.014 A 
BRANCH  45  46
ATOM     46  C   UNL A   1      43.629  30.818  30.613  1.00  0.00     0.031 A 
ATOM     47  C   UNL A   1      44.573  31.801  29.974  1.00  0.00     0.074 A 
ATOM     48  C   UNL A   1      42.865  31.199  31.657  1.00  0.00     0.049 A 
ATOM     49  N   UNL A   1      44.785  33.056  30.279  1.00  0.00    -0.248 NA
ATOM     50  C   UNL A   1      45.404  31.304  28.865  1.00  0.00     0.031 C 
ATOM     51  C   UNL A   1      41.940  30.332  32.392  1.00  0.00     0.029 A 
ATOM     52  N   UNL A   1      42.748  32.414  32.287  1.00  0.00    -0.354 N 
ATOM     53  C   UNL A   1      45.780  33.495  29.411  1.00  0.00     0.074 A 
ATOM     54  C   UNL A   1      46.167  32.357  28.606  1.00  0.00     0.031 C 
ATOM     55  C   UNL A   1      41.330  31.049  33.349  1.00  0.00     0.029 A 
ATOM     56  C   UNL A   1      41.850  32.413  33.329  1.00  0.00     0.049 A 
ATOM     57  H   UNL A   1      43.259  33.211  32.018  1.00  0.00     0.167 HD
ATOM     58  C   UNL A   1      46.310  34.734  29.284  1.00  0.00     0.031 A 
ATOM     59  C   UNL A   1      41.489  33.394  34.180  1.00  0.00     0.031 A 
ATOM     60  C   UNL A   1      45.921  35.865  30.085  1.00  0.00     0.049 A 
ATOM     61  C   UNL A   1      42.105  34.758  34.029  1.00  0.00     0.074 A 
ATOM     62  C   UNL A   1      46.361  37.174  29.994  1.00  0.00     0.029 A 
ATOM     63  N   UNL A   1      45.006  35.822  31.127  1.00  0.00    -0.354 N 
ATOM     64  N   UNL A   1      42.993  35.169  33.156  1.00  0.00    -0.248 NA
ATOM     65  C   UNL A   1      41.661  35.794  34.971  1.00  0.00     0.031 C 
ATOM     66  C   UNL A   1      45.757  37.909  31.020  1.00  0.00     0.029 A 
ATOM     67  C   UNL A   1      44.889  37.075  31.706  1.00  0.00     0.049 A 
ATOM     68  H   UNL A   1      44.513  35.019  31.412  1.00  0.00     0.167 HD
ATOM     69  C   UNL A   1      43.192  36.519  33.424  1.00  0.00     0.074 A 
ATOM     70  C   UNL A   1      42.320  36.857  34.532  1.00  0.00     0.031 C 
ATOM     71  C   UNL A   1      44.019  37.399  32.808  1.00  0.00     0.031 A 
BRANCH  58  72
ATOM     72  C   UNL A   1      47.382  34.932  28.241  1.00  0.00    -0.014 A 
ATOM     73  C   UNL A   1      48.735  34.669  28.529  1.00  0.00     0.010 A 
ATOM     74  C   UNL A   1      47.029  35.347  26.945  1.00  0.00     0.010 A 
ATOM     75  C   UNL A   1      49.717  34.862  27.554  1.00  0.00     0.020 A 
ATOM     76  C   UNL A   1      48.006  35.511  25.957  1.00  0.00     0.020 A 
ATOM     77  C   UNL A   1      49.346  35.285  26.274  1.00  0.00     0.054 A 
BRANCH  77  78
ATOM     78  S   UNL A   1      50.642  35.509  25.025  1.00  0.00     0.124 S 
ATOM     79  O   UNL A   1      51.753  36.008  25.831  1.00  0.00    -0.237 OA
ATOM     80  O   UNL A   1      50.809  34.159  24.492  1.00  0.00    -0.237 OA
ATOM     81  O   UNL A   1      50.064  36.477  24.095  1.00  0.00    -0.744 OA
ENDBRANCH  77  78
ENDBRANCH  58  72
BRANCH  59  82
ATOM     82  C   UNL A   1      40.481  33.123  35.241  1.00  0.00    -0.014 A 
ATOM     83  C   UNL A   1      39.126  32.936  34.912  1.00  0.00     0.010 A 
ATOM     84  C   UNL A   1      40.873  33.035  36.591  1.00  0.00     0.010 A 
ATOM     85  C   UNL A   1      38.182  32.684  35.911  1.00  0.00     0.020 A 
ATOM     86  C   UNL A   1      39.936  32.753  37.588  1.00  0.00     0.020 A 
ATOM     87  C   UNL A   1      38.593  32.590  37.243  1.00  0.00     0.054 A 
BRANCH  87  88
ATOM     88  S   UNL A   1      37.358  32.207  38.515  1.00  0.00     0.124 S 
ATOM     89  O   UNL A   1      38.017  32.678  39.730  1.00  0.00    -0.237 OA
ATOM     90  O   UNL A   1      36.203  32.988  38.078  1.00  0.00    -0.237 OA
ATOM     91  O   UNL A   1      37.195  30.760  38.411  1.00  0.00    -0.744 OA
ENDBRANCH  87  88
ENDBRANCH  59  82
BRANCH  71  92
ATOM     92  C   UNL A   1      44.000  38.827  33.290  1.00  0.00    -0.014 A 
ATOM     93  C   UNL A   1      44.743  39.231  34.413  1.00  0.00     0.010 A 
ATOM     94  C   UNL A   1      43.268  39.789  32.570  1.00  0.00     0.010 A 
ATOM     95  C   UNL A   1      44.730  40.567  34.826  1.00  0.00     0.020 A 
ATOM     96  C   UNL A   1      43.276  41.130  32.961  1.00  0.00     0.020 A 
ATOM     97  C   UNL A   1      43.997  41.508  34.096  1.00  0.00     0.054 A 
BRANCH  97  98
ATOM     98  S   UNL A   1      44.032  43.243  34.625  1.00  0.00     0.124 S 
ATOM     99  O   UNL A   1      44.457  43.924  33.407  1.00  0.00    -0.237 OA
ATOM    100  O   UNL A   1      42.648  43.481  35.030  1.00  0.00    -0.237 OA
ATOM    101  O   UNL A   1      45.003  43.253  35.717  1.00  0.00    -0.744 OA
ENDBRANCH  97  98
ENDBRANCH  71  92
ENDBRANCH  45  46
ENDBRANCH  37  40
ENDBRANCH  35  36
ENDBRANCH  34  35
ENDBRANCH   1  34
TORSDOF 18
ENDMDL
