MODEL 1
REMARK VINA RESULT:     -10.7      0.000      0.000
REMARK SMILES C#CC[N@@H+](CC(=O)NCCCCNC(=O)c1ccc(-c2c3nc(c(-c4ccc(S(=O)(=O)[O-])cc4)c4ccc([nH]4)c(-c4ccc(S(=O)(=O)[O-])cc4)c4nc(c(-c5ccc(S(=O)(=O)[O-])cc5)c5ccc2[nH]5)C=C4)C=C3)cc1)CC(=O)Nc1c(Cl)cccc1Cl
REMARK SMILES IDX 10 1 9 2 8 3 6 4 7 5 5 7 4 8 3 10 2 11 1 12 76 13 77 14
REMARK SMILES IDX 78 15 79 16 80 18 81 19 86 20 82 21 83 22 85 23 87 24 84 25
REMARK SMILES IDX 11 26 12 27 13 28 14 29 15 31 16 32 17 33 75 34 18 35 74 36
REMARK SMILES IDX 19 37 20 38 21 39 68 40 22 41 73 42 67 43 69 44 23 45 72 46
REMARK SMILES IDX 66 47 65 48 24 50 54 51 35 52 53 53 36 54 39 55 52 56 70 57
REMARK SMILES IDX 37 58 38 59 51 61 71 62 40 63 25 64 26 65 34 66 27 67 33 68
REMARK SMILES IDX 28 69 29 70 30 71 31 72 32 73 55 74 56 75 64 76 57 77 63 78
REMARK SMILES IDX 58 79 59 80 60 81 61 82 62 83 41 84 42 85 50 86 43 87 49 88
REMARK SMILES IDX 44 89 45 90 46 91 47 92 48 93
REMARK H PARENT 8 6 4 9 79 17 13 30 69 49 39 60
REMARK Flexibility Score: inf
ROOT
ATOM      1  C   UNL A   1      33.184  29.338  24.868  1.00  0.00     0.023 C 
ENDROOT
BRANCH   1   2
ATOM      2  C   UNL A   1      33.412  29.161  23.356  1.00  0.00     0.116 C 
BRANCH   2   3
ATOM      3  N   UNL A   1      32.178  28.923  22.641  1.00  0.00    -0.351 N 
ATOM      4  C   UNL A   1      31.119  28.105  22.883  1.00  0.00     0.275 C 
ATOM      5  O   UNL A   1      30.261  28.123  22.000  1.00  0.00    -0.269 OA
ATOM      6  H   UNL A   1      32.087  29.456  21.819  1.00  0.00     0.163 HD
BRANCH   4   7
ATOM      7  C   UNL A   1      31.022  27.193  24.158  1.00  0.00     0.364 C 
BRANCH   7   8
ATOM      8  N   UNL A   1      31.640  25.829  24.041  1.00  0.00    -0.309 N 
ATOM      9  H   UNL A   1      31.137  25.178  23.438  1.00  0.00     0.349 HD
BRANCH   8  10
ATOM     10  C   UNL A   1      31.620  25.326  25.393  1.00  0.00     0.354 C 
BRANCH  10  11
ATOM     11  C   UNL A   1      30.937  24.129  26.033  1.00  0.00    -0.047 C 
ATOM     12  C   UNL A   1      30.351  23.101  26.583  1.00  0.00     0.010 C 
ENDBRANCH  10  11
ENDBRANCH   8  10
BRANCH   8  13
ATOM     13  C   UNL A   1      32.962  25.884  23.352  1.00  0.00     0.365 C 
BRANCH  13  14
ATOM     14  C   UNL A   1      33.147  25.068  22.064  1.00  0.00     0.279 C 
ATOM     15  O   UNL A   1      33.238  25.669  20.983  1.00  0.00    -0.268 OA
ATOM     16  N   UNL A   1      33.357  23.712  22.034  1.00  0.00    -0.319 N 
ATOM     17  H   UNL A   1      33.591  23.409  21.127  1.00  0.00     0.170 HD
BRANCH  16  18
ATOM     18  C   UNL A   1      33.329  22.623  22.951  1.00  0.00     0.079 A 
ATOM     19  C   UNL A   1      34.485  22.417  23.731  1.00  0.00     0.066 A 
ATOM     20  C   UNL A   1      32.301  21.688  23.152  1.00  0.00     0.066 A 
ATOM     21  Cl  UNL A   1      35.946  23.297  23.429  1.00  0.00    -0.082 Cl
ATOM     22  C   UNL A   1      34.501  21.495  24.789  1.00  0.00     0.023 A 
ATOM     23  C   UNL A   1      32.222  20.932  24.333  1.00  0.00     0.023 A 
ATOM     24  Cl  UNL A   1      31.847  20.614  21.830  1.00  0.00    -0.082 Cl
ATOM     25  C   UNL A   1      33.344  20.808  25.136  1.00  0.00     0.003 A 
ENDBRANCH  16  18
ENDBRANCH  13  14
ENDBRANCH   8  13
ENDBRANCH   7   8
ENDBRANCH   4   7
ENDBRANCH   2   3
ENDBRANCH   1   2
BRANCH   1  26
ATOM     26  C   UNL A   1      34.065  28.486  25.760  1.00  0.00     0.023 C 
BRANCH  26  27
ATOM     27  C   UNL A   1      33.656  28.581  27.204  1.00  0.00     0.116 C 
BRANCH  27  28
ATOM     28  N   UNL A   1      33.554  29.969  27.659  1.00  0.00    -0.352 N 
ATOM     29  C   UNL A   1      34.540  30.709  28.252  1.00  0.00     0.251 C 
ATOM     30  H   UNL A   1      32.688  30.415  27.522  1.00  0.00     0.163 HD
ATOM     31  O   UNL A   1      34.344  31.838  28.679  1.00  0.00    -0.269 OA
BRANCH  29  32
ATOM     32  C   UNL A   1      35.835  30.038  28.366  1.00  0.00     0.039 A 
ATOM     33  C   UNL A   1      36.760  30.194  27.335  1.00  0.00     0.014 A 
ATOM     34  C   UNL A   1      36.190  29.540  29.622  1.00  0.00     0.014 A 
ATOM     35  C   UNL A   1      38.086  29.861  27.579  1.00  0.00     0.010 A 
ATOM     36  C   UNL A   1      37.525  29.327  29.893  1.00  0.00     0.010 A 
ATOM     37  C   UNL A   1      38.475  29.452  28.864  1.00  0.00    -0.014 A 
BRANCH  37  38
ATOM     38  C   UNL A   1      39.852  29.013  29.158  1.00  0.00     0.031 A 
ATOM     39  C   UNL A   1      40.770  30.014  29.802  1.00  0.00     0.074 A 
ATOM     40  C   UNL A   1      40.285  27.797  28.779  1.00  0.00     0.049 A 
ATOM     41  N   UNL A   1      42.062  29.963  29.964  1.00  0.00    -0.248 NA
ATOM     42  C   UNL A   1      40.151  31.270  30.267  1.00  0.00     0.031 C 
ATOM     43  C   UNL A   1      39.477  26.763  28.127  1.00  0.00     0.029 A 
ATOM     44  N   UNL A   1      41.528  27.232  28.884  1.00  0.00    -0.354 N 
ATOM     45  C   UNL A   1      42.413  31.198  30.498  1.00  0.00     0.074 A 
ATOM     46  C   UNL A   1      41.213  31.997  30.569  1.00  0.00     0.031 C 
ATOM     47  C   UNL A   1      40.243  25.677  27.918  1.00  0.00     0.029 A 
ATOM     48  C   UNL A   1      41.600  25.956  28.376  1.00  0.00     0.049 A 
ATOM     49  H   UNL A   1      42.298  27.695  29.284  1.00  0.00     0.167 HD
ATOM     50  C   UNL A   1      43.625  31.615  30.923  1.00  0.00     0.031 A 
ATOM     51  C   UNL A   1      42.651  25.120  28.291  1.00  0.00     0.031 A 
ATOM     52  C   UNL A   1      44.791  30.780  30.904  1.00  0.00     0.049 A 
ATOM     53  C   UNL A   1      43.986  25.592  28.806  1.00  0.00     0.074 A 
ATOM     54  C   UNL A   1      46.065  31.068  31.352  1.00  0.00     0.029 A 
ATOM     55  N   UNL A   1      44.807  29.473  30.435  1.00  0.00    -0.354 N 
ATOM     56  N   UNL A   1      44.303  26.756  29.325  1.00  0.00    -0.248 NA
ATOM     57  C   UNL A   1      45.101  24.638  28.737  1.00  0.00     0.031 C 
ATOM     58  C   UNL A   1      46.860  29.938  31.136  1.00  0.00     0.029 A 
ATOM     59  C   UNL A   1      46.069  28.935  30.593  1.00  0.00     0.049 A 
ATOM     60  H   UNL A   1      44.036  29.001  30.048  1.00  0.00     0.167 HD
ATOM     61  C   UNL A   1      45.644  26.661  29.679  1.00  0.00     0.074 A 
ATOM     62  C   UNL A   1      46.077  25.326  29.316  1.00  0.00     0.031 C 
ATOM     63  C   UNL A   1      46.447  27.589  30.253  1.00  0.00     0.031 A 
BRANCH  50  64
ATOM     64  C   UNL A   1      43.725  33.017  31.453  1.00  0.00    -0.014 A 
ATOM     65  C   UNL A   1      43.523  33.291  32.818  1.00  0.00     0.010 A 
ATOM     66  C   UNL A   1      44.017  34.078  30.578  1.00  0.00     0.010 A 
ATOM     67  C   UNL A   1      43.558  34.605  33.290  1.00  0.00     0.020 A 
ATOM     68  C   UNL A   1      44.085  35.391  31.052  1.00  0.00     0.020 A 
ATOM     69  C   UNL A   1      43.835  35.647  32.402  1.00  0.00     0.054 A 
BRANCH  69  70
ATOM     70  S   UNL A   1      43.893  37.342  33.044  1.00  0.00     0.124 S 
ATOM     71  O   UNL A   1      42.752  37.357  33.956  1.00  0.00    -0.237 OA
ATOM     72  O   UNL A   1      45.206  37.399  33.680  1.00  0.00    -0.237 OA
ATOM     73  O   UNL A   1      43.746  38.169  31.848  1.00  0.00    -0.744 OA
ENDBRANCH  69  70
ENDBRANCH  50  64
BRANCH  51  74
ATOM     74  C   UNL A   1      42.483  23.750  27.734  1.00  0.00    -0.014 A 
ATOM     75  C   UNL A   1      42.184  22.673  28.588  1.00  0.00     0.010 A 
ATOM     76  C   UNL A   1      42.616  23.511  26.355  1.00  0.00     0.010 A 
ATOM     77  C   UNL A   1      42.053  21.378  28.078  1.00  0.00     0.020 A 
ATOM     78  C   UNL A   1      42.462  22.220  25.838  1.00  0.00     0.020 A 
ATOM     79  C   UNL A   1      42.196  21.159  26.706  1.00  0.00     0.054 A 
BRANCH  79  80
ATOM     80  S   UNL A   1      41.997  19.473  26.064  1.00  0.00     0.124 S 
ATOM     81  O   UNL A   1      42.834  19.502  24.870  1.00  0.00    -0.237 OA
ATOM     82  O   UNL A   1      42.493  18.654  27.167  1.00  0.00    -0.237 OA
ATOM     83  O   UNL A   1      40.559  19.370  25.820  1.00  0.00    -0.744 OA
ENDBRANCH  79  80
ENDBRANCH  51  74
BRANCH  63  84
ATOM     84  C   UNL A   1      47.850  27.178  30.595  1.00  0.00    -0.014 A 
ATOM     85  C   UNL A   1      48.940  27.598  29.815  1.00  0.00     0.010 A 
ATOM     86  C   UNL A   1      48.081  26.462  31.785  1.00  0.00     0.010 A 
ATOM     87  C   UNL A   1      50.243  27.303  30.220  1.00  0.00     0.020 A 
ATOM     88  C   UNL A   1      49.383  26.185  32.201  1.00  0.00     0.020 A 
ATOM     89  C   UNL A   1      50.456  26.604  31.413  1.00  0.00     0.054 A 
BRANCH  89  90
ATOM     90  S   UNL A   1      52.159  26.316  31.963  1.00  0.00     0.124 S 
ATOM     91  O   UNL A   1      51.970  25.351  33.044  1.00  0.00    -0.237 OA
ATOM     92  O   UNL A   1      52.802  25.794  30.759  1.00  0.00    -0.237 OA
ATOM     93  O   UNL A   1      52.617  27.639  32.382  1.00  0.00    -0.744 OA
ENDBRANCH  89  90
ENDBRANCH  63  84
ENDBRANCH  37  38
ENDBRANCH  29  32
ENDBRANCH  27  28
ENDBRANCH  26  27
ENDBRANCH   1  26
TORSDOF 20
ENDMDL
MODEL 2
REMARK VINA RESULT:     -10.4      4.690     11.403
REMARK SMILES C#CC[N@@H+](CC(=O)NCCCCNC(=O)c1ccc(-c2c3nc(c(-c4ccc(S(=O)(=O)[O-])cc4)c4ccc([nH]4)c(-c4ccc(S(=O)(=O)[O-])cc4)c4nc(c(-c5ccc(S(=O)(=O)[O-])cc5)c5ccc2[nH]5)C=C4)C=C3)cc1)CC(=O)Nc1c(Cl)cccc1Cl
REMARK SMILES IDX 10 1 9 2 8 3 6 4 7 5 5 7 4 8 3 10 2 11 1 12 76 13 77 14
REMARK SMILES IDX 78 15 79 16 80 18 81 19 86 20 82 21 83 22 85 23 87 24 84 25
REMARK SMILES IDX 11 26 12 27 13 28 14 29 15 31 16 32 17 33 75 34 18 35 74 36
REMARK SMILES IDX 19 37 20 38 21 39 68 40 22 41 73 42 67 43 69 44 23 45 72 46
REMARK SMILES IDX 66 47 65 48 24 50 54 51 35 52 53 53 36 54 39 55 52 56 70 57
REMARK SMILES IDX 37 58 38 59 51 61 71 62 40 63 25 64 26 65 34 66 27 67 33 68
REMARK SMILES IDX 28 69 29 70 30 71 31 72 32 73 55 74 56 75 64 76 57 77 63 78
REMARK SMILES IDX 58 79 59 80 60 81 61 82 62 83 41 84 42 85 50 86 43 87 49 88
REMARK SMILES IDX 44 89 45 90 46 91 47 92 48 93
REMARK H PARENT 8 6 4 9 79 17 13 30 69 49 39 60
REMARK Flexibility Score: inf
ROOT
ATOM      1  C   UNL A   1      42.495  22.006  25.762  1.00  0.00     0.023 C 
ENDROOT
BRANCH   1   2
ATOM      2  C   UNL A   1      43.986  21.627  25.703  1.00  0.00     0.116 C 
BRANCH   2   3
ATOM      3  N   UNL A   1      44.768  22.596  24.968  1.00  0.00    -0.351 N 
ATOM      4  C   UNL A   1      45.170  23.862  25.258  1.00  0.00     0.275 C 
ATOM      5  O   UNL A   1      45.780  24.415  24.342  1.00  0.00    -0.269 OA
ATOM      6  H   UNL A   1      45.064  22.279  24.085  1.00  0.00     0.163 HD
BRANCH   4   7
ATOM      7  C   UNL A   1      44.852  24.564  26.626  1.00  0.00     0.364 C 
BRANCH   7   8
ATOM      8  N   UNL A   1      45.951  24.542  27.651  1.00  0.00    -0.309 N 
ATOM      9  H   UNL A   1      46.816  24.098  27.344  1.00  0.00     0.349 HD
BRANCH   8  10
ATOM     10  C   UNL A   1      45.390  23.777  28.738  1.00  0.00     0.354 C 
BRANCH  10  11
ATOM     11  C   UNL A   1      43.963  23.396  29.097  1.00  0.00    -0.047 C 
ATOM     12  C   UNL A   1      42.739  23.069  29.404  1.00  0.00     0.010 C 
ENDBRANCH  10  11
ENDBRANCH   8  10
BRANCH   8  13
ATOM     13  C   UNL A   1      46.437  25.917  27.961  1.00  0.00     0.365 C 
BRANCH  13  14
ATOM     14  C   UNL A   1      47.245  26.663  26.890  1.00  0.00     0.279 C 
ATOM     15  O   UNL A   1      48.118  26.047  26.261  1.00  0.00    -0.268 OA
ATOM     16  N   UNL A   1      46.979  27.945  26.476  1.00  0.00    -0.319 N 
ATOM     17  H   UNL A   1      47.519  28.183  25.689  1.00  0.00     0.170 HD
BRANCH  16  18
ATOM     18  C   UNL A   1      46.139  29.024  26.872  1.00  0.00     0.079 A 
ATOM     19  C   UNL A   1      44.776  28.931  26.528  1.00  0.00     0.066 A 
ATOM     20  C   UNL A   1      46.505  30.208  27.533  1.00  0.00     0.066 A 
ATOM     21  Cl  UNL A   1      44.194  27.680  25.479  1.00  0.00    -0.082 Cl
ATOM     22  C   UNL A   1      43.830  29.841  27.023  1.00  0.00     0.023 A 
ATOM     23  C   UNL A   1      45.557  30.988  28.215  1.00  0.00     0.023 A 
ATOM     24  Cl  UNL A   1      47.608  31.330  26.738  1.00  0.00    -0.082 Cl
ATOM     25  C   UNL A   1      44.212  30.825  27.928  1.00  0.00     0.003 A 
ENDBRANCH  16  18
ENDBRANCH  13  14
ENDBRANCH   8  13
ENDBRANCH   7   8
ENDBRANCH   4   7
ENDBRANCH   2   3
ENDBRANCH   1   2
BRANCH   1  26
ATOM     26  C   UNL A   1      41.583  20.953  26.360  1.00  0.00     0.023 C 
BRANCH  26  27
ATOM     27  C   UNL A   1      40.494  21.566  27.196  1.00  0.00     0.116 C 
BRANCH  27  28
ATOM     28  N   UNL A   1      39.294  21.861  26.410  1.00  0.00    -0.352 N 
ATOM     29  C   UNL A   1      38.687  23.078  26.271  1.00  0.00     0.251 C 
ATOM     30  H   UNL A   1      38.883  21.105  25.933  1.00  0.00     0.163 HD
ATOM     31  O   UNL A   1      37.636  23.220  25.662  1.00  0.00    -0.269 OA
BRANCH  29  32
ATOM     32  C   UNL A   1      39.371  24.190  26.931  1.00  0.00     0.039 A 
ATOM     33  C   UNL A   1      40.090  25.091  26.147  1.00  0.00     0.014 A 
ATOM     34  C   UNL A   1      39.016  24.466  28.254  1.00  0.00     0.014 A 
ATOM     35  C   UNL A   1      40.443  26.315  26.700  1.00  0.00     0.010 A 
ATOM     36  C   UNL A   1      39.265  25.727  28.754  1.00  0.00     0.010 A 
ATOM     37  C   UNL A   1      40.010  26.645  27.994  1.00  0.00    -0.014 A 
BRANCH  37  38
ATOM     38  C   UNL A   1      40.423  27.896  28.658  1.00  0.00     0.031 A 
ATOM     39  C   UNL A   1      41.806  27.939  29.245  1.00  0.00     0.074 A 
ATOM     40  C   UNL A   1      39.559  28.916  28.807  1.00  0.00     0.049 A 
ATOM     41  N   UNL A   1      42.332  28.813  30.055  1.00  0.00    -0.248 NA
ATOM     42  C   UNL A   1      42.693  26.804  28.922  1.00  0.00     0.031 C 
ATOM     43  C   UNL A   1      38.188  28.962  28.294  1.00  0.00     0.029 A 
ATOM     44  N   UNL A   1      39.714  30.115  29.451  1.00  0.00    -0.354 N 
ATOM     45  C   UNL A   1      43.585  28.307  30.379  1.00  0.00     0.074 A 
ATOM     46  C   UNL A   1      43.713  27.022  29.734  1.00  0.00     0.031 C 
ATOM     47  C   UNL A   1      37.637  30.145  28.619  1.00  0.00     0.029 A 
ATOM     48  C   UNL A   1      38.598  30.917  29.401  1.00  0.00     0.049 A 
ATOM     49  H   UNL A   1      40.545  30.378  29.907  1.00  0.00     0.167 HD
ATOM     50  C   UNL A   1      44.556  28.880  31.122  1.00  0.00     0.031 A 
ATOM     51  C   UNL A   1      38.386  32.134  29.936  1.00  0.00     0.031 A 
ATOM     52  C   UNL A   1      44.431  30.187  31.699  1.00  0.00     0.049 A 
ATOM     53  C   UNL A   1      39.497  32.771  30.729  1.00  0.00     0.074 A 
ATOM     54  C   UNL A   1      45.362  30.899  32.430  1.00  0.00     0.029 A 
ATOM     55  N   UNL A   1      43.306  30.990  31.575  1.00  0.00    -0.354 N 
ATOM     56  N   UNL A   1      40.685  32.289  31.015  1.00  0.00    -0.248 NA
ATOM     57  C   UNL A   1      39.247  34.117  31.262  1.00  0.00     0.031 C 
ATOM     58  C   UNL A   1      44.790  32.129  32.767  1.00  0.00     0.029 A 
ATOM     59  C   UNL A   1      43.522  32.198  32.208  1.00  0.00     0.049 A 
ATOM     60  H   UNL A   1      42.479  30.737  31.107  1.00  0.00     0.167 HD
ATOM     61  C   UNL A   1      41.337  33.289  31.728  1.00  0.00     0.074 A 
ATOM     62  C   UNL A   1      40.413  34.401  31.828  1.00  0.00     0.031 C 
ATOM     63  C   UNL A   1      42.587  33.292  32.251  1.00  0.00     0.031 A 
BRANCH  50  64
ATOM     64  C   UNL A   1      45.823  28.098  31.322  1.00  0.00    -0.014 A 
ATOM     65  C   UNL A   1      45.877  27.025  32.231  1.00  0.00     0.010 A 
ATOM     66  C   UNL A   1      46.980  28.442  30.600  1.00  0.00     0.010 A 
ATOM     67  C   UNL A   1      47.075  26.345  32.454  1.00  0.00     0.020 A 
ATOM     68  C   UNL A   1      48.173  27.742  30.796  1.00  0.00     0.020 A 
ATOM     69  C   UNL A   1      48.217  26.711  31.738  1.00  0.00     0.054 A 
BRANCH  69  70
ATOM     70  S   UNL A   1      49.757  25.799  32.033  1.00  0.00     0.124 S 
ATOM     71  O   UNL A   1      50.728  26.883  32.162  1.00  0.00    -0.237 OA
ATOM     72  O   UNL A   1      49.466  25.068  33.262  1.00  0.00    -0.237 OA
ATOM     73  O   UNL A   1      49.903  24.971  30.838  1.00  0.00    -0.744 OA
ENDBRANCH  69  70
ENDBRANCH  50  64
BRANCH  51  74
ATOM     74  C   UNL A   1      37.097  32.842  29.714  1.00  0.00    -0.014 A 
ATOM     75  C   UNL A   1      36.029  32.662  30.611  1.00  0.00     0.010 A 
ATOM     76  C   UNL A   1      36.925  33.699  28.612  1.00  0.00     0.010 A 
ATOM     77  C   UNL A   1      34.804  33.300  30.395  1.00  0.00     0.020 A 
ATOM     78  C   UNL A   1      35.708  34.358  28.405  1.00  0.00     0.020 A 
ATOM     79  C   UNL A   1      34.649  34.142  29.291  1.00  0.00     0.054 A 
BRANCH  79  80
ATOM     80  S   UNL A   1      33.058  34.979  29.045  1.00  0.00     0.124 S 
ATOM     81  O   UNL A   1      32.407  34.111  28.070  1.00  0.00    -0.237 OA
ATOM     82  O   UNL A   1      32.484  34.967  30.388  1.00  0.00    -0.237 OA
ATOM     83  O   UNL A   1      33.441  36.300  28.551  1.00  0.00    -0.744 OA
ENDBRANCH  79  80
ENDBRANCH  51  74
BRANCH  63  84
ATOM     84  C   UNL A   1      43.061  34.554  32.914  1.00  0.00    -0.014 A 
ATOM     85  C   UNL A   1      43.887  35.464  32.236  1.00  0.00     0.010 A 
ATOM     86  C   UNL A   1      42.567  34.880  34.191  1.00  0.00     0.010 A 
ATOM     87  C   UNL A   1      44.217  36.684  32.830  1.00  0.00     0.020 A 
ATOM     88  C   UNL A   1      42.878  36.107  34.777  1.00  0.00     0.020 A 
ATOM     89  C   UNL A   1      43.705  37.000  34.093  1.00  0.00     0.054 A 
BRANCH  89  90
ATOM     90  S   UNL A   1      44.072  38.628  34.801  1.00  0.00     0.124 S 
ATOM     91  O   UNL A   1      42.998  39.449  34.247  1.00  0.00    -0.237 OA
ATOM     92  O   UNL A   1      43.996  38.378  36.238  1.00  0.00    -0.237 OA
ATOM     93  O   UNL A   1      45.410  38.932  34.298  1.00  0.00    -0.744 OA
ENDBRANCH  89  90
ENDBRANCH  63  84
ENDBRANCH  37  38
ENDBRANCH  29  32
ENDBRANCH  27  28
ENDBRANCH  26  27
ENDBRANCH   1  26
TORSDOF 20
ENDMDL
MODEL 3
REMARK VINA RESULT:     -10.2      1.557      3.020
REMARK SMILES C#CC[N@@H+](CC(=O)NCCCCNC(=O)c1ccc(-c2c3nc(c(-c4ccc(S(=O)(=O)[O-])cc4)c4ccc([nH]4)c(-c4ccc(S(=O)(=O)[O-])cc4)c4nc(c(-c5ccc(S(=O)(=O)[O-])cc5)c5ccc2[nH]5)C=C4)C=C3)cc1)CC(=O)Nc1c(Cl)cccc1Cl
REMARK SMILES IDX 10 1 9 2 8 3 6 4 7 5 5 7 4 8 3 10 2 11 1 12 76 13 77 14
REMARK SMILES IDX 78 15 79 16 80 18 81 19 86 20 82 21 83 22 85 23 87 24 84 25
REMARK SMILES IDX 11 26 12 27 13 28 14 29 15 31 16 32 17 33 75 34 18 35 74 36
REMARK SMILES IDX 19 37 20 38 21 39 68 40 22 41 73 42 67 43 69 44 23 45 72 46
REMARK SMILES IDX 66 47 65 48 24 50 54 51 35 52 53 53 36 54 39 55 52 56 70 57
REMARK SMILES IDX 37 58 38 59 51 61 71 62 40 63 25 64 26 65 34 66 27 67 33 68
REMARK SMILES IDX 28 69 29 70 30 71 31 72 32 73 55 74 56 75 64 76 57 77 63 78
REMARK SMILES IDX 58 79 59 80 60 81 61 82 62 83 41 84 42 85 50 86 43 87 49 88
REMARK SMILES IDX 44 89 45 90 46 91 47 92 48 93
REMARK H PARENT 8 6 4 9 79 17 13 30 69 49 39 60
REMARK Flexibility Score: inf
ROOT
ATOM      1  C   UNL A   1      32.192  27.651  26.259  1.00  0.00     0.023 C 
ENDROOT
BRANCH   1   2
ATOM      2  C   UNL A   1      31.202  26.482  26.409  1.00  0.00     0.116 C 
BRANCH   2   3
ATOM      3  N   UNL A   1      31.862  25.250  26.780  1.00  0.00    -0.351 N 
ATOM      4  C   UNL A   1      31.837  23.999  26.248  1.00  0.00     0.275 C 
ATOM      5  O   UNL A   1      32.489  23.171  26.886  1.00  0.00    -0.269 OA
ATOM      6  H   UNL A   1      32.439  25.333  27.571  1.00  0.00     0.163 HD
BRANCH   4   7
ATOM      7  C   UNL A   1      31.019  23.638  24.957  1.00  0.00     0.364 C 
BRANCH   7   8
ATOM      8  N   UNL A   1      31.807  23.547  23.681  1.00  0.00    -0.309 N 
ATOM      9  H   UNL A   1      31.246  23.491  22.831  1.00  0.00     0.349 HD
BRANCH   8  10
ATOM     10  C   UNL A   1      32.558  22.324  23.829  1.00  0.00     0.354 C 
BRANCH  10  11
ATOM     11  C   UNL A   1      32.367  20.927  23.261  1.00  0.00    -0.047 C 
ATOM     12  C   UNL A   1      32.203  19.729  22.773  1.00  0.00     0.010 C 
ENDBRANCH  10  11
ENDBRANCH   8  10
BRANCH   8  13
ATOM     13  C   UNL A   1      32.580  24.797  23.424  1.00  0.00     0.365 C 
BRANCH  13  14
ATOM     14  C   UNL A   1      32.491  25.435  22.031  1.00  0.00     0.279 C 
ATOM     15  O   UNL A   1      33.027  24.859  21.073  1.00  0.00    -0.268 OA
ATOM     16  N   UNL A   1      31.736  26.543  21.737  1.00  0.00    -0.319 N 
ATOM     17  H   UNL A   1      31.703  26.704  20.766  1.00  0.00     0.170 HD
BRANCH  16  18
ATOM     18  C   UNL A   1      30.987  27.523  22.448  1.00  0.00     0.079 A 
ATOM     19  C   UNL A   1      31.690  28.655  22.906  1.00  0.00     0.066 A 
ATOM     20  C   UNL A   1      29.626  27.490  22.794  1.00  0.00     0.066 A 
ATOM     21  Cl  UNL A   1      33.418  28.742  22.811  1.00  0.00    -0.082 Cl
ATOM     22  C   UNL A   1      31.024  29.762  23.453  1.00  0.00     0.023 A 
ATOM     23  C   UNL A   1      28.926  28.661  23.125  1.00  0.00     0.023 A 
ATOM     24  Cl  UNL A   1      29.049  26.229  23.882  1.00  0.00    -0.082 Cl
ATOM     25  C   UNL A   1      29.635  29.794  23.492  1.00  0.00     0.003 A 
ENDBRANCH  16  18
ENDBRANCH  13  14
ENDBRANCH   8  13
ENDBRANCH   7   8
ENDBRANCH   4   7
ENDBRANCH   2   3
ENDBRANCH   1   2
BRANCH   1  26
ATOM     26  C   UNL A   1      33.649  27.252  26.122  1.00  0.00     0.023 C 
BRANCH  26  27
ATOM     27  C   UNL A   1      34.559  28.205  26.846  1.00  0.00     0.116 C 
BRANCH  27  28
ATOM     28  N   UNL A   1      33.962  29.535  26.992  1.00  0.00    -0.352 N 
ATOM     29  C   UNL A   1      34.497  30.601  27.660  1.00  0.00     0.251 C 
ATOM     30  H   UNL A   1      33.087  29.675  26.564  1.00  0.00     0.163 HD
ATOM     31  O   UNL A   1      33.892  31.654  27.805  1.00  0.00    -0.269 OA
BRANCH  29  32
ATOM     32  C   UNL A   1      35.832  30.378  28.215  1.00  0.00     0.039 A 
ATOM     33  C   UNL A   1      35.942  29.776  29.468  1.00  0.00     0.014 A 
ATOM     34  C   UNL A   1      36.916  30.492  27.341  1.00  0.00     0.014 A 
ATOM     35  C   UNL A   1      37.172  29.253  29.845  1.00  0.00     0.010 A 
ATOM     36  C   UNL A   1      38.098  29.864  27.672  1.00  0.00     0.010 A 
ATOM     37  C   UNL A   1      38.244  29.273  28.939  1.00  0.00    -0.014 A 
BRANCH  37  38
ATOM     38  C   UNL A   1      39.590  28.803  29.316  1.00  0.00     0.031 A 
ATOM     39  C   UNL A   1      40.468  29.762  30.070  1.00  0.00     0.074 A 
ATOM     40  C   UNL A   1      40.039  27.600  28.916  1.00  0.00     0.049 A 
ATOM     41  N   UNL A   1      41.743  29.688  30.327  1.00  0.00    -0.248 NA
ATOM     42  C   UNL A   1      39.828  31.006  30.543  1.00  0.00     0.031 C 
ATOM     43  C   UNL A   1      39.272  26.605  28.161  1.00  0.00     0.029 A 
ATOM     44  N   UNL A   1      41.264  27.014  29.089  1.00  0.00    -0.354 N 
ATOM     45  C   UNL A   1      42.065  30.893  30.939  1.00  0.00     0.074 A 
ATOM     46  C   UNL A   1      40.872  31.704  30.956  1.00  0.00     0.031 C 
ATOM     47  C   UNL A   1      40.040  25.519  27.961  1.00  0.00     0.029 A 
ATOM     48  C   UNL A   1      41.361  25.760  28.532  1.00  0.00     0.049 A 
ATOM     49  H   UNL A   1      42.007  27.448  29.566  1.00  0.00     0.167 HD
ATOM     50  C   UNL A   1      43.246  31.275  31.472  1.00  0.00     0.031 A 
ATOM     51  C   UNL A   1      42.408  24.914  28.488  1.00  0.00     0.031 A 
ATOM     52  C   UNL A   1      44.401  30.426  31.503  1.00  0.00     0.049 A 
ATOM     53  C   UNL A   1      43.705  25.345  29.122  1.00  0.00     0.074 A 
ATOM     54  C   UNL A   1      45.641  30.677  32.058  1.00  0.00     0.029 A 
ATOM     55  N   UNL A   1      44.440  29.141  30.980  1.00  0.00    -0.354 N 
ATOM     56  N   UNL A   1      43.993  26.482  29.714  1.00  0.00    -0.248 NA
ATOM     57  C   UNL A   1      44.812  24.381  29.094  1.00  0.00     0.031 C 
ATOM     58  C   UNL A   1      46.439  29.547  31.852  1.00  0.00     0.029 A 
ATOM     59  C   UNL A   1      45.680  28.580  31.208  1.00  0.00     0.049 A 
ATOM     60  H   UNL A   1      43.695  28.697  30.515  1.00  0.00     0.167 HD
ATOM     61  C   UNL A   1      45.302  26.353  30.163  1.00  0.00     0.074 A 
ATOM     62  C   UNL A   1      45.748  25.029  29.775  1.00  0.00     0.031 C 
ATOM     63  C   UNL A   1      46.069  27.244  30.837  1.00  0.00     0.031 A 
BRANCH  50  64
ATOM     64  C   UNL A   1      43.320  32.651  32.071  1.00  0.00    -0.014 A 
ATOM     65  C   UNL A   1      42.949  32.880  33.408  1.00  0.00     0.010 A 
ATOM     66  C   UNL A   1      43.758  33.733  31.287  1.00  0.00     0.010 A 
ATOM     67  C   UNL A   1      42.964  34.172  33.936  1.00  0.00     0.020 A 
ATOM     68  C   UNL A   1      43.805  35.023  31.821  1.00  0.00     0.020 A 
ATOM     69  C   UNL A   1      43.388  35.237  33.137  1.00  0.00     0.054 A 
BRANCH  69  70
ATOM     70  S   UNL A   1      43.415  36.903  33.853  1.00  0.00     0.124 S 
ATOM     71  O   UNL A   1      42.198  36.902  34.661  1.00  0.00    -0.237 OA
ATOM     72  O   UNL A   1      44.667  36.908  34.604  1.00  0.00    -0.237 OA
ATOM     73  O   UNL A   1      43.387  37.781  32.685  1.00  0.00    -0.744 OA
ENDBRANCH  69  70
ENDBRANCH  50  64
BRANCH  51  74
ATOM     74  C   UNL A   1      42.268  23.573  27.860  1.00  0.00    -0.014 A 
ATOM     75  C   UNL A   1      41.742  22.499  28.599  1.00  0.00     0.010 A 
ATOM     76  C   UNL A   1      42.655  23.358  26.525  1.00  0.00     0.010 A 
ATOM     77  C   UNL A   1      41.634  21.228  28.027  1.00  0.00     0.020 A 
ATOM     78  C   UNL A   1      42.526  22.093  25.941  1.00  0.00     0.020 A 
ATOM     79  C   UNL A   1      42.030  21.031  26.701  1.00  0.00     0.054 A 
BRANCH  79  80
ATOM     80  S   UNL A   1      41.857  19.379  25.972  1.00  0.00     0.124 S 
ATOM     81  O   UNL A   1      42.337  18.521  27.050  1.00  0.00    -0.237 OA
ATOM     82  O   UNL A   1      40.425  19.304  25.693  1.00  0.00    -0.237 OA
ATOM     83  O   UNL A   1      42.712  19.437  24.788  1.00  0.00    -0.744 OA
ENDBRANCH  79  80
ENDBRANCH  51  74
BRANCH  63  84
ATOM     84  C   UNL A   1      47.439  26.800  31.264  1.00  0.00    -0.014 A 
ATOM     85  C   UNL A   1      47.643  26.157  32.496  1.00  0.00     0.010 A 
ATOM     86  C   UNL A   1      48.510  26.927  30.360  1.00  0.00     0.010 A 
ATOM     87  C   UNL A   1      48.903  25.649  32.818  1.00  0.00     0.020 A 
ATOM     88  C   UNL A   1      49.764  26.401  30.671  1.00  0.00     0.020 A 
ATOM     89  C   UNL A   1      49.952  25.769  31.901  1.00  0.00     0.054 A 
BRANCH  89  90
ATOM     90  S   UNL A   1      51.553  25.018  32.305  1.00  0.00     0.124 S 
ATOM     91  O   UNL A   1      51.288  23.599  32.082  1.00  0.00    -0.237 OA
ATOM     92  O   UNL A   1      52.455  25.648  31.344  1.00  0.00    -0.237 OA
ATOM     93  O   UNL A   1      51.773  25.399  33.699  1.00  0.00    -0.744 OA
ENDBRANCH  89  90
ENDBRANCH  63  84
ENDBRANCH  37  38
ENDBRANCH  29  32
ENDBRANCH  27  28
ENDBRANCH  26  27
ENDBRANCH   1  26
TORSDOF 20
ENDMDL
