MODEL 1
REMARK VINA RESULT:     -10.7      0.000      0.000
REMARK SMILES COCCC(=O)N[C@@H](Cc1c[nH]c2ccccc12)C(=O)NCCCCNC(=O)c1ccc(-c2c3nc(c(-c4ccc(S(=O)(=O)[O-])cc4)c4ccc([nH]4)c(-c4ccc(S(=O)(=O)[O-])cc4)c4nc(c(-c5ccc(S(=O)(=O)[O-])cc5)c5ccc2[nH]5)C=C4)C=C3)cc1
REMARK SMILES IDX 23 1 22 2 21 3 19 4 20 5 8 7 7 8 5 9 6 10 4 12 3 13 2 14
REMARK SMILES IDX 1 15 9 16 10 17 11 18 18 19 12 20 13 21 17 22 14 24 16 25
REMARK SMILES IDX 15 26 24 27 25 28 26 29 27 30 28 32 29 33 30 34 88 35 31 36
REMARK SMILES IDX 87 37 32 38 33 39 34 40 81 41 35 42 86 43 80 44 82 45 36 46
REMARK SMILES IDX 85 47 79 48 78 49 37 51 67 52 48 53 66 54 49 55 52 56 65 57
REMARK SMILES IDX 83 58 50 59 51 60 64 62 84 63 53 64 38 65 39 66 47 67 40 68
REMARK SMILES IDX 46 69 41 70 42 71 43 72 44 73 45 74 68 75 69 76 77 77 70 78
REMARK SMILES IDX 76 79 71 80 72 81 73 82 74 83 75 84 54 85 55 86 63 87 56 88
REMARK SMILES IDX 62 89 57 90 58 91 59 92 60 93 61 94
REMARK H PARENT 21 6 7 11 12 23 26 31 82 50 52 61
REMARK Flexibility Score: inf
ROOT
ATOM      1  C   UNL A   1      32.034  27.454  26.670  1.00  0.00     0.023 C 
ENDROOT
BRANCH   1   2
ATOM      2  C   UNL A   1      32.158  25.966  26.388  1.00  0.00     0.116 C 
BRANCH   2   3
ATOM      3  N   UNL A   1      31.087  25.156  26.907  1.00  0.00    -0.354 N 
ATOM      4  C   UNL A   1      30.737  23.888  26.531  1.00  0.00     0.242 C 
ATOM      5  O   UNL A   1      29.923  23.288  27.241  1.00  0.00    -0.273 OA
ATOM      6  H   UNL A   1      30.542  25.562  27.619  1.00  0.00     0.163 HD
BRANCH   4   7
ATOM      7  C   UNL A   1      31.325  23.202  25.267  1.00  0.00     0.175 C 
BRANCH   7   8
ATOM      8  N   UNL A   1      31.423  21.750  25.459  1.00  0.00    -0.344 N 
ATOM      9  C   UNL A   1      32.437  20.898  25.157  1.00  0.00     0.222 C 
ATOM     10  O   UNL A   1      32.344  19.727  25.533  1.00  0.00    -0.275 OA
ATOM     11  H   UNL A   1      30.633  21.329  25.868  1.00  0.00     0.164 HD
BRANCH   9  12
ATOM     12  C   UNL A   1      33.598  21.347  24.308  1.00  0.00     0.128 C 
BRANCH  12  13
ATOM     13  C   UNL A   1      34.847  21.473  25.169  1.00  0.00     0.169 C 
BRANCH  13  14
ATOM     14  O   UNL A   1      36.016  21.591  24.353  1.00  0.00    -0.384 OA
ATOM     15  C   UNL A   1      37.184  21.875  25.119  1.00  0.00     0.194 C 
ENDBRANCH  13  14
ENDBRANCH  12  13
ENDBRANCH   9  12
ENDBRANCH   7   8
BRANCH   7  16
ATOM     16  C   UNL A   1      30.757  23.702  23.919  1.00  0.00     0.072 C 
BRANCH  16  17
ATOM     17  C   UNL A   1      31.169  25.029  23.328  1.00  0.00    -0.020 A 
ATOM     18  C   UNL A   1      32.385  25.423  22.797  1.00  0.00     0.087 A 
ATOM     19  C   UNL A   1      30.344  26.210  23.309  1.00  0.00     0.003 A 
ATOM     20  N   UNL A   1      32.235  26.663  22.231  1.00  0.00    -0.361 N 
ATOM     21  C   UNL A   1      31.005  27.180  22.556  1.00  0.00     0.046 A 
ATOM     22  C   UNL A   1      29.088  26.541  23.860  1.00  0.00     0.010 A 
ATOM     23  H   UNL A   1      32.908  27.117  21.674  1.00  0.00     0.166 HD
ATOM     24  C   UNL A   1      30.445  28.426  22.255  1.00  0.00     0.026 A 
ATOM     25  C   UNL A   1      28.539  27.808  23.623  1.00  0.00     0.001 A 
ATOM     26  C   UNL A   1      29.200  28.726  22.812  1.00  0.00     0.002 A 
ENDBRANCH  16  17
ENDBRANCH   7  16
ENDBRANCH   4   7
ENDBRANCH   2   3
ENDBRANCH   1   2
BRANCH   1  27
ATOM     27  C   UNL A   1      33.276  28.105  27.257  1.00  0.00     0.023 C 
BRANCH  27  28
ATOM     28  C   UNL A   1      33.685  29.431  26.626  1.00  0.00     0.116 C 
BRANCH  28  29
ATOM     29  N   UNL A   1      33.599  30.578  27.522  1.00  0.00    -0.352 N 
ATOM     30  C   UNL A   1      34.544  31.030  28.423  1.00  0.00     0.251 C 
ATOM     31  H   UNL A   1      32.763  31.097  27.480  1.00  0.00     0.163 HD
ATOM     32  O   UNL A   1      34.315  31.982  29.150  1.00  0.00    -0.269 OA
BRANCH  30  33
ATOM     33  C   UNL A   1      35.824  30.291  28.511  1.00  0.00     0.039 A 
ATOM     34  C   UNL A   1      36.724  30.360  27.446  1.00  0.00     0.014 A 
ATOM     35  C   UNL A   1      36.179  29.663  29.706  1.00  0.00     0.014 A 
ATOM     36  C   UNL A   1      38.027  29.887  27.622  1.00  0.00     0.010 A 
ATOM     37  C   UNL A   1      37.500  29.278  29.906  1.00  0.00     0.010 A 
ATOM     38  C   UNL A   1      38.441  29.397  28.872  1.00  0.00    -0.014 A 
BRANCH  38  39
ATOM     39  C   UNL A   1      39.857  29.025  29.131  1.00  0.00     0.031 A 
ATOM     40  C   UNL A   1      40.805  30.039  29.714  1.00  0.00     0.074 A 
ATOM     41  C   UNL A   1      40.314  27.811  28.762  1.00  0.00     0.049 A 
ATOM     42  N   UNL A   1      42.088  29.932  29.942  1.00  0.00    -0.248 NA
ATOM     43  C   UNL A   1      40.243  31.357  30.053  1.00  0.00     0.031 C 
ATOM     44  C   UNL A   1      39.516  26.755  28.132  1.00  0.00     0.029 A 
ATOM     45  N   UNL A   1      41.569  27.260  28.856  1.00  0.00    -0.354 N 
ATOM     46  C   UNL A   1      42.491  31.173  30.421  1.00  0.00     0.074 A 
ATOM     47  C   UNL A   1      41.327  32.032  30.403  1.00  0.00     0.031 C 
ATOM     48  C   UNL A   1      40.290  25.675  27.933  1.00  0.00     0.029 A 
ATOM     49  C   UNL A   1      41.646  25.970  28.382  1.00  0.00     0.049 A 
ATOM     50  H   UNL A   1      42.341  27.742  29.230  1.00  0.00     0.167 HD
ATOM     51  C   UNL A   1      43.713  31.561  30.857  1.00  0.00     0.031 A 
ATOM     52  C   UNL A   1      42.690  25.121  28.315  1.00  0.00     0.031 A 
ATOM     53  C   UNL A   1      44.862  30.699  30.903  1.00  0.00     0.049 A 
ATOM     54  C   UNL A   1      44.034  25.567  28.825  1.00  0.00     0.074 A 
ATOM     55  C   UNL A   1      46.124  30.975  31.402  1.00  0.00     0.029 A 
ATOM     56  N   UNL A   1      44.891  29.395  30.436  1.00  0.00    -0.354 N 
ATOM     57  N   UNL A   1      44.375  26.721  29.345  1.00  0.00    -0.248 NA
ATOM     58  C   UNL A   1      45.130  24.592  28.746  1.00  0.00     0.031 C 
ATOM     59  C   UNL A   1      46.928  29.848  31.198  1.00  0.00     0.029 A 
ATOM     60  C   UNL A   1      46.154  28.857  30.617  1.00  0.00     0.049 A 
ATOM     61  H   UNL A   1      44.127  28.921  30.036  1.00  0.00     0.167 HD
ATOM     62  C   UNL A   1      45.718  26.601  29.683  1.00  0.00     0.074 A 
ATOM     63  C   UNL A   1      46.124  25.259  29.318  1.00  0.00     0.031 C 
ATOM     64  C   UNL A   1      46.541  27.518  30.249  1.00  0.00     0.031 A 
BRANCH  51  65
ATOM     65  C   UNL A   1      43.862  32.987  31.317  1.00  0.00    -0.014 A 
ATOM     66  C   UNL A   1      44.281  33.996  30.431  1.00  0.00     0.010 A 
ATOM     67  C   UNL A   1      43.563  33.326  32.649  1.00  0.00     0.010 A 
ATOM     68  C   UNL A   1      44.448  35.307  30.881  1.00  0.00     0.020 A 
ATOM     69  C   UNL A   1      43.701  34.642  33.096  1.00  0.00     0.020 A 
ATOM     70  C   UNL A   1      44.164  35.621  32.213  1.00  0.00     0.054 A 
BRANCH  70  71
ATOM     71  S   UNL A   1      44.384  37.333  32.770  1.00  0.00     0.124 S 
ATOM     72  O   UNL A   1      43.893  38.088  31.619  1.00  0.00    -0.237 OA
ATOM     73  O   UNL A   1      43.543  37.393  33.964  1.00  0.00    -0.237 OA
ATOM     74  O   UNL A   1      45.820  37.436  33.017  1.00  0.00    -0.744 OA
ENDBRANCH  70  71
ENDBRANCH  51  65
BRANCH  52  75
ATOM     75  C   UNL A   1      42.501  23.746  27.777  1.00  0.00    -0.014 A 
ATOM     76  C   UNL A   1      42.556  23.516  26.391  1.00  0.00     0.010 A 
ATOM     77  C   UNL A   1      42.276  22.660  28.642  1.00  0.00     0.010 A 
ATOM     78  C   UNL A   1      42.370  22.228  25.878  1.00  0.00     0.020 A 
ATOM     79  C   UNL A   1      42.114  21.367  28.135  1.00  0.00     0.020 A 
ATOM     80  C   UNL A   1      42.152  21.161  26.754  1.00  0.00     0.054 A 
BRANCH  80  81
ATOM     81  S   UNL A   1      41.969  19.491  26.069  1.00  0.00     0.124 S 
ATOM     82  O   UNL A   1      42.850  19.541  24.906  1.00  0.00    -0.237 OA
ATOM     83  O   UNL A   1      42.421  18.645  27.170  1.00  0.00    -0.237 OA
ATOM     84  O   UNL A   1      40.541  19.400  25.771  1.00  0.00    -0.744 OA
ENDBRANCH  80  81
ENDBRANCH  52  75
BRANCH  64  85
ATOM     85  C   UNL A   1      47.954  27.095  30.542  1.00  0.00    -0.014 A 
ATOM     86  C   UNL A   1      48.996  27.363  29.636  1.00  0.00     0.010 A 
ATOM     87  C   UNL A   1      48.251  26.472  31.768  1.00  0.00     0.010 A 
ATOM     88  C   UNL A   1      50.308  26.989  29.942  1.00  0.00     0.020 A 
ATOM     89  C   UNL A   1      49.564  26.120  32.087  1.00  0.00     0.020 A 
ATOM     90  C   UNL A   1      50.583  26.369  31.165  1.00  0.00     0.054 A 
BRANCH  90  91
ATOM     91  S   UNL A   1      52.300  25.938  31.561  1.00  0.00     0.124 S 
ATOM     92  O   UNL A   1      52.948  26.045  30.256  1.00  0.00    -0.237 OA
ATOM     93  O   UNL A   1      52.673  26.961  32.534  1.00  0.00    -0.237 OA
ATOM     94  O   UNL A   1      52.200  24.583  32.098  1.00  0.00    -0.744 OA
ENDBRANCH  90  91
ENDBRANCH  64  85
ENDBRANCH  38  39
ENDBRANCH  30  33
ENDBRANCH  28  29
ENDBRANCH  27  28
ENDBRANCH   1  27
TORSDOF 20
ENDMDL
MODEL 2
REMARK VINA RESULT:     -10.7      2.621      8.926
REMARK SMILES COCCC(=O)N[C@@H](Cc1c[nH]c2ccccc12)C(=O)NCCCCNC(=O)c1ccc(-c2c3nc(c(-c4ccc(S(=O)(=O)[O-])cc4)c4ccc([nH]4)c(-c4ccc(S(=O)(=O)[O-])cc4)c4nc(c(-c5ccc(S(=O)(=O)[O-])cc5)c5ccc2[nH]5)C=C4)C=C3)cc1
REMARK SMILES IDX 23 1 22 2 21 3 19 4 20 5 8 7 7 8 5 9 6 10 4 12 3 13 2 14
REMARK SMILES IDX 1 15 9 16 10 17 11 18 18 19 12 20 13 21 17 22 14 24 16 25
REMARK SMILES IDX 15 26 24 27 25 28 26 29 27 30 28 32 29 33 30 34 88 35 31 36
REMARK SMILES IDX 87 37 32 38 33 39 34 40 81 41 35 42 86 43 80 44 82 45 36 46
REMARK SMILES IDX 85 47 79 48 78 49 37 51 67 52 48 53 66 54 49 55 52 56 65 57
REMARK SMILES IDX 83 58 50 59 51 60 64 62 84 63 53 64 38 65 39 66 47 67 40 68
REMARK SMILES IDX 46 69 41 70 42 71 43 72 44 73 45 74 68 75 69 76 77 77 70 78
REMARK SMILES IDX 76 79 71 80 72 81 73 82 74 83 75 84 54 85 55 86 63 87 56 88
REMARK SMILES IDX 62 89 57 90 58 91 59 92 60 93 61 94
REMARK H PARENT 21 6 7 11 12 23 26 31 82 50 52 61
REMARK Flexibility Score: inf
ROOT
ATOM      1  C   UNL A   1      34.749  22.842  26.307  1.00  0.00     0.023 C 
ENDROOT
BRANCH   1   2
ATOM      2  C   UNL A   1      33.529  21.941  26.222  1.00  0.00     0.116 C 
BRANCH   2   3
ATOM      3  N   UNL A   1      32.437  22.310  27.085  1.00  0.00    -0.354 N 
ATOM      4  C   UNL A   1      31.376  23.122  26.793  1.00  0.00     0.242 C 
ATOM      5  O   UNL A   1      30.439  23.146  27.599  1.00  0.00    -0.273 OA
ATOM      6  H   UNL A   1      32.456  21.933  27.993  1.00  0.00     0.163 HD
BRANCH   4   7
ATOM      7  C   UNL A   1      31.320  23.989  25.506  1.00  0.00     0.175 C 
BRANCH   7   8
ATOM      8  N   UNL A   1      31.430  23.151  24.306  1.00  0.00    -0.344 N 
ATOM      9  C   UNL A   1      32.237  23.284  23.221  1.00  0.00     0.222 C 
ATOM     10  O   UNL A   1      32.246  22.375  22.387  1.00  0.00    -0.275 OA
ATOM     11  H   UNL A   1      30.826  22.374  24.283  1.00  0.00     0.164 HD
BRANCH   9  12
ATOM     12  C   UNL A   1      33.030  24.545  22.997  1.00  0.00     0.128 C 
BRANCH  12  13
ATOM     13  C   UNL A   1      32.785  25.064  21.587  1.00  0.00     0.169 C 
BRANCH  13  14
ATOM     14  O   UNL A   1      33.587  26.218  21.325  1.00  0.00    -0.384 OA
ATOM     15  C   UNL A   1      33.651  27.098  22.444  1.00  0.00     0.194 C 
ENDBRANCH  13  14
ENDBRANCH  12  13
ENDBRANCH   9  12
ENDBRANCH   7   8
BRANCH   7  16
ATOM     16  C   UNL A   1      30.240  25.096  25.500  1.00  0.00     0.072 C 
BRANCH  16  17
ATOM     17  C   UNL A   1      30.524  26.477  24.961  1.00  0.00    -0.020 A 
ATOM     18  C   UNL A   1      30.237  27.021  23.721  1.00  0.00     0.087 A 
ATOM     19  C   UNL A   1      31.277  27.491  25.657  1.00  0.00     0.003 A 
ATOM     20  N   UNL A   1      30.534  28.359  23.750  1.00  0.00    -0.361 N 
ATOM     21  C   UNL A   1      31.198  28.667  24.911  1.00  0.00     0.046 A 
ATOM     22  C   UNL A   1      32.014  27.516  26.859  1.00  0.00     0.010 A 
ATOM     23  H   UNL A   1      30.305  29.006  23.044  1.00  0.00     0.166 HD
ATOM     24  C   UNL A   1      31.743  29.882  25.341  1.00  0.00     0.026 A 
ATOM     25  C   UNL A   1      32.621  28.708  27.275  1.00  0.00     0.001 A 
ATOM     26  C   UNL A   1      32.466  29.878  26.537  1.00  0.00     0.002 A 
ENDBRANCH  16  17
ENDBRANCH   7  16
ENDBRANCH   4   7
ENDBRANCH   2   3
ENDBRANCH   1   2
BRANCH   1  27
ATOM     27  C   UNL A   1      35.901  22.457  25.392  1.00  0.00     0.023 C 
BRANCH  27  28
ATOM     28  C   UNL A   1      37.157  23.312  25.518  1.00  0.00     0.116 C 
BRANCH  28  29
ATOM     29  N   UNL A   1      38.385  22.554  25.723  1.00  0.00    -0.352 N 
ATOM     30  C   UNL A   1      39.546  22.964  26.351  1.00  0.00     0.251 C 
ATOM     31  H   UNL A   1      38.389  21.635  25.372  1.00  0.00     0.163 HD
ATOM     32  O   UNL A   1      40.522  22.235  26.407  1.00  0.00    -0.269 OA
BRANCH  30  33
ATOM     33  C   UNL A   1      39.583  24.335  26.910  1.00  0.00     0.039 A 
ATOM     34  C   UNL A   1      39.141  24.549  28.216  1.00  0.00     0.014 A 
ATOM     35  C   UNL A   1      40.192  25.361  26.184  1.00  0.00     0.014 A 
ATOM     36  C   UNL A   1      39.408  25.772  28.835  1.00  0.00     0.010 A 
ATOM     37  C   UNL A   1      40.537  26.541  26.834  1.00  0.00     0.010 A 
ATOM     38  C   UNL A   1      40.160  26.755  28.169  1.00  0.00    -0.014 A 
BRANCH  38  39
ATOM     39  C   UNL A   1      40.587  28.004  28.853  1.00  0.00     0.031 A 
ATOM     40  C   UNL A   1      41.960  28.095  29.464  1.00  0.00     0.074 A 
ATOM     41  C   UNL A   1      39.715  29.022  29.006  1.00  0.00     0.049 A 
ATOM     42  N   UNL A   1      42.489  29.065  30.164  1.00  0.00    -0.248 NA
ATOM     43  C   UNL A   1      42.842  26.928  29.294  1.00  0.00     0.031 C 
ATOM     44  C   UNL A   1      38.334  29.041  28.515  1.00  0.00     0.029 A 
ATOM     45  N   UNL A   1      39.858  30.239  29.626  1.00  0.00    -0.354 N 
ATOM     46  C   UNL A   1      43.748  28.614  30.542  1.00  0.00     0.074 A 
ATOM     47  C   UNL A   1      43.885  27.266  30.036  1.00  0.00     0.031 C 
ATOM     48  C   UNL A   1      37.773  30.223  28.819  1.00  0.00     0.029 A 
ATOM     49  C   UNL A   1      38.735  31.032  29.560  1.00  0.00     0.049 A 
ATOM     50  H   UNL A   1      40.688  30.520  30.075  1.00  0.00     0.167 HD
ATOM     51  C   UNL A   1      44.715  29.268  31.229  1.00  0.00     0.031 A 
ATOM     52  C   UNL A   1      38.505  32.269  30.041  1.00  0.00     0.031 A 
ATOM     53  C   UNL A   1      44.591  30.619  31.705  1.00  0.00     0.049 A 
ATOM     54  C   UNL A   1      39.601  32.985  30.783  1.00  0.00     0.074 A 
ATOM     55  C   UNL A   1      45.543  31.397  32.342  1.00  0.00     0.029 A 
ATOM     56  N   UNL A   1      43.447  31.393  31.596  1.00  0.00    -0.354 N 
ATOM     57  N   UNL A   1      40.813  32.569  31.063  1.00  0.00    -0.248 NA
ATOM     58  C   UNL A   1      39.300  34.339  31.267  1.00  0.00     0.031 C 
ATOM     59  C   UNL A   1      44.959  32.629  32.655  1.00  0.00     0.029 A 
ATOM     60  C   UNL A   1      43.661  32.635  32.170  1.00  0.00     0.049 A 
ATOM     61  H   UNL A   1      42.607  31.104  31.172  1.00  0.00     0.167 HD
ATOM     62  C   UNL A   1      41.430  33.622  31.729  1.00  0.00     0.074 A 
ATOM     63  C   UNL A   1      40.461  34.697  31.801  1.00  0.00     0.031 C 
ATOM     64  C   UNL A   1      42.686  33.694  32.232  1.00  0.00     0.031 A 
BRANCH  51  65
ATOM     65  C   UNL A   1      45.992  28.521  31.505  1.00  0.00    -0.014 A 
ATOM     66  C   UNL A   1      46.143  27.745  32.669  1.00  0.00     0.010 A 
ATOM     67  C   UNL A   1      47.051  28.581  30.581  1.00  0.00     0.010 A 
ATOM     68  C   UNL A   1      47.346  27.086  32.928  1.00  0.00     0.020 A 
ATOM     69  C   UNL A   1      48.246  27.900  30.822  1.00  0.00     0.020 A 
ATOM     70  C   UNL A   1      48.393  27.173  32.007  1.00  0.00     0.054 A 
BRANCH  70  71
ATOM     71  S   UNL A   1      49.943  26.302  32.365  1.00  0.00     0.124 S 
ATOM     72  O   UNL A   1      50.809  26.776  31.288  1.00  0.00    -0.237 OA
ATOM     73  O   UNL A   1      50.282  26.784  33.702  1.00  0.00    -0.237 OA
ATOM     74  O   UNL A   1      49.573  24.891  32.291  1.00  0.00    -0.744 OA
ENDBRANCH  70  71
ENDBRANCH  51  65
BRANCH  52  75
ATOM     75  C   UNL A   1      37.193  32.931  29.804  1.00  0.00    -0.014 A 
ATOM     76  C   UNL A   1      36.179  32.858  30.776  1.00  0.00     0.010 A 
ATOM     77  C   UNL A   1      36.950  33.642  28.616  1.00  0.00     0.010 A 
ATOM     78  C   UNL A   1      34.941  33.469  30.557  1.00  0.00     0.020 A 
ATOM     79  C   UNL A   1      35.721  34.275  28.403  1.00  0.00     0.020 A 
ATOM     80  C   UNL A   1      34.720  34.175  29.372  1.00  0.00     0.054 A 
BRANCH  80  81
ATOM     81  S   UNL A   1      33.125  35.006  29.133  1.00  0.00     0.124 S 
ATOM     82  O   UNL A   1      32.481  34.150  28.142  1.00  0.00    -0.237 OA
ATOM     83  O   UNL A   1      32.545  34.972  30.473  1.00  0.00    -0.237 OA
ATOM     84  O   UNL A   1      33.502  36.338  28.661  1.00  0.00    -0.744 OA
ENDBRANCH  80  81
ENDBRANCH  52  75
BRANCH  64  85
ATOM     85  C   UNL A   1      43.102  34.988  32.876  1.00  0.00    -0.014 A 
ATOM     86  C   UNL A   1      42.849  35.238  34.236  1.00  0.00     0.010 A 
ATOM     87  C   UNL A   1      43.809  35.942  32.120  1.00  0.00     0.010 A 
ATOM     88  C   UNL A   1      43.272  36.435  34.822  1.00  0.00     0.020 A 
ATOM     89  C   UNL A   1      44.255  37.127  32.710  1.00  0.00     0.020 A 
ATOM     90  C   UNL A   1      43.972  37.372  34.055  1.00  0.00     0.054 A 
BRANCH  90  91
ATOM     91  S   UNL A   1      44.553  38.895  34.850  1.00  0.00     0.124 S 
ATOM     92  O   UNL A   1      45.867  39.074  34.239  1.00  0.00    -0.237 OA
ATOM     93  O   UNL A   1      43.539  39.870  34.457  1.00  0.00    -0.237 OA
ATOM     94  O   UNL A   1      44.567  38.559  36.272  1.00  0.00    -0.744 OA
ENDBRANCH  90  91
ENDBRANCH  64  85
ENDBRANCH  38  39
ENDBRANCH  30  33
ENDBRANCH  28  29
ENDBRANCH  27  28
ENDBRANCH   1  27
TORSDOF 20
ENDMDL
MODEL 3
REMARK VINA RESULT:     -10.4      3.590      7.873
REMARK SMILES COCCC(=O)N[C@@H](Cc1c[nH]c2ccccc12)C(=O)NCCCCNC(=O)c1ccc(-c2c3nc(c(-c4ccc(S(=O)(=O)[O-])cc4)c4ccc([nH]4)c(-c4ccc(S(=O)(=O)[O-])cc4)c4nc(c(-c5ccc(S(=O)(=O)[O-])cc5)c5ccc2[nH]5)C=C4)C=C3)cc1
REMARK SMILES IDX 23 1 22 2 21 3 19 4 20 5 8 7 7 8 5 9 6 10 4 12 3 13 2 14
REMARK SMILES IDX 1 15 9 16 10 17 11 18 18 19 12 20 13 21 17 22 14 24 16 25
REMARK SMILES IDX 15 26 24 27 25 28 26 29 27 30 28 32 29 33 30 34 88 35 31 36
REMARK SMILES IDX 87 37 32 38 33 39 34 40 81 41 35 42 86 43 80 44 82 45 36 46
REMARK SMILES IDX 85 47 79 48 78 49 37 51 67 52 48 53 66 54 49 55 52 56 65 57
REMARK SMILES IDX 83 58 50 59 51 60 64 62 84 63 53 64 38 65 39 66 47 67 40 68
REMARK SMILES IDX 46 69 41 70 42 71 43 72 44 73 45 74 68 75 69 76 77 77 70 78
REMARK SMILES IDX 76 79 71 80 72 81 73 82 74 83 75 84 54 85 55 86 63 87 56 88
REMARK SMILES IDX 62 89 57 90 58 91 59 92 60 93 61 94
REMARK H PARENT 21 6 7 11 12 23 26 31 82 50 52 61
REMARK Flexibility Score: inf
ROOT
ATOM      1  C   UNL A   1      37.421  22.796  25.075  1.00  0.00     0.023 C 
ENDROOT
BRANCH   1   2
ATOM      2  C   UNL A   1      35.928  23.043  25.210  1.00  0.00     0.116 C 
BRANCH   2   3
ATOM      3  N   UNL A   1      35.352  22.629  26.463  1.00  0.00    -0.354 N 
ATOM      4  C   UNL A   1      34.236  21.863  26.661  1.00  0.00     0.242 C 
ATOM      5  O   UNL A   1      34.028  21.445  27.804  1.00  0.00    -0.273 OA
ATOM      6  H   UNL A   1      35.818  22.932  27.275  1.00  0.00     0.163 HD
BRANCH   4   7
ATOM      7  C   UNL A   1      33.252  21.514  25.511  1.00  0.00     0.175 C 
BRANCH   7   8
ATOM      8  N   UNL A   1      32.568  20.243  25.776  1.00  0.00    -0.344 N 
ATOM      9  C   UNL A   1      32.897  18.980  25.399  1.00  0.00     0.222 C 
ATOM     10  O   UNL A   1      32.234  18.045  25.854  1.00  0.00    -0.275 OA
ATOM     11  H   UNL A   1      31.743  20.317  26.309  1.00  0.00     0.164 HD
BRANCH   9  12
ATOM     12  C   UNL A   1      33.981  18.735  24.381  1.00  0.00     0.128 C 
BRANCH  12  13
ATOM     13  C   UNL A   1      33.947  17.281  23.933  1.00  0.00     0.169 C 
BRANCH  13  14
ATOM     14  O   UNL A   1      33.553  17.182  22.562  1.00  0.00    -0.384 OA
ATOM     15  C   UNL A   1      32.502  18.088  22.235  1.00  0.00     0.194 C 
ENDBRANCH  13  14
ENDBRANCH  12  13
ENDBRANCH   9  12
ENDBRANCH   7   8
BRANCH   7  16
ATOM     16  C   UNL A   1      32.388  22.690  25.000  1.00  0.00     0.072 C 
BRANCH  16  17
ATOM     17  C   UNL A   1      32.670  23.366  23.679  1.00  0.00    -0.020 A 
ATOM     18  C   UNL A   1      32.793  22.820  22.413  1.00  0.00     0.087 A 
ATOM     19  C   UNL A   1      32.976  24.765  23.522  1.00  0.00     0.003 A 
ATOM     20  N   UNL A   1      32.883  23.841  21.503  1.00  0.00    -0.361 N 
ATOM     21  C   UNL A   1      33.027  25.040  22.156  1.00  0.00     0.046 A 
ATOM     22  C   UNL A   1      33.208  25.828  24.422  1.00  0.00     0.010 A 
ATOM     23  H   UNL A   1      32.849  23.733  20.525  1.00  0.00     0.166 HD
ATOM     24  C   UNL A   1      33.213  26.328  21.642  1.00  0.00     0.026 A 
ATOM     25  C   UNL A   1      33.459  27.113  23.925  1.00  0.00     0.001 A 
ATOM     26  C   UNL A   1      33.438  27.361  22.556  1.00  0.00     0.002 A 
ENDBRANCH  16  17
ENDBRANCH   7  16
ENDBRANCH   4   7
ENDBRANCH   2   3
ENDBRANCH   1   2
BRANCH   1  27
ATOM     27  C   UNL A   1      37.907  21.466  25.630  1.00  0.00     0.023 C 
BRANCH  27  28
ATOM     28  C   UNL A   1      39.340  21.455  26.150  1.00  0.00     0.116 C 
BRANCH  28  29
ATOM     29  N   UNL A   1      40.012  20.165  26.038  1.00  0.00    -0.352 N 
ATOM     30  C   UNL A   1      41.367  19.901  26.105  1.00  0.00     0.251 C 
ATOM     31  H   UNL A   1      39.428  19.385  25.899  1.00  0.00     0.163 HD
ATOM     32  O   UNL A   1      41.796  18.771  25.945  1.00  0.00    -0.269 OA
BRANCH  30  33
ATOM     33  C   UNL A   1      42.284  21.041  26.330  1.00  0.00     0.039 A 
ATOM     34  C   UNL A   1      42.698  21.807  25.238  1.00  0.00     0.014 A 
ATOM     35  C   UNL A   1      42.603  21.426  27.634  1.00  0.00     0.014 A 
ATOM     36  C   UNL A   1      43.346  23.023  25.465  1.00  0.00     0.010 A 
ATOM     37  C   UNL A   1      43.164  22.679  27.855  1.00  0.00     0.010 A 
ATOM     38  C   UNL A   1      43.530  23.496  26.775  1.00  0.00    -0.014 A 
BRANCH  38  39
ATOM     39  C   UNL A   1      44.081  24.851  27.042  1.00  0.00     0.031 A 
ATOM     40  C   UNL A   1      43.178  25.940  27.556  1.00  0.00     0.074 A 
ATOM     41  C   UNL A   1      45.366  25.129  26.741  1.00  0.00     0.049 A 
ATOM     42  N   UNL A   1      43.451  27.200  27.779  1.00  0.00    -0.248 NA
ATOM     43  C   UNL A   1      41.778  25.573  27.823  1.00  0.00     0.031 C 
ATOM     44  C   UNL A   1      46.333  24.181  26.181  1.00  0.00     0.029 A 
ATOM     45  N   UNL A   1      46.081  26.296  26.856  1.00  0.00    -0.354 N 
ATOM     46  C   UNL A   1      42.253  27.780  28.181  1.00  0.00     0.074 A 
ATOM     47  C   UNL A   1      41.243  26.746  28.124  1.00  0.00     0.031 C 
ATOM     48  C   UNL A   1      47.521  24.793  26.038  1.00  0.00     0.029 A 
ATOM     49  C   UNL A   1      47.393  26.185  26.456  1.00  0.00     0.049 A 
ATOM     50  H   UNL A   1      45.691  27.134  27.194  1.00  0.00     0.167 HD
ATOM     51  C   UNL A   1      42.016  29.051  28.582  1.00  0.00     0.031 A 
ATOM     52  C   UNL A   1      48.382  27.100  26.430  1.00  0.00     0.031 A 
ATOM     53  C   UNL A   1      43.026  30.070  28.668  1.00  0.00     0.049 A 
ATOM     54  C   UNL A   1      48.101  28.500  26.901  1.00  0.00     0.074 A 
ATOM     55  C   UNL A   1      42.902  31.366  29.139  1.00  0.00     0.029 A 
ATOM     56  N   UNL A   1      44.346  29.909  28.278  1.00  0.00    -0.354 N 
ATOM     57  N   UNL A   1      46.978  29.008  27.350  1.00  0.00    -0.248 NA
ATOM     58  C   UNL A   1      49.222  29.449  26.869  1.00  0.00     0.031 C 
ATOM     59  C   UNL A   1      44.139  32.002  28.993  1.00  0.00     0.029 A 
ATOM     60  C   UNL A   1      45.044  31.088  28.478  1.00  0.00     0.049 A 
ATOM     61  H   UNL A   1      44.730  29.080  27.913  1.00  0.00     0.167 HD
ATOM     62  C   UNL A   1      47.265  30.327  27.682  1.00  0.00     0.074 A 
ATOM     63  C   UNL A   1      48.669  30.536  27.392  1.00  0.00     0.031 C 
ATOM     64  C   UNL A   1      46.442  31.279  28.185  1.00  0.00     0.031 A 
BRANCH  51  65
ATOM     65  C   UNL A   1      40.601  29.405  28.957  1.00  0.00    -0.014 A 
ATOM     66  C   UNL A   1      39.582  29.450  27.987  1.00  0.00     0.010 A 
ATOM     67  C   UNL A   1      40.282  29.680  30.299  1.00  0.00     0.010 A 
ATOM     68  C   UNL A   1      38.283  29.814  28.344  1.00  0.00     0.020 A 
ATOM     69  C   UNL A   1      38.976  30.016  30.665  1.00  0.00     0.020 A 
ATOM     70  C   UNL A   1      37.989  30.102  29.680  1.00  0.00     0.054 A 
BRANCH  70  71
ATOM     71  S   UNL A   1      36.291  30.565  30.117  1.00  0.00     0.124 S 
ATOM     72  O   UNL A   1      35.591  30.369  28.850  1.00  0.00    -0.237 OA
ATOM     73  O   UNL A   1      35.958  29.611  31.173  1.00  0.00    -0.237 OA
ATOM     74  O   UNL A   1      36.412  31.954  30.554  1.00  0.00    -0.744 OA
ENDBRANCH  70  71
ENDBRANCH  51  65
BRANCH  52  75
ATOM     75  C   UNL A   1      49.746  26.712  25.975  1.00  0.00    -0.014 A 
ATOM     76  C   UNL A   1      50.204  27.102  24.704  1.00  0.00     0.010 A 
ATOM     77  C   UNL A   1      50.595  25.962  26.808  1.00  0.00     0.010 A 
ATOM     78  C   UNL A   1      51.480  26.734  24.267  1.00  0.00     0.020 A 
ATOM     79  C   UNL A   1      51.881  25.612  26.383  1.00  0.00     0.020 A 
ATOM     80  C   UNL A   1      52.312  25.992  25.110  1.00  0.00     0.054 A 
BRANCH  80  81
ATOM     81  S   UNL A   1      53.984  25.573  24.543  1.00  0.00     0.124 S 
ATOM     82  O   UNL A   1      53.913  25.900  23.122  1.00  0.00    -0.237 OA
ATOM     83  O   UNL A   1      54.824  26.450  25.353  1.00  0.00    -0.237 OA
ATOM     84  O   UNL A   1      54.102  24.150  24.854  1.00  0.00    -0.744 OA
ENDBRANCH  80  81
ENDBRANCH  52  75
BRANCH  64  85
ATOM     85  C   UNL A   1      47.041  32.624  28.490  1.00  0.00    -0.014 A 
ATOM     86  C   UNL A   1      47.627  32.894  29.739  1.00  0.00     0.010 A 
ATOM     87  C   UNL A   1      47.069  33.612  27.488  1.00  0.00     0.010 A 
ATOM     88  C   UNL A   1      48.206  34.141  29.991  1.00  0.00     0.020 A 
ATOM     89  C   UNL A   1      47.670  34.850  27.729  1.00  0.00     0.020 A 
ATOM     90  C   UNL A   1      48.223  35.111  28.984  1.00  0.00     0.054 A 
BRANCH  90  91
ATOM     91  S   UNL A   1      49.024  36.704  29.317  1.00  0.00     0.124 S 
ATOM     92  O   UNL A   1      48.406  37.570  28.317  1.00  0.00    -0.237 OA
ATOM     93  O   UNL A   1      48.645  36.972  30.702  1.00  0.00    -0.237 OA
ATOM     94  O   UNL A   1      50.444  36.427  29.111  1.00  0.00    -0.744 OA
ENDBRANCH  90  91
ENDBRANCH  64  85
ENDBRANCH  38  39
ENDBRANCH  30  33
ENDBRANCH  28  29
ENDBRANCH  27  28
ENDBRANCH   1  27
TORSDOF 20
ENDMDL
