MODEL 1
REMARK VINA RESULT:     -11.6      0.000      0.000
REMARK SMILES COc1cc(Cl)c2c(c1)C=C(C(=O)NCCCCNC(=O)c1ccc(-c3c4nc(c(-c5ccc(S(=O)(=O)[O-])cc5)c5ccc([nH]5)c(-c5ccc(S(=O)(=O)[O-])cc5)c5nc(c(-c6ccc(S(=O)(=O)[O-])cc6)c6ccc3[nH]6)C=C5)C=C4)cc1)[C@@H](C(F)(F)F)O2
REMARK SMILES IDX 17 1 16 2 15 3 14 4 12 5 13 6 11 8 3 9 4 10 9 11 5 12 8 13
REMARK SMILES IDX 6 14 7 15 10 16 87 17 82 18 2 19 1 20 83 21 84 22 85 23
REMARK SMILES IDX 86 24 18 25 19 26 20 27 21 29 22 30 23 31 81 32 24 33 80 34
REMARK SMILES IDX 25 35 26 36 27 37 74 38 28 39 79 40 73 41 75 42 29 43 78 44
REMARK SMILES IDX 72 45 71 46 30 48 60 49 41 50 59 51 42 52 45 53 58 54 76 55
REMARK SMILES IDX 43 56 44 57 57 59 77 60 46 61 31 62 32 63 40 64 33 65 39 66
REMARK SMILES IDX 34 67 35 68 36 69 37 70 38 71 61 72 62 73 70 74 63 75 69 76
REMARK SMILES IDX 64 77 65 78 66 79 67 80 68 81 47 82 48 83 56 84 49 85 55 86
REMARK SMILES IDX 50 87 51 88 52 89 53 90 54 91
REMARK H PARENT 14 7 19 28 75 47 45 58
REMARK Flexibility Score: inf
ROOT
ATOM      1  C   UNL A   1      33.904  28.218  25.753  1.00  0.00     0.023 C 
ENDROOT
BRANCH   1   2
ATOM      2  C   UNL A   1      32.838  28.687  24.761  1.00  0.00     0.023 C 
BRANCH   2   3
ATOM      3  C   UNL A   1      31.997  27.558  24.170  1.00  0.00     0.116 C 
BRANCH   3   4
ATOM      4  N   UNL A   1      31.126  26.958  25.163  1.00  0.00    -0.352 N 
ATOM      5  C   UNL A   1      31.006  25.757  25.775  1.00  0.00     0.251 C 
ATOM      6  O   UNL A   1      30.078  25.668  26.585  1.00  0.00    -0.270 OA
ATOM      7  H   UNL A   1      30.441  27.593  25.476  1.00  0.00     0.163 HD
BRANCH   5   8
ATOM      8  C   UNL A   1      31.895  24.579  25.547  1.00  0.00     0.067 C 
ATOM      9  C   UNL A   1      36.406  22.839  25.562  1.00  0.00     0.121 A 
ATOM     10  C   UNL A   1      35.934  21.568  25.234  1.00  0.00     0.070 A 
ATOM     11  C   UNL A   1      35.504  23.876  25.810  1.00  0.00     0.058 A 
ATOM     12  C   UNL A   1      34.559  21.351  25.117  1.00  0.00     0.087 A 
ATOM     13  C   UNL A   1      34.129  23.666  25.674  1.00  0.00     0.022 A 
ATOM     14  Cl  UNL A   1      34.010  19.766  24.706  1.00  0.00    -0.080 Cl
ATOM     15  C   UNL A   1      33.656  22.401  25.318  1.00  0.00     0.146 A 
ATOM     16  C   UNL A   1      33.178  24.744  25.921  1.00  0.00     0.025 C 
ATOM     17  O   UNL A   1      32.316  22.150  25.205  1.00  0.00    -0.474 OA
ATOM     18  C   UNL A   1      31.469  23.293  24.898  1.00  0.00     0.314 C 
BRANCH   9  19
ATOM     19  O   UNL A   1      37.728  23.157  25.714  1.00  0.00    -0.497 OA
ATOM     20  C   UNL A   1      38.592  22.038  25.897  1.00  0.00     0.278 C 
ENDBRANCH   9  19
BRANCH  18  21
ATOM     21  C   UNL A   1      31.315  23.420  23.369  1.00  0.00     0.429 C 
ATOM     22  F   UNL A   1      31.550  22.228  22.767  1.00  0.00    -0.167 F 
ATOM     23  F   UNL A   1      30.071  23.800  23.001  1.00  0.00    -0.167 F 
ATOM     24  F   UNL A   1      32.175  24.318  22.836  1.00  0.00    -0.167 F 
ENDBRANCH  18  21
ENDBRANCH   5   8
ENDBRANCH   3   4
ENDBRANCH   2   3
ENDBRANCH   1   2
BRANCH   1  25
ATOM     25  C   UNL A   1      33.622  28.540  27.221  1.00  0.00     0.116 C 
BRANCH  25  26
ATOM     26  N   UNL A   1      33.576  29.968  27.504  1.00  0.00    -0.352 N 
ATOM     27  C   UNL A   1      34.575  30.748  28.034  1.00  0.00     0.251 C 
ATOM     28  H   UNL A   1      32.732  30.427  27.291  1.00  0.00     0.163 HD
ATOM     29  O   UNL A   1      34.387  31.932  28.287  1.00  0.00    -0.269 OA
BRANCH  27  30
ATOM     30  C   UNL A   1      35.870  30.110  28.326  1.00  0.00     0.039 A 
ATOM     31  C   UNL A   1      36.873  30.153  27.357  1.00  0.00     0.014 A 
ATOM     32  C   UNL A   1      36.107  29.565  29.591  1.00  0.00     0.014 A 
ATOM     33  C   UNL A   1      38.151  29.698  27.681  1.00  0.00     0.010 A 
ATOM     34  C   UNL A   1      37.391  29.148  29.923  1.00  0.00     0.010 A 
ATOM     35  C   UNL A   1      38.423  29.221  28.973  1.00  0.00    -0.014 A 
BRANCH  35  36
ATOM     36  C   UNL A   1      39.786  28.784  29.347  1.00  0.00     0.031 A 
ATOM     37  C   UNL A   1      40.675  29.708  30.123  1.00  0.00     0.074 A 
ATOM     38  C   UNL A   1      40.233  27.578  28.948  1.00  0.00     0.049 A 
ATOM     39  N   UNL A   1      41.913  29.529  30.503  1.00  0.00    -0.248 NA
ATOM     40  C   UNL A   1      40.103  31.007  30.512  1.00  0.00     0.031 C 
ATOM     41  C   UNL A   1      39.466  26.603  28.168  1.00  0.00     0.029 A 
ATOM     42  N   UNL A   1      41.445  26.966  29.145  1.00  0.00    -0.354 N 
ATOM     43  C   UNL A   1      42.271  30.694  31.167  1.00  0.00     0.074 A 
ATOM     44  C   UNL A   1      41.135  31.587  31.110  1.00  0.00     0.031 C 
ATOM     45  C   UNL A   1      40.220  25.507  27.973  1.00  0.00     0.029 A 
ATOM     46  C   UNL A   1      41.527  25.711  28.591  1.00  0.00     0.049 A 
ATOM     47  H   UNL A   1      42.188  27.388  29.636  1.00  0.00     0.167 HD
ATOM     48  C   UNL A   1      43.438  30.986  31.786  1.00  0.00     0.031 A 
ATOM     49  C   UNL A   1      42.540  24.824  28.585  1.00  0.00     0.031 A 
ATOM     50  C   UNL A   1      44.561  30.094  31.856  1.00  0.00     0.049 A 
ATOM     51  C   UNL A   1      43.828  25.172  29.274  1.00  0.00     0.074 A 
ATOM     52  C   UNL A   1      45.777  30.290  32.487  1.00  0.00     0.029 A 
ATOM     53  N   UNL A   1      44.603  28.833  31.282  1.00  0.00    -0.354 N 
ATOM     54  N   UNL A   1      44.143  26.272  29.915  1.00  0.00    -0.248 NA
ATOM     55  C   UNL A   1      44.895  24.162  29.245  1.00  0.00     0.031 C 
ATOM     56  C   UNL A   1      46.564  29.154  32.274  1.00  0.00     0.029 A 
ATOM     57  C   UNL A   1      45.826  28.240  31.537  1.00  0.00     0.049 A 
ATOM     58  H   UNL A   1      43.871  28.422  30.767  1.00  0.00     0.167 HD
ATOM     59  C   UNL A   1      45.438  26.080  30.380  1.00  0.00     0.074 A 
ATOM     60  C   UNL A   1      45.849  24.759  29.949  1.00  0.00     0.031 C 
ATOM     61  C   UNL A   1      46.215  26.924  31.100  1.00  0.00     0.031 A 
BRANCH  48  62
ATOM     62  C   UNL A   1      43.549  32.330  32.445  1.00  0.00    -0.014 A 
ATOM     63  C   UNL A   1      43.185  32.497  33.793  1.00  0.00     0.010 A 
ATOM     64  C   UNL A   1      44.049  33.428  31.723  1.00  0.00     0.010 A 
ATOM     65  C   UNL A   1      43.294  33.748  34.402  1.00  0.00     0.020 A 
ATOM     66  C   UNL A   1      44.175  34.679  32.334  1.00  0.00     0.020 A 
ATOM     67  C   UNL A   1      43.788  34.832  33.668  1.00  0.00     0.054 A 
BRANCH  67  68
ATOM     68  S   UNL A   1      43.924  36.440  34.493  1.00  0.00     0.124 S 
ATOM     69  O   UNL A   1      42.644  37.062  34.159  1.00  0.00    -0.237 OA
ATOM     70  O   UNL A   1      44.095  36.064  35.893  1.00  0.00    -0.237 OA
ATOM     71  O   UNL A   1      45.093  37.056  33.866  1.00  0.00    -0.744 OA
ENDBRANCH  67  68
ENDBRANCH  48  62
BRANCH  49  72
ATOM     72  C   UNL A   1      42.354  23.506  27.926  1.00  0.00    -0.014 A 
ATOM     73  C   UNL A   1      42.924  23.263  26.665  1.00  0.00     0.010 A 
ATOM     74  C   UNL A   1      41.654  22.474  28.576  1.00  0.00     0.010 A 
ATOM     75  C   UNL A   1      42.802  22.006  26.067  1.00  0.00     0.020 A 
ATOM     76  C   UNL A   1      41.543  21.212  27.988  1.00  0.00     0.020 A 
ATOM     77  C   UNL A   1      42.121  20.986  26.736  1.00  0.00     0.054 A 
BRANCH  77  78
ATOM     78  S   UNL A   1      42.042  19.345  25.964  1.00  0.00     0.124 S 
ATOM     79  O   UNL A   1      42.608  18.489  27.001  1.00  0.00    -0.237 OA
ATOM     80  O   UNL A   1      40.609  19.187  25.724  1.00  0.00    -0.237 OA
ATOM     81  O   UNL A   1      42.856  19.491  24.760  1.00  0.00    -0.744 OA
ENDBRANCH  77  78
ENDBRANCH  49  72
BRANCH  61  82
ATOM     82  C   UNL A   1      47.585  26.452  31.490  1.00  0.00    -0.014 A 
ATOM     83  C   UNL A   1      47.810  25.871  32.749  1.00  0.00     0.010 A 
ATOM     84  C   UNL A   1      48.627  26.487  30.547  1.00  0.00     0.010 A 
ATOM     85  C   UNL A   1      49.058  25.325  33.057  1.00  0.00     0.020 A 
ATOM     86  C   UNL A   1      49.872  25.931  30.847  1.00  0.00     0.020 A 
ATOM     87  C   UNL A   1      50.078  25.351  32.101  1.00  0.00     0.054 A 
BRANCH  87  88
ATOM     88  S   UNL A   1      51.663  24.566  32.505  1.00  0.00     0.124 S 
ATOM     89  O   UNL A   1      51.426  23.179  32.116  1.00  0.00    -0.237 OA
ATOM     90  O   UNL A   1      52.603  25.302  31.664  1.00  0.00    -0.237 OA
ATOM     91  O   UNL A   1      51.809  24.794  33.940  1.00  0.00    -0.744 OA
ENDBRANCH  87  88
ENDBRANCH  61  82
ENDBRANCH  35  36
ENDBRANCH  27  30
ENDBRANCH  25  26
ENDBRANCH   1  25
TORSDOF 16
ENDMDL
MODEL 2
REMARK VINA RESULT:     -11.6      2.908      9.311
REMARK SMILES COc1cc(Cl)c2c(c1)C=C(C(=O)NCCCCNC(=O)c1ccc(-c3c4nc(c(-c5ccc(S(=O)(=O)[O-])cc5)c5ccc([nH]5)c(-c5ccc(S(=O)(=O)[O-])cc5)c5nc(c(-c6ccc(S(=O)(=O)[O-])cc6)c6ccc3[nH]6)C=C5)C=C4)cc1)[C@@H](C(F)(F)F)O2
REMARK SMILES IDX 17 1 16 2 15 3 14 4 12 5 13 6 11 8 3 9 4 10 9 11 5 12 8 13
REMARK SMILES IDX 6 14 7 15 10 16 87 17 82 18 2 19 1 20 83 21 84 22 85 23
REMARK SMILES IDX 86 24 18 25 19 26 20 27 21 29 22 30 23 31 81 32 24 33 80 34
REMARK SMILES IDX 25 35 26 36 27 37 74 38 28 39 79 40 73 41 75 42 29 43 78 44
REMARK SMILES IDX 72 45 71 46 30 48 60 49 41 50 59 51 42 52 45 53 58 54 76 55
REMARK SMILES IDX 43 56 44 57 57 59 77 60 46 61 31 62 32 63 40 64 33 65 39 66
REMARK SMILES IDX 34 67 35 68 36 69 37 70 38 71 61 72 62 73 70 74 63 75 69 76
REMARK SMILES IDX 64 77 65 78 66 79 67 80 68 81 47 82 48 83 56 84 49 85 55 86
REMARK SMILES IDX 50 87 51 88 52 89 53 90 54 91
REMARK H PARENT 14 7 19 28 75 47 45 58
REMARK Flexibility Score: inf
ROOT
ATOM      1  C   UNL A   1      35.564  23.218  26.146  1.00  0.00     0.023 C 
ENDROOT
BRANCH   1   2
ATOM      2  C   UNL A   1      34.877  21.950  25.631  1.00  0.00     0.023 C 
BRANCH   2   3
ATOM      3  C   UNL A   1      33.547  22.205  24.926  1.00  0.00     0.116 C 
BRANCH   3   4
ATOM      4  N   UNL A   1      33.736  22.578  23.537  1.00  0.00    -0.352 N 
ATOM      5  C   UNL A   1      33.533  23.677  22.773  1.00  0.00     0.251 C 
ATOM      6  O   UNL A   1      33.836  23.554  21.582  1.00  0.00    -0.270 OA
ATOM      7  H   UNL A   1      34.113  21.836  23.010  1.00  0.00     0.163 HD
BRANCH   5   8
ATOM      8  C   UNL A   1      32.993  24.980  23.262  1.00  0.00     0.067 C 
ATOM      9  C   UNL A   1      33.518  28.706  26.299  1.00  0.00     0.121 A 
ATOM     10  C   UNL A   1      32.401  29.332  25.747  1.00  0.00     0.070 A 
ATOM     11  C   UNL A   1      33.990  27.512  25.749  1.00  0.00     0.058 A 
ATOM     12  C   UNL A   1      31.737  28.740  24.671  1.00  0.00     0.087 A 
ATOM     13  C   UNL A   1      33.315  26.907  24.684  1.00  0.00     0.022 A 
ATOM     14  Cl  UNL A   1      30.355  29.542  24.016  1.00  0.00    -0.080 Cl
ATOM     15  C   UNL A   1      32.180  27.519  24.151  1.00  0.00     0.146 A 
ATOM     16  C   UNL A   1      33.793  25.654  24.109  1.00  0.00     0.025 C 
ATOM     17  O   UNL A   1      31.511  26.972  23.090  1.00  0.00    -0.474 OA
ATOM     18  C   UNL A   1      31.639  25.532  22.918  1.00  0.00     0.314 C 
BRANCH   9  19
ATOM     19  O   UNL A   1      34.248  29.204  27.343  1.00  0.00    -0.497 OA
ATOM     20  C   UNL A   1      34.235  30.625  27.453  1.00  0.00     0.278 C 
ENDBRANCH   9  19
BRANCH  18  21
ATOM     21  C   UNL A   1      30.498  24.824  23.676  1.00  0.00     0.429 C 
ATOM     22  F   UNL A   1      30.185  23.649  23.074  1.00  0.00    -0.167 F 
ATOM     23  F   UNL A   1      30.828  24.526  24.953  1.00  0.00    -0.167 F 
ATOM     24  F   UNL A   1      29.369  25.567  23.724  1.00  0.00    -0.167 F 
ENDBRANCH  18  21
ENDBRANCH   5   8
ENDBRANCH   3   4
ENDBRANCH   2   3
ENDBRANCH   1   2
BRANCH   1  25
ATOM     25  C   UNL A   1      36.845  23.614  25.411  1.00  0.00     0.116 C 
BRANCH  25  26
ATOM     26  N   UNL A   1      37.942  22.678  25.608  1.00  0.00    -0.352 N 
ATOM     27  C   UNL A   1      39.150  22.920  26.217  1.00  0.00     0.251 C 
ATOM     28  H   UNL A   1      37.802  21.765  25.266  1.00  0.00     0.163 HD
ATOM     29  O   UNL A   1      40.020  22.059  26.261  1.00  0.00    -0.269 OA
BRANCH  27  30
ATOM     30  C   UNL A   1      39.382  24.260  26.782  1.00  0.00     0.039 A 
ATOM     31  C   UNL A   1      38.990  24.510  28.098  1.00  0.00     0.014 A 
ATOM     32  C   UNL A   1      40.075  25.218  26.038  1.00  0.00     0.014 A 
ATOM     33  C   UNL A   1      39.350  25.717  28.697  1.00  0.00     0.010 A 
ATOM     34  C   UNL A   1      40.465  26.404  26.649  1.00  0.00     0.010 A 
ATOM     35  C   UNL A   1      40.113  26.657  27.985  1.00  0.00    -0.014 A 
BRANCH  35  36
ATOM     36  C   UNL A   1      40.547  27.919  28.624  1.00  0.00     0.031 A 
ATOM     37  C   UNL A   1      41.949  28.046  29.140  1.00  0.00     0.074 A 
ATOM     38  C   UNL A   1      39.667  28.926  28.777  1.00  0.00     0.049 A 
ATOM     39  N   UNL A   1      42.504  29.047  29.771  1.00  0.00    -0.248 NA
ATOM     40  C   UNL A   1      42.839  26.892  28.932  1.00  0.00     0.031 C 
ATOM     41  C   UNL A   1      38.270  28.907  28.336  1.00  0.00     0.029 A 
ATOM     42  N   UNL A   1      39.819  30.164  29.349  1.00  0.00    -0.354 N 
ATOM     43  C   UNL A   1      43.803  28.644  30.043  1.00  0.00     0.074 A 
ATOM     44  C   UNL A   1      43.946  27.294  29.541  1.00  0.00     0.031 C 
ATOM     45  C   UNL A   1      37.700  30.088  28.634  1.00  0.00     0.029 A 
ATOM     46  C   UNL A   1      38.682  30.935  29.306  1.00  0.00     0.049 A 
ATOM     47  H   UNL A   1      40.663  30.471  29.753  1.00  0.00     0.167 HD
ATOM     48  C   UNL A   1      44.795  29.342  30.642  1.00  0.00     0.031 A 
ATOM     49  C   UNL A   1      38.457  32.185  29.756  1.00  0.00     0.031 A 
ATOM     50  C   UNL A   1      44.657  30.687  31.126  1.00  0.00     0.049 A 
ATOM     51  C   UNL A   1      39.572  32.939  30.423  1.00  0.00     0.074 A 
ATOM     52  C   UNL A   1      45.615  31.489  31.721  1.00  0.00     0.029 A 
ATOM     53  N   UNL A   1      43.489  31.431  31.064  1.00  0.00    -0.354 N 
ATOM     54  N   UNL A   1      40.802  32.548  30.653  1.00  0.00    -0.248 NA
ATOM     55  C   UNL A   1      39.273  34.302  30.884  1.00  0.00     0.031 C 
ATOM     56  C   UNL A   1      45.019  32.712  32.040  1.00  0.00     0.029 A 
ATOM     57  C   UNL A   1      43.699  32.682  31.616  1.00  0.00     0.049 A 
ATOM     58  H   UNL A   1      42.637  31.116  30.685  1.00  0.00     0.167 HD
ATOM     59  C   UNL A   1      41.429  33.622  31.272  1.00  0.00     0.074 A 
ATOM     60  C   UNL A   1      40.445  34.680  31.379  1.00  0.00     0.031 C 
ATOM     61  C   UNL A   1      42.706  33.721  31.711  1.00  0.00     0.031 A 
BRANCH  48  62
ATOM     62  C   UNL A   1      46.121  28.658  30.795  1.00  0.00    -0.014 A 
ATOM     63  C   UNL A   1      46.408  27.904  31.948  1.00  0.00     0.010 A 
ATOM     64  C   UNL A   1      47.078  28.740  29.768  1.00  0.00     0.010 A 
ATOM     65  C   UNL A   1      47.642  27.267  32.083  1.00  0.00     0.020 A 
ATOM     66  C   UNL A   1      48.308  28.089  29.893  1.00  0.00     0.020 A 
ATOM     67  C   UNL A   1      48.586  27.364  31.054  1.00  0.00     0.054 A 
BRANCH  67  68
ATOM     68  S   UNL A   1      50.174  26.515  31.260  1.00  0.00     0.124 S 
ATOM     69  O   UNL A   1      50.206  26.276  32.701  1.00  0.00    -0.237 OA
ATOM     70  O   UNL A   1      50.008  25.326  30.429  1.00  0.00    -0.237 OA
ATOM     71  O   UNL A   1      51.153  27.484  30.772  1.00  0.00    -0.744 OA
ENDBRANCH  67  68
ENDBRANCH  48  62
BRANCH  49  72
ATOM     72  C   UNL A   1      37.122  32.804  29.556  1.00  0.00    -0.014 A 
ATOM     73  C   UNL A   1      36.218  32.891  30.628  1.00  0.00     0.010 A 
ATOM     74  C   UNL A   1      36.771  33.357  28.312  1.00  0.00     0.010 A 
ATOM     75  C   UNL A   1      34.986  33.526  30.462  1.00  0.00     0.020 A 
ATOM     76  C   UNL A   1      35.544  34.006  28.146  1.00  0.00     0.020 A 
ATOM     77  C   UNL A   1      34.660  34.088  29.224  1.00  0.00     0.054 A 
BRANCH  77  78
ATOM     78  S   UNL A   1      33.080  34.967  29.060  1.00  0.00     0.124 S 
ATOM     79  O   UNL A   1      32.390  34.173  28.050  1.00  0.00    -0.237 OA
ATOM     80  O   UNL A   1      32.538  34.880  30.414  1.00  0.00    -0.237 OA
ATOM     81  O   UNL A   1      33.476  36.309  28.639  1.00  0.00    -0.744 OA
ENDBRANCH  77  78
ENDBRANCH  49  72
BRANCH  61  82
ATOM     82  C   UNL A   1      43.134  35.018  32.334  1.00  0.00    -0.014 A 
ATOM     83  C   UNL A   1      43.716  36.029  31.552  1.00  0.00     0.010 A 
ATOM     84  C   UNL A   1      42.845  35.268  33.687  1.00  0.00     0.010 A 
ATOM     85  C   UNL A   1      43.998  37.276  32.115  1.00  0.00     0.020 A 
ATOM     86  C   UNL A   1      43.114  36.518  34.249  1.00  0.00     0.020 A 
ATOM     87  C   UNL A   1      43.687  37.515  33.457  1.00  0.00     0.054 A 
BRANCH  87  88
ATOM     88  S   UNL A   1      43.997  39.168  34.137  1.00  0.00     0.124 S 
ATOM     89  O   UNL A   1      45.255  39.534  33.491  1.00  0.00    -0.237 OA
ATOM     90  O   UNL A   1      42.824  39.916  33.694  1.00  0.00    -0.237 OA
ATOM     91  O   UNL A   1      44.080  38.943  35.578  1.00  0.00    -0.744 OA
ENDBRANCH  87  88
ENDBRANCH  61  82
ENDBRANCH  35  36
ENDBRANCH  27  30
ENDBRANCH  25  26
ENDBRANCH   1  25
TORSDOF 16
ENDMDL
MODEL 3
REMARK VINA RESULT:     -11.3      1.673      2.481
REMARK SMILES COc1cc(Cl)c2c(c1)C=C(C(=O)NCCCCNC(=O)c1ccc(-c3c4nc(c(-c5ccc(S(=O)(=O)[O-])cc5)c5ccc([nH]5)c(-c5ccc(S(=O)(=O)[O-])cc5)c5nc(c(-c6ccc(S(=O)(=O)[O-])cc6)c6ccc3[nH]6)C=C5)C=C4)cc1)[C@@H](C(F)(F)F)O2
REMARK SMILES IDX 17 1 16 2 15 3 14 4 12 5 13 6 11 8 3 9 4 10 9 11 5 12 8 13
REMARK SMILES IDX 6 14 7 15 10 16 87 17 82 18 2 19 1 20 83 21 84 22 85 23
REMARK SMILES IDX 86 24 18 25 19 26 20 27 21 29 22 30 23 31 81 32 24 33 80 34
REMARK SMILES IDX 25 35 26 36 27 37 74 38 28 39 79 40 73 41 75 42 29 43 78 44
REMARK SMILES IDX 72 45 71 46 30 48 60 49 41 50 59 51 42 52 45 53 58 54 76 55
REMARK SMILES IDX 43 56 44 57 57 59 77 60 46 61 31 62 32 63 40 64 33 65 39 66
REMARK SMILES IDX 34 67 35 68 36 69 37 70 38 71 61 72 62 73 70 74 63 75 69 76
REMARK SMILES IDX 64 77 65 78 66 79 67 80 68 81 47 82 48 83 56 84 49 85 55 86
REMARK SMILES IDX 50 87 51 88 52 89 53 90 54 91
REMARK H PARENT 14 7 19 28 75 47 45 58
REMARK Flexibility Score: inf
ROOT
ATOM      1  C   UNL A   1      33.473  28.490  25.766  1.00  0.00     0.023 C 
ENDROOT
BRANCH   1   2
ATOM      2  C   UNL A   1      32.889  29.653  24.961  1.00  0.00     0.023 C 
BRANCH   2   3
ATOM      3  C   UNL A   1      31.375  29.799  25.087  1.00  0.00     0.116 C 
BRANCH   3   4
ATOM      4  N   UNL A   1      30.711  29.660  23.804  1.00  0.00    -0.352 N 
ATOM      5  C   UNL A   1      30.405  28.653  22.955  1.00  0.00     0.251 C 
ATOM      6  O   UNL A   1      29.817  28.993  21.923  1.00  0.00    -0.270 OA
ATOM      7  H   UNL A   1      30.400  30.530  23.461  1.00  0.00     0.163 HD
BRANCH   5   8
ATOM      8  C   UNL A   1      30.715  27.210  23.180  1.00  0.00     0.067 C 
ATOM      9  C   UNL A   1      30.607  23.466  26.238  1.00  0.00     0.121 A 
ATOM     10  C   UNL A   1      31.120  22.625  25.251  1.00  0.00     0.070 A 
ATOM     11  C   UNL A   1      30.295  24.793  25.931  1.00  0.00     0.058 A 
ATOM     12  C   UNL A   1      31.356  23.127  23.969  1.00  0.00     0.087 A 
ATOM     13  C   UNL A   1      30.549  25.303  24.654  1.00  0.00     0.022 A 
ATOM     14  Cl  UNL A   1      31.994  22.058  22.773  1.00  0.00    -0.080 Cl
ATOM     15  C   UNL A   1      31.090  24.469  23.674  1.00  0.00     0.146 A 
ATOM     16  C   UNL A   1      30.237  26.689  24.326  1.00  0.00     0.025 C 
ATOM     17  O   UNL A   1      31.324  24.924  22.405  1.00  0.00    -0.474 OA
ATOM     18  C   UNL A   1      31.544  26.356  22.263  1.00  0.00     0.314 C 
BRANCH   9  19
ATOM     19  O   UNL A   1      30.328  23.075  27.519  1.00  0.00    -0.497 OA
ATOM     20  C   UNL A   1      29.012  22.561  27.711  1.00  0.00     0.278 C 
ENDBRANCH   9  19
BRANCH  18  21
ATOM     21  C   UNL A   1      33.053  26.654  22.375  1.00  0.00     0.429 C 
ATOM     22  F   UNL A   1      33.519  26.297  23.598  1.00  0.00    -0.167 F 
ATOM     23  F   UNL A   1      33.787  25.970  21.469  1.00  0.00    -0.167 F 
ATOM     24  F   UNL A   1      33.335  27.965  22.202  1.00  0.00    -0.167 F 
ENDBRANCH  18  21
ENDBRANCH   5   8
ENDBRANCH   3   4
ENDBRANCH   2   3
ENDBRANCH   1   2
BRANCH   1  25
ATOM     25  C   UNL A   1      33.646  28.749  27.263  1.00  0.00     0.116 C 
BRANCH  25  26
ATOM     26  N   UNL A   1      33.596  30.160  27.618  1.00  0.00    -0.352 N 
ATOM     27  C   UNL A   1      34.589  30.912  28.198  1.00  0.00     0.251 C 
ATOM     28  H   UNL A   1      32.754  30.629  27.420  1.00  0.00     0.163 HD
ATOM     29  O   UNL A   1      34.399  32.081  28.509  1.00  0.00    -0.269 OA
BRANCH  27  30
ATOM     30  C   UNL A   1      35.881  30.259  28.471  1.00  0.00     0.039 A 
ATOM     31  C   UNL A   1      36.880  30.316  27.497  1.00  0.00     0.014 A 
ATOM     32  C   UNL A   1      36.121  29.686  29.722  1.00  0.00     0.014 A 
ATOM     33  C   UNL A   1      38.157  29.846  27.805  1.00  0.00     0.010 A 
ATOM     34  C   UNL A   1      37.404  29.254  30.039  1.00  0.00     0.010 A 
ATOM     35  C   UNL A   1      38.431  29.340  29.087  1.00  0.00    -0.014 A 
BRANCH  35  36
ATOM     36  C   UNL A   1      39.793  28.886  29.445  1.00  0.00     0.031 A 
ATOM     37  C   UNL A   1      40.702  29.799  30.212  1.00  0.00     0.074 A 
ATOM     38  C   UNL A   1      40.221  27.676  29.039  1.00  0.00     0.049 A 
ATOM     39  N   UNL A   1      41.941  29.605  30.578  1.00  0.00    -0.248 NA
ATOM     40  C   UNL A   1      40.150  31.104  30.609  1.00  0.00     0.031 C 
ATOM     41  C   UNL A   1      39.434  26.712  28.267  1.00  0.00     0.029 A 
ATOM     42  N   UNL A   1      41.428  27.050  29.221  1.00  0.00    -0.354 N 
ATOM     43  C   UNL A   1      42.321  30.764  31.240  1.00  0.00     0.074 A 
ATOM     44  C   UNL A   1      41.195  31.671  31.196  1.00  0.00     0.031 C 
ATOM     45  C   UNL A   1      40.173  25.607  28.061  1.00  0.00     0.029 A 
ATOM     46  C   UNL A   1      41.489  25.795  28.665  1.00  0.00     0.049 A 
ATOM     47  H   UNL A   1      42.182  27.462  29.705  1.00  0.00     0.167 HD
ATOM     48  C   UNL A   1      43.498  31.042  31.846  1.00  0.00     0.031 A 
ATOM     49  C   UNL A   1      42.492  24.895  28.646  1.00  0.00     0.031 A 
ATOM     50  C   UNL A   1      44.611  30.136  31.902  1.00  0.00     0.049 A 
ATOM     51  C   UNL A   1      43.792  25.227  29.321  1.00  0.00     0.074 A 
ATOM     52  C   UNL A   1      45.836  30.316  32.520  1.00  0.00     0.029 A 
ATOM     53  N   UNL A   1      44.631  28.876  31.326  1.00  0.00    -0.354 N 
ATOM     54  N   UNL A   1      44.126  26.322  29.961  1.00  0.00    -0.248 NA
ATOM     55  C   UNL A   1      44.846  24.204  29.279  1.00  0.00     0.031 C 
ATOM     56  C   UNL A   1      46.607  29.172  32.296  1.00  0.00     0.029 A 
ATOM     57  C   UNL A   1      45.850  28.268  31.567  1.00  0.00     0.049 A 
ATOM     58  H   UNL A   1      43.889  28.474  30.819  1.00  0.00     0.167 HD
ATOM     59  C   UNL A   1      45.424  26.114  30.411  1.00  0.00     0.074 A 
ATOM     60  C   UNL A   1      45.815  24.790  29.974  1.00  0.00     0.031 C 
ATOM     61  C   UNL A   1      46.218  26.948  31.123  1.00  0.00     0.031 A 
BRANCH  48  62
ATOM     62  C   UNL A   1      43.632  32.383  32.505  1.00  0.00    -0.014 A 
ATOM     63  C   UNL A   1      43.291  32.551  33.859  1.00  0.00     0.010 A 
ATOM     64  C   UNL A   1      44.132  33.478  31.778  1.00  0.00     0.010 A 
ATOM     65  C   UNL A   1      43.421  33.800  34.468  1.00  0.00     0.020 A 
ATOM     66  C   UNL A   1      44.280  34.726  32.389  1.00  0.00     0.020 A 
ATOM     67  C   UNL A   1      43.914  34.881  33.728  1.00  0.00     0.054 A 
BRANCH  67  68
ATOM     68  S   UNL A   1      44.079  36.486  34.554  1.00  0.00     0.124 S 
ATOM     69  O   UNL A   1      42.735  37.041  34.410  1.00  0.00    -0.237 OA
ATOM     70  O   UNL A   1      44.461  36.106  35.911  1.00  0.00    -0.237 OA
ATOM     71  O   UNL A   1      45.116  37.170  33.784  1.00  0.00    -0.744 OA
ENDBRANCH  67  68
ENDBRANCH  48  62
BRANCH  49  72
ATOM     72  C   UNL A   1      42.282  23.581  27.988  1.00  0.00    -0.014 A 
ATOM     73  C   UNL A   1      42.920  23.294  26.769  1.00  0.00     0.010 A 
ATOM     74  C   UNL A   1      41.490  22.593  28.599  1.00  0.00     0.010 A 
ATOM     75  C   UNL A   1      42.775  22.038  26.175  1.00  0.00     0.020 A 
ATOM     76  C   UNL A   1      41.354  21.331  28.015  1.00  0.00     0.020 A 
ATOM     77  C   UNL A   1      42.001  21.061  26.806  1.00  0.00     0.054 A 
BRANCH  77  78
ATOM     78  S   UNL A   1      41.889  19.417  26.045  1.00  0.00     0.124 S 
ATOM     79  O   UNL A   1      40.455  19.284  25.811  1.00  0.00    -0.237 OA
ATOM     80  O   UNL A   1      42.714  19.576  24.849  1.00  0.00    -0.237 OA
ATOM     81  O   UNL A   1      42.443  18.528  27.062  1.00  0.00    -0.744 OA
ENDBRANCH  77  78
ENDBRANCH  49  72
BRANCH  61  82
ATOM     82  C   UNL A   1      47.588  26.460  31.498  1.00  0.00    -0.014 A 
ATOM     83  C   UNL A   1      47.822  25.886  32.758  1.00  0.00     0.010 A 
ATOM     84  C   UNL A   1      48.616  26.471  30.539  1.00  0.00     0.010 A 
ATOM     85  C   UNL A   1      49.067  25.325  33.053  1.00  0.00     0.020 A 
ATOM     86  C   UNL A   1      49.857  25.899  30.825  1.00  0.00     0.020 A 
ATOM     87  C   UNL A   1      50.073  25.327  32.081  1.00  0.00     0.054 A 
BRANCH  87  88
ATOM     88  S   UNL A   1      51.652  24.523  32.469  1.00  0.00     0.124 S 
ATOM     89  O   UNL A   1      51.765  24.747  33.908  1.00  0.00    -0.237 OA
ATOM     90  O   UNL A   1      51.410  23.140  32.067  1.00  0.00    -0.237 OA
ATOM     91  O   UNL A   1      52.622  25.245  31.650  1.00  0.00    -0.744 OA
ENDBRANCH  87  88
ENDBRANCH  61  82
ENDBRANCH  35  36
ENDBRANCH  27  30
ENDBRANCH  25  26
ENDBRANCH   1  25
TORSDOF 16
ENDMDL
