MODEL 1
REMARK VINA RESULT:     -13.0      0.000      0.000
REMARK SMILES O=C(CC[C@@]1(c2ccccc2)NC(=O)N(CC(=O)Nc2cccc(F)c2)C1=O)NCCCCNC(=O)c1ccc(-c2c3nc(c(-c4ccc(S(=O)(=O)[O-])cc4)c4ccc([nH]4)c(-c4ccc(S(=O)(=O)[O-])cc4)c4nc(c(-c5ccc(S(=O)(=O)[O-])cc5)c5ccc2[nH]5)C=C4)C=C3)cc1
REMARK SMILES IDX 30 1 29 2 1 3 2 4 3 6 4 7 5 8 12 9 27 10 13 11 15 13 28 14
REMARK SMILES IDX 14 15 6 16 7 17 11 18 8 19 10 20 9 21 16 22 17 23 18 24
REMARK SMILES IDX 19 25 20 27 21 28 26 29 22 30 24 31 23 32 25 33 31 34 32 35
REMARK SMILES IDX 33 36 34 37 35 38 36 40 37 41 38 42 96 43 39 44 95 45 40 46
REMARK SMILES IDX 41 47 42 48 89 49 43 50 94 51 88 52 90 53 44 54 93 55 87 56
REMARK SMILES IDX 86 57 45 59 75 60 56 61 74 62 57 63 60 64 73 65 91 66 58 67
REMARK SMILES IDX 59 68 72 70 92 71 61 72 46 73 47 74 55 75 48 76 54 77 49 78
REMARK SMILES IDX 50 79 51 80 52 81 53 82 76 83 77 84 85 85 78 86 84 87 79 88
REMARK SMILES IDX 80 89 81 90 82 91 83 92 62 93 63 94 71 95 64 96 70 97 65 98
REMARK SMILES IDX 66 99 67 100 68 101 69 102
REMARK H PARENT 29 5 12 12 19 26 34 39 90 58 60 69
REMARK Flexibility Score: inf
ROOT
ATOM      1  C   UNL A   1      34.779  30.840  27.594  1.00  0.00     0.116 C 
ENDROOT
BRANCH   1   2
ATOM      2  N   UNL A   1      33.688  30.219  26.724  1.00  0.00    -0.356 N 
ATOM      3  O   UNL A   1      31.635  31.349  26.584  1.00  0.00    -0.275 OA
ATOM      4  C   UNL A   1      32.391  30.432  26.297  1.00  0.00     0.220 C 
ATOM      5  H   UNL A   1      34.023  29.380  26.334  1.00  0.00     0.163 HD
BRANCH   4   6
ATOM      6  C   UNL A   1      31.713  29.378  25.445  1.00  0.00     0.103 C 
BRANCH   6   7
ATOM      7  C   UNL A   1      32.417  28.956  24.169  1.00  0.00     0.053 C 
BRANCH   7   8
ATOM      8  C   UNL A   1      31.625  27.981  23.237  1.00  0.00     0.147 C 
ATOM      9  N   UNL A   1      32.430  27.684  22.079  1.00  0.00    -0.319 N 
ATOM     10  C   UNL A   1      31.609  26.521  23.834  1.00  0.00     0.261 C 
ATOM     11  C   UNL A   1      32.798  26.366  22.026  1.00  0.00     0.325 C 
ATOM     12  H   UNL A   1      32.686  28.352  21.404  1.00  0.00     0.166 HD
ATOM     13  N   UNL A   1      32.627  25.789  23.236  1.00  0.00    -0.252 N 
ATOM     14  O   UNL A   1      30.903  26.153  24.763  1.00  0.00    -0.271 OA
ATOM     15  O   UNL A   1      33.215  25.898  20.967  1.00  0.00    -0.248 OA
BRANCH   8  16
ATOM     16  C   UNL A   1      30.301  28.609  22.768  1.00  0.00    -0.013 A 
ATOM     17  C   UNL A   1      30.277  29.796  21.995  1.00  0.00     0.007 A 
ATOM     18  C   UNL A   1      29.056  28.113  23.192  1.00  0.00     0.007 A 
ATOM     19  C   UNL A   1      29.088  30.470  21.704  1.00  0.00     0.000 A 
ATOM     20  C   UNL A   1      27.861  28.791  22.902  1.00  0.00     0.000 A 
ATOM     21  C   UNL A   1      27.879  29.969  22.163  1.00  0.00     0.000 A 
ENDBRANCH   8  16
BRANCH  13  22
ATOM     22  C   UNL A   1      33.280  24.525  23.770  1.00  0.00     0.230 C 
BRANCH  22  23
ATOM     23  C   UNL A   1      33.440  23.545  25.174  1.00  0.00     0.244 C 
ATOM     24  O   UNL A   1      33.254  24.231  26.219  1.00  0.00    -0.273 OA
ATOM     25  N   UNL A   1      33.439  22.205  25.556  1.00  0.00    -0.324 N 
ATOM     26  H   UNL A   1      33.285  22.187  26.528  1.00  0.00     0.170 HD
BRANCH  25  27
ATOM     27  C   UNL A   1      33.567  20.824  25.128  1.00  0.00     0.044 A 
ATOM     28  C   UNL A   1      34.877  20.380  24.844  1.00  0.00     0.026 A 
ATOM     29  C   UNL A   1      32.569  19.865  24.925  1.00  0.00     0.065 A 
ATOM     30  C   UNL A   1      35.182  19.016  24.631  1.00  0.00     0.005 A 
ATOM     31  C   UNL A   1      32.868  18.504  24.745  1.00  0.00     0.125 A 
ATOM     32  C   UNL A   1      34.173  18.063  24.638  1.00  0.00     0.039 A 
ATOM     33  F   UNL A   1      31.871  17.604  24.728  1.00  0.00    -0.207 F 
ENDBRANCH  25  27
ENDBRANCH  22  23
ENDBRANCH  13  22
ENDBRANCH   7   8
ENDBRANCH   6   7
ENDBRANCH   4   6
ENDBRANCH   1   2
BRANCH   1  34
ATOM     34  C   UNL A   1      34.996  32.297  28.133  1.00  0.00     0.023 C 
BRANCH  34  35
ATOM     35  C   UNL A   1      36.303  33.079  28.316  1.00  0.00     0.023 C 
BRANCH  35  36
ATOM     36  C   UNL A   1      37.058  32.820  29.591  1.00  0.00     0.116 C 
BRANCH  36  37
ATOM     37  N   UNL A   1      36.352  31.947  30.512  1.00  0.00    -0.352 N 
ATOM     38  C   UNL A   1      36.724  30.656  30.846  1.00  0.00     0.251 C 
ATOM     39  H   UNL A   1      35.539  32.304  30.937  1.00  0.00     0.163 HD
ATOM     40  O   UNL A   1      36.012  29.949  31.531  1.00  0.00    -0.269 OA
BRANCH  38  41
ATOM     41  C   UNL A   1      38.006  30.153  30.294  1.00  0.00     0.039 A 
ATOM     42  C   UNL A   1      38.135  29.968  28.917  1.00  0.00     0.014 A 
ATOM     43  C   UNL A   1      39.107  29.982  31.140  1.00  0.00     0.014 A 
ATOM     44  C   UNL A   1      39.385  29.640  28.387  1.00  0.00     0.010 A 
ATOM     45  C   UNL A   1      40.367  29.772  30.599  1.00  0.00     0.010 A 
ATOM     46  C   UNL A   1      40.512  29.554  29.224  1.00  0.00    -0.014 A 
BRANCH  46  47
ATOM     47  C   UNL A   1      41.829  29.128  28.697  1.00  0.00     0.031 A 
ATOM     48  C   UNL A   1      42.943  30.139  28.613  1.00  0.00     0.074 A 
ATOM     49  C   UNL A   1      42.020  27.861  28.279  1.00  0.00     0.049 A 
ATOM     50  N   UNL A   1      44.174  29.980  28.204  1.00  0.00    -0.248 NA
ATOM     51  C   UNL A   1      42.622  31.522  29.013  1.00  0.00     0.031 C 
ATOM     52  C   UNL A   1      41.002  26.808  28.262  1.00  0.00     0.029 A 
ATOM     53  N   UNL A   1      43.146  27.242  27.797  1.00  0.00    -0.354 N 
ATOM     54  C   UNL A   1      44.762  31.238  28.284  1.00  0.00     0.074 A 
ATOM     55  C   UNL A   1      43.739  32.163  28.710  1.00  0.00     0.031 C 
ATOM     56  C   UNL A   1      41.562  25.663  27.837  1.00  0.00     0.029 A 
ATOM     57  C   UNL A   1      42.968  25.906  27.526  1.00  0.00     0.049 A 
ATOM     58  H   UNL A   1      44.000  27.712  27.656  1.00  0.00     0.167 HD
ATOM     59  C   UNL A   1      46.048  31.589  28.058  1.00  0.00     0.031 A 
ATOM     60  C   UNL A   1      43.846  24.982  27.091  1.00  0.00     0.031 A 
ATOM     61  C   UNL A   1      47.069  30.658  27.666  1.00  0.00     0.049 A 
ATOM     62  C   UNL A   1      45.278  25.391  26.859  1.00  0.00     0.074 A 
ATOM     63  C   UNL A   1      48.418  30.890  27.473  1.00  0.00     0.029 A 
ATOM     64  N   UNL A   1      46.850  29.312  27.411  1.00  0.00    -0.354 N 
ATOM     65  N   UNL A   1      45.834  26.569  27.017  1.00  0.00    -0.248 NA
ATOM     66  C   UNL A   1      46.201  24.343  26.405  1.00  0.00     0.031 C 
ATOM     67  C   UNL A   1      49.006  29.694  27.053  1.00  0.00     0.029 A 
ATOM     68  C   UNL A   1      48.034  28.705  27.039  1.00  0.00     0.049 A 
ATOM     69  H   UNL A   1      45.980  28.857  27.484  1.00  0.00     0.167 HD
ATOM     70  C   UNL A   1      47.180  26.397  26.709  1.00  0.00     0.074 A 
ATOM     71  C   UNL A   1      47.354  24.999  26.370  1.00  0.00     0.031 C 
ATOM     72  C   UNL A   1      48.181  27.311  26.708  1.00  0.00     0.031 A 
BRANCH  59  73
ATOM     73  C   UNL A   1      46.413  33.038  28.233  1.00  0.00    -0.014 A 
ATOM     74  C   UNL A   1      46.848  33.535  29.476  1.00  0.00     0.010 A 
ATOM     75  C   UNL A   1      46.333  33.915  27.136  1.00  0.00     0.010 A 
ATOM     76  C   UNL A   1      47.150  34.890  29.631  1.00  0.00     0.020 A 
ATOM     77  C   UNL A   1      46.663  35.265  27.279  1.00  0.00     0.020 A 
ATOM     78  C   UNL A   1      47.053  35.748  28.531  1.00  0.00     0.054 A 
BRANCH  78  79
ATOM     79  S   UNL A   1      47.467  37.499  28.754  1.00  0.00     0.124 S 
ATOM     80  O   UNL A   1      48.897  37.510  28.451  1.00  0.00    -0.237 OA
ATOM     81  O   UNL A   1      46.612  38.158  27.769  1.00  0.00    -0.237 OA
ATOM     82  O   UNL A   1      47.124  37.762  30.148  1.00  0.00    -0.744 OA
ENDBRANCH  78  79
ENDBRANCH  59  73
BRANCH  60  83
ATOM     83  C   UNL A   1      43.411  23.572  26.888  1.00  0.00    -0.014 A 
ATOM     84  C   UNL A   1      43.281  22.699  27.983  1.00  0.00     0.010 A 
ATOM     85  C   UNL A   1      43.114  23.095  25.598  1.00  0.00     0.010 A 
ATOM     86  C   UNL A   1      42.884  21.373  27.791  1.00  0.00     0.020 A 
ATOM     87  C   UNL A   1      42.691  21.776  25.405  1.00  0.00     0.020 A 
ATOM     88  C   UNL A   1      42.591  20.919  26.502  1.00  0.00     0.054 A 
BRANCH  88  89
ATOM     89  S   UNL A   1      42.036  19.205  26.283  1.00  0.00     0.124 S 
ATOM     90  O   UNL A   1      40.659  19.386  25.833  1.00  0.00    -0.237 OA
ATOM     91  O   UNL A   1      42.968  18.698  25.278  1.00  0.00    -0.237 OA
ATOM     92  O   UNL A   1      42.190  18.623  27.614  1.00  0.00    -0.744 OA
ENDBRANCH  88  89
ENDBRANCH  60  83
BRANCH  72  93
ATOM     93  C   UNL A   1      49.561  26.826  26.358  1.00  0.00    -0.014 A 
ATOM     94  C   UNL A   1      50.320  26.073  27.270  1.00  0.00     0.010 A 
ATOM     95  C   UNL A   1      50.074  27.068  25.070  1.00  0.00     0.010 A 
ATOM     96  C   UNL A   1      51.582  25.595  26.910  1.00  0.00     0.020 A 
ATOM     97  C   UNL A   1      51.322  26.568  24.697  1.00  0.00     0.020 A 
ATOM     98  C   UNL A   1      52.076  25.845  25.625  1.00  0.00     0.054 A 
BRANCH  98  99
ATOM     99  S   UNL A   1      53.694  25.171  25.165  1.00  0.00     0.124 S 
ATOM    100  O   UNL A   1      53.505  23.742  25.398  1.00  0.00    -0.237 OA
ATOM    101  O   UNL A   1      53.821  25.568  23.765  1.00  0.00    -0.237 OA
ATOM    102  O   UNL A   1      54.619  25.836  26.081  1.00  0.00    -0.744 OA
ENDBRANCH  98  99
ENDBRANCH  72  93
ENDBRANCH  46  47
ENDBRANCH  38  41
ENDBRANCH  36  37
ENDBRANCH  35  36
ENDBRANCH  34  35
ENDBRANCH   1  34
TORSDOF 20
ENDMDL
MODEL 2
REMARK VINA RESULT:     -12.9      5.878     12.194
REMARK SMILES O=C(CC[C@@]1(c2ccccc2)NC(=O)N(CC(=O)Nc2cccc(F)c2)C1=O)NCCCCNC(=O)c1ccc(-c2c3nc(c(-c4ccc(S(=O)(=O)[O-])cc4)c4ccc([nH]4)c(-c4ccc(S(=O)(=O)[O-])cc4)c4nc(c(-c5ccc(S(=O)(=O)[O-])cc5)c5ccc2[nH]5)C=C4)C=C3)cc1
REMARK SMILES IDX 30 1 29 2 1 3 2 4 3 6 4 7 5 8 12 9 27 10 13 11 15 13 28 14
REMARK SMILES IDX 14 15 6 16 7 17 11 18 8 19 10 20 9 21 16 22 17 23 18 24
REMARK SMILES IDX 19 25 20 27 21 28 26 29 22 30 24 31 23 32 25 33 31 34 32 35
REMARK SMILES IDX 33 36 34 37 35 38 36 40 37 41 38 42 96 43 39 44 95 45 40 46
REMARK SMILES IDX 41 47 42 48 89 49 43 50 94 51 88 52 90 53 44 54 93 55 87 56
REMARK SMILES IDX 86 57 45 59 75 60 56 61 74 62 57 63 60 64 73 65 91 66 58 67
REMARK SMILES IDX 59 68 72 70 92 71 61 72 46 73 47 74 55 75 48 76 54 77 49 78
REMARK SMILES IDX 50 79 51 80 52 81 53 82 76 83 77 84 85 85 78 86 84 87 79 88
REMARK SMILES IDX 80 89 81 90 82 91 83 92 62 93 63 94 71 95 64 96 70 97 65 98
REMARK SMILES IDX 66 99 67 100 68 101 69 102
REMARK H PARENT 29 5 12 12 19 26 34 39 90 58 60 69
REMARK Flexibility Score: inf
ROOT
ATOM      1  C   UNL A   1      39.319  22.880  26.791  1.00  0.00     0.116 C 
ENDROOT
BRANCH   1   2
ATOM      2  N   UNL A   1      38.007  22.572  26.070  1.00  0.00    -0.356 N 
ATOM      3  O   UNL A   1      37.836  20.514  24.955  1.00  0.00    -0.275 OA
ATOM      4  C   UNL A   1      37.388  21.592  25.319  1.00  0.00     0.220 C 
ATOM      5  H   UNL A   1      37.393  23.334  26.178  1.00  0.00     0.163 HD
BRANCH   4   6
ATOM      6  C   UNL A   1      36.012  21.862  24.745  1.00  0.00     0.103 C 
BRANCH   6   7
ATOM      7  C   UNL A   1      34.816  21.498  25.605  1.00  0.00     0.053 C 
BRANCH   7   8
ATOM      8  C   UNL A   1      33.485  21.200  24.839  1.00  0.00     0.147 C 
ATOM      9  N   UNL A   1      32.386  21.261  25.771  1.00  0.00    -0.319 N 
ATOM     10  C   UNL A   1      33.053  22.437  23.959  1.00  0.00     0.261 C 
ATOM     11  C   UNL A   1      31.529  22.294  25.497  1.00  0.00     0.325 C 
ATOM     12  H   UNL A   1      32.266  20.633  26.518  1.00  0.00     0.166 HD
ATOM     13  N   UNL A   1      32.126  23.184  24.675  1.00  0.00    -0.252 N 
ATOM     14  O   UNL A   1      33.560  22.744  22.890  1.00  0.00    -0.271 OA
ATOM     15  O   UNL A   1      30.405  22.294  25.999  1.00  0.00    -0.248 OA
BRANCH   8  16
ATOM     16  C   UNL A   1      33.509  19.801  24.199  1.00  0.00    -0.013 A 
ATOM     17  C   UNL A   1      32.467  19.358  23.349  1.00  0.00     0.007 A 
ATOM     18  C   UNL A   1      34.493  18.854  24.531  1.00  0.00     0.007 A 
ATOM     19  C   UNL A   1      32.389  18.038  22.895  1.00  0.00     0.000 A 
ATOM     20  C   UNL A   1      34.413  17.527  24.079  1.00  0.00     0.000 A 
ATOM     21  C   UNL A   1      33.360  17.120  23.265  1.00  0.00     0.000 A 
ENDBRANCH   8  16
BRANCH  13  22
ATOM     22  C   UNL A   1      31.763  24.644  24.454  1.00  0.00     0.230 C 
BRANCH  22  23
ATOM     23  C   UNL A   1      32.185  26.047  23.554  1.00  0.00     0.244 C 
ATOM     24  O   UNL A   1      33.340  25.926  23.057  1.00  0.00    -0.273 OA
ATOM     25  N   UNL A   1      31.594  27.159  22.957  1.00  0.00    -0.324 N 
ATOM     26  H   UNL A   1      32.249  27.519  22.317  1.00  0.00     0.170 HD
BRANCH  25  27
ATOM     27  C   UNL A   1      30.422  28.012  22.878  1.00  0.00     0.044 A 
ATOM     28  C   UNL A   1      30.607  29.269  22.262  1.00  0.00     0.026 A 
ATOM     29  C   UNL A   1      29.128  27.782  23.357  1.00  0.00     0.065 A 
ATOM     30  C   UNL A   1      29.524  30.108  21.919  1.00  0.00     0.005 A 
ATOM     31  C   UNL A   1      28.043  28.596  22.992  1.00  0.00     0.125 A 
ATOM     32  C   UNL A   1      28.223  29.740  22.239  1.00  0.00     0.039 A 
ATOM     33  F   UNL A   1      26.797  28.232  23.337  1.00  0.00    -0.207 F 
ENDBRANCH  25  27
ENDBRANCH  22  23
ENDBRANCH  13  22
ENDBRANCH   7   8
ENDBRANCH   6   7
ENDBRANCH   4   6
ENDBRANCH   1   2
BRANCH   1  34
ATOM     34  C   UNL A   1      40.645  22.061  26.960  1.00  0.00     0.023 C 
BRANCH  34  35
ATOM     35  C   UNL A   1      41.760  22.224  28.002  1.00  0.00     0.023 C 
BRANCH  35  36
ATOM     36  C   UNL A   1      42.641  23.432  27.847  1.00  0.00     0.116 C 
BRANCH  36  37
ATOM     37  N   UNL A   1      42.636  23.981  26.501  1.00  0.00    -0.352 N 
ATOM     38  C   UNL A   1      42.225  25.254  26.150  1.00  0.00     0.251 C 
ATOM     39  H   UNL A   1      42.955  23.396  25.776  1.00  0.00     0.163 HD
ATOM     40  O   UNL A   1      42.137  25.594  24.986  1.00  0.00    -0.269 OA
BRANCH  38  41
ATOM     41  C   UNL A   1      41.848  26.175  27.251  1.00  0.00     0.039 A 
ATOM     42  C   UNL A   1      40.707  25.910  28.008  1.00  0.00     0.014 A 
ATOM     43  C   UNL A   1      42.699  27.231  27.595  1.00  0.00     0.014 A 
ATOM     44  C   UNL A   1      40.439  26.690  29.135  1.00  0.00     0.010 A 
ATOM     45  C   UNL A   1      42.493  27.926  28.778  1.00  0.00     0.010 A 
ATOM     46  C   UNL A   1      41.338  27.694  29.535  1.00  0.00    -0.014 A 
BRANCH  46  47
ATOM     47  C   UNL A   1      41.034  28.587  30.677  1.00  0.00     0.031 A 
ATOM     48  C   UNL A   1      41.867  28.481  31.928  1.00  0.00     0.074 A 
ATOM     49  C   UNL A   1      40.014  29.465  30.605  1.00  0.00     0.049 A 
ATOM     50  N   UNL A   1      41.789  29.173  33.034  1.00  0.00    -0.248 NA
ATOM     51  C   UNL A   1      42.909  27.437  31.951  1.00  0.00     0.031 C 
ATOM     52  C   UNL A   1      39.105  29.621  29.467  1.00  0.00     0.029 A 
ATOM     53  N   UNL A   1      39.578  30.401  31.509  1.00  0.00    -0.354 N 
ATOM     54  C   UNL A   1      42.754  28.638  33.881  1.00  0.00     0.074 A 
ATOM     55  C   UNL A   1      43.356  27.522  33.193  1.00  0.00     0.031 C 
ATOM     56  C   UNL A   1      38.250  30.625  29.724  1.00  0.00     0.029 A 
ATOM     57  C   UNL A   1      38.531  31.165  31.051  1.00  0.00     0.049 A 
ATOM     58  H   UNL A   1      39.977  30.513  32.402  1.00  0.00     0.167 HD
ATOM     59  C   UNL A   1      43.132  29.060  35.109  1.00  0.00     0.031 A 
ATOM     60  C   UNL A   1      37.884  32.193  31.633  1.00  0.00     0.031 A 
ATOM     61  C   UNL A   1      42.552  30.192  35.774  1.00  0.00     0.049 A 
ATOM     62  C   UNL A   1      38.331  32.655  32.997  1.00  0.00     0.074 A 
ATOM     63  C   UNL A   1      42.902  30.749  36.990  1.00  0.00     0.029 A 
ATOM     64  N   UNL A   1      41.500  30.944  35.273  1.00  0.00    -0.354 N 
ATOM     65  N   UNL A   1      39.299  32.188  33.748  1.00  0.00    -0.248 NA
ATOM     66  C   UNL A   1      37.608  33.793  33.580  1.00  0.00     0.031 C 
ATOM     67  C   UNL A   1      42.027  31.808  37.248  1.00  0.00     0.029 A 
ATOM     68  C   UNL A   1      41.170  31.946  36.167  1.00  0.00     0.049 A 
ATOM     69  H   UNL A   1      41.053  30.788  34.409  1.00  0.00     0.167 HD
ATOM     70  C   UNL A   1      39.320  32.993  34.883  1.00  0.00     0.074 A 
ATOM     71  C   UNL A   1      38.277  33.984  34.709  1.00  0.00     0.031 C 
ATOM     72  C   UNL A   1      40.129  32.921  35.969  1.00  0.00     0.031 A 
BRANCH  59  73
ATOM     73  C   UNL A   1      44.224  28.290  35.800  1.00  0.00    -0.014 A 
ATOM     74  C   UNL A   1      44.005  26.985  36.279  1.00  0.00     0.010 A 
ATOM     75  C   UNL A   1      45.494  28.873  35.960  1.00  0.00     0.010 A 
ATOM     76  C   UNL A   1      45.019  26.296  36.948  1.00  0.00     0.020 A 
ATOM     77  C   UNL A   1      46.521  28.176  36.603  1.00  0.00     0.020 A 
ATOM     78  C   UNL A   1      46.271  26.898  37.108  1.00  0.00     0.054 A 
BRANCH  78  79
ATOM     79  S   UNL A   1      47.577  25.975  37.966  1.00  0.00     0.124 S 
ATOM     80  O   UNL A   1      47.539  26.571  39.299  1.00  0.00    -0.237 OA
ATOM     81  O   UNL A   1      47.102  24.596  37.881  1.00  0.00    -0.237 OA
ATOM     82  O   UNL A   1      48.776  26.268  37.187  1.00  0.00    -0.744 OA
ENDBRANCH  78  79
ENDBRANCH  59  73
BRANCH  60  83
ATOM     83  C   UNL A   1      36.775  32.882  30.917  1.00  0.00    -0.014 A 
ATOM     84  C   UNL A   1      35.446  32.447  31.071  1.00  0.00     0.010 A 
ATOM     85  C   UNL A   1      37.039  33.983  30.081  1.00  0.00     0.010 A 
ATOM     86  C   UNL A   1      34.406  33.087  30.389  1.00  0.00     0.020 A 
ATOM     87  C   UNL A   1      35.999  34.641  29.418  1.00  0.00     0.020 A 
ATOM     88  C   UNL A   1      34.689  34.180  29.566  1.00  0.00     0.054 A 
BRANCH  88  89
ATOM     89  S   UNL A   1      33.318  35.021  28.725  1.00  0.00     0.124 S 
ATOM     90  O   UNL A   1      34.020  36.013  27.917  1.00  0.00    -0.237 OA
ATOM     91  O   UNL A   1      32.688  33.931  27.983  1.00  0.00    -0.237 OA
ATOM     92  O   UNL A   1      32.521  35.558  29.825  1.00  0.00    -0.744 OA
ENDBRANCH  88  89
ENDBRANCH  60  83
BRANCH  72  93
ATOM     93  C   UNL A   1      39.940  33.958  37.042  1.00  0.00    -0.014 A 
ATOM     94  C   UNL A   1      40.451  35.258  36.895  1.00  0.00     0.010 A 
ATOM     95  C   UNL A   1      39.178  33.643  38.182  1.00  0.00     0.010 A 
ATOM     96  C   UNL A   1      40.229  36.219  37.884  1.00  0.00     0.020 A 
ATOM     97  C   UNL A   1      38.929  34.608  39.159  1.00  0.00     0.020 A 
ATOM     98  C   UNL A   1      39.468  35.888  39.011  1.00  0.00     0.054 A 
BRANCH  98  99
ATOM     99  S   UNL A   1      39.151  37.166  40.256  1.00  0.00     0.124 S 
ATOM    100  O   UNL A   1      38.328  36.447  41.224  1.00  0.00    -0.237 OA
ATOM    101  O   UNL A   1      40.496  37.513  40.709  1.00  0.00    -0.237 OA
ATOM    102  O   UNL A   1      38.463  38.216  39.508  1.00  0.00    -0.744 OA
ENDBRANCH  98  99
ENDBRANCH  72  93
ENDBRANCH  46  47
ENDBRANCH  38  41
ENDBRANCH  36  37
ENDBRANCH  35  36
ENDBRANCH  34  35
ENDBRANCH   1  34
TORSDOF 20
ENDMDL
MODEL 3
REMARK VINA RESULT:     -12.6      5.777      8.740
REMARK SMILES O=C(CC[C@@]1(c2ccccc2)NC(=O)N(CC(=O)Nc2cccc(F)c2)C1=O)NCCCCNC(=O)c1ccc(-c2c3nc(c(-c4ccc(S(=O)(=O)[O-])cc4)c4ccc([nH]4)c(-c4ccc(S(=O)(=O)[O-])cc4)c4nc(c(-c5ccc(S(=O)(=O)[O-])cc5)c5ccc2[nH]5)C=C4)C=C3)cc1
REMARK SMILES IDX 30 1 29 2 1 3 2 4 3 6 4 7 5 8 12 9 27 10 13 11 15 13 28 14
REMARK SMILES IDX 14 15 6 16 7 17 11 18 8 19 10 20 9 21 16 22 17 23 18 24
REMARK SMILES IDX 19 25 20 27 21 28 26 29 22 30 24 31 23 32 25 33 31 34 32 35
REMARK SMILES IDX 33 36 34 37 35 38 36 40 37 41 38 42 96 43 39 44 95 45 40 46
REMARK SMILES IDX 41 47 42 48 89 49 43 50 94 51 88 52 90 53 44 54 93 55 87 56
REMARK SMILES IDX 86 57 45 59 75 60 56 61 74 62 57 63 60 64 73 65 91 66 58 67
REMARK SMILES IDX 59 68 72 70 92 71 61 72 46 73 47 74 55 75 48 76 54 77 49 78
REMARK SMILES IDX 50 79 51 80 52 81 53 82 76 83 77 84 85 85 78 86 84 87 79 88
REMARK SMILES IDX 80 89 81 90 82 91 83 92 62 93 63 94 71 95 64 96 70 97 65 98
REMARK SMILES IDX 66 99 67 100 68 101 69 102
REMARK H PARENT 29 5 12 12 19 26 34 39 90 58 60 69
REMARK Flexibility Score: inf
ROOT
ATOM      1  C   UNL A   1      31.391  28.225  26.371  1.00  0.00     0.116 C 
ENDROOT
BRANCH   1   2
ATOM      2  N   UNL A   1      31.459  26.703  26.248  1.00  0.00    -0.356 N 
ATOM      3  O   UNL A   1      29.444  25.509  26.403  1.00  0.00    -0.275 OA
ATOM      4  C   UNL A   1      30.656  25.579  26.251  1.00  0.00     0.220 C 
ATOM      5  H   UNL A   1      32.396  26.431  26.123  1.00  0.00     0.163 HD
BRANCH   4   6
ATOM      6  C   UNL A   1      31.302  24.211  26.167  1.00  0.00     0.103 C 
BRANCH   6   7
ATOM      7  C   UNL A   1      31.231  23.489  24.835  1.00  0.00     0.053 C 
BRANCH   7   8
ATOM      8  C   UNL A   1      32.575  23.375  24.044  1.00  0.00     0.147 C 
ATOM      9  N   UNL A   1      32.327  23.672  22.655  1.00  0.00    -0.319 N 
ATOM     10  C   UNL A   1      33.507  24.615  24.336  1.00  0.00     0.261 C 
ATOM     11  C   UNL A   1      32.958  24.816  22.246  1.00  0.00     0.325 C 
ATOM     12  H   UNL A   1      31.767  23.115  22.067  1.00  0.00     0.166 HD
ATOM     13  N   UNL A   1      33.332  25.546  23.320  1.00  0.00    -0.252 N 
ATOM     14  O   UNL A   1      34.160  24.772  25.357  1.00  0.00    -0.271 OA
ATOM     15  O   UNL A   1      33.095  25.033  21.042  1.00  0.00    -0.248 OA
BRANCH   8  16
ATOM     16  C   UNL A   1      33.166  21.958  24.145  1.00  0.00    -0.013 A 
ATOM     17  C   UNL A   1      32.373  20.807  23.922  1.00  0.00     0.007 A 
ATOM     18  C   UNL A   1      34.481  21.736  24.591  1.00  0.00     0.007 A 
ATOM     19  C   UNL A   1      32.847  19.517  24.173  1.00  0.00     0.000 A 
ATOM     20  C   UNL A   1      34.957  20.440  24.847  1.00  0.00     0.000 A 
ATOM     21  C   UNL A   1      34.140  19.334  24.641  1.00  0.00     0.000 A 
ENDBRANCH   8  16
BRANCH  13  22
ATOM     22  C   UNL A   1      33.652  27.031  23.376  1.00  0.00     0.230 C 
BRANCH  22  23
ATOM     23  C   UNL A   1      33.105  28.578  22.864  1.00  0.00     0.244 C 
ATOM     24  O   UNL A   1      34.074  29.287  22.473  1.00  0.00    -0.273 OA
ATOM     25  N   UNL A   1      31.935  29.231  22.477  1.00  0.00    -0.324 N 
ATOM     26  H   UNL A   1      32.211  30.050  22.005  1.00  0.00     0.170 HD
BRANCH  25  27
ATOM     27  C   UNL A   1      30.484  29.216  22.474  1.00  0.00     0.044 A 
ATOM     28  C   UNL A   1      29.874  27.999  22.849  1.00  0.00     0.026 A 
ATOM     29  C   UNL A   1      29.590  30.232  22.121  1.00  0.00     0.065 A 
ATOM     30  C   UNL A   1      28.488  27.897  23.103  1.00  0.00     0.005 A 
ATOM     31  C   UNL A   1      28.216  30.147  22.401  1.00  0.00     0.125 A 
ATOM     32  C   UNL A   1      27.660  28.999  22.930  1.00  0.00     0.039 A 
ATOM     33  F   UNL A   1      27.432  31.219  22.199  1.00  0.00    -0.207 F 
ENDBRANCH  25  27
ENDBRANCH  22  23
ENDBRANCH  13  22
ENDBRANCH   7   8
ENDBRANCH   6   7
ENDBRANCH   4   6
ENDBRANCH   1   2
BRANCH   1  34
ATOM     34  C   UNL A   1      32.415  29.285  26.907  1.00  0.00     0.023 C 
BRANCH  34  35
ATOM     35  C   UNL A   1      32.381  30.814  26.783  1.00  0.00     0.023 C 
BRANCH  35  36
ATOM     36  C   UNL A   1      33.466  31.562  27.507  1.00  0.00     0.116 C 
BRANCH  36  37
ATOM     37  N   UNL A   1      33.103  32.928  27.840  1.00  0.00    -0.352 N 
ATOM     38  C   UNL A   1      33.769  33.746  28.737  1.00  0.00     0.251 C 
ATOM     39  H   UNL A   1      32.315  33.307  27.387  1.00  0.00     0.163 HD
ATOM     40  O   UNL A   1      33.328  34.834  29.049  1.00  0.00    -0.269 OA
BRANCH  38  41
ATOM     41  C   UNL A   1      35.019  33.219  29.338  1.00  0.00     0.039 A 
ATOM     42  C   UNL A   1      36.245  33.773  28.968  1.00  0.00     0.014 A 
ATOM     43  C   UNL A   1      34.951  32.257  30.351  1.00  0.00     0.014 A 
ATOM     44  C   UNL A   1      37.402  33.381  29.644  1.00  0.00     0.010 A 
ATOM     45  C   UNL A   1      36.082  31.958  31.097  1.00  0.00     0.010 A 
ATOM     46  C   UNL A   1      37.326  32.482  30.722  1.00  0.00    -0.014 A 
BRANCH  46  47
ATOM     47  C   UNL A   1      38.548  31.989  31.399  1.00  0.00     0.031 A 
ATOM     48  C   UNL A   1      38.915  32.558  32.745  1.00  0.00     0.074 A 
ATOM     49  C   UNL A   1      39.329  31.063  30.810  1.00  0.00     0.049 A 
ATOM     50  N   UNL A   1      39.925  32.260  33.520  1.00  0.00    -0.248 NA
ATOM     51  C   UNL A   1      38.050  33.626  33.278  1.00  0.00     0.031 C 
ATOM     52  C   UNL A   1      39.104  30.478  29.486  1.00  0.00     0.029 A 
ATOM     53  N   UNL A   1      40.469  30.443  31.257  1.00  0.00    -0.354 N 
ATOM     54  C   UNL A   1      39.821  33.111  34.616  1.00  0.00     0.074 A 
ATOM     55  C   UNL A   1      38.698  33.984  34.375  1.00  0.00     0.031 C 
ATOM     56  C   UNL A   1      40.048  29.552  29.249  1.00  0.00     0.029 A 
ATOM     57  C   UNL A   1      40.959  29.496  30.389  1.00  0.00     0.049 A 
ATOM     58  H   UNL A   1      40.895  30.657  32.118  1.00  0.00     0.167 HD
ATOM     59  C   UNL A   1      40.572  33.140  35.740  1.00  0.00     0.031 A 
ATOM     60  C   UNL A   1      42.015  28.668  30.510  1.00  0.00     0.031 A 
ATOM     61  C   UNL A   1      41.668  32.247  35.988  1.00  0.00     0.049 A 
ATOM     62  C   UNL A   1      42.830  28.709  31.777  1.00  0.00     0.074 A 
ATOM     63  C   UNL A   1      42.456  32.144  37.119  1.00  0.00     0.029 A 
ATOM     64  N   UNL A   1      42.127  31.297  35.088  1.00  0.00    -0.354 N 
ATOM     65  N   UNL A   1      42.668  29.466  32.836  1.00  0.00    -0.248 NA
ATOM     66  C   UNL A   1      43.958  27.774  31.869  1.00  0.00     0.031 C 
ATOM     67  C   UNL A   1      43.425  31.164  36.883  1.00  0.00     0.029 A 
ATOM     68  C   UNL A   1      43.204  30.619  35.627  1.00  0.00     0.049 A 
ATOM     69  H   UNL A   1      41.743  31.130  34.196  1.00  0.00     0.167 HD
ATOM     70  C   UNL A   1      43.658  29.078  33.734  1.00  0.00     0.074 A 
ATOM     71  C   UNL A   1      44.402  28.010  33.097  1.00  0.00     0.031 C 
ATOM     72  C   UNL A   1      43.927  29.558  34.973  1.00  0.00     0.031 A 
BRANCH  59  73
ATOM     73  C   UNL A   1      40.224  34.172  36.778  1.00  0.00    -0.014 A 
ATOM     74  C   UNL A   1      40.856  35.430  36.798  1.00  0.00     0.010 A 
ATOM     75  C   UNL A   1      39.240  33.887  37.742  1.00  0.00     0.010 A 
ATOM     76  C   UNL A   1      40.545  36.364  37.788  1.00  0.00     0.020 A 
ATOM     77  C   UNL A   1      38.904  34.830  38.717  1.00  0.00     0.020 A 
ATOM     78  C   UNL A   1      39.573  36.057  38.744  1.00  0.00     0.054 A 
BRANCH  78  79
ATOM     79  S   UNL A   1      39.176  37.294  40.010  1.00  0.00     0.124 S 
ATOM     80  O   UNL A   1      38.525  36.479  41.032  1.00  0.00    -0.237 OA
ATOM     81  O   UNL A   1      40.492  37.818  40.369  1.00  0.00    -0.237 OA
ATOM     82  O   UNL A   1      38.302  38.234  39.314  1.00  0.00    -0.744 OA
ENDBRANCH  78  79
ENDBRANCH  59  73
BRANCH  60  83
ATOM     83  C   UNL A   1      42.338  27.704  29.422  1.00  0.00    -0.014 A 
ATOM     84  C   UNL A   1      43.308  28.019  28.452  1.00  0.00     0.010 A 
ATOM     85  C   UNL A   1      41.685  26.459  29.354  1.00  0.00     0.010 A 
ATOM     86  C   UNL A   1      43.603  27.118  27.425  1.00  0.00     0.020 A 
ATOM     87  C   UNL A   1      41.997  25.545  28.342  1.00  0.00     0.020 A 
ATOM     88  C   UNL A   1      42.945  25.886  27.376  1.00  0.00     0.054 A 
BRANCH  88  89
ATOM     89  S   UNL A   1      43.376  24.716  26.057  1.00  0.00     0.124 S 
ATOM     90  O   UNL A   1      44.539  24.037  26.621  1.00  0.00    -0.237 OA
ATOM     91  O   UNL A   1      42.164  23.908  25.945  1.00  0.00    -0.237 OA
ATOM     92  O   UNL A   1      43.649  25.579  24.911  1.00  0.00    -0.744 OA
ENDBRANCH  88  89
ENDBRANCH  60  83
BRANCH  72  93
ATOM     93  C   UNL A   1      45.053  28.917  35.735  1.00  0.00    -0.014 A 
ATOM     94  C   UNL A   1      46.359  29.430  35.670  1.00  0.00     0.010 A 
ATOM     95  C   UNL A   1      44.782  27.827  36.584  1.00  0.00     0.010 A 
ATOM     96  C   UNL A   1      47.384  28.846  36.419  1.00  0.00     0.020 A 
ATOM     97  C   UNL A   1      45.797  27.258  37.355  1.00  0.00     0.020 A 
ATOM     98  C   UNL A   1      47.096  27.763  37.257  1.00  0.00     0.054 A 
BRANCH  98  99
ATOM     99  S   UNL A   1      48.431  27.054  38.257  1.00  0.00     0.124 S 
ATOM    100  O   UNL A   1      49.614  27.409  37.478  1.00  0.00    -0.237 OA
ATOM    101  O   UNL A   1      48.284  27.753  39.531  1.00  0.00    -0.237 OA
ATOM    102  O   UNL A   1      48.115  25.627  38.296  1.00  0.00    -0.744 OA
ENDBRANCH  98  99
ENDBRANCH  72  93
ENDBRANCH  46  47
ENDBRANCH  38  41
ENDBRANCH  36  37
ENDBRANCH  35  36
ENDBRANCH  34  35
ENDBRANCH   1  34
TORSDOF 20
ENDMDL
