MODEL 1
REMARK VINA RESULT:     -10.7      0.000      0.000
REMARK SMILES CC(C)c1nc(N(C)CCc2ccccn2)sc1C(=O)NCCCCNC(=O)c1ccc(-c2c3nc(c(-c4ccc(S(=O)(=O)[O-])cc4)c4ccc([nH]4)c(-c4ccc(S(=O)(=O)[O-])cc4)c4nc(c(-c5ccc(S(=O)(=O)[O-])cc5)c5ccc2[nH]5)C=C4)C=C3)cc1
REMARK SMILES IDX 23 1 22 2 21 3 19 4 20 5 18 7 4 8 5 9 6 10 17 11 2 12 1 13
REMARK SMILES IDX 3 14 7 15 8 16 9 17 10 18 11 19 12 20 16 21 13 22 15 23
REMARK SMILES IDX 14 24 24 25 25 26 26 27 27 28 28 30 29 31 30 32 88 33 31 34
REMARK SMILES IDX 87 35 32 36 33 37 34 38 81 39 35 40 86 41 80 42 82 43 36 44
REMARK SMILES IDX 85 45 79 46 78 47 37 49 67 50 48 51 66 52 49 53 52 54 65 55
REMARK SMILES IDX 83 56 50 57 51 58 64 60 84 61 53 62 38 63 39 64 47 65 40 66
REMARK SMILES IDX 46 67 41 68 42 69 43 70 44 71 45 72 68 73 69 74 77 75 70 76
REMARK SMILES IDX 76 77 71 78 72 79 73 80 74 81 75 82 54 83 55 84 63 85 56 86
REMARK SMILES IDX 62 87 57 88 58 89 59 90 60 91 61 92
REMARK H PARENT 21 6 26 29 82 48 52 59
REMARK Flexibility Score: inf
ROOT
ATOM      1  C   UNL A   1      31.566  28.359  25.780  1.00  0.00     0.023 C 
ENDROOT
BRANCH   1   2
ATOM      2  C   UNL A   1      31.642  27.471  27.024  1.00  0.00     0.116 C 
BRANCH   2   3
ATOM      3  N   UNL A   1      30.938  26.228  26.855  1.00  0.00    -0.351 N 
ATOM      4  C   UNL A   1      31.197  24.967  26.405  1.00  0.00     0.263 C 
ATOM      5  O   UNL A   1      30.332  24.184  26.835  1.00  0.00    -0.268 OA
ATOM      6  H   UNL A   1      30.003  26.311  27.151  1.00  0.00     0.163 HD
BRANCH   4   7
ATOM      7  C   UNL A   1      32.251  24.519  25.498  1.00  0.00     0.117 A 
ATOM      8  C   UNL A   1      32.736  24.691  24.200  1.00  0.00     0.069 A 
ATOM      9  N   UNL A   1      33.811  23.855  23.874  1.00  0.00    -0.224 NA
ATOM     10  C   UNL A   1      34.163  23.041  24.833  1.00  0.00     0.186 A 
ATOM     11  S   UNL A   1      33.283  23.318  26.263  1.00  0.00    -0.091 S 
BRANCH   8  12
ATOM     12  C   UNL A   1      32.361  25.571  23.034  1.00  0.00     0.034 C 
ATOM     13  C   UNL A   1      32.881  25.070  21.691  1.00  0.00     0.014 C 
ATOM     14  C   UNL A   1      30.901  26.021  23.058  1.00  0.00     0.014 C 
ENDBRANCH   8  12
BRANCH  10  15
ATOM     15  N   UNL A   1      35.117  22.077  24.685  1.00  0.00    -0.351 N 
ATOM     16  C   UNL A   1      36.453  22.338  24.177  1.00  0.00     0.146 C 
BRANCH  15  17
ATOM     17  C   UNL A   1      34.828  20.715  25.158  1.00  0.00     0.125 C 
BRANCH  17  18
ATOM     18  C   UNL A   1      33.523  20.155  24.579  1.00  0.00     0.077 C 
BRANCH  18  19
ATOM     19  C   UNL A   1      33.425  18.654  24.663  1.00  0.00     0.042 A 
ATOM     20  C   UNL A   1      34.316  17.842  23.964  1.00  0.00     0.024 A 
ATOM     21  N   UNL A   1      32.438  18.150  25.445  1.00  0.00    -0.261 NA
ATOM     22  C   UNL A   1      34.203  16.461  24.084  1.00  0.00     0.003 A 
ATOM     23  C   UNL A   1      32.360  16.805  25.551  1.00  0.00     0.111 A 
ATOM     24  C   UNL A   1      33.207  15.928  24.893  1.00  0.00     0.020 A 
ENDBRANCH  18  19
ENDBRANCH  17  18
ENDBRANCH  15  17
ENDBRANCH  10  15
ENDBRANCH   4   7
ENDBRANCH   2   3
ENDBRANCH   1   2
BRANCH   1  25
ATOM     25  C   UNL A   1      32.810  29.218  25.564  1.00  0.00     0.023 C 
BRANCH  25  26
ATOM     26  C   UNL A   1      33.832  29.228  26.692  1.00  0.00     0.116 C 
BRANCH  26  27
ATOM     27  N   UNL A   1      33.762  30.389  27.566  1.00  0.00    -0.352 N 
ATOM     28  C   UNL A   1      34.734  30.874  28.419  1.00  0.00     0.251 C 
ATOM     29  H   UNL A   1      32.916  30.890  27.548  1.00  0.00     0.163 HD
ATOM     30  O   UNL A   1      34.512  31.855  29.124  1.00  0.00    -0.269 OA
BRANCH  28  31
ATOM     31  C   UNL A   1      36.023  30.152  28.524  1.00  0.00     0.039 A 
ATOM     32  C   UNL A   1      36.885  30.153  27.427  1.00  0.00     0.014 A 
ATOM     33  C   UNL A   1      36.434  29.609  29.744  1.00  0.00     0.014 A 
ATOM     34  C   UNL A   1      38.207  29.728  27.591  1.00  0.00     0.010 A 
ATOM     35  C   UNL A   1      37.776  29.289  29.928  1.00  0.00     0.010 A 
ATOM     36  C   UNL A   1      38.685  29.365  28.861  1.00  0.00    -0.014 A 
BRANCH  36  37
ATOM     37  C   UNL A   1      40.131  29.105  29.105  1.00  0.00     0.031 A 
ATOM     38  C   UNL A   1      40.739  27.779  28.725  1.00  0.00     0.074 A 
ATOM     39  C   UNL A   1      40.882  30.021  29.754  1.00  0.00     0.049 A 
ATOM     40  N   UNL A   1      41.947  27.331  28.951  1.00  0.00    -0.248 NA
ATOM     41  C   UNL A   1      39.861  26.818  28.038  1.00  0.00     0.031 C 
ATOM     42  C   UNL A   1      40.409  31.319  30.244  1.00  0.00     0.029 A 
ATOM     43  N   UNL A   1      42.207  29.997  30.121  1.00  0.00    -0.354 N 
ATOM     44  C   UNL A   1      41.961  26.027  28.472  1.00  0.00     0.074 A 
ATOM     45  C   UNL A   1      40.629  25.741  27.987  1.00  0.00     0.031 C 
ATOM     46  C   UNL A   1      41.434  31.979  30.808  1.00  0.00     0.029 A 
ATOM     47  C   UNL A   1      42.627  31.141  30.760  1.00  0.00     0.049 A 
ATOM     48  H   UNL A   1      42.799  29.231  29.944  1.00  0.00     0.167 HD
ATOM     49  C   UNL A   1      42.993  25.151  28.413  1.00  0.00     0.031 A 
ATOM     50  C   UNL A   1      43.834  31.481  31.251  1.00  0.00     0.031 A 
ATOM     51  C   UNL A   1      44.331  25.447  28.850  1.00  0.00     0.049 A 
ATOM     52  C   UNL A   1      44.979  30.514  31.129  1.00  0.00     0.074 A 
ATOM     53  C   UNL A   1      45.460  24.652  28.761  1.00  0.00     0.029 A 
ATOM     54  N   UNL A   1      44.722  26.635  29.446  1.00  0.00    -0.354 N 
ATOM     55  N   UNL A   1      44.984  29.308  30.613  1.00  0.00    -0.248 NA
ATOM     56  C   UNL A   1      46.282  30.958  31.645  1.00  0.00     0.031 C 
ATOM     57  C   UNL A   1      46.531  25.350  29.330  1.00  0.00     0.029 A 
ATOM     58  C   UNL A   1      46.074  26.594  29.738  1.00  0.00     0.049 A 
ATOM     59  H   UNL A   1      44.127  27.397  29.634  1.00  0.00     0.167 HD
ATOM     60  C   UNL A   1      46.294  28.857  30.725  1.00  0.00     0.074 A 
ATOM     61  C   UNL A   1      47.055  29.923  31.343  1.00  0.00     0.031 C 
ATOM     62  C   UNL A   1      46.819  27.665  30.350  1.00  0.00     0.031 A 
BRANCH  49  63
ATOM     63  C   UNL A   1      42.707  23.787  27.845  1.00  0.00    -0.014 A 
ATOM     64  C   UNL A   1      42.266  22.738  28.670  1.00  0.00     0.010 A 
ATOM     65  C   UNL A   1      42.875  23.553  26.469  1.00  0.00     0.010 A 
ATOM     66  C   UNL A   1      42.051  21.464  28.141  1.00  0.00     0.020 A 
ATOM     67  C   UNL A   1      42.635  22.285  25.929  1.00  0.00     0.020 A 
ATOM     68  C   UNL A   1      42.246  21.244  26.774  1.00  0.00     0.054 A 
BRANCH  68  69
ATOM     69  S   UNL A   1      41.964  19.579  26.111  1.00  0.00     0.124 S 
ATOM     70  O   UNL A   1      42.345  18.738  27.242  1.00  0.00    -0.237 OA
ATOM     71  O   UNL A   1      40.538  19.596  25.793  1.00  0.00    -0.237 OA
ATOM     72  O   UNL A   1      42.855  19.513  24.955  1.00  0.00    -0.744 OA
ENDBRANCH  68  69
ENDBRANCH  49  63
BRANCH  50  73
ATOM     73  C   UNL A   1      44.034  32.816  31.877  1.00  0.00    -0.014 A 
ATOM     74  C   UNL A   1      43.873  32.978  33.266  1.00  0.00     0.010 A 
ATOM     75  C   UNL A   1      44.396  33.928  31.096  1.00  0.00     0.010 A 
ATOM     76  C   UNL A   1      44.057  34.229  33.860  1.00  0.00     0.020 A 
ATOM     77  C   UNL A   1      44.604  35.177  31.691  1.00  0.00     0.020 A 
ATOM     78  C   UNL A   1      44.423  35.322  33.068  1.00  0.00     0.054 A 
BRANCH  78  79
ATOM     79  S   UNL A   1      44.716  36.925  33.867  1.00  0.00     0.124 S 
ATOM     80  O   UNL A   1      43.766  37.788  33.173  1.00  0.00    -0.237 OA
ATOM     81  O   UNL A   1      44.410  36.644  35.268  1.00  0.00    -0.237 OA
ATOM     82  O   UNL A   1      46.125  37.190  33.588  1.00  0.00    -0.744 OA
ENDBRANCH  78  79
ENDBRANCH  50  73
BRANCH  62  83
ATOM     83  C   UNL A   1      48.292  27.457  30.568  1.00  0.00    -0.014 A 
ATOM     84  C   UNL A   1      49.230  27.866  29.605  1.00  0.00     0.010 A 
ATOM     85  C   UNL A   1      48.743  26.898  31.777  1.00  0.00     0.010 A 
ATOM     86  C   UNL A   1      50.598  27.698  29.839  1.00  0.00     0.020 A 
ATOM     87  C   UNL A   1      50.109  26.749  32.023  1.00  0.00     0.020 A 
ATOM     88  C   UNL A   1      51.029  27.139  31.047  1.00  0.00     0.054 A 
BRANCH  88  89
ATOM     89  S   UNL A   1      52.809  26.977  31.352  1.00  0.00     0.124 S 
ATOM     90  O   UNL A   1      52.928  27.470  32.721  1.00  0.00    -0.237 OA
ATOM     91  O   UNL A   1      53.039  25.545  31.178  1.00  0.00    -0.237 OA
ATOM     92  O   UNL A   1      53.413  27.826  30.327  1.00  0.00    -0.744 OA
ENDBRANCH  88  89
ENDBRANCH  62  83
ENDBRANCH  36  37
ENDBRANCH  28  31
ENDBRANCH  26  27
ENDBRANCH  25  26
ENDBRANCH   1  25
TORSDOF 19
ENDMDL
MODEL 2
REMARK VINA RESULT:     -10.6      4.077      9.189
REMARK SMILES CC(C)c1nc(N(C)CCc2ccccn2)sc1C(=O)NCCCCNC(=O)c1ccc(-c2c3nc(c(-c4ccc(S(=O)(=O)[O-])cc4)c4ccc([nH]4)c(-c4ccc(S(=O)(=O)[O-])cc4)c4nc(c(-c5ccc(S(=O)(=O)[O-])cc5)c5ccc2[nH]5)C=C4)C=C3)cc1
REMARK SMILES IDX 23 1 22 2 21 3 19 4 20 5 18 7 4 8 5 9 6 10 17 11 2 12 1 13
REMARK SMILES IDX 3 14 7 15 8 16 9 17 10 18 11 19 12 20 16 21 13 22 15 23
REMARK SMILES IDX 14 24 24 25 25 26 26 27 27 28 28 30 29 31 30 32 88 33 31 34
REMARK SMILES IDX 87 35 32 36 33 37 34 38 81 39 35 40 86 41 80 42 82 43 36 44
REMARK SMILES IDX 85 45 79 46 78 47 37 49 67 50 48 51 66 52 49 53 52 54 65 55
REMARK SMILES IDX 83 56 50 57 51 58 64 60 84 61 53 62 38 63 39 64 47 65 40 66
REMARK SMILES IDX 46 67 41 68 42 69 43 70 44 71 45 72 68 73 69 74 77 75 70 76
REMARK SMILES IDX 76 77 71 78 72 79 73 80 74 81 75 82 54 83 55 84 63 85 56 86
REMARK SMILES IDX 62 87 57 88 58 89 59 90 60 91 61 92
REMARK H PARENT 21 6 26 29 82 48 52 59
REMARK Flexibility Score: inf
ROOT
ATOM      1  C   UNL A   1      33.393  29.391  26.592  1.00  0.00     0.023 C 
ENDROOT
BRANCH   1   2
ATOM      2  C   UNL A   1      32.792  28.155  27.265  1.00  0.00     0.116 C 
BRANCH   2   3
ATOM      3  N   UNL A   1      31.715  27.583  26.503  1.00  0.00    -0.351 N 
ATOM      4  C   UNL A   1      31.471  26.455  25.777  1.00  0.00     0.263 C 
ATOM      5  O   UNL A   1      30.244  26.298  25.649  1.00  0.00    -0.268 OA
ATOM      6  H   UNL A   1      30.928  28.176  26.507  1.00  0.00     0.163 HD
BRANCH   4   7
ATOM      7  C   UNL A   1      32.428  25.551  25.144  1.00  0.00     0.117 A 
ATOM      8  C   UNL A   1      33.195  25.390  23.989  1.00  0.00     0.069 A 
ATOM      9  N   UNL A   1      33.902  24.182  23.934  1.00  0.00    -0.224 NA
ATOM     10  C   UNL A   1      33.705  23.402  24.962  1.00  0.00     0.186 A 
ATOM     11  S   UNL A   1      32.731  24.139  26.148  1.00  0.00    -0.091 S 
BRANCH   8  12
ATOM     12  C   UNL A   1      33.439  26.217  22.752  1.00  0.00     0.034 C 
ATOM     13  C   UNL A   1      32.538  25.851  21.578  1.00  0.00     0.014 C 
ATOM     14  C   UNL A   1      33.586  27.710  23.040  1.00  0.00     0.014 C 
ENDBRANCH   8  12
BRANCH  10  15
ATOM     15  N   UNL A   1      34.217  22.140  25.055  1.00  0.00    -0.351 N 
ATOM     16  C   UNL A   1      35.558  21.783  24.626  1.00  0.00     0.146 C 
BRANCH  15  17
ATOM     17  C   UNL A   1      33.419  21.099  25.717  1.00  0.00     0.125 C 
BRANCH  17  18
ATOM     18  C   UNL A   1      32.703  20.180  24.719  1.00  0.00     0.077 C 
BRANCH  18  19
ATOM     19  C   UNL A   1      33.098  18.732  24.845  1.00  0.00     0.042 A 
ATOM     20  C   UNL A   1      34.316  18.279  24.343  1.00  0.00     0.024 A 
ATOM     21  N   UNL A   1      32.215  17.911  25.466  1.00  0.00    -0.261 NA
ATOM     22  C   UNL A   1      34.651  16.939  24.498  1.00  0.00     0.003 A 
ATOM     23  C   UNL A   1      32.573  16.616  25.612  1.00  0.00     0.111 A 
ATOM     24  C   UNL A   1      33.764  16.087  25.145  1.00  0.00     0.020 A 
ENDBRANCH  18  19
ENDBRANCH  17  18
ENDBRANCH  15  17
ENDBRANCH  10  15
ENDBRANCH   4   7
ENDBRANCH   2   3
ENDBRANCH   1   2
BRANCH   1  25
ATOM     25  C   UNL A   1      32.720  30.699  27.000  1.00  0.00     0.023 C 
BRANCH  25  26
ATOM     26  C   UNL A   1      33.621  31.761  27.617  1.00  0.00     0.116 C 
BRANCH  26  27
ATOM     27  N   UNL A   1      33.029  33.087  27.701  1.00  0.00    -0.352 N 
ATOM     28  C   UNL A   1      33.406  34.140  28.511  1.00  0.00     0.251 C 
ATOM     29  H   UNL A   1      32.264  33.255  27.105  1.00  0.00     0.163 HD
ATOM     30  O   UNL A   1      32.783  35.197  28.491  1.00  0.00    -0.269 OA
BRANCH  28  31
ATOM     31  C   UNL A   1      34.530  33.951  29.457  1.00  0.00     0.039 A 
ATOM     32  C   UNL A   1      34.288  33.295  30.665  1.00  0.00     0.014 A 
ATOM     33  C   UNL A   1      35.834  34.287  29.086  1.00  0.00     0.014 A 
ATOM     34  C   UNL A   1      35.368  32.858  31.438  1.00  0.00     0.010 A 
ATOM     35  C   UNL A   1      36.904  33.758  29.802  1.00  0.00     0.010 A 
ATOM     36  C   UNL A   1      36.685  33.018  30.976  1.00  0.00    -0.014 A 
BRANCH  36  37
ATOM     37  C   UNL A   1      37.840  32.387  31.674  1.00  0.00     0.031 A 
ATOM     38  C   UNL A   1      38.291  32.906  33.015  1.00  0.00     0.074 A 
ATOM     39  C   UNL A   1      38.544  31.409  31.065  1.00  0.00     0.049 A 
ATOM     40  N   UNL A   1      39.333  32.556  33.726  1.00  0.00    -0.248 NA
ATOM     41  C   UNL A   1      37.491  33.986  33.615  1.00  0.00     0.031 C 
ATOM     42  C   UNL A   1      38.265  30.856  29.737  1.00  0.00     0.029 A 
ATOM     43  N   UNL A   1      39.650  30.708  31.484  1.00  0.00    -0.354 N 
ATOM     44  C   UNL A   1      39.334  33.397  34.832  1.00  0.00     0.074 A 
ATOM     45  C   UNL A   1      38.219  34.305  34.673  1.00  0.00     0.031 C 
ATOM     46  C   UNL A   1      39.147  29.879  29.470  1.00  0.00     0.029 A 
ATOM     47  C   UNL A   1      40.080  29.759  30.584  1.00  0.00     0.049 A 
ATOM     48  H   UNL A   1      40.093  30.869  32.348  1.00  0.00     0.167 HD
ATOM     49  C   UNL A   1      40.170  33.403  35.898  1.00  0.00     0.031 A 
ATOM     50  C   UNL A   1      41.108  28.891  30.646  1.00  0.00     0.031 A 
ATOM     51  C   UNL A   1      41.250  32.472  36.084  1.00  0.00     0.049 A 
ATOM     52  C   UNL A   1      41.990  28.877  31.862  1.00  0.00     0.074 A 
ATOM     53  C   UNL A   1      42.103  32.349  37.166  1.00  0.00     0.029 A 
ATOM     54  N   UNL A   1      41.619  31.499  35.170  1.00  0.00    -0.354 N 
ATOM     55  N   UNL A   1      41.934  29.642  32.927  1.00  0.00    -0.248 NA
ATOM     56  C   UNL A   1      43.069  27.879  31.890  1.00  0.00     0.031 C 
ATOM     57  C   UNL A   1      43.007  31.316  36.895  1.00  0.00     0.029 A 
ATOM     58  C   UNL A   1      42.691  30.774  35.660  1.00  0.00     0.049 A 
ATOM     59  H   UNL A   1      41.183  31.344  34.301  1.00  0.00     0.167 HD
ATOM     60  C   UNL A   1      42.956  29.204  33.760  1.00  0.00     0.074 A 
ATOM     61  C   UNL A   1      43.605  28.099  33.084  1.00  0.00     0.031 C 
ATOM     62  C   UNL A   1      43.325  29.674  34.976  1.00  0.00     0.031 A 
BRANCH  49  63
ATOM     63  C   UNL A   1      39.933  34.450  36.953  1.00  0.00    -0.014 A 
ATOM     64  C   UNL A   1      40.608  35.683  36.911  1.00  0.00     0.010 A 
ATOM     65  C   UNL A   1      39.021  34.202  37.994  1.00  0.00     0.010 A 
ATOM     66  C   UNL A   1      40.418  36.628  37.921  1.00  0.00     0.020 A 
ATOM     67  C   UNL A   1      38.807  35.157  38.993  1.00  0.00     0.020 A 
ATOM     68  C   UNL A   1      39.526  36.354  38.962  1.00  0.00     0.054 A 
BRANCH  68  69
ATOM     69  S   UNL A   1      39.298  37.596  40.264  1.00  0.00     0.124 S 
ATOM     70  O   UNL A   1      40.592  38.275  40.258  1.00  0.00    -0.237 OA
ATOM     71  O   UNL A   1      38.173  38.384  39.767  1.00  0.00    -0.237 OA
ATOM     72  O   UNL A   1      39.018  36.799  41.456  1.00  0.00    -0.744 OA
ENDBRANCH  68  69
ENDBRANCH  49  63
BRANCH  50  73
ATOM     73  C   UNL A   1      41.339  27.932  29.531  1.00  0.00    -0.014 A 
ATOM     74  C   UNL A   1      42.278  28.229  28.526  1.00  0.00     0.010 A 
ATOM     75  C   UNL A   1      40.636  26.716  29.473  1.00  0.00     0.010 A 
ATOM     76  C   UNL A   1      42.499  27.334  27.476  1.00  0.00     0.020 A 
ATOM     77  C   UNL A   1      40.872  25.808  28.435  1.00  0.00     0.020 A 
ATOM     78  C   UNL A   1      41.795  26.128  27.437  1.00  0.00     0.054 A 
BRANCH  78  79
ATOM     79  S   UNL A   1      42.141  24.953  26.098  1.00  0.00     0.124 S 
ATOM     80  O   UNL A   1      40.993  24.056  26.178  1.00  0.00    -0.237 OA
ATOM     81  O   UNL A   1      42.190  25.817  24.920  1.00  0.00    -0.237 OA
ATOM     82  O   UNL A   1      43.423  24.367  26.483  1.00  0.00    -0.744 OA
ENDBRANCH  78  79
ENDBRANCH  50  73
BRANCH  62  83
ATOM     83  C   UNL A   1      44.463  28.981  35.672  1.00  0.00    -0.014 A 
ATOM     84  C   UNL A   1      44.230  27.894  36.532  1.00  0.00     0.010 A 
ATOM     85  C   UNL A   1      45.784  29.387  35.415  1.00  0.00     0.010 A 
ATOM     86  C   UNL A   1      45.302  27.238  37.144  1.00  0.00     0.020 A 
ATOM     87  C   UNL A   1      46.859  28.720  36.007  1.00  0.00     0.020 A 
ATOM     88  C   UNL A   1      46.610  27.656  36.878  1.00  0.00     0.054 A 
BRANCH  88  89
ATOM     89  S   UNL A   1      47.989  26.758  37.641  1.00  0.00     0.124 S 
ATOM     90  O   UNL A   1      49.060  27.749  37.593  1.00  0.00    -0.237 OA
ATOM     91  O   UNL A   1      47.476  26.449  38.973  1.00  0.00    -0.237 OA
ATOM     92  O   UNL A   1      48.171  25.600  36.767  1.00  0.00    -0.744 OA
ENDBRANCH  88  89
ENDBRANCH  62  83
ENDBRANCH  36  37
ENDBRANCH  28  31
ENDBRANCH  26  27
ENDBRANCH  25  26
ENDBRANCH   1  25
TORSDOF 19
ENDMDL
MODEL 3
REMARK VINA RESULT:     -10.5      2.850      8.346
REMARK SMILES CC(C)c1nc(N(C)CCc2ccccn2)sc1C(=O)NCCCCNC(=O)c1ccc(-c2c3nc(c(-c4ccc(S(=O)(=O)[O-])cc4)c4ccc([nH]4)c(-c4ccc(S(=O)(=O)[O-])cc4)c4nc(c(-c5ccc(S(=O)(=O)[O-])cc5)c5ccc2[nH]5)C=C4)C=C3)cc1
REMARK SMILES IDX 23 1 22 2 21 3 19 4 20 5 18 7 4 8 5 9 6 10 17 11 2 12 1 13
REMARK SMILES IDX 3 14 7 15 8 16 9 17 10 18 11 19 12 20 16 21 13 22 15 23
REMARK SMILES IDX 14 24 24 25 25 26 26 27 27 28 28 30 29 31 30 32 88 33 31 34
REMARK SMILES IDX 87 35 32 36 33 37 34 38 81 39 35 40 86 41 80 42 82 43 36 44
REMARK SMILES IDX 85 45 79 46 78 47 37 49 67 50 48 51 66 52 49 53 52 54 65 55
REMARK SMILES IDX 83 56 50 57 51 58 64 60 84 61 53 62 38 63 39 64 47 65 40 66
REMARK SMILES IDX 46 67 41 68 42 69 43 70 44 71 45 72 68 73 69 74 77 75 70 76
REMARK SMILES IDX 76 77 71 78 72 79 73 80 74 81 75 82 54 83 55 84 63 85 56 86
REMARK SMILES IDX 62 87 57 88 58 89 59 90 60 91 61 92
REMARK H PARENT 21 6 26 29 82 48 52 59
REMARK Flexibility Score: inf
ROOT
ATOM      1  C   UNL A   1      32.217  28.433  25.833  1.00  0.00     0.023 C 
ENDROOT
BRANCH   1   2
ATOM      2  C   UNL A   1      31.754  27.671  27.076  1.00  0.00     0.116 C 
BRANCH   2   3
ATOM      3  N   UNL A   1      30.802  26.639  26.765  1.00  0.00    -0.351 N 
ATOM      4  C   UNL A   1      30.794  25.402  26.193  1.00  0.00     0.263 C 
ATOM      5  O   UNL A   1      29.761  24.795  26.522  1.00  0.00    -0.268 OA
ATOM      6  H   UNL A   1      29.896  26.901  27.049  1.00  0.00     0.163 HD
BRANCH   4   7
ATOM      7  C   UNL A   1      31.761  24.819  25.265  1.00  0.00     0.117 A 
ATOM      8  C   UNL A   1      32.128  24.805  23.918  1.00  0.00     0.069 A 
ATOM      9  N   UNL A   1      33.168  23.917  23.616  1.00  0.00    -0.224 NA
ATOM     10  C   UNL A   1      33.602  23.236  24.642  1.00  0.00     0.186 A 
ATOM     11  S   UNL A   1      32.856  23.719  26.094  1.00  0.00    -0.091 S 
BRANCH   8  12
ATOM     12  C   UNL A   1      31.651  25.523  22.680  1.00  0.00     0.034 C 
ATOM     13  C   UNL A   1      30.687  26.670  22.965  1.00  0.00     0.014 C 
ATOM     14  C   UNL A   1      32.770  25.822  21.684  1.00  0.00     0.014 C 
ENDBRANCH   8  12
BRANCH  10  15
ATOM     15  N   UNL A   1      34.537  22.247  24.544  1.00  0.00    -0.351 N 
ATOM     16  C   UNL A   1      35.818  22.414  23.878  1.00  0.00     0.146 C 
BRANCH  15  17
ATOM     17  C   UNL A   1      34.295  20.972  25.233  1.00  0.00     0.125 C 
BRANCH  17  18
ATOM     18  C   UNL A   1      33.180  20.149  24.576  1.00  0.00     0.077 C 
BRANCH  18  19
ATOM     19  C   UNL A   1      33.354  18.662  24.740  1.00  0.00     0.042 A 
ATOM     20  C   UNL A   1      34.491  18.020  24.251  1.00  0.00     0.024 A 
ATOM     21  N   UNL A   1      32.360  17.998  25.380  1.00  0.00    -0.261 NA
ATOM     22  C   UNL A   1      34.622  16.649  24.440  1.00  0.00     0.003 A 
ATOM     23  C   UNL A   1      32.522  16.668  25.559  1.00  0.00     0.111 A 
ATOM     24  C   UNL A   1      33.620  15.956  25.107  1.00  0.00     0.020 A 
ENDBRANCH  18  19
ENDBRANCH  17  18
ENDBRANCH  15  17
ENDBRANCH  10  15
ENDBRANCH   4   7
ENDBRANCH   2   3
ENDBRANCH   1   2
BRANCH   1  25
ATOM     25  C   UNL A   1      32.340  29.940  26.048  1.00  0.00     0.023 C 
BRANCH  25  26
ATOM     26  C   UNL A   1      33.645  30.433  26.659  1.00  0.00     0.116 C 
BRANCH  26  27
ATOM     27  N   UNL A   1      33.518  31.620  27.490  1.00  0.00    -0.352 N 
ATOM     28  C   UNL A   1      34.407  32.103  28.429  1.00  0.00     0.251 C 
ATOM     29  H   UNL A   1      32.694  32.143  27.368  1.00  0.00     0.163 HD
ATOM     30  O   UNL A   1      34.142  33.109  29.080  1.00  0.00    -0.269 OA
BRANCH  28  31
ATOM     31  C   UNL A   1      35.655  31.349  28.690  1.00  0.00     0.039 A 
ATOM     32  C   UNL A   1      36.880  31.965  28.429  1.00  0.00     0.014 A 
ATOM     33  C   UNL A   1      35.613  30.105  29.325  1.00  0.00     0.014 A 
ATOM     34  C   UNL A   1      38.056  31.394  28.924  1.00  0.00     0.010 A 
ATOM     35  C   UNL A   1      36.771  29.598  29.906  1.00  0.00     0.010 A 
ATOM     36  C   UNL A   1      38.004  30.246  29.732  1.00  0.00    -0.014 A 
BRANCH  36  37
ATOM     37  C   UNL A   1      39.212  29.734  30.438  1.00  0.00     0.031 A 
ATOM     38  C   UNL A   1      39.672  30.378  31.720  1.00  0.00     0.074 A 
ATOM     39  C   UNL A   1      39.952  28.751  29.883  1.00  0.00     0.049 A 
ATOM     40  N   UNL A   1      40.752  30.141  32.421  1.00  0.00    -0.248 NA
ATOM     41  C   UNL A   1      38.831  31.458  32.262  1.00  0.00     0.031 C 
ATOM     42  C   UNL A   1      39.666  28.082  28.610  1.00  0.00     0.029 A 
ATOM     43  N   UNL A   1      41.107  28.144  30.317  1.00  0.00    -0.354 N 
ATOM     44  C   UNL A   1      40.738  31.065  33.459  1.00  0.00     0.074 A 
ATOM     45  C   UNL A   1      39.569  31.896  33.269  1.00  0.00     0.031 C 
ATOM     46  C   UNL A   1      40.593  27.135  28.389  1.00  0.00     0.029 A 
ATOM     47  C   UNL A   1      41.563  27.153  29.478  1.00  0.00     0.049 A 
ATOM     48  H   UNL A   1      41.565  28.395  31.151  1.00  0.00     0.167 HD
ATOM     49  C   UNL A   1      41.601  31.197  34.494  1.00  0.00     0.031 A 
ATOM     50  C   UNL A   1      42.639  26.348  29.572  1.00  0.00     0.031 A 
ATOM     51  C   UNL A   1      42.737  30.343  34.715  1.00  0.00     0.049 A 
ATOM     52  C   UNL A   1      43.555  26.476  30.756  1.00  0.00     0.074 A 
ATOM     53  C   UNL A   1      43.626  30.350  35.775  1.00  0.00     0.029 A 
ATOM     54  N   UNL A   1      43.133  29.322  33.866  1.00  0.00    -0.354 N 
ATOM     55  N   UNL A   1      43.487  27.317  31.761  1.00  0.00    -0.248 NA
ATOM     56  C   UNL A   1      44.688  25.542  30.825  1.00  0.00     0.031 C 
ATOM     57  C   UNL A   1      44.578  29.349  35.553  1.00  0.00     0.029 A 
ATOM     58  C   UNL A   1      44.258  28.696  34.374  1.00  0.00     0.049 A 
ATOM     59  H   UNL A   1      42.682  29.077  33.026  1.00  0.00     0.167 HD
ATOM     60  C   UNL A   1      44.555  26.999  32.591  1.00  0.00     0.074 A 
ATOM     61  C   UNL A   1      45.245  25.881  31.980  1.00  0.00     0.031 C 
ATOM     62  C   UNL A   1      44.931  27.582  33.755  1.00  0.00     0.031 A 
BRANCH  49  63
ATOM     63  C   UNL A   1      41.337  32.309  35.473  1.00  0.00    -0.014 A 
ATOM     64  C   UNL A   1      40.547  32.092  36.617  1.00  0.00     0.010 A 
ATOM     65  C   UNL A   1      41.888  33.583  35.252  1.00  0.00     0.010 A 
ATOM     66  C   UNL A   1      40.267  33.143  37.493  1.00  0.00     0.020 A 
ATOM     67  C   UNL A   1      41.633  34.632  36.141  1.00  0.00     0.020 A 
ATOM     68  C   UNL A   1      40.805  34.410  37.243  1.00  0.00     0.054 A 
BRANCH  68  69
ATOM     69  S   UNL A   1      40.424  35.760  38.394  1.00  0.00     0.124 S 
ATOM     70  O   UNL A   1      40.024  36.827  37.480  1.00  0.00    -0.237 OA
ATOM     71  O   UNL A   1      39.351  35.196  39.210  1.00  0.00    -0.237 OA
ATOM     72  O   UNL A   1      41.686  35.979  39.096  1.00  0.00    -0.744 OA
ENDBRANCH  68  69
ENDBRANCH  49  63
BRANCH  50  73
ATOM     73  C   UNL A   1      42.892  25.319  28.526  1.00  0.00    -0.014 A 
ATOM     74  C   UNL A   1      43.582  25.662  27.349  1.00  0.00     0.010 A 
ATOM     75  C   UNL A   1      42.457  23.994  28.703  1.00  0.00     0.010 A 
ATOM     76  C   UNL A   1      43.822  24.701  26.363  1.00  0.00     0.020 A 
ATOM     77  C   UNL A   1      42.715  23.025  27.728  1.00  0.00     0.020 A 
ATOM     78  C   UNL A   1      43.387  23.388  26.559  1.00  0.00     0.054 A 
BRANCH  78  79
ATOM     79  S   UNL A   1      43.760  22.142  25.293  1.00  0.00     0.124 S 
ATOM     80  O   UNL A   1      43.789  22.945  24.075  1.00  0.00    -0.237 OA
ATOM     81  O   UNL A   1      45.050  21.615  25.734  1.00  0.00    -0.237 OA
ATOM     82  O   UNL A   1      42.645  21.204  25.400  1.00  0.00    -0.744 OA
ENDBRANCH  78  79
ENDBRANCH  50  73
BRANCH  62  83
ATOM     83  C   UNL A   1      46.126  27.006  34.464  1.00  0.00    -0.014 A 
ATOM     84  C   UNL A   1      47.426  27.454  34.171  1.00  0.00     0.010 A 
ATOM     85  C   UNL A   1      45.938  26.049  35.476  1.00  0.00     0.010 A 
ATOM     86  C   UNL A   1      48.523  26.934  34.864  1.00  0.00     0.020 A 
ATOM     87  C   UNL A   1      47.029  25.543  36.186  1.00  0.00     0.020 A 
ATOM     88  C   UNL A   1      48.317  25.980  35.867  1.00  0.00     0.054 A 
BRANCH  88  89
ATOM     89  S   UNL A   1      49.749  25.357  36.790  1.00  0.00     0.124 S 
ATOM     90  O   UNL A   1      49.566  23.912  36.693  1.00  0.00    -0.237 OA
ATOM     91  O   UNL A   1      50.878  25.900  36.039  1.00  0.00    -0.237 OA
ATOM     92  O   UNL A   1      49.569  25.922  38.126  1.00  0.00    -0.744 OA
ENDBRANCH  88  89
ENDBRANCH  62  83
ENDBRANCH  36  37
ENDBRANCH  28  31
ENDBRANCH  26  27
ENDBRANCH  25  26
ENDBRANCH   1  25
TORSDOF 19
ENDMDL
