MODEL 1
REMARK VINA RESULT:     -12.1      0.000      0.000
REMARK SMILES O=C(C[C@@H](NC(=O)c1cc(-c2ccc(F)cc2)on1)c1cccc(Br)c1)NCCCCNC(=O)c1ccc(-c2c3nc(c(-c4ccc(S(=O)(=O)[O-])cc4)c4ccc([nH]4)c(-c4ccc(S(=O)(=O)[O-])cc4)c4nc(c(-c5ccc(S(=O)(=O)[O-])cc5)c5ccc2[nH]5)C=C4)C=C3)cc1
REMARK SMILES IDX 29 1 28 2 27 3 1 4 2 5 3 7 4 8 5 9 6 10 7 12 8 13 9 14 19 15
REMARK SMILES IDX 10 16 18 17 11 18 12 19 17 20 13 21 16 22 14 23 15 24 20 25
REMARK SMILES IDX 21 26 26 27 22 28 24 29 23 30 25 31 30 32 31 33 32 34 33 35
REMARK SMILES IDX 34 37 35 38 36 39 94 40 37 41 93 42 38 43 39 44 40 45 87 46
REMARK SMILES IDX 41 47 92 48 86 49 88 50 42 51 91 52 85 53 84 54 43 56 73 57
REMARK SMILES IDX 54 58 72 59 55 60 58 61 71 62 89 63 56 64 57 65 70 67 90 68
REMARK SMILES IDX 59 69 44 70 45 71 53 72 46 73 52 74 47 75 48 76 49 77 50 78
REMARK SMILES IDX 51 79 74 80 75 81 83 82 76 83 82 84 77 85 78 86 79 87 80 88
REMARK SMILES IDX 81 89 60 90 61 91 69 92 62 93 68 94 63 95 64 96 65 97 66 98
REMARK SMILES IDX 67 99
REMARK H PARENT 27 6 5 11 32 36 88 55 58 66
REMARK Flexibility Score: inf
ROOT
ATOM      1  C   UNL A   1      36.556  22.980  23.573  1.00  0.00     0.023 C 
ENDROOT
BRANCH   1   2
ATOM      2  C   UNL A   1      35.030  23.053  23.545  1.00  0.00     0.116 C 
BRANCH   2   3
ATOM      3  N   UNL A   1      34.561  24.294  24.127  1.00  0.00    -0.356 N 
ATOM      4  O   UNL A   1      34.582  23.582  26.313  1.00  0.00    -0.275 OA
ATOM      5  C   UNL A   1      34.319  24.432  25.471  1.00  0.00     0.222 C 
ATOM      6  H   UNL A   1      34.410  25.067  23.537  1.00  0.00     0.163 HD
BRANCH   5   7
ATOM      7  C   UNL A   1      33.684  25.749  25.830  1.00  0.00     0.129 C 
BRANCH   7   8
ATOM      8  C   UNL A   1      32.186  25.782  25.478  1.00  0.00     0.122 C 
BRANCH   8   9
ATOM      9  N   UNL A   1      31.411  24.955  26.420  1.00  0.00    -0.343 N 
ATOM     10  C   UNL A   1      30.956  23.659  26.486  1.00  0.00     0.273 C 
ATOM     11  H   UNL A   1      31.146  25.469  27.216  1.00  0.00     0.164 HD
ATOM     12  O   UNL A   1      30.248  23.380  27.456  1.00  0.00    -0.267 OA
BRANCH  10  13
ATOM     13  C   UNL A   1      31.313  22.680  25.473  1.00  0.00     0.171 A 
ATOM     14  C   UNL A   1      31.619  21.310  25.656  1.00  0.00     0.088 A 
ATOM     15  N   UNL A   1      31.399  23.018  24.176  1.00  0.00    -0.074 NA
ATOM     16  C   UNL A   1      32.082  20.893  24.430  1.00  0.00     0.167 A 
ATOM     17  O   UNL A   1      31.905  21.901  23.531  1.00  0.00    -0.355 OA
BRANCH  16  18
ATOM     18  C   UNL A   1      32.796  19.709  23.973  1.00  0.00     0.020 A 
ATOM     19  C   UNL A   1      32.256  18.906  22.956  1.00  0.00     0.015 A 
ATOM     20  C   UNL A   1      33.953  19.269  24.637  1.00  0.00     0.015 A 
ATOM     21  C   UNL A   1      32.833  17.672  22.645  1.00  0.00     0.040 A 
ATOM     22  C   UNL A   1      34.520  18.028  24.337  1.00  0.00     0.040 A 
ATOM     23  C   UNL A   1      33.947  17.237  23.350  1.00  0.00     0.123 A 
ATOM     24  F   UNL A   1      34.467  16.031  23.086  1.00  0.00    -0.207 F 
ENDBRANCH  16  18
ENDBRANCH  10  13
ENDBRANCH   8   9
BRANCH   8  25
ATOM     25  C   UNL A   1      31.795  27.237  25.332  1.00  0.00    -0.024 A 
ATOM     26  C   UNL A   1      32.160  28.198  26.290  1.00  0.00     0.006 A 
ATOM     27  C   UNL A   1      31.135  27.664  24.167  1.00  0.00     0.021 A 
ATOM     28  C   UNL A   1      31.860  29.547  26.097  1.00  0.00     0.002 A 
ATOM     29  C   UNL A   1      30.839  29.013  23.982  1.00  0.00     0.018 A 
ATOM     30  C   UNL A   1      31.204  29.957  24.938  1.00  0.00     0.016 A 
ATOM     31  Br  UNL A   1      29.921  29.564  22.424  1.00  0.00    -0.051 Br
ENDBRANCH   8  25
ENDBRANCH   7   8
ENDBRANCH   5   7
ENDBRANCH   2   3
ENDBRANCH   1   2
BRANCH   1  32
ATOM     32  C   UNL A   1      37.131  21.886  24.478  1.00  0.00     0.023 C 
BRANCH  32  33
ATOM     33  C   UNL A   1      37.938  22.390  25.668  1.00  0.00     0.116 C 
BRANCH  33  34
ATOM     34  N   UNL A   1      38.874  21.392  26.159  1.00  0.00    -0.352 N 
ATOM     35  C   UNL A   1      40.108  21.571  26.739  1.00  0.00     0.251 C 
ATOM     36  H   UNL A   1      38.583  20.456  26.064  1.00  0.00     0.163 HD
ATOM     37  O   UNL A   1      40.839  20.605  26.923  1.00  0.00    -0.269 OA
BRANCH  35  38
ATOM     38  C   UNL A   1      40.561  22.930  27.110  1.00  0.00     0.039 A 
ATOM     39  C   UNL A   1      41.320  23.094  28.272  1.00  0.00     0.014 A 
ATOM     40  C   UNL A   1      40.246  24.038  26.318  1.00  0.00     0.014 A 
ATOM     41  C   UNL A   1      41.816  24.358  28.603  1.00  0.00     0.010 A 
ATOM     42  C   UNL A   1      40.805  25.280  26.607  1.00  0.00     0.010 A 
ATOM     43  C   UNL A   1      41.596  25.456  27.754  1.00  0.00    -0.014 A 
BRANCH  43  44
ATOM     44  C   UNL A   1      42.191  26.787  28.045  1.00  0.00     0.031 A 
ATOM     45  C   UNL A   1      43.658  27.032  27.812  1.00  0.00     0.074 A 
ATOM     46  C   UNL A   1      41.423  27.759  28.577  1.00  0.00     0.049 A 
ATOM     47  N   UNL A   1      44.362  28.108  28.054  1.00  0.00    -0.248 NA
ATOM     48  C   UNL A   1      44.439  25.919  27.250  1.00  0.00     0.031 C 
ATOM     49  C   UNL A   1      39.996  27.636  28.889  1.00  0.00     0.029 A 
ATOM     50  N   UNL A   1      41.733  29.041  28.956  1.00  0.00    -0.354 N 
ATOM     51  C   UNL A   1      45.667  27.799  27.687  1.00  0.00     0.074 A 
ATOM     52  C   UNL A   1      45.666  26.418  27.256  1.00  0.00     0.031 C 
ATOM     53  C   UNL A   1      39.552  28.801  29.388  1.00  0.00     0.029 A 
ATOM     54  C   UNL A   1      40.668  29.738  29.477  1.00  0.00     0.049 A 
ATOM     55  H   UNL A   1      42.634  29.426  28.864  1.00  0.00     0.167 HD
ATOM     56  C   UNL A   1      46.762  28.595  27.690  1.00  0.00     0.031 A 
ATOM     57  C   UNL A   1      40.594  30.985  29.982  1.00  0.00     0.031 A 
ATOM     58  C   UNL A   1      46.761  29.968  28.123  1.00  0.00     0.049 A 
ATOM     59  C   UNL A   1      41.831  31.842  30.000  1.00  0.00     0.074 A 
ATOM     60  C   UNL A   1      47.810  30.872  28.121  1.00  0.00     0.029 A 
ATOM     61  N   UNL A   1      45.660  30.636  28.639  1.00  0.00    -0.354 N 
ATOM     62  N   UNL A   1      43.042  31.552  29.586  1.00  0.00    -0.248 NA
ATOM     63  C   UNL A   1      41.689  33.202  30.541  1.00  0.00     0.031 C 
ATOM     64  C   UNL A   1      47.360  32.066  28.692  1.00  0.00     0.029 A 
ATOM     65  C   UNL A   1      46.011  31.931  28.984  1.00  0.00     0.049 A 
ATOM     66  H   UNL A   1      44.762  30.248  28.746  1.00  0.00     0.167 HD
ATOM     67  C   UNL A   1      43.798  32.701  29.791  1.00  0.00     0.074 A 
ATOM     68  C   UNL A   1      42.904  33.696  30.348  1.00  0.00     0.031 C 
ATOM     69  C   UNL A   1      45.113  32.914  29.538  1.00  0.00     0.031 A 
BRANCH  56  70
ATOM     70  C   UNL A   1      48.062  27.997  27.213  1.00  0.00    -0.014 A 
ATOM     71  C   UNL A   1      48.933  27.344  28.104  1.00  0.00     0.010 A 
ATOM     72  C   UNL A   1      48.397  28.048  25.847  1.00  0.00     0.010 A 
ATOM     73  C   UNL A   1      50.132  26.790  27.648  1.00  0.00     0.020 A 
ATOM     74  C   UNL A   1      49.580  27.467  25.380  1.00  0.00     0.020 A 
ATOM     75  C   UNL A   1      50.449  26.857  26.288  1.00  0.00     0.054 A 
BRANCH  75  76
ATOM     76  S   UNL A   1      52.000  26.108  25.721  1.00  0.00     0.124 S 
ATOM     77  O   UNL A   1      51.952  26.366  24.284  1.00  0.00    -0.237 OA
ATOM     78  O   UNL A   1      53.008  26.864  26.461  1.00  0.00    -0.237 OA
ATOM     79  O   UNL A   1      51.870  24.705  26.105  1.00  0.00    -0.744 OA
ENDBRANCH  75  76
ENDBRANCH  56  70
BRANCH  57  80
ATOM     80  C   UNL A   1      39.300  31.499  30.511  1.00  0.00    -0.014 A 
ATOM     81  C   UNL A   1      38.951  31.311  31.861  1.00  0.00     0.010 A 
ATOM     82  C   UNL A   1      38.411  32.192  29.667  1.00  0.00     0.010 A 
ATOM     83  C   UNL A   1      37.730  31.786  32.350  1.00  0.00     0.020 A 
ATOM     84  C   UNL A   1      37.205  32.695  30.160  1.00  0.00     0.020 A 
ATOM     85  C   UNL A   1      36.865  32.478  31.496  1.00  0.00     0.054 A 
BRANCH  85  86
ATOM     86  S   UNL A   1      35.308  33.127  32.166  1.00  0.00     0.124 S 
ATOM     87  O   UNL A   1      34.317  32.472  31.319  1.00  0.00    -0.237 OA
ATOM     88  O   UNL A   1      35.352  32.677  33.555  1.00  0.00    -0.237 OA
ATOM     89  O   UNL A   1      35.433  34.571  31.982  1.00  0.00    -0.744 OA
ENDBRANCH  85  86
ENDBRANCH  57  80
BRANCH  69  90
ATOM     90  C   UNL A   1      45.664  34.287  29.824  1.00  0.00    -0.014 A 
ATOM     91  C   UNL A   1      45.576  35.325  28.880  1.00  0.00     0.010 A 
ATOM     92  C   UNL A   1      46.231  34.555  31.085  1.00  0.00     0.010 A 
ATOM     93  C   UNL A   1      46.074  36.597  29.179  1.00  0.00     0.020 A 
ATOM     94  C   UNL A   1      46.700  35.833  31.400  1.00  0.00     0.020 A 
ATOM     95  C   UNL A   1      46.632  36.842  30.438  1.00  0.00     0.054 A 
BRANCH  95  96
ATOM     96  S   UNL A   1      47.229  38.513  30.816  1.00  0.00     0.124 S 
ATOM     97  O   UNL A   1      47.001  39.210  29.555  1.00  0.00    -0.237 OA
ATOM     98  O   UNL A   1      46.367  38.918  31.924  1.00  0.00    -0.237 OA
ATOM     99  O   UNL A   1      48.633  38.308  31.170  1.00  0.00    -0.744 OA
ENDBRANCH  95  96
ENDBRANCH  69  90
ENDBRANCH  43  44
ENDBRANCH  35  38
ENDBRANCH  33  34
ENDBRANCH  32  33
ENDBRANCH   1  32
TORSDOF 19
ENDMDL
MODEL 2
REMARK VINA RESULT:     -11.8      5.649      9.990
REMARK SMILES O=C(C[C@@H](NC(=O)c1cc(-c2ccc(F)cc2)on1)c1cccc(Br)c1)NCCCCNC(=O)c1ccc(-c2c3nc(c(-c4ccc(S(=O)(=O)[O-])cc4)c4ccc([nH]4)c(-c4ccc(S(=O)(=O)[O-])cc4)c4nc(c(-c5ccc(S(=O)(=O)[O-])cc5)c5ccc2[nH]5)C=C4)C=C3)cc1
REMARK SMILES IDX 29 1 28 2 27 3 1 4 2 5 3 7 4 8 5 9 6 10 7 12 8 13 9 14 19 15
REMARK SMILES IDX 10 16 18 17 11 18 12 19 17 20 13 21 16 22 14 23 15 24 20 25
REMARK SMILES IDX 21 26 26 27 22 28 24 29 23 30 25 31 30 32 31 33 32 34 33 35
REMARK SMILES IDX 34 37 35 38 36 39 94 40 37 41 93 42 38 43 39 44 40 45 87 46
REMARK SMILES IDX 41 47 92 48 86 49 88 50 42 51 91 52 85 53 84 54 43 56 73 57
REMARK SMILES IDX 54 58 72 59 55 60 58 61 71 62 89 63 56 64 57 65 70 67 90 68
REMARK SMILES IDX 59 69 44 70 45 71 53 72 46 73 52 74 47 75 48 76 49 77 50 78
REMARK SMILES IDX 51 79 74 80 75 81 83 82 76 83 82 84 77 85 78 86 79 87 80 88
REMARK SMILES IDX 81 89 60 90 61 91 69 92 62 93 68 94 63 95 64 96 65 97 66 98
REMARK SMILES IDX 67 99
REMARK H PARENT 27 6 5 11 32 36 88 55 58 66
REMARK Flexibility Score: inf
ROOT
ATOM      1  C   UNL A   1      38.548  23.206  26.223  1.00  0.00     0.023 C 
ENDROOT
BRANCH   1   2
ATOM      2  C   UNL A   1      37.287  22.375  25.992  1.00  0.00     0.116 C 
BRANCH   2   3
ATOM      3  N   UNL A   1      36.096  23.167  26.224  1.00  0.00    -0.356 N 
ATOM      4  O   UNL A   1      34.581  21.533  25.655  1.00  0.00    -0.275 OA
ATOM      5  C   UNL A   1      34.833  22.688  25.976  1.00  0.00     0.222 C 
ATOM      6  H   UNL A   1      36.196  24.081  26.573  1.00  0.00     0.163 HD
BRANCH   5   7
ATOM      7  C   UNL A   1      33.759  23.732  26.131  1.00  0.00     0.129 C 
BRANCH   7   8
ATOM      8  C   UNL A   1      34.050  24.989  25.292  1.00  0.00     0.122 C 
BRANCH   8   9
ATOM      9  N   UNL A   1      34.120  24.654  23.858  1.00  0.00    -0.343 N 
ATOM     10  C   UNL A   1      33.310  24.774  22.753  1.00  0.00     0.273 C 
ATOM     11  H   UNL A   1      34.978  24.229  23.630  1.00  0.00     0.164 HD
ATOM     12  O   UNL A   1      33.738  24.277  21.709  1.00  0.00    -0.267 OA
BRANCH  10  13
ATOM     13  C   UNL A   1      32.035  25.467  22.823  1.00  0.00     0.171 A 
ATOM     14  C   UNL A   1      31.724  26.767  22.357  1.00  0.00     0.088 A 
ATOM     15  N   UNL A   1      30.959  24.892  23.386  1.00  0.00    -0.074 NA
ATOM     16  C   UNL A   1      30.462  27.015  22.845  1.00  0.00     0.167 A 
ATOM     17  O   UNL A   1      29.984  25.876  23.419  1.00  0.00    -0.355 OA
BRANCH  16  18
ATOM     18  C   UNL A   1      29.650  28.217  22.971  1.00  0.00     0.020 A 
ATOM     19  C   UNL A   1      30.240  29.431  23.357  1.00  0.00     0.015 A 
ATOM     20  C   UNL A   1      28.251  28.153  22.858  1.00  0.00     0.015 A 
ATOM     21  C   UNL A   1      29.447  30.539  23.666  1.00  0.00     0.040 A 
ATOM     22  C   UNL A   1      27.458  29.255  23.184  1.00  0.00     0.040 A 
ATOM     23  C   UNL A   1      28.064  30.436  23.595  1.00  0.00     0.123 A 
ATOM     24  F   UNL A   1      27.303  31.482  23.943  1.00  0.00    -0.207 F 
ENDBRANCH  16  18
ENDBRANCH  10  13
ENDBRANCH   8   9
BRANCH   8  25
ATOM     25  C   UNL A   1      33.059  26.049  25.721  1.00  0.00    -0.024 A 
ATOM     26  C   UNL A   1      31.819  25.712  26.290  1.00  0.00     0.006 A 
ATOM     27  C   UNL A   1      33.417  27.406  25.641  1.00  0.00     0.021 A 
ATOM     28  C   UNL A   1      30.954  26.704  26.752  1.00  0.00     0.002 A 
ATOM     29  C   UNL A   1      32.547  28.391  26.105  1.00  0.00     0.018 A 
ATOM     30  C   UNL A   1      31.321  28.046  26.666  1.00  0.00     0.016 A 
ATOM     31  Br  UNL A   1      33.032  30.212  25.959  1.00  0.00    -0.051 Br
ENDBRANCH   8  25
ENDBRANCH   7   8
ENDBRANCH   5   7
ENDBRANCH   2   3
ENDBRANCH   1   2
BRANCH   1  32
ATOM     32  C   UNL A   1      39.777  22.402  26.657  1.00  0.00     0.023 C 
BRANCH  32  33
ATOM     33  C   UNL A   1      40.977  23.237  27.087  1.00  0.00     0.116 C 
BRANCH  33  34
ATOM     34  N   UNL A   1      41.443  24.116  26.027  1.00  0.00    -0.352 N 
ATOM     35  C   UNL A   1      41.606  25.481  26.041  1.00  0.00     0.251 C 
ATOM     36  H   UNL A   1      41.676  23.671  25.180  1.00  0.00     0.163 HD
ATOM     37  O   UNL A   1      41.834  26.076  24.994  1.00  0.00    -0.269 OA
BRANCH  35  38
ATOM     38  C   UNL A   1      41.477  26.229  27.311  1.00  0.00     0.039 A 
ATOM     39  C   UNL A   1      42.433  27.200  27.623  1.00  0.00     0.014 A 
ATOM     40  C   UNL A   1      40.420  25.981  28.191  1.00  0.00     0.014 A 
ATOM     41  C   UNL A   1      42.291  27.965  28.783  1.00  0.00     0.010 A 
ATOM     42  C   UNL A   1      40.238  26.797  29.305  1.00  0.00     0.010 A 
ATOM     43  C   UNL A   1      41.171  27.797  29.616  1.00  0.00    -0.014 A 
BRANCH  43  44
ATOM     44  C   UNL A   1      40.960  28.663  30.806  1.00  0.00     0.031 A 
ATOM     45  C   UNL A   1      39.883  29.716  30.799  1.00  0.00     0.074 A 
ATOM     46  C   UNL A   1      41.775  28.542  31.872  1.00  0.00     0.049 A 
ATOM     47  N   UNL A   1      39.585  30.595  31.721  1.00  0.00    -0.248 NA
ATOM     48  C   UNL A   1      39.045  29.805  29.593  1.00  0.00     0.031 C 
ATOM     49  C   UNL A   1      42.882  27.589  31.989  1.00  0.00     0.029 A 
ATOM     50  N   UNL A   1      41.807  29.229  33.060  1.00  0.00    -0.354 N 
ATOM     51  C   UNL A   1      38.536  31.347  31.204  1.00  0.00     0.074 A 
ATOM     52  C   UNL A   1      38.286  30.855  29.866  1.00  0.00     0.031 C 
ATOM     53  C   UNL A   1      43.467  27.736  33.189  1.00  0.00     0.029 A 
ATOM     54  C   UNL A   1      42.810  28.823  33.909  1.00  0.00     0.049 A 
ATOM     55  H   UNL A   1      41.171  29.947  33.284  1.00  0.00     0.167 HD
ATOM     56  C   UNL A   1      37.833  32.343  31.793  1.00  0.00     0.031 A 
ATOM     57  C   UNL A   1      43.172  29.278  35.125  1.00  0.00     0.031 A 
ATOM     58  C   UNL A   1      38.086  32.833  33.123  1.00  0.00     0.049 A 
ATOM     59  C   UNL A   1      42.393  30.404  35.748  1.00  0.00     0.074 A 
ATOM     60  C   UNL A   1      37.398  33.807  33.826  1.00  0.00     0.029 A 
ATOM     61  N   UNL A   1      39.108  32.391  33.950  1.00  0.00    -0.354 N 
ATOM     62  N   UNL A   1      41.360  31.057  35.268  1.00  0.00    -0.248 NA
ATOM     63  C   UNL A   1      42.817  30.846  37.084  1.00  0.00     0.031 C 
ATOM     64  C   UNL A   1      38.041  33.997  35.053  1.00  0.00     0.029 A 
ATOM     65  C   UNL A   1      39.086  33.091  35.145  1.00  0.00     0.049 A 
ATOM     66  H   UNL A   1      39.754  31.684  33.721  1.00  0.00     0.167 HD
ATOM     67  C   UNL A   1      40.996  31.967  36.255  1.00  0.00     0.074 A 
ATOM     68  C   UNL A   1      41.905  31.767  37.365  1.00  0.00     0.031 C 
ATOM     69  C   UNL A   1      39.997  32.884  36.244  1.00  0.00     0.031 A 
BRANCH  56  70
ATOM     70  C   UNL A   1      36.719  32.976  30.998  1.00  0.00    -0.014 A 
ATOM     71  C   UNL A   1      35.370  32.723  31.306  1.00  0.00     0.010 A 
ATOM     72  C   UNL A   1      37.022  33.872  29.956  1.00  0.00     0.010 A 
ATOM     73  C   UNL A   1      34.347  33.319  30.564  1.00  0.00     0.020 A 
ATOM     74  C   UNL A   1      36.003  34.496  29.231  1.00  0.00     0.020 A 
ATOM     75  C   UNL A   1      34.670  34.201  29.529  1.00  0.00     0.054 A 
BRANCH  75  76
ATOM     76  S   UNL A   1      33.322  34.979  28.599  1.00  0.00     0.124 S 
ATOM     77  O   UNL A   1      34.044  35.937  27.765  1.00  0.00    -0.237 OA
ATOM     78  O   UNL A   1      32.731  33.848  27.887  1.00  0.00    -0.237 OA
ATOM     79  O   UNL A   1      32.479  35.570  29.635  1.00  0.00    -0.744 OA
ENDBRANCH  75  76
ENDBRANCH  56  70
BRANCH  57  80
ATOM     80  C   UNL A   1      44.330  28.666  35.834  1.00  0.00    -0.014 A 
ATOM     81  C   UNL A   1      45.632  29.166  35.648  1.00  0.00     0.010 A 
ATOM     82  C   UNL A   1      44.135  27.582  36.711  1.00  0.00     0.010 A 
ATOM     83  C   UNL A   1      46.717  28.580  36.307  1.00  0.00     0.020 A 
ATOM     84  C   UNL A   1      45.213  27.015  37.396  1.00  0.00     0.020 A 
ATOM     85  C   UNL A   1      46.500  27.510  37.180  1.00  0.00     0.054 A 
BRANCH  85  86
ATOM     86  S   UNL A   1      47.918  26.798  38.062  1.00  0.00     0.124 S 
ATOM     87  O   UNL A   1      48.803  27.950  38.195  1.00  0.00    -0.237 OA
ATOM     88  O   UNL A   1      47.309  26.321  39.302  1.00  0.00    -0.237 OA
ATOM     89  O   UNL A   1      48.387  25.746  37.164  1.00  0.00    -0.744 OA
ENDBRANCH  85  86
ENDBRANCH  57  80
BRANCH  69  90
ATOM     90  C   UNL A   1      39.804  33.719  37.483  1.00  0.00    -0.014 A 
ATOM     91  C   UNL A   1      40.489  34.933  37.664  1.00  0.00     0.010 A 
ATOM     92  C   UNL A   1      38.876  33.305  38.457  1.00  0.00     0.010 A 
ATOM     93  C   UNL A   1      40.274  35.702  38.812  1.00  0.00     0.020 A 
ATOM     94  C   UNL A   1      38.633  34.086  39.590  1.00  0.00     0.020 A 
ATOM     95  C   UNL A   1      39.346  35.273  39.767  1.00  0.00     0.054 A 
BRANCH  95  96
ATOM     96  S   UNL A   1      39.053  36.311  41.226  1.00  0.00     0.124 S 
ATOM     97  O   UNL A   1      38.713  37.596  40.622  1.00  0.00    -0.237 OA
ATOM     98  O   UNL A   1      37.954  35.620  41.895  1.00  0.00    -0.237 OA
ATOM     99  O   UNL A   1      40.329  36.276  41.938  1.00  0.00    -0.744 OA
ENDBRANCH  95  96
ENDBRANCH  69  90
ENDBRANCH  43  44
ENDBRANCH  35  38
ENDBRANCH  33  34
ENDBRANCH  32  33
ENDBRANCH   1  32
TORSDOF 19
ENDMDL
MODEL 3
REMARK VINA RESULT:     -11.6      5.461      7.424
REMARK SMILES O=C(C[C@@H](NC(=O)c1cc(-c2ccc(F)cc2)on1)c1cccc(Br)c1)NCCCCNC(=O)c1ccc(-c2c3nc(c(-c4ccc(S(=O)(=O)[O-])cc4)c4ccc([nH]4)c(-c4ccc(S(=O)(=O)[O-])cc4)c4nc(c(-c5ccc(S(=O)(=O)[O-])cc5)c5ccc2[nH]5)C=C4)C=C3)cc1
REMARK SMILES IDX 29 1 28 2 27 3 1 4 2 5 3 7 4 8 5 9 6 10 7 12 8 13 9 14 19 15
REMARK SMILES IDX 10 16 18 17 11 18 12 19 17 20 13 21 16 22 14 23 15 24 20 25
REMARK SMILES IDX 21 26 26 27 22 28 24 29 23 30 25 31 30 32 31 33 32 34 33 35
REMARK SMILES IDX 34 37 35 38 36 39 94 40 37 41 93 42 38 43 39 44 40 45 87 46
REMARK SMILES IDX 41 47 92 48 86 49 88 50 42 51 91 52 85 53 84 54 43 56 73 57
REMARK SMILES IDX 54 58 72 59 55 60 58 61 71 62 89 63 56 64 57 65 70 67 90 68
REMARK SMILES IDX 59 69 44 70 45 71 53 72 46 73 52 74 47 75 48 76 49 77 50 78
REMARK SMILES IDX 51 79 74 80 75 81 83 82 76 83 82 84 77 85 78 86 79 87 80 88
REMARK SMILES IDX 81 89 60 90 61 91 69 92 62 93 68 94 63 95 64 96 65 97 66 98
REMARK SMILES IDX 67 99
REMARK H PARENT 27 6 5 11 32 36 88 55 58 66
REMARK Flexibility Score: inf
ROOT
ATOM      1  C   UNL A   1      38.579  23.077  26.249  1.00  0.00     0.023 C 
ENDROOT
BRANCH   1   2
ATOM      2  C   UNL A   1      37.282  22.293  26.057  1.00  0.00     0.116 C 
BRANCH   2   3
ATOM      3  N   UNL A   1      36.128  23.133  26.306  1.00  0.00    -0.356 N 
ATOM      4  O   UNL A   1      34.539  21.521  25.904  1.00  0.00    -0.275 OA
ATOM      5  C   UNL A   1      34.841  22.683  26.148  1.00  0.00     0.222 C 
ATOM      6  H   UNL A   1      36.272  24.061  26.599  1.00  0.00     0.163 HD
BRANCH   5   7
ATOM      7  C   UNL A   1      33.807  23.766  26.300  1.00  0.00     0.129 C 
BRANCH   7   8
ATOM      8  C   UNL A   1      34.127  24.995  25.431  1.00  0.00     0.122 C 
BRANCH   8   9
ATOM      9  N   UNL A   1      34.233  24.617  24.010  1.00  0.00    -0.343 N 
ATOM     10  C   UNL A   1      33.447  24.690  22.885  1.00  0.00     0.273 C 
ATOM     11  H   UNL A   1      35.102  24.197  23.815  1.00  0.00     0.164 HD
ATOM     12  O   UNL A   1      33.904  24.167  21.867  1.00  0.00    -0.267 OA
BRANCH  10  13
ATOM     13  C   UNL A   1      32.161  25.367  22.904  1.00  0.00     0.171 A 
ATOM     14  C   UNL A   1      31.859  26.676  22.456  1.00  0.00     0.088 A 
ATOM     15  N   UNL A   1      31.065  24.767  23.395  1.00  0.00    -0.074 NA
ATOM     16  C   UNL A   1      30.571  26.897  22.882  1.00  0.00     0.167 A 
ATOM     17  O   UNL A   1      30.077  25.739  23.402  1.00  0.00    -0.355 OA
BRANCH  16  18
ATOM     18  C   UNL A   1      29.739  28.087  22.996  1.00  0.00     0.020 A 
ATOM     19  C   UNL A   1      30.322  29.334  23.269  1.00  0.00     0.015 A 
ATOM     20  C   UNL A   1      28.337  27.986  22.985  1.00  0.00     0.015 A 
ATOM     21  C   UNL A   1      29.523  30.441  23.569  1.00  0.00     0.040 A 
ATOM     22  C   UNL A   1      27.540  29.088  23.302  1.00  0.00     0.040 A 
ATOM     23  C   UNL A   1      28.142  30.303  23.601  1.00  0.00     0.123 A 
ATOM     24  F   UNL A   1      27.380  31.352  23.940  1.00  0.00    -0.207 F 
ENDBRANCH  16  18
ENDBRANCH  10  13
ENDBRANCH   8   9
BRANCH   8  25
ATOM     25  C   UNL A   1      33.131  26.074  25.801  1.00  0.00    -0.024 A 
ATOM     26  C   UNL A   1      31.867  25.759  26.329  1.00  0.00     0.006 A 
ATOM     27  C   UNL A   1      33.506  27.425  25.707  1.00  0.00     0.021 A 
ATOM     28  C   UNL A   1      30.995  26.768  26.738  1.00  0.00     0.002 A 
ATOM     29  C   UNL A   1      32.628  28.427  26.118  1.00  0.00     0.018 A 
ATOM     30  C   UNL A   1      31.378  28.105  26.639  1.00  0.00     0.016 A 
ATOM     31  Br  UNL A   1      33.137  30.240  25.954  1.00  0.00    -0.051 Br
ENDBRANCH   8  25
ENDBRANCH   7   8
ENDBRANCH   5   7
ENDBRANCH   2   3
ENDBRANCH   1   2
BRANCH   1  32
ATOM     32  C   UNL A   1      39.829  22.213  26.445  1.00  0.00     0.023 C 
BRANCH  32  33
ATOM     33  C   UNL A   1      41.066  22.966  26.921  1.00  0.00     0.116 C 
BRANCH  33  34
ATOM     34  N   UNL A   1      41.677  23.746  25.857  1.00  0.00    -0.352 N 
ATOM     35  C   UNL A   1      41.985  25.086  25.831  1.00  0.00     0.251 C 
ATOM     36  H   UNL A   1      41.903  23.244  25.040  1.00  0.00     0.163 HD
ATOM     37  O   UNL A   1      42.329  25.610  24.778  1.00  0.00    -0.269 OA
BRANCH  35  38
ATOM     38  C   UNL A   1      41.874  25.895  27.065  1.00  0.00     0.039 A 
ATOM     39  C   UNL A   1      42.747  26.971  27.247  1.00  0.00     0.014 A 
ATOM     40  C   UNL A   1      40.913  25.601  28.037  1.00  0.00     0.014 A 
ATOM     41  C   UNL A   1      42.613  27.789  28.372  1.00  0.00     0.010 A 
ATOM     42  C   UNL A   1      40.731  26.462  29.116  1.00  0.00     0.010 A 
ATOM     43  C   UNL A   1      41.579  27.565  29.298  1.00  0.00    -0.014 A 
BRANCH  43  44
ATOM     44  C   UNL A   1      41.368  28.479  30.452  1.00  0.00     0.031 A 
ATOM     45  C   UNL A   1      42.216  28.352  31.689  1.00  0.00     0.074 A 
ATOM     46  C   UNL A   1      40.372  29.386  30.410  1.00  0.00     0.049 A 
ATOM     47  N   UNL A   1      42.145  29.022  32.810  1.00  0.00    -0.248 NA
ATOM     48  C   UNL A   1      43.270  27.324  31.672  1.00  0.00     0.031 C 
ATOM     49  C   UNL A   1      39.452  29.585  29.286  1.00  0.00     0.029 A 
ATOM     50  N   UNL A   1      39.959  30.309  31.339  1.00  0.00    -0.354 N 
ATOM     51  C   UNL A   1      43.132  28.493  33.634  1.00  0.00     0.074 A 
ATOM     52  C   UNL A   1      43.753  27.410  32.902  1.00  0.00     0.031 C 
ATOM     53  C   UNL A   1      38.602  30.581  29.583  1.00  0.00     0.029 A 
ATOM     54  C   UNL A   1      38.882  31.061  30.932  1.00  0.00     0.049 A 
ATOM     55  H   UNL A   1      40.394  30.422  32.215  1.00  0.00     0.167 HD
ATOM     56  C   UNL A   1      43.502  28.883  34.877  1.00  0.00     0.031 A 
ATOM     57  C   UNL A   1      38.186  32.021  31.573  1.00  0.00     0.031 A 
ATOM     58  C   UNL A   1      42.880  29.959  35.603  1.00  0.00     0.049 A 
ATOM     59  C   UNL A   1      38.598  32.419  32.965  1.00  0.00     0.074 A 
ATOM     60  C   UNL A   1      43.213  30.460  36.850  1.00  0.00     0.029 A 
ATOM     61  N   UNL A   1      41.795  30.698  35.153  1.00  0.00    -0.354 N 
ATOM     62  N   UNL A   1      39.579  31.951  33.700  1.00  0.00    -0.248 NA
ATOM     63  C   UNL A   1      37.819  33.487  33.609  1.00  0.00     0.031 C 
ATOM     64  C   UNL A   1      42.293  31.460  37.180  1.00  0.00     0.029 A 
ATOM     65  C   UNL A   1      41.430  31.632  36.108  1.00  0.00     0.049 A 
ATOM     66  H   UNL A   1      41.350  30.576  34.284  1.00  0.00     0.167 HD
ATOM     67  C   UNL A   1      39.551  32.685  34.881  1.00  0.00     0.074 A 
ATOM     68  C   UNL A   1      38.470  33.640  34.754  1.00  0.00     0.031 C 
ATOM     69  C   UNL A   1      40.350  32.579  35.972  1.00  0.00     0.031 A 
BRANCH  56  70
ATOM     70  C   UNL A   1      44.634  28.136  35.535  1.00  0.00    -0.014 A 
ATOM     71  C   UNL A   1      44.392  26.993  36.319  1.00  0.00     0.010 A 
ATOM     72  C   UNL A   1      45.962  28.554  35.332  1.00  0.00     0.010 A 
ATOM     73  C   UNL A   1      45.451  26.307  36.921  1.00  0.00     0.020 A 
ATOM     74  C   UNL A   1      47.027  27.853  35.904  1.00  0.00     0.020 A 
ATOM     75  C   UNL A   1      46.763  26.743  36.711  1.00  0.00     0.054 A 
BRANCH  75  76
ATOM     76  S   UNL A   1      48.118  25.818  37.484  1.00  0.00     0.124 S 
ATOM     77  O   UNL A   1      47.476  24.541  37.788  1.00  0.00    -0.237 OA
ATOM     78  O   UNL A   1      49.123  25.779  36.425  1.00  0.00    -0.237 OA
ATOM     79  O   UNL A   1      48.472  26.627  38.648  1.00  0.00    -0.744 OA
ENDBRANCH  75  76
ENDBRANCH  56  70
BRANCH  57  80
ATOM     80  C   UNL A   1      37.027  32.674  30.904  1.00  0.00    -0.014 A 
ATOM     81  C   UNL A   1      35.721  32.187  31.093  1.00  0.00     0.010 A 
ATOM     82  C   UNL A   1      37.223  33.796  30.077  1.00  0.00     0.010 A 
ATOM     83  C   UNL A   1      34.637  32.797  30.453  1.00  0.00     0.020 A 
ATOM     84  C   UNL A   1      36.139  34.427  29.461  1.00  0.00     0.020 A 
ATOM     85  C   UNL A   1      34.853  33.916  29.643  1.00  0.00     0.054 A 
BRANCH  85  86
ATOM     86  S   UNL A   1      33.426  34.720  28.862  1.00  0.00     0.124 S 
ATOM     87  O   UNL A   1      32.987  33.703  27.911  1.00  0.00    -0.237 OA
ATOM     88  O   UNL A   1      32.536  34.952  29.997  1.00  0.00    -0.237 OA
ATOM     89  O   UNL A   1      33.995  35.928  28.270  1.00  0.00    -0.744 OA
ENDBRANCH  85  86
ENDBRANCH  57  80
BRANCH  69  90
ATOM     90  C   UNL A   1      40.116  33.544  37.104  1.00  0.00    -0.014 A 
ATOM     91  C   UNL A   1      39.340  33.191  38.222  1.00  0.00     0.010 A 
ATOM     92  C   UNL A   1      40.732  34.810  37.072  1.00  0.00     0.010 A 
ATOM     93  C   UNL A   1      39.156  34.097  39.271  1.00  0.00     0.020 A 
ATOM     94  C   UNL A   1      40.579  35.706  38.132  1.00  0.00     0.020 A 
ATOM     95  C   UNL A   1      39.779  35.349  39.219  1.00  0.00     0.054 A 
BRANCH  95  96
ATOM     96  S   UNL A   1      39.562  36.488  40.614  1.00  0.00     0.124 S 
ATOM     97  O   UNL A   1      40.611  36.052  41.530  1.00  0.00    -0.237 OA
ATOM     98  O   UNL A   1      39.771  37.795  39.995  1.00  0.00    -0.237 OA
ATOM     99  O   UNL A   1      38.195  36.230  41.064  1.00  0.00    -0.744 OA
ENDBRANCH  95  96
ENDBRANCH  69  90
ENDBRANCH  43  44
ENDBRANCH  35  38
ENDBRANCH  33  34
ENDBRANCH  32  33
ENDBRANCH   1  32
TORSDOF 19
ENDMDL
