MODEL 1
REMARK VINA RESULT:     -11.3      0.000      0.000
REMARK SMILES CCn1cc(S(=O)(=O)N2CCC(CCc3ccc(C(=O)NCCCCNC(=O)c4ccc(-c5c6nc(c(-c7ccc(S(=O)(=O)[O-])cc7)c7ccc([nH]7)c(-c7ccc(S(=O)(=O)[O-])cc7)c7nc(c(-c8ccc(S(=O)(=O)[O-])cc8)c8ccc5[nH]8)C=C7)C=C6)cc4)cc3)CC2)cn1
REMARK SMILES IDX 22 1 21 2 19 3 20 4 18 6 15 7 16 8 90 9 17 10 89 11 14 12
REMARK SMILES IDX 13 13 12 14 9 15 10 16 92 17 11 18 91 19 6 20 7 21 8 22 5 23
REMARK SMILES IDX 3 24 4 25 94 26 93 27 2 28 1 29 23 30 24 31 25 32 26 33
REMARK SMILES IDX 27 34 28 36 29 37 30 38 88 39 31 40 87 41 32 42 33 43 34 44
REMARK SMILES IDX 81 45 35 46 86 47 80 48 82 49 36 50 85 51 79 52 78 53 37 55
REMARK SMILES IDX 67 56 48 57 66 58 49 59 52 60 65 61 83 62 50 63 51 64 64 66
REMARK SMILES IDX 84 67 53 68 38 69 39 70 47 71 40 72 46 73 41 74 42 75 43 76
REMARK SMILES IDX 44 77 45 78 68 79 69 80 77 81 70 82 76 83 71 84 72 85 73 86
REMARK SMILES IDX 74 87 75 88 54 89 55 90 63 91 56 92 62 93 57 94 58 95 59 96
REMARK SMILES IDX 60 97 61 98
REMARK H PARENT 21 5 26 35 82 54 52 65
REMARK Flexibility Score: inf
ROOT
ATOM      1  C   UNL A   1      34.332  30.737  27.326  1.00  0.00     0.116 C 
ENDROOT
BRANCH   1   2
ATOM      2  N   UNL A   1      33.108  31.514  27.297  1.00  0.00    -0.352 N 
ATOM      3  C   UNL A   1      31.904  31.302  26.676  1.00  0.00     0.251 C 
ATOM      4  O   UNL A   1      31.045  32.179  26.757  1.00  0.00    -0.269 OA
ATOM      5  H   UNL A   1      33.148  32.347  27.819  1.00  0.00     0.163 HD
BRANCH   3   6
ATOM      6  C   UNL A   1      31.578  30.046  25.951  1.00  0.00     0.039 A 
ATOM      7  C   UNL A   1      30.903  27.769  24.420  1.00  0.00    -0.048 A 
ATOM      8  C   UNL A   1      30.715  29.059  23.903  1.00  0.00     0.004 A 
ATOM      9  C   UNL A   1      31.417  27.636  25.715  1.00  0.00     0.004 A 
ATOM     10  C   UNL A   1      31.066  30.183  24.654  1.00  0.00     0.014 A 
ATOM     11  C   UNL A   1      31.778  28.763  26.460  1.00  0.00     0.014 A 
BRANCH   7  12
ATOM     12  C   UNL A   1      30.573  26.529  23.623  1.00  0.00     0.036 C 
BRANCH  12  13
ATOM     13  C   UNL A   1      31.722  25.971  22.768  1.00  0.00     0.008 C 
BRANCH  13  14
ATOM     14  C   UNL A   1      32.635  24.966  23.493  1.00  0.00    -0.008 C 
ATOM     15  N   UNL A   1      33.523  22.365  24.431  1.00  0.00    -0.198 NA
ATOM     16  C   UNL A   1      32.916  23.331  25.383  1.00  0.00     0.103 C 
ATOM     17  C   UNL A   1      34.123  22.964  23.211  1.00  0.00     0.103 C 
ATOM     18  C   UNL A   1      31.950  24.277  24.678  1.00  0.00     0.020 C 
ATOM     19  C   UNL A   1      33.138  23.897  22.520  1.00  0.00     0.020 C 
BRANCH  15  20
ATOM     20  S   UNL A   1      34.473  21.143  25.159  1.00  0.00     0.246 S 
ATOM     21  O   UNL A   1      34.430  21.309  26.590  1.00  0.00    -0.207 OA
ATOM     22  O   UNL A   1      35.732  21.056  24.441  1.00  0.00    -0.207 OA
BRANCH  20  23
ATOM     23  C   UNL A   1      33.763  19.602  24.903  1.00  0.00     0.120 A 
ATOM     24  N   UNL A   1      33.341  17.479  24.576  1.00  0.00    -0.272 N 
ATOM     25  C   UNL A   1      34.363  18.381  24.692  1.00  0.00     0.130 A 
ATOM     26  N   UNL A   1      32.121  18.045  24.678  1.00  0.00    -0.180 NA
ATOM     27  C   UNL A   1      32.386  19.342  24.877  1.00  0.00     0.156 A 
BRANCH  24  28
ATOM     28  C   UNL A   1      33.522  16.050  24.390  1.00  0.00     0.141 C 
ATOM     29  C   UNL A   1      32.905  15.160  25.454  1.00  0.00     0.029 C 
ENDBRANCH  24  28
ENDBRANCH  20  23
ENDBRANCH  15  20
ENDBRANCH  13  14
ENDBRANCH  12  13
ENDBRANCH   7  12
ENDBRANCH   3   6
ENDBRANCH   1   2
BRANCH   1  30
ATOM     30  C   UNL A   1      35.243  31.215  28.464  1.00  0.00     0.023 C 
BRANCH  30  31
ATOM     31  C   UNL A   1      34.633  32.296  29.370  1.00  0.00     0.023 C 
BRANCH  31  32
ATOM     32  C   UNL A   1      35.641  33.288  29.937  1.00  0.00     0.116 C 
BRANCH  32  33
ATOM     33  N   UNL A   1      35.388  33.608  31.342  1.00  0.00    -0.352 N 
ATOM     34  C   UNL A   1      35.782  32.897  32.461  1.00  0.00     0.251 C 
ATOM     35  H   UNL A   1      34.872  34.429  31.512  1.00  0.00     0.163 HD
ATOM     36  O   UNL A   1      35.175  33.007  33.520  1.00  0.00    -0.269 OA
BRANCH  34  37
ATOM     37  C   UNL A   1      36.970  32.032  32.361  1.00  0.00     0.039 A 
ATOM     38  C   UNL A   1      36.875  30.647  32.199  1.00  0.00     0.014 A 
ATOM     39  C   UNL A   1      38.213  32.659  32.409  1.00  0.00     0.014 A 
ATOM     40  C   UNL A   1      38.047  29.914  32.014  1.00  0.00     0.010 A 
ATOM     41  C   UNL A   1      39.342  31.969  32.062  1.00  0.00     0.010 A 
ATOM     42  C   UNL A   1      39.277  30.588  31.934  1.00  0.00    -0.014 A 
BRANCH  42  43
ATOM     43  C   UNL A   1      40.507  29.907  31.547  1.00  0.00     0.031 A 
ATOM     44  C   UNL A   1      41.408  29.639  32.698  1.00  0.00     0.074 A 
ATOM     45  C   UNL A   1      40.681  29.344  30.329  1.00  0.00     0.049 A 
ATOM     46  N   UNL A   1      42.490  30.274  33.003  1.00  0.00    -0.248 NA
ATOM     47  C   UNL A   1      40.953  28.708  33.747  1.00  0.00     0.031 C 
ATOM     48  C   UNL A   1      39.723  29.280  29.217  1.00  0.00     0.029 A 
ATOM     49  N   UNL A   1      41.717  28.597  29.857  1.00  0.00    -0.354 N 
ATOM     50  C   UNL A   1      43.007  29.608  34.107  1.00  0.00     0.074 A 
ATOM     51  C   UNL A   1      41.909  28.862  34.667  1.00  0.00     0.031 C 
ATOM     52  C   UNL A   1      40.118  28.343  28.324  1.00  0.00     0.029 A 
ATOM     53  C   UNL A   1      41.433  27.861  28.705  1.00  0.00     0.049 A 
ATOM     54  H   UNL A   1      42.598  28.576  30.295  1.00  0.00     0.167 HD
ATOM     55  C   UNL A   1      44.352  29.442  34.252  1.00  0.00     0.031 A 
ATOM     56  C   UNL A   1      42.215  26.914  28.118  1.00  0.00     0.031 A 
ATOM     57  C   UNL A   1      45.082  30.277  33.326  1.00  0.00     0.049 A 
ATOM     58  C   UNL A   1      43.597  27.153  28.598  1.00  0.00     0.074 A 
ATOM     59  C   UNL A   1      45.136  31.631  33.054  1.00  0.00     0.029 A 
ATOM     60  N   UNL A   1      45.599  29.645  32.219  1.00  0.00    -0.354 N 
ATOM     61  N   UNL A   1      44.274  28.228  28.308  1.00  0.00    -0.248 NA
ATOM     62  C   UNL A   1      44.036  26.438  29.785  1.00  0.00     0.031 C 
ATOM     63  C   UNL A   1      45.243  31.715  31.633  1.00  0.00     0.029 A 
ATOM     64  C   UNL A   1      45.347  30.421  31.121  1.00  0.00     0.049 A 
ATOM     65  H   UNL A   1      46.069  28.780  32.216  1.00  0.00     0.167 HD
ATOM     66  C   UNL A   1      44.894  28.581  29.498  1.00  0.00     0.074 A 
ATOM     67  C   UNL A   1      44.791  27.389  30.343  1.00  0.00     0.031 C 
ATOM     68  C   UNL A   1      45.163  29.889  29.787  1.00  0.00     0.031 A 
BRANCH  55  69
ATOM     69  C   UNL A   1      44.986  28.197  34.840  1.00  0.00    -0.014 A 
ATOM     70  C   UNL A   1      44.395  26.950  34.547  1.00  0.00     0.010 A 
ATOM     71  C   UNL A   1      45.927  28.223  35.889  1.00  0.00     0.010 A 
ATOM     72  C   UNL A   1      44.657  25.819  35.329  1.00  0.00     0.020 A 
ATOM     73  C   UNL A   1      46.231  27.090  36.645  1.00  0.00     0.020 A 
ATOM     74  C   UNL A   1      45.565  25.903  36.382  1.00  0.00     0.054 A 
BRANCH  74  75
ATOM     75  S   UNL A   1      45.829  24.461  37.441  1.00  0.00     0.124 S 
ATOM     76  O   UNL A   1      44.526  24.322  38.085  1.00  0.00    -0.237 OA
ATOM     77  O   UNL A   1      46.172  23.427  36.468  1.00  0.00    -0.237 OA
ATOM     78  O   UNL A   1      46.922  24.877  38.315  1.00  0.00    -0.744 OA
ENDBRANCH  74  75
ENDBRANCH  55  69
BRANCH  56  79
ATOM     79  C   UNL A   1      41.823  25.650  27.434  1.00  0.00    -0.014 A 
ATOM     80  C   UNL A   1      42.793  24.759  26.927  1.00  0.00     0.010 A 
ATOM     81  C   UNL A   1      40.504  25.168  27.554  1.00  0.00     0.010 A 
ATOM     82  C   UNL A   1      42.471  23.422  26.622  1.00  0.00     0.020 A 
ATOM     83  C   UNL A   1      40.176  23.837  27.249  1.00  0.00     0.020 A 
ATOM     84  C   UNL A   1      41.166  22.962  26.810  1.00  0.00     0.054 A 
BRANCH  84  85
ATOM     85  S   UNL A   1      40.792  21.192  26.598  1.00  0.00     0.124 S 
ATOM     86  O   UNL A   1      41.896  20.736  25.759  1.00  0.00    -0.237 OA
ATOM     87  O   UNL A   1      40.796  20.696  27.971  1.00  0.00    -0.237 OA
ATOM     88  O   UNL A   1      39.481  21.193  25.949  1.00  0.00    -0.744 OA
ENDBRANCH  84  85
ENDBRANCH  56  79
BRANCH  68  89
ATOM     89  C   UNL A   1      45.092  30.904  28.668  1.00  0.00    -0.014 A 
ATOM     90  C   UNL A   1      46.075  31.071  27.672  1.00  0.00     0.010 A 
ATOM     91  C   UNL A   1      43.894  31.631  28.555  1.00  0.00     0.010 A 
ATOM     92  C   UNL A   1      45.868  31.967  26.609  1.00  0.00     0.020 A 
ATOM     93  C   UNL A   1      43.676  32.506  27.493  1.00  0.00     0.020 A 
ATOM     94  C   UNL A   1      44.668  32.682  26.530  1.00  0.00     0.054 A 
BRANCH  94  95
ATOM     95  S   UNL A   1      44.389  33.827  25.150  1.00  0.00     0.124 S 
ATOM     96  O   UNL A   1      45.684  34.490  25.021  1.00  0.00    -0.237 OA
ATOM     97  O   UNL A   1      44.029  32.932  24.053  1.00  0.00    -0.237 OA
ATOM     98  O   UNL A   1      43.302  34.683  25.622  1.00  0.00    -0.744 OA
ENDBRANCH  94  95
ENDBRANCH  68  89
ENDBRANCH  42  43
ENDBRANCH  34  37
ENDBRANCH  32  33
ENDBRANCH  31  32
ENDBRANCH  30  31
ENDBRANCH   1  30
TORSDOF 20
ENDMDL
MODEL 2
REMARK VINA RESULT:     -11.3      1.742      2.226
REMARK SMILES CCn1cc(S(=O)(=O)N2CCC(CCc3ccc(C(=O)NCCCCNC(=O)c4ccc(-c5c6nc(c(-c7ccc(S(=O)(=O)[O-])cc7)c7ccc([nH]7)c(-c7ccc(S(=O)(=O)[O-])cc7)c7nc(c(-c8ccc(S(=O)(=O)[O-])cc8)c8ccc5[nH]8)C=C7)C=C6)cc4)cc3)CC2)cn1
REMARK SMILES IDX 22 1 21 2 19 3 20 4 18 6 15 7 16 8 90 9 17 10 89 11 14 12
REMARK SMILES IDX 13 13 12 14 9 15 10 16 92 17 11 18 91 19 6 20 7 21 8 22 5 23
REMARK SMILES IDX 3 24 4 25 94 26 93 27 2 28 1 29 23 30 24 31 25 32 26 33
REMARK SMILES IDX 27 34 28 36 29 37 30 38 88 39 31 40 87 41 32 42 33 43 34 44
REMARK SMILES IDX 81 45 35 46 86 47 80 48 82 49 36 50 85 51 79 52 78 53 37 55
REMARK SMILES IDX 67 56 48 57 66 58 49 59 52 60 65 61 83 62 50 63 51 64 64 66
REMARK SMILES IDX 84 67 53 68 38 69 39 70 47 71 40 72 46 73 41 74 42 75 43 76
REMARK SMILES IDX 44 77 45 78 68 79 69 80 77 81 70 82 76 83 71 84 72 85 73 86
REMARK SMILES IDX 74 87 75 88 54 89 55 90 63 91 56 92 62 93 57 94 58 95 59 96
REMARK SMILES IDX 60 97 61 98
REMARK H PARENT 21 5 26 35 82 54 52 65
REMARK Flexibility Score: inf
ROOT
ATOM      1  C   UNL A   1      36.308  30.744  28.307  1.00  0.00     0.116 C 
ENDROOT
BRANCH   1   2
ATOM      2  N   UNL A   1      35.284  31.771  28.314  1.00  0.00    -0.352 N 
ATOM      3  C   UNL A   1      34.017  31.804  27.793  1.00  0.00     0.251 C 
ATOM      4  O   UNL A   1      33.379  32.853  27.878  1.00  0.00    -0.269 OA
ATOM      5  H   UNL A   1      35.548  32.598  28.779  1.00  0.00     0.163 HD
BRANCH   3   6
ATOM      6  C   UNL A   1      33.367  30.620  27.171  1.00  0.00     0.039 A 
ATOM      7  C   UNL A   1      32.003  28.492  25.909  1.00  0.00    -0.048 A 
ATOM      8  C   UNL A   1      31.549  29.811  25.773  1.00  0.00     0.004 A 
ATOM      9  C   UNL A   1      33.135  28.252  26.695  1.00  0.00     0.004 A 
ATOM     10  C   UNL A   1      32.235  30.865  26.383  1.00  0.00     0.014 A 
ATOM     11  C   UNL A   1      33.827  29.308  27.295  1.00  0.00     0.014 A 
BRANCH   7  12
ATOM     12  C   UNL A   1      31.311  27.332  25.233  1.00  0.00     0.036 C 
BRANCH  12  13
ATOM     13  C   UNL A   1      32.094  26.678  24.084  1.00  0.00     0.008 C 
BRANCH  13  14
ATOM     14  C   UNL A   1      32.661  25.283  24.403  1.00  0.00    -0.008 C 
ATOM     15  N   UNL A   1      34.061  23.265  25.953  1.00  0.00    -0.198 NA
ATOM     16  C   UNL A   1      34.696  23.843  24.740  1.00  0.00     0.103 C 
ATOM     17  C   UNL A   1      32.578  23.344  25.995  1.00  0.00     0.103 C 
ATOM     18  C   UNL A   1      34.192  25.257  24.468  1.00  0.00     0.020 C 
ATOM     19  C   UNL A   1      32.099  24.764  25.729  1.00  0.00     0.020 C 
BRANCH  15  20
ATOM     20  S   UNL A   1      34.702  21.757  26.447  1.00  0.00     0.246 S 
ATOM     21  O   UNL A   1      34.393  21.553  27.840  1.00  0.00    -0.207 OA
ATOM     22  O   UNL A   1      36.062  21.654  25.947  1.00  0.00    -0.207 OA
BRANCH  20  23
ATOM     23  C   UNL A   1      33.888  20.473  25.653  1.00  0.00     0.120 A 
ATOM     24  N   UNL A   1      33.224  18.885  24.299  1.00  0.00    -0.272 N 
ATOM     25  C   UNL A   1      34.161  19.872  24.445  1.00  0.00     0.130 A 
ATOM     26  N   UNL A   1      32.354  18.827  25.327  1.00  0.00    -0.180 NA
ATOM     27  C   UNL A   1      32.764  19.799  26.151  1.00  0.00     0.156 A 
BRANCH  24  28
ATOM     28  C   UNL A   1      33.166  17.965  23.177  1.00  0.00     0.141 C 
ATOM     29  C   UNL A   1      33.793  16.601  23.408  1.00  0.00     0.029 C 
ENDBRANCH  24  28
ENDBRANCH  20  23
ENDBRANCH  15  20
ENDBRANCH  13  14
ENDBRANCH  12  13
ENDBRANCH   7  12
ENDBRANCH   3   6
ENDBRANCH   1   2
BRANCH   1  30
ATOM     30  C   UNL A   1      37.097  30.765  29.623  1.00  0.00     0.023 C 
BRANCH  30  31
ATOM     31  C   UNL A   1      36.739  31.918  30.574  1.00  0.00     0.023 C 
BRANCH  31  32
ATOM     32  C   UNL A   1      35.834  31.523  31.734  1.00  0.00     0.116 C 
BRANCH  32  33
ATOM     33  N   UNL A   1      36.162  32.232  32.971  1.00  0.00    -0.352 N 
ATOM     34  C   UNL A   1      37.091  31.880  33.933  1.00  0.00     0.251 C 
ATOM     35  H   UNL A   1      35.659  33.062  33.139  1.00  0.00     0.163 HD
ATOM     36  O   UNL A   1      36.984  32.285  35.085  1.00  0.00    -0.269 OA
BRANCH  34  37
ATOM     37  C   UNL A   1      38.231  31.037  33.533  1.00  0.00     0.039 A 
ATOM     38  C   UNL A   1      38.117  29.655  33.367  1.00  0.00     0.014 A 
ATOM     39  C   UNL A   1      39.442  31.684  33.299  1.00  0.00     0.014 A 
ATOM     40  C   UNL A   1      39.219  28.944  32.893  1.00  0.00     0.010 A 
ATOM     41  C   UNL A   1      40.464  31.020  32.677  1.00  0.00     0.010 A 
ATOM     42  C   UNL A   1      40.387  29.640  32.537  1.00  0.00    -0.014 A 
BRANCH  42  43
ATOM     43  C   UNL A   1      41.497  28.988  31.854  1.00  0.00     0.031 A 
ATOM     44  C   UNL A   1      42.633  28.676  32.759  1.00  0.00     0.074 A 
ATOM     45  C   UNL A   1      41.391  28.481  30.603  1.00  0.00     0.049 A 
ATOM     46  N   UNL A   1      43.757  29.307  32.842  1.00  0.00    -0.248 NA
ATOM     47  C   UNL A   1      42.424  27.696  33.841  1.00  0.00     0.031 C 
ATOM     48  C   UNL A   1      40.208  28.457  29.733  1.00  0.00     0.029 A 
ATOM     49  N   UNL A   1      42.293  27.764  29.877  1.00  0.00    -0.354 N 
ATOM     50  C   UNL A   1      44.508  28.597  33.770  1.00  0.00     0.074 A 
ATOM     51  C   UNL A   1      43.563  27.817  34.528  1.00  0.00     0.031 C 
ATOM     52  C   UNL A   1      40.390  27.565  28.733  1.00  0.00     0.029 A 
ATOM     53  C   UNL A   1      41.756  27.078  28.788  1.00  0.00     0.049 A 
ATOM     54  H   UNL A   1      43.250  27.731  30.105  1.00  0.00     0.167 HD
ATOM     55  C   UNL A   1      45.851  28.436  33.601  1.00  0.00     0.031 A 
ATOM     56  C   UNL A   1      42.384  26.164  27.997  1.00  0.00     0.031 A 
ATOM     57  C   UNL A   1      46.355  29.318  32.573  1.00  0.00     0.049 A 
ATOM     58  C   UNL A   1      43.840  26.393  28.164  1.00  0.00     0.074 A 
ATOM     59  C   UNL A   1      46.349  30.682  32.357  1.00  0.00     0.029 A 
ATOM     60  N   UNL A   1      46.609  28.739  31.351  1.00  0.00    -0.354 N 
ATOM     61  N   UNL A   1      44.436  27.486  27.779  1.00  0.00    -0.248 NA
ATOM     62  C   UNL A   1      44.533  25.630  29.189  1.00  0.00     0.031 C 
ATOM     63  C   UNL A   1      46.134  30.830  30.954  1.00  0.00     0.029 A 
ATOM     64  C   UNL A   1      46.118  29.561  30.374  1.00  0.00     0.049 A 
ATOM     65  H   UNL A   1      47.065  27.880  31.204  1.00  0.00     0.167 HD
ATOM     66  C   UNL A   1      45.308  27.791  28.813  1.00  0.00     0.074 A 
ATOM     67  C   UNL A   1      45.396  26.562  29.605  1.00  0.00     0.031 C 
ATOM     68  C   UNL A   1      45.638  29.087  29.093  1.00  0.00     0.031 A 
BRANCH  55  69
ATOM     69  C   UNL A   1      46.598  27.172  33.975  1.00  0.00    -0.014 A 
ATOM     70  C   UNL A   1      47.838  27.303  34.635  1.00  0.00     0.010 A 
ATOM     71  C   UNL A   1      46.293  25.901  33.446  1.00  0.00     0.010 A 
ATOM     72  C   UNL A   1      48.760  26.250  34.671  1.00  0.00     0.020 A 
ATOM     73  C   UNL A   1      47.184  24.830  33.518  1.00  0.00     0.020 A 
ATOM     74  C   UNL A   1      48.429  25.023  34.099  1.00  0.00     0.054 A 
BRANCH  74  75
ATOM     75  S   UNL A   1      49.659  23.698  34.072  1.00  0.00     0.124 S 
ATOM     76  O   UNL A   1      48.868  22.549  34.502  1.00  0.00    -0.237 OA
ATOM     77  O   UNL A   1      50.075  23.698  32.672  1.00  0.00    -0.237 OA
ATOM     78  O   UNL A   1      50.672  24.156  35.019  1.00  0.00    -0.744 OA
ENDBRANCH  74  75
ENDBRANCH  55  69
BRANCH  56  79
ATOM     79  C   UNL A   1      41.847  24.928  27.363  1.00  0.00    -0.014 A 
ATOM     80  C   UNL A   1      42.583  24.225  26.386  1.00  0.00     0.010 A 
ATOM     81  C   UNL A   1      40.744  24.266  27.940  1.00  0.00     0.010 A 
ATOM     82  C   UNL A   1      42.274  22.891  26.055  1.00  0.00     0.020 A 
ATOM     83  C   UNL A   1      40.429  22.938  27.613  1.00  0.00     0.020 A 
ATOM     84  C   UNL A   1      41.211  22.246  26.691  1.00  0.00     0.054 A 
BRANCH  84  85
ATOM     85  S   UNL A   1      40.928  20.470  26.405  1.00  0.00     0.124 S 
ATOM     86  O   UNL A   1      42.074  20.099  25.578  1.00  0.00    -0.237 OA
ATOM     87  O   UNL A   1      40.924  19.923  27.758  1.00  0.00    -0.237 OA
ATOM     88  O   UNL A   1      39.636  20.433  25.722  1.00  0.00    -0.744 OA
ENDBRANCH  84  85
ENDBRANCH  56  79
BRANCH  68  89
ATOM     89  C   UNL A   1      45.319  30.150  28.066  1.00  0.00    -0.014 A 
ATOM     90  C   UNL A   1      44.018  30.580  27.732  1.00  0.00     0.010 A 
ATOM     91  C   UNL A   1      46.413  30.837  27.512  1.00  0.00     0.010 A 
ATOM     92  C   UNL A   1      43.826  31.652  26.844  1.00  0.00     0.020 A 
ATOM     93  C   UNL A   1      46.229  31.913  26.645  1.00  0.00     0.020 A 
ATOM     94  C   UNL A   1      44.937  32.309  26.303  1.00  0.00     0.054 A 
BRANCH  94  95
ATOM     95  S   UNL A   1      44.695  33.704  25.168  1.00  0.00     0.124 S 
ATOM     96  O   UNL A   1      44.110  33.062  23.995  1.00  0.00    -0.237 OA
ATOM     97  O   UNL A   1      43.798  34.581  25.918  1.00  0.00    -0.237 OA
ATOM     98  O   UNL A   1      46.044  34.234  24.974  1.00  0.00    -0.744 OA
ENDBRANCH  94  95
ENDBRANCH  68  89
ENDBRANCH  42  43
ENDBRANCH  34  37
ENDBRANCH  32  33
ENDBRANCH  31  32
ENDBRANCH  30  31
ENDBRANCH   1  30
TORSDOF 20
ENDMDL
MODEL 3
REMARK VINA RESULT:     -11.2      4.619      9.871
REMARK SMILES CCn1cc(S(=O)(=O)N2CCC(CCc3ccc(C(=O)NCCCCNC(=O)c4ccc(-c5c6nc(c(-c7ccc(S(=O)(=O)[O-])cc7)c7ccc([nH]7)c(-c7ccc(S(=O)(=O)[O-])cc7)c7nc(c(-c8ccc(S(=O)(=O)[O-])cc8)c8ccc5[nH]8)C=C7)C=C6)cc4)cc3)CC2)cn1
REMARK SMILES IDX 22 1 21 2 19 3 20 4 18 6 15 7 16 8 90 9 17 10 89 11 14 12
REMARK SMILES IDX 13 13 12 14 9 15 10 16 92 17 11 18 91 19 6 20 7 21 8 22 5 23
REMARK SMILES IDX 3 24 4 25 94 26 93 27 2 28 1 29 23 30 24 31 25 32 26 33
REMARK SMILES IDX 27 34 28 36 29 37 30 38 88 39 31 40 87 41 32 42 33 43 34 44
REMARK SMILES IDX 81 45 35 46 86 47 80 48 82 49 36 50 85 51 79 52 78 53 37 55
REMARK SMILES IDX 67 56 48 57 66 58 49 59 52 60 65 61 83 62 50 63 51 64 64 66
REMARK SMILES IDX 84 67 53 68 38 69 39 70 47 71 40 72 46 73 41 74 42 75 43 76
REMARK SMILES IDX 44 77 45 78 68 79 69 80 77 81 70 82 76 83 71 84 72 85 73 86
REMARK SMILES IDX 74 87 75 88 54 89 55 90 63 91 56 92 62 93 57 94 58 95 59 96
REMARK SMILES IDX 60 97 61 98
REMARK H PARENT 21 5 26 35 82 54 52 65
REMARK Flexibility Score: inf
ROOT
ATOM      1  C   UNL A   1      43.260  25.463  25.056  1.00  0.00     0.116 C 
ENDROOT
BRANCH   1   2
ATOM      2  N   UNL A   1      44.151  26.599  25.181  1.00  0.00    -0.352 N 
ATOM      3  C   UNL A   1      43.977  27.843  25.730  1.00  0.00     0.251 C 
ATOM      4  O   UNL A   1      44.894  28.658  25.629  1.00  0.00    -0.269 OA
ATOM      5  H   UNL A   1      45.047  26.451  24.800  1.00  0.00     0.163 HD
BRANCH   3   6
ATOM      6  C   UNL A   1      42.753  28.233  26.478  1.00  0.00     0.039 A 
ATOM      7  C   UNL A   1      40.536  28.979  28.063  1.00  0.00    -0.048 A 
ATOM      8  C   UNL A   1      41.793  28.773  28.646  1.00  0.00     0.004 A 
ATOM      9  C   UNL A   1      40.400  28.791  26.682  1.00  0.00     0.004 A 
ATOM     10  C   UNL A   1      42.893  28.422  27.859  1.00  0.00     0.014 A 
ATOM     11  C   UNL A   1      41.504  28.451  25.895  1.00  0.00     0.014 A 
BRANCH   7  12
ATOM     12  C   UNL A   1      39.333  29.397  28.875  1.00  0.00     0.036 C 
BRANCH  12  13
ATOM     13  C   UNL A   1      37.970  29.018  28.273  1.00  0.00     0.008 C 
BRANCH  13  14
ATOM     14  C   UNL A   1      37.066  30.214  27.921  1.00  0.00    -0.008 C 
ATOM     15  N   UNL A   1      35.133  32.326  28.401  1.00  0.00    -0.198 NA
ATOM     16  C   UNL A   1      34.729  31.105  27.658  1.00  0.00     0.103 C 
ATOM     17  C   UNL A   1      36.586  32.634  28.381  1.00  0.00     0.103 C 
ATOM     18  C   UNL A   1      35.573  29.901  28.064  1.00  0.00     0.020 C 
ATOM     19  C   UNL A   1      37.407  31.422  28.798  1.00  0.00     0.020 C 
BRANCH  15  20
ATOM     20  S   UNL A   1      34.120  33.683  28.154  1.00  0.00     0.246 S 
ATOM     21  O   UNL A   1      32.794  33.221  27.827  1.00  0.00    -0.207 OA
ATOM     22  O   UNL A   1      34.824  34.631  27.309  1.00  0.00    -0.207 OA
BRANCH  20  23
ATOM     23  C   UNL A   1      33.904  34.543  29.622  1.00  0.00     0.120 A 
ATOM     24  N   UNL A   1      34.039  35.377  31.643  1.00  0.00    -0.272 N 
ATOM     25  C   UNL A   1      34.597  34.447  30.808  1.00  0.00     0.130 A 
ATOM     26  N   UNL A   1      33.017  36.050  31.076  1.00  0.00    -0.180 NA
ATOM     27  C   UNL A   1      32.940  35.536  29.842  1.00  0.00     0.156 A 
BRANCH  24  28
ATOM     28  C   UNL A   1      34.497  35.649  32.994  1.00  0.00     0.141 C 
ATOM     29  C   UNL A   1      33.825  36.816  33.696  1.00  0.00     0.029 C 
ENDBRANCH  24  28
ENDBRANCH  20  23
ENDBRANCH  15  20
ENDBRANCH  13  14
ENDBRANCH  12  13
ENDBRANCH   7  12
ENDBRANCH   3   6
ENDBRANCH   1   2
BRANCH   1  30
ATOM     30  C   UNL A   1      44.018  24.155  25.317  1.00  0.00     0.023 C 
BRANCH  30  31
ATOM     31  C   UNL A   1      43.417  22.913  24.641  1.00  0.00     0.023 C 
BRANCH  31  32
ATOM     32  C   UNL A   1      42.996  21.810  25.603  1.00  0.00     0.116 C 
BRANCH  32  33
ATOM     33  N   UNL A   1      41.602  21.933  26.027  1.00  0.00    -0.352 N 
ATOM     34  C   UNL A   1      41.120  22.298  27.271  1.00  0.00     0.251 C 
ATOM     35  H   UNL A   1      40.923  21.731  25.343  1.00  0.00     0.163 HD
ATOM     36  O   UNL A   1      39.997  21.962  27.631  1.00  0.00    -0.269 OA
BRANCH  34  37
ATOM     37  C   UNL A   1      41.972  23.128  28.139  1.00  0.00     0.039 A 
ATOM     38  C   UNL A   1      43.061  22.604  28.840  1.00  0.00     0.014 A 
ATOM     39  C   UNL A   1      41.662  24.484  28.216  1.00  0.00     0.014 A 
ATOM     40  C   UNL A   1      43.875  23.477  29.562  1.00  0.00     0.010 A 
ATOM     41  C   UNL A   1      42.550  25.358  28.781  1.00  0.00     0.010 A 
ATOM     42  C   UNL A   1      43.617  24.858  29.515  1.00  0.00    -0.014 A 
BRANCH  42  43
ATOM     43  C   UNL A   1      44.540  25.835  30.080  1.00  0.00     0.031 A 
ATOM     44  C   UNL A   1      44.261  26.138  31.507  1.00  0.00     0.074 A 
ATOM     45  C   UNL A   1      45.680  26.213  29.456  1.00  0.00     0.049 A 
ATOM     46  N   UNL A   1      43.693  27.197  31.981  1.00  0.00    -0.248 NA
ATOM     47  C   UNL A   1      44.430  25.063  32.502  1.00  0.00     0.031 C 
ATOM     48  C   UNL A   1      46.211  25.734  28.173  1.00  0.00     0.029 A 
ATOM     49  N   UNL A   1      46.680  27.027  29.893  1.00  0.00    -0.354 N 
ATOM     50  C   UNL A   1      43.727  27.045  33.362  1.00  0.00     0.074 A 
ATOM     51  C   UNL A   1      43.926  25.637  33.597  1.00  0.00     0.031 C 
ATOM     52  C   UNL A   1      47.518  26.067  28.064  1.00  0.00     0.029 A 
ATOM     53  C   UNL A   1      47.875  26.923  29.179  1.00  0.00     0.049 A 
ATOM     54  H   UNL A   1      46.569  27.641  30.654  1.00  0.00     0.167 HD
ATOM     55  C   UNL A   1      43.949  28.116  34.174  1.00  0.00     0.031 A 
ATOM     56  C   UNL A   1      49.074  27.486  29.492  1.00  0.00     0.031 A 
ATOM     57  C   UNL A   1      43.827  29.357  33.444  1.00  0.00     0.049 A 
ATOM     58  C   UNL A   1      48.784  28.613  30.411  1.00  0.00     0.074 A 
ATOM     59  C   UNL A   1      42.842  29.958  32.684  1.00  0.00     0.029 A 
ATOM     60  N   UNL A   1      45.007  29.973  33.097  1.00  0.00    -0.354 N 
ATOM     61  N   UNL A   1      48.115  29.671  30.047  1.00  0.00    -0.248 NA
ATOM     62  C   UNL A   1      48.805  28.347  31.839  1.00  0.00     0.031 C 
ATOM     63  C   UNL A   1      43.538  30.568  31.598  1.00  0.00     0.029 A 
ATOM     64  C   UNL A   1      44.909  30.394  31.799  1.00  0.00     0.049 A 
ATOM     65  H   UNL A   1      45.789  30.091  33.682  1.00  0.00     0.167 HD
ATOM     66  C   UNL A   1      47.261  29.926  31.110  1.00  0.00     0.074 A 
ATOM     67  C   UNL A   1      47.800  29.141  32.223  1.00  0.00     0.031 C 
ATOM     68  C   UNL A   1      46.042  30.509  30.905  1.00  0.00     0.031 A 
BRANCH  55  69
ATOM     69  C   UNL A   1      44.757  28.045  35.455  1.00  0.00    -0.014 A 
ATOM     70  C   UNL A   1      46.144  27.809  35.353  1.00  0.00     0.010 A 
ATOM     71  C   UNL A   1      44.180  27.897  36.732  1.00  0.00     0.010 A 
ATOM     72  C   UNL A   1      46.887  27.351  36.447  1.00  0.00     0.020 A 
ATOM     73  C   UNL A   1      44.921  27.485  37.841  1.00  0.00     0.020 A 
ATOM     74  C   UNL A   1      46.264  27.180  37.682  1.00  0.00     0.054 A 
BRANCH  74  75
ATOM     75  S   UNL A   1      47.211  26.503  39.065  1.00  0.00     0.124 S 
ATOM     76  O   UNL A   1      48.271  25.776  38.373  1.00  0.00    -0.237 OA
ATOM     77  O   UNL A   1      47.625  27.712  39.772  1.00  0.00    -0.237 OA
ATOM     78  O   UNL A   1      46.237  25.676  39.772  1.00  0.00    -0.744 OA
ENDBRANCH  74  75
ENDBRANCH  55  69
BRANCH  56  79
ATOM     79  C   UNL A   1      50.452  26.947  29.316  1.00  0.00    -0.014 A 
ATOM     80  C   UNL A   1      51.198  27.207  28.147  1.00  0.00     0.010 A 
ATOM     81  C   UNL A   1      51.152  26.433  30.426  1.00  0.00     0.010 A 
ATOM     82  C   UNL A   1      52.595  27.032  28.114  1.00  0.00     0.020 A 
ATOM     83  C   UNL A   1      52.544  26.253  30.400  1.00  0.00     0.020 A 
ATOM     84  C   UNL A   1      53.264  26.578  29.253  1.00  0.00     0.054 A 
BRANCH  84  85
ATOM     85  S   UNL A   1      55.084  26.531  29.274  1.00  0.00     0.124 S 
ATOM     86  O   UNL A   1      55.378  25.359  28.455  1.00  0.00    -0.237 OA
ATOM     87  O   UNL A   1      55.446  27.818  28.688  1.00  0.00    -0.237 OA
ATOM     88  O   UNL A   1      55.408  26.390  30.693  1.00  0.00    -0.744 OA
ENDBRANCH  84  85
ENDBRANCH  56  79
BRANCH  68  89
ATOM     89  C   UNL A   1      45.776  31.176  29.574  1.00  0.00    -0.014 A 
ATOM     90  C   UNL A   1      45.044  30.597  28.517  1.00  0.00     0.010 A 
ATOM     91  C   UNL A   1      46.182  32.516  29.451  1.00  0.00     0.010 A 
ATOM     92  C   UNL A   1      44.756  31.337  27.358  1.00  0.00     0.020 A 
ATOM     93  C   UNL A   1      45.883  33.262  28.312  1.00  0.00     0.020 A 
ATOM     94  C   UNL A   1      45.182  32.666  27.264  1.00  0.00     0.054 A 
BRANCH  94  95
ATOM     95  S   UNL A   1      44.798  33.633  25.776  1.00  0.00     0.124 S 
ATOM     96  O   UNL A   1      43.787  34.569  26.258  1.00  0.00    -0.237 OA
ATOM     97  O   UNL A   1      46.089  34.224  25.430  1.00  0.00    -0.237 OA
ATOM     98  O   UNL A   1      44.311  32.633  24.827  1.00  0.00    -0.744 OA
ENDBRANCH  94  95
ENDBRANCH  68  89
ENDBRANCH  42  43
ENDBRANCH  34  37
ENDBRANCH  32  33
ENDBRANCH  31  32
ENDBRANCH  30  31
ENDBRANCH   1  30
TORSDOF 20
ENDMDL
