MODEL 1
REMARK VINA RESULT:     -14.7      0.000      0.000
REMARK SMILES Cc1cccc(OC2(C(=O)NCCCCNC(=O)c3ccc(-c4c5nc(c(-c6ccc(S(=O)(=O)[O-])cc6)c6ccc([nH]6)c(-c6ccc(S(=O)(=O)[O-])cc6)c6nc(c(-c7ccc(S(=O)(=O)[O-])cc7)c7ccc4[nH]7)C=C6)C=C5)cc3)CCN(C(=O)c3cnc[nH]c3=O)CC2)c1
REMARK SMILES IDX 14 1 13 2 12 3 11 4 9 5 10 6 8 8 79 9 92 10 80 11 91 12
REMARK SMILES IDX 81 13 82 14 83 15 7 16 6 17 1 18 2 19 3 20 93 21 4 22 5 23
REMARK SMILES IDX 84 24 85 25 89 26 86 27 88 28 90 29 87 30 15 32 16 33 17 34
REMARK SMILES IDX 18 36 19 37 20 38 78 39 21 40 77 41 22 42 23 43 24 44 71 45
REMARK SMILES IDX 25 46 76 47 70 48 72 49 26 50 75 51 69 52 68 53 27 55 57 56
REMARK SMILES IDX 38 57 56 58 39 59 42 60 55 61 73 62 40 63 41 64 54 66 74 67
REMARK SMILES IDX 43 68 28 69 29 70 37 71 30 72 36 73 31 74 32 75 33 76 34 77
REMARK SMILES IDX 35 78 58 79 59 80 67 81 60 82 66 83 61 84 62 85 63 86 64 87
REMARK SMILES IDX 65 88 44 89 45 90 53 91 46 92 52 93 47 94 48 95 49 96 50 97
REMARK SMILES IDX 51 98
REMARK H PARENT 11 7 88 31 16 35 72 54 42 65
REMARK Flexibility Score: inf
ROOT
ATOM      1  C   UNL A   1      33.183  30.011  26.389  1.00  0.00     0.023 C 
ENDROOT
BRANCH   1   2
ATOM      2  C   UNL A   1      32.034  29.289  27.079  1.00  0.00     0.023 C 
BRANCH   2   3
ATOM      3  C   UNL A   1      32.153  27.748  27.177  1.00  0.00     0.116 C 
BRANCH   3   4
ATOM      4  N   UNL A   1      30.960  26.946  26.870  1.00  0.00    -0.353 N 
ATOM      5  C   UNL A   1      30.713  25.773  26.210  1.00  0.00     0.264 C 
ATOM      6  O   UNL A   1      29.611  25.260  26.459  1.00  0.00    -0.270 OA
ATOM      7  H   UNL A   1      30.137  27.353  27.227  1.00  0.00     0.163 HD
BRANCH   5   8
ATOM      8  C   UNL A   1      31.696  25.080  25.205  1.00  0.00     0.190 C 
ATOM      9  C   UNL A   1      33.089  25.010  25.814  1.00  0.00     0.080 C 
ATOM     10  C   UNL A   1      31.196  23.638  24.901  1.00  0.00     0.080 C 
ATOM     11  C   UNL A   1      34.087  24.157  25.066  1.00  0.00     0.124 C 
ATOM     12  C   UNL A   1      32.263  22.825  24.141  1.00  0.00     0.124 C 
ATOM     13  N   UNL A   1      33.509  22.840  24.900  1.00  0.00    -0.338 N 
ATOM     14  C   UNL A   1      33.827  21.860  25.827  1.00  0.00     0.261 C 
ATOM     15  O   UNL A   1      34.231  22.103  26.959  1.00  0.00    -0.269 OA
BRANCH   8  16
ATOM     16  O   UNL A   1      31.524  25.760  23.944  1.00  0.00    -0.477 OA
BRANCH  16  17
ATOM     17  C   UNL A   1      30.876  26.893  23.593  1.00  0.00     0.121 A 
ATOM     18  C   UNL A   1      27.510  28.596  23.115  1.00  0.00     0.044 C 
ATOM     19  C   UNL A   1      28.994  28.391  23.200  1.00  0.00    -0.047 A 
ATOM     20  C   UNL A   1      29.862  29.479  23.103  1.00  0.00     0.003 A 
ATOM     21  C   UNL A   1      29.519  27.099  23.392  1.00  0.00     0.049 A 
ATOM     22  C   UNL A   1      31.234  29.280  23.219  1.00  0.00     0.004 A 
ATOM     23  C   UNL A   1      31.729  27.999  23.474  1.00  0.00     0.046 A 
ENDBRANCH  16  17
ENDBRANCH   8  16
BRANCH  14  24
ATOM     24  C   UNL A   1      33.737  20.474  25.347  1.00  0.00     0.123 A 
ATOM     25  C   UNL A   1      32.566  19.821  25.360  1.00  0.00     0.132 A 
ATOM     26  C   UNL A   1      34.934  19.720  24.938  1.00  0.00     0.263 A 
ATOM     27  N   UNL A   1      32.392  18.514  24.962  1.00  0.00    -0.246 NA
ATOM     28  N   UNL A   1      34.704  18.418  24.594  1.00  0.00    -0.312 N 
ATOM     29  O   UNL A   1      36.067  20.190  24.911  1.00  0.00    -0.269 OA
ATOM     30  C   UNL A   1      33.455  17.873  24.615  1.00  0.00     0.199 A 
ATOM     31  H   UNL A   1      35.465  17.855  24.323  1.00  0.00     0.171 HD
ENDBRANCH  14  24
ENDBRANCH   5   8
ENDBRANCH   3   4
ENDBRANCH   2   3
ENDBRANCH   1   2
BRANCH   1  32
ATOM     32  C   UNL A   1      34.500  29.758  27.092  1.00  0.00     0.116 C 
BRANCH  32  33
ATOM     33  N   UNL A   1      35.239  30.966  27.442  1.00  0.00    -0.352 N 
ATOM     34  C   UNL A   1      36.494  31.033  28.030  1.00  0.00     0.251 C 
ATOM     35  H   UNL A   1      34.801  31.825  27.239  1.00  0.00     0.163 HD
ATOM     36  O   UNL A   1      36.953  32.055  28.508  1.00  0.00    -0.269 OA
BRANCH  34  37
ATOM     37  C   UNL A   1      37.307  29.802  27.947  1.00  0.00     0.039 A 
ATOM     38  C   UNL A   1      37.357  29.005  29.097  1.00  0.00     0.014 A 
ATOM     39  C   UNL A   1      38.271  29.701  26.948  1.00  0.00     0.014 A 
ATOM     40  C   UNL A   1      38.494  28.246  29.346  1.00  0.00     0.010 A 
ATOM     41  C   UNL A   1      39.444  29.044  27.256  1.00  0.00     0.010 A 
ATOM     42  C   UNL A   1      39.573  28.356  28.473  1.00  0.00    -0.014 A 
BRANCH  42  43
ATOM     43  C   UNL A   1      40.897  27.810  28.746  1.00  0.00     0.031 A 
ATOM     44  C   UNL A   1      41.154  26.389  28.421  1.00  0.00     0.074 A 
ATOM     45  C   UNL A   1      41.895  28.603  29.198  1.00  0.00     0.049 A 
ATOM     46  N   UNL A   1      42.126  25.685  28.896  1.00  0.00    -0.248 NA
ATOM     47  C   UNL A   1      40.259  25.621  27.561  1.00  0.00     0.031 C 
ATOM     48  C   UNL A   1      43.323  28.289  29.209  1.00  0.00     0.029 A 
ATOM     49  N   UNL A   1      41.804  29.775  29.953  1.00  0.00    -0.354 N 
ATOM     50  C   UNL A   1      42.165  24.508  28.181  1.00  0.00     0.074 A 
ATOM     51  C   UNL A   1      40.932  24.477  27.436  1.00  0.00     0.031 C 
ATOM     52  C   UNL A   1      43.917  29.031  30.157  1.00  0.00     0.029 A 
ATOM     53  C   UNL A   1      42.862  29.722  30.878  1.00  0.00     0.049 A 
ATOM     54  H   UNL A   1      41.135  30.491  29.858  1.00  0.00     0.167 HD
ATOM     55  C   UNL A   1      43.305  23.759  28.183  1.00  0.00     0.031 A 
ATOM     56  C   UNL A   1      42.691  29.689  32.233  1.00  0.00     0.031 A 
ATOM     57  C   UNL A   1      44.271  24.266  29.156  1.00  0.00     0.049 A 
ATOM     58  C   UNL A   1      43.311  28.463  32.876  1.00  0.00     0.074 A 
ATOM     59  C   UNL A   1      45.406  25.051  29.045  1.00  0.00     0.029 A 
ATOM     60  N   UNL A   1      43.946  24.230  30.508  1.00  0.00    -0.354 N 
ATOM     61  N   UNL A   1      43.669  27.395  32.216  1.00  0.00    -0.248 NA
ATOM     62  C   UNL A   1      43.536  28.327  34.313  1.00  0.00     0.031 C 
ATOM     63  C   UNL A   1      45.701  25.575  30.334  1.00  0.00     0.029 A 
ATOM     64  C   UNL A   1      44.769  25.076  31.227  1.00  0.00     0.049 A 
ATOM     65  H   UNL A   1      43.230  23.680  30.898  1.00  0.00     0.167 HD
ATOM     66  C   UNL A   1      44.153  26.454  33.086  1.00  0.00     0.074 A 
ATOM     67  C   UNL A   1      44.058  27.090  34.388  1.00  0.00     0.031 C 
ATOM     68  C   UNL A   1      44.585  25.229  32.664  1.00  0.00     0.031 A 
BRANCH  55  69
ATOM     69  C   UNL A   1      43.647  22.764  27.090  1.00  0.00    -0.014 A 
ATOM     70  C   UNL A   1      42.844  21.618  26.918  1.00  0.00     0.010 A 
ATOM     71  C   UNL A   1      44.782  22.846  26.260  1.00  0.00     0.010 A 
ATOM     72  C   UNL A   1      43.206  20.574  26.050  1.00  0.00     0.020 A 
ATOM     73  C   UNL A   1      45.177  21.800  25.414  1.00  0.00     0.020 A 
ATOM     74  C   UNL A   1      44.392  20.659  25.323  1.00  0.00     0.054 A 
BRANCH  74  75
ATOM     75  S   UNL A   1      44.896  19.275  24.270  1.00  0.00     0.124 S 
ATOM     76  O   UNL A   1      46.343  19.239  24.467  1.00  0.00    -0.237 OA
ATOM     77  O   UNL A   1      44.152  18.157  24.843  1.00  0.00    -0.237 OA
ATOM     78  O   UNL A   1      44.469  19.682  22.933  1.00  0.00    -0.744 OA
ENDBRANCH  74  75
ENDBRANCH  55  69
BRANCH  56  79
ATOM     79  C   UNL A   1      41.454  30.368  32.711  1.00  0.00    -0.014 A 
ATOM     80  C   UNL A   1      40.321  29.562  32.952  1.00  0.00     0.010 A 
ATOM     81  C   UNL A   1      41.529  31.636  33.313  1.00  0.00     0.010 A 
ATOM     82  C   UNL A   1      39.376  29.933  33.912  1.00  0.00     0.020 A 
ATOM     83  C   UNL A   1      40.574  32.015  34.268  1.00  0.00     0.020 A 
ATOM     84  C   UNL A   1      39.546  31.130  34.607  1.00  0.00     0.054 A 
BRANCH  84  85
ATOM     85  S   UNL A   1      38.541  31.398  36.099  1.00  0.00     0.124 S 
ATOM     86  O   UNL A   1      39.385  32.290  36.886  1.00  0.00    -0.237 OA
ATOM     87  O   UNL A   1      37.334  31.997  35.535  1.00  0.00    -0.237 OA
ATOM     88  O   UNL A   1      38.375  30.051  36.637  1.00  0.00    -0.744 OA
ENDBRANCH  84  85
ENDBRANCH  56  79
BRANCH  68  89
ATOM     89  C   UNL A   1      44.949  24.062  33.554  1.00  0.00    -0.014 A 
ATOM     90  C   UNL A   1      44.092  22.988  33.836  1.00  0.00     0.010 A 
ATOM     91  C   UNL A   1      46.279  23.963  34.032  1.00  0.00     0.010 A 
ATOM     92  C   UNL A   1      44.521  21.898  34.608  1.00  0.00     0.020 A 
ATOM     93  C   UNL A   1      46.731  22.861  34.762  1.00  0.00     0.020 A 
ATOM     94  C   UNL A   1      45.837  21.842  35.070  1.00  0.00     0.054 A 
BRANCH  94  95
ATOM     95  S   UNL A   1      46.404  20.400  36.007  1.00  0.00     0.124 S 
ATOM     96  O   UNL A   1      47.828  20.371  35.680  1.00  0.00    -0.237 OA
ATOM     97  O   UNL A   1      46.087  20.758  37.387  1.00  0.00    -0.237 OA
ATOM     98  O   UNL A   1      45.611  19.303  35.458  1.00  0.00    -0.744 OA
ENDBRANCH  94  95
ENDBRANCH  68  89
ENDBRANCH  42  43
ENDBRANCH  34  37
ENDBRANCH  32  33
ENDBRANCH   1  32
TORSDOF 17
ENDMDL
MODEL 2
REMARK VINA RESULT:     -14.2      4.652     11.368
REMARK SMILES Cc1cccc(OC2(C(=O)NCCCCNC(=O)c3ccc(-c4c5nc(c(-c6ccc(S(=O)(=O)[O-])cc6)c6ccc([nH]6)c(-c6ccc(S(=O)(=O)[O-])cc6)c6nc(c(-c7ccc(S(=O)(=O)[O-])cc7)c7ccc4[nH]7)C=C6)C=C5)cc3)CCN(C(=O)c3cnc[nH]c3=O)CC2)c1
REMARK SMILES IDX 14 1 13 2 12 3 11 4 9 5 10 6 8 8 79 9 92 10 80 11 91 12
REMARK SMILES IDX 81 13 82 14 83 15 7 16 6 17 1 18 2 19 3 20 93 21 4 22 5 23
REMARK SMILES IDX 84 24 85 25 89 26 86 27 88 28 90 29 87 30 15 32 16 33 17 34
REMARK SMILES IDX 18 36 19 37 20 38 78 39 21 40 77 41 22 42 23 43 24 44 71 45
REMARK SMILES IDX 25 46 76 47 70 48 72 49 26 50 75 51 69 52 68 53 27 55 57 56
REMARK SMILES IDX 38 57 56 58 39 59 42 60 55 61 73 62 40 63 41 64 54 66 74 67
REMARK SMILES IDX 43 68 28 69 29 70 37 71 30 72 36 73 31 74 32 75 33 76 34 77
REMARK SMILES IDX 35 78 58 79 59 80 67 81 60 82 66 83 61 84 62 85 63 86 64 87
REMARK SMILES IDX 65 88 44 89 45 90 53 91 46 92 52 93 47 94 48 95 49 96 50 97
REMARK SMILES IDX 51 98
REMARK H PARENT 11 7 88 31 16 35 72 54 42 65
REMARK Flexibility Score: inf
ROOT
ATOM      1  C   UNL A   1      37.829  22.148  25.164  1.00  0.00     0.023 C 
ENDROOT
BRANCH   1   2
ATOM      2  C   UNL A   1      36.739  22.609  24.207  1.00  0.00     0.023 C 
BRANCH   2   3
ATOM      3  C   UNL A   1      35.322  22.037  24.457  1.00  0.00     0.116 C 
BRANCH   3   4
ATOM      4  N   UNL A   1      34.911  21.807  25.850  1.00  0.00    -0.353 N 
ATOM      5  C   UNL A   1      33.720  21.657  26.508  1.00  0.00     0.264 C 
ATOM      6  O   UNL A   1      33.810  21.144  27.634  1.00  0.00    -0.270 OA
ATOM      7  H   UNL A   1      35.682  21.745  26.460  1.00  0.00     0.163 HD
BRANCH   5   8
ATOM      8  C   UNL A   1      32.320  22.080  25.944  1.00  0.00     0.190 C 
ATOM      9  C   UNL A   1      31.533  22.818  27.018  1.00  0.00     0.080 C 
ATOM     10  C   UNL A   1      32.517  23.018  24.718  1.00  0.00     0.080 C 
ATOM     11  C   UNL A   1      30.267  23.494  26.550  1.00  0.00     0.124 C 
ATOM     12  C   UNL A   1      31.187  23.676  24.298  1.00  0.00     0.124 C 
ATOM     13  N   UNL A   1      30.609  24.365  25.446  1.00  0.00    -0.338 N 
ATOM     14  C   UNL A   1      30.860  25.701  25.716  1.00  0.00     0.261 C 
ATOM     15  O   UNL A   1      31.190  26.120  26.821  1.00  0.00    -0.269 OA
BRANCH   8  16
ATOM     16  O   UNL A   1      31.749  20.890  25.359  1.00  0.00    -0.477 OA
BRANCH  16  17
ATOM     17  C   UNL A   1      32.297  19.789  24.799  1.00  0.00     0.121 A 
ATOM     18  C   UNL A   1      33.678  16.295  25.383  1.00  0.00     0.044 C 
ATOM     19  C   UNL A   1      33.212  17.534  24.676  1.00  0.00    -0.047 A 
ATOM     20  C   UNL A   1      33.130  17.562  23.284  1.00  0.00     0.003 A 
ATOM     21  C   UNL A   1      32.843  18.672  25.416  1.00  0.00     0.049 A 
ATOM     22  C   UNL A   1      32.663  18.704  22.642  1.00  0.00     0.004 A 
ATOM     23  C   UNL A   1      32.241  19.799  23.399  1.00  0.00     0.046 A 
ENDBRANCH  16  17
ENDBRANCH   8  16
BRANCH  14  24
ATOM     24  C   UNL A   1      30.623  26.632  24.604  1.00  0.00     0.123 A 
ATOM     25  C   UNL A   1      29.376  26.918  24.205  1.00  0.00     0.132 A 
ATOM     26  C   UNL A   1      31.735  27.198  23.822  1.00  0.00     0.263 A 
ATOM     27  N   UNL A   1      29.058  27.749  23.154  1.00  0.00    -0.246 NA
ATOM     28  N   UNL A   1      31.358  27.982  22.768  1.00  0.00    -0.312 N 
ATOM     29  O   UNL A   1      32.920  26.992  24.062  1.00  0.00    -0.269 OA
ATOM     30  C   UNL A   1      30.048  28.227  22.482  1.00  0.00     0.199 A 
ATOM     31  H   UNL A   1      32.053  28.381  22.198  1.00  0.00     0.171 HD
ENDBRANCH  14  24
ENDBRANCH   5   8
ENDBRANCH   3   4
ENDBRANCH   2   3
ENDBRANCH   1   2
BRANCH   1  32
ATOM     32  C   UNL A   1      38.233  23.252  26.119  1.00  0.00     0.116 C 
BRANCH  32  33
ATOM     33  N   UNL A   1      39.407  22.949  26.930  1.00  0.00    -0.352 N 
ATOM     34  C   UNL A   1      40.230  23.862  27.575  1.00  0.00     0.251 C 
ATOM     35  H   UNL A   1      39.641  21.997  27.029  1.00  0.00     0.163 HD
ATOM     36  O   UNL A   1      41.318  23.568  28.037  1.00  0.00    -0.269 OA
BRANCH  34  37
ATOM     37  C   UNL A   1      39.658  25.209  27.777  1.00  0.00     0.039 A 
ATOM     38  C   UNL A   1      40.127  26.221  26.931  1.00  0.00     0.014 A 
ATOM     39  C   UNL A   1      39.039  25.501  28.989  1.00  0.00     0.014 A 
ATOM     40  C   UNL A   1      40.161  27.531  27.395  1.00  0.00     0.010 A 
ATOM     41  C   UNL A   1      39.187  26.777  29.491  1.00  0.00     0.010 A 
ATOM     42  C   UNL A   1      39.789  27.780  28.714  1.00  0.00    -0.014 A 
BRANCH  42  43
ATOM     43  C   UNL A   1      40.007  29.052  29.393  1.00  0.00     0.031 A 
ATOM     44  C   UNL A   1      38.985  30.113  29.247  1.00  0.00     0.074 A 
ATOM     45  C   UNL A   1      41.068  29.228  30.211  1.00  0.00     0.049 A 
ATOM     46  N   UNL A   1      39.178  31.364  29.492  1.00  0.00    -0.248 NA
ATOM     47  C   UNL A   1      37.648  29.830  28.732  1.00  0.00     0.031 C 
ATOM     48  C   UNL A   1      41.248  30.298  31.192  1.00  0.00     0.029 A 
ATOM     49  N   UNL A   1      42.317  28.600  30.169  1.00  0.00    -0.354 N 
ATOM     50  C   UNL A   1      37.945  31.980  29.471  1.00  0.00     0.074 A 
ATOM     51  C   UNL A   1      37.047  31.008  28.901  1.00  0.00     0.031 C 
ATOM     52  C   UNL A   1      42.561  30.454  31.420  1.00  0.00     0.029 A 
ATOM     53  C   UNL A   1      43.261  29.596  30.479  1.00  0.00     0.049 A 
ATOM     54  H   UNL A   1      42.498  27.655  29.963  1.00  0.00     0.167 HD
ATOM     55  C   UNL A   1      37.790  33.192  30.078  1.00  0.00     0.031 A 
ATOM     56  C   UNL A   1      44.241  30.011  29.624  1.00  0.00     0.031 A 
ATOM     57  C   UNL A   1      39.077  33.746  30.494  1.00  0.00     0.049 A 
ATOM     58  C   UNL A   1      44.170  31.495  29.320  1.00  0.00     0.074 A 
ATOM     59  C   UNL A   1      39.736  33.804  31.710  1.00  0.00     0.029 A 
ATOM     60  N   UNL A   1      40.016  34.071  29.521  1.00  0.00    -0.354 N 
ATOM     61  N   UNL A   1      43.123  32.239  29.556  1.00  0.00    -0.248 NA
ATOM     62  C   UNL A   1      45.252  32.248  28.689  1.00  0.00     0.031 C 
ATOM     63  C   UNL A   1      41.108  34.066  31.451  1.00  0.00     0.029 A 
ATOM     64  C   UNL A   1      41.271  34.204  30.083  1.00  0.00     0.049 A 
ATOM     65  H   UNL A   1      39.815  34.190  28.565  1.00  0.00     0.167 HD
ATOM     66  C   UNL A   1      43.360  33.519  29.132  1.00  0.00     0.074 A 
ATOM     67  C   UNL A   1      44.712  33.477  28.605  1.00  0.00     0.031 C 
ATOM     68  C   UNL A   1      42.422  34.507  29.242  1.00  0.00     0.031 A 
BRANCH  55  69
ATOM     69  C   UNL A   1      36.449  33.716  30.554  1.00  0.00    -0.014 A 
ATOM     70  C   UNL A   1      35.507  34.176  29.611  1.00  0.00     0.010 A 
ATOM     71  C   UNL A   1      36.083  33.865  31.906  1.00  0.00     0.010 A 
ATOM     72  C   UNL A   1      34.326  34.836  29.993  1.00  0.00     0.020 A 
ATOM     73  C   UNL A   1      34.926  34.550  32.306  1.00  0.00     0.020 A 
ATOM     74  C   UNL A   1      34.057  35.046  31.344  1.00  0.00     0.054 A 
BRANCH  74  75
ATOM     75  S   UNL A   1      32.577  35.970  31.827  1.00  0.00     0.124 S 
ATOM     76  O   UNL A   1      32.046  36.411  30.540  1.00  0.00    -0.237 OA
ATOM     77  O   UNL A   1      31.789  34.958  32.523  1.00  0.00    -0.237 OA
ATOM     78  O   UNL A   1      33.098  37.041  32.675  1.00  0.00    -0.744 OA
ENDBRANCH  74  75
ENDBRANCH  55  69
BRANCH  56  79
ATOM     79  C   UNL A   1      44.702  28.967  28.666  1.00  0.00    -0.014 A 
ATOM     80  C   UNL A   1      44.060  28.909  27.410  1.00  0.00     0.010 A 
ATOM     81  C   UNL A   1      45.971  28.382  28.810  1.00  0.00     0.010 A 
ATOM     82  C   UNL A   1      44.744  28.442  26.284  1.00  0.00     0.020 A 
ATOM     83  C   UNL A   1      46.654  27.902  27.683  1.00  0.00     0.020 A 
ATOM     84  C   UNL A   1      46.059  28.001  26.422  1.00  0.00     0.054 A 
BRANCH  84  85
ATOM     85  S   UNL A   1      47.043  27.774  24.908  1.00  0.00     0.124 S 
ATOM     86  O   UNL A   1      46.473  26.554  24.346  1.00  0.00    -0.237 OA
ATOM     87  O   UNL A   1      46.750  29.007  24.181  1.00  0.00    -0.237 OA
ATOM     88  O   UNL A   1      48.408  27.657  25.412  1.00  0.00    -0.744 OA
ENDBRANCH  84  85
ENDBRANCH  56  79
BRANCH  68  89
ATOM     89  C   UNL A   1      42.511  35.887  28.633  1.00  0.00    -0.014 A 
ATOM     90  C   UNL A   1      41.906  36.256  27.421  1.00  0.00     0.010 A 
ATOM     91  C   UNL A   1      43.125  36.921  29.383  1.00  0.00     0.010 A 
ATOM     92  C   UNL A   1      41.964  37.577  26.952  1.00  0.00     0.020 A 
ATOM     93  C   UNL A   1      43.149  38.248  28.947  1.00  0.00     0.020 A 
ATOM     94  C   UNL A   1      42.588  38.565  27.716  1.00  0.00     0.054 A 
BRANCH  94  95
ATOM     95  S   UNL A   1      42.598  40.280  27.137  1.00  0.00     0.124 S 
ATOM     96  O   UNL A   1      43.045  40.997  28.329  1.00  0.00    -0.237 OA
ATOM     97  O   UNL A   1      43.553  40.249  26.031  1.00  0.00    -0.237 OA
ATOM     98  O   UNL A   1      41.211  40.516  26.745  1.00  0.00    -0.744 OA
ENDBRANCH  94  95
ENDBRANCH  68  89
ENDBRANCH  42  43
ENDBRANCH  34  37
ENDBRANCH  32  33
ENDBRANCH   1  32
TORSDOF 17
ENDMDL
MODEL 3
REMARK VINA RESULT:     -14.2      4.768     11.486
REMARK SMILES Cc1cccc(OC2(C(=O)NCCCCNC(=O)c3ccc(-c4c5nc(c(-c6ccc(S(=O)(=O)[O-])cc6)c6ccc([nH]6)c(-c6ccc(S(=O)(=O)[O-])cc6)c6nc(c(-c7ccc(S(=O)(=O)[O-])cc7)c7ccc4[nH]7)C=C6)C=C5)cc3)CCN(C(=O)c3cnc[nH]c3=O)CC2)c1
REMARK SMILES IDX 14 1 13 2 12 3 11 4 9 5 10 6 8 8 79 9 92 10 80 11 91 12
REMARK SMILES IDX 81 13 82 14 83 15 7 16 6 17 1 18 2 19 3 20 93 21 4 22 5 23
REMARK SMILES IDX 84 24 85 25 89 26 86 27 88 28 90 29 87 30 15 32 16 33 17 34
REMARK SMILES IDX 18 36 19 37 20 38 78 39 21 40 77 41 22 42 23 43 24 44 71 45
REMARK SMILES IDX 25 46 76 47 70 48 72 49 26 50 75 51 69 52 68 53 27 55 57 56
REMARK SMILES IDX 38 57 56 58 39 59 42 60 55 61 73 62 40 63 41 64 54 66 74 67
REMARK SMILES IDX 43 68 28 69 29 70 37 71 30 72 36 73 31 74 32 75 33 76 34 77
REMARK SMILES IDX 35 78 58 79 59 80 67 81 60 82 66 83 61 84 62 85 63 86 64 87
REMARK SMILES IDX 65 88 44 89 45 90 53 91 46 92 52 93 47 94 48 95 49 96 50 97
REMARK SMILES IDX 51 98
REMARK H PARENT 11 7 88 31 16 35 72 54 42 65
REMARK Flexibility Score: inf
ROOT
ATOM      1  C   UNL A   1      37.157  22.162  25.823  1.00  0.00     0.023 C 
ENDROOT
BRANCH   1   2
ATOM      2  C   UNL A   1      36.737  22.135  24.360  1.00  0.00     0.023 C 
BRANCH   2   3
ATOM      3  C   UNL A   1      35.941  23.363  23.854  1.00  0.00     0.116 C 
BRANCH   3   4
ATOM      4  N   UNL A   1      34.956  23.148  22.784  1.00  0.00    -0.353 N 
ATOM      5  C   UNL A   1      33.717  23.644  22.480  1.00  0.00     0.264 C 
ATOM      6  O   UNL A   1      33.356  23.458  21.307  1.00  0.00    -0.270 OA
ATOM      7  H   UNL A   1      35.263  22.485  22.123  1.00  0.00     0.163 HD
BRANCH   5   8
ATOM      8  C   UNL A   1      32.775  24.394  23.484  1.00  0.00     0.190 C 
ATOM      9  C   UNL A   1      33.582  25.403  24.290  1.00  0.00     0.080 C 
ATOM     10  C   UNL A   1      31.663  25.141  22.694  1.00  0.00     0.080 C 
ATOM     11  C   UNL A   1      32.773  26.366  25.126  1.00  0.00     0.124 C 
ATOM     12  C   UNL A   1      30.882  26.108  23.606  1.00  0.00     0.124 C 
ATOM     13  N   UNL A   1      31.818  27.019  24.254  1.00  0.00    -0.338 N 
ATOM     14  C   UNL A   1      32.157  28.249  23.713  1.00  0.00     0.261 C 
ATOM     15  O   UNL A   1      33.312  28.644  23.595  1.00  0.00    -0.269 OA
BRANCH   8  16
ATOM     16  O   UNL A   1      32.045  23.368  24.190  1.00  0.00    -0.477 OA
BRANCH  16  17
ATOM     17  C   UNL A   1      32.386  22.137  24.632  1.00  0.00     0.121 A 
ATOM     18  C   UNL A   1      32.565  18.424  23.832  1.00  0.00     0.044 C 
ATOM     19  C   UNL A   1      32.732  19.726  24.559  1.00  0.00    -0.047 A 
ATOM     20  C   UNL A   1      33.474  19.783  25.739  1.00  0.00     0.003 A 
ATOM     21  C   UNL A   1      32.151  20.901  24.047  1.00  0.00     0.049 A 
ATOM     22  C   UNL A   1      33.651  21.002  26.385  1.00  0.00     0.004 A 
ATOM     23  C   UNL A   1      33.120  22.166  25.824  1.00  0.00     0.046 A 
ENDBRANCH  16  17
ENDBRANCH   8  16
BRANCH  14  24
ATOM     24  C   UNL A   1      31.028  29.119  23.354  1.00  0.00     0.123 A 
ATOM     25  C   UNL A   1      30.445  29.021  22.151  1.00  0.00     0.132 A 
ATOM     26  C   UNL A   1      30.568  30.194  24.249  1.00  0.00     0.263 A 
ATOM     27  N   UNL A   1      29.407  29.814  21.715  1.00  0.00    -0.246 NA
ATOM     28  N   UNL A   1      29.564  30.972  23.746  1.00  0.00    -0.312 N 
ATOM     29  O   UNL A   1      31.037  30.410  25.362  1.00  0.00    -0.269 OA
ATOM     30  C   UNL A   1      29.027  30.752  22.513  1.00  0.00     0.199 A 
ATOM     31  H   UNL A   1      29.220  31.717  24.290  1.00  0.00     0.171 HD
ENDBRANCH  14  24
ENDBRANCH   5   8
ENDBRANCH   3   4
ENDBRANCH   2   3
ENDBRANCH   1   2
BRANCH   1  32
ATOM     32  C   UNL A   1      38.056  23.344  26.121  1.00  0.00     0.116 C 
BRANCH  32  33
ATOM     33  N   UNL A   1      39.233  23.022  26.920  1.00  0.00    -0.352 N 
ATOM     34  C   UNL A   1      40.097  23.921  27.530  1.00  0.00     0.251 C 
ATOM     35  H   UNL A   1      39.436  22.065  27.039  1.00  0.00     0.163 HD
ATOM     36  O   UNL A   1      41.182  23.601  27.981  1.00  0.00    -0.269 OA
BRANCH  34  37
ATOM     37  C   UNL A   1      39.574  25.291  27.707  1.00  0.00     0.039 A 
ATOM     38  C   UNL A   1      40.117  26.280  26.879  1.00  0.00     0.014 A 
ATOM     39  C   UNL A   1      38.922  25.612  28.895  1.00  0.00     0.014 A 
ATOM     40  C   UNL A   1      40.188  27.589  27.342  1.00  0.00     0.010 A 
ATOM     41  C   UNL A   1      39.103  26.882  29.400  1.00  0.00     0.010 A 
ATOM     42  C   UNL A   1      39.775  27.857  28.646  1.00  0.00    -0.014 A 
BRANCH  42  43
ATOM     43  C   UNL A   1      40.020  29.121  29.330  1.00  0.00     0.031 A 
ATOM     44  C   UNL A   1      39.000  30.188  29.226  1.00  0.00     0.074 A 
ATOM     45  C   UNL A   1      41.106  29.283  30.119  1.00  0.00     0.049 A 
ATOM     46  N   UNL A   1      39.206  31.436  29.478  1.00  0.00    -0.248 NA
ATOM     47  C   UNL A   1      37.647  29.917  28.747  1.00  0.00     0.031 C 
ATOM     48  C   UNL A   1      41.320  30.342  31.105  1.00  0.00     0.029 A 
ATOM     49  N   UNL A   1      42.350  28.650  30.033  1.00  0.00    -0.354 N 
ATOM     50  C   UNL A   1      37.977  32.058  29.500  1.00  0.00     0.074 A 
ATOM     51  C   UNL A   1      37.057  31.096  28.947  1.00  0.00     0.031 C 
ATOM     52  C   UNL A   1      42.640  30.489  31.295  1.00  0.00     0.029 A 
ATOM     53  C   UNL A   1      43.307  29.638  30.325  1.00  0.00     0.049 A 
ATOM     54  H   UNL A   1      42.520  27.706  29.812  1.00  0.00     0.167 HD
ATOM     55  C   UNL A   1      37.846  33.264  30.123  1.00  0.00     0.031 A 
ATOM     56  C   UNL A   1      44.264  30.057  29.446  1.00  0.00     0.031 A 
ATOM     57  C   UNL A   1      39.147  33.808  30.507  1.00  0.00     0.049 A 
ATOM     58  C   UNL A   1      44.191  31.545  29.159  1.00  0.00     0.074 A 
ATOM     59  C   UNL A   1      39.842  33.850  31.703  1.00  0.00     0.029 A 
ATOM     60  N   UNL A   1      40.059  34.139  29.509  1.00  0.00    -0.354 N 
ATOM     61  N   UNL A   1      43.156  32.291  29.433  1.00  0.00    -0.248 NA
ATOM     62  C   UNL A   1      45.258  32.299  28.505  1.00  0.00     0.031 C 
ATOM     63  C   UNL A   1      41.208  34.108  31.406  1.00  0.00     0.029 A 
ATOM     64  C   UNL A   1      41.330  34.259  30.035  1.00  0.00     0.049 A 
ATOM     65  H   UNL A   1      39.830  34.268  28.561  1.00  0.00     0.167 HD
ATOM     66  C   UNL A   1      43.386  33.575  29.015  1.00  0.00     0.074 A 
ATOM     67  C   UNL A   1      44.723  33.531  28.448  1.00  0.00     0.031 C 
ATOM     68  C   UNL A   1      42.457  34.565  29.163  1.00  0.00     0.031 A 
BRANCH  55  69
ATOM     69  C   UNL A   1      36.522  33.789  30.644  1.00  0.00    -0.014 A 
ATOM     70  C   UNL A   1      35.471  34.046  29.740  1.00  0.00     0.010 A 
ATOM     71  C   UNL A   1      36.270  34.133  31.987  1.00  0.00     0.010 A 
ATOM     72  C   UNL A   1      34.289  34.699  30.131  1.00  0.00     0.020 A 
ATOM     73  C   UNL A   1      35.113  34.815  32.390  1.00  0.00     0.020 A 
ATOM     74  C   UNL A   1      34.130  35.107  31.454  1.00  0.00     0.054 A 
BRANCH  74  75
ATOM     75  S   UNL A   1      32.643  36.021  31.934  1.00  0.00     0.124 S 
ATOM     76  O   UNL A   1      31.799  34.973  32.503  1.00  0.00    -0.237 OA
ATOM     77  O   UNL A   1      33.167  36.996  32.885  1.00  0.00    -0.237 OA
ATOM     78  O   UNL A   1      32.158  36.583  30.675  1.00  0.00    -0.744 OA
ENDBRANCH  74  75
ENDBRANCH  55  69
BRANCH  56  79
ATOM     79  C   UNL A   1      44.691  29.021  28.464  1.00  0.00    -0.014 A 
ATOM     80  C   UNL A   1      44.086  29.046  27.189  1.00  0.00     0.010 A 
ATOM     81  C   UNL A   1      45.918  28.355  28.623  1.00  0.00     0.010 A 
ATOM     82  C   UNL A   1      44.775  28.578  26.067  1.00  0.00     0.020 A 
ATOM     83  C   UNL A   1      46.605  27.874  27.499  1.00  0.00     0.020 A 
ATOM     84  C   UNL A   1      46.056  28.052  26.226  1.00  0.00     0.054 A 
BRANCH  84  85
ATOM     85  S   UNL A   1      47.072  27.818  24.734  1.00  0.00     0.124 S 
ATOM     86  O   UNL A   1      46.597  28.889  23.864  1.00  0.00    -0.237 OA
ATOM     87  O   UNL A   1      48.421  27.985  25.270  1.00  0.00    -0.237 OA
ATOM     88  O   UNL A   1      46.733  26.464  24.308  1.00  0.00    -0.744 OA
ENDBRANCH  84  85
ENDBRANCH  56  79
BRANCH  68  89
ATOM     89  C   UNL A   1      42.536  35.951  28.566  1.00  0.00    -0.014 A 
ATOM     90  C   UNL A   1      41.889  36.339  27.383  1.00  0.00     0.010 A 
ATOM     91  C   UNL A   1      43.187  36.971  29.303  1.00  0.00     0.010 A 
ATOM     92  C   UNL A   1      41.940  37.664  26.925  1.00  0.00     0.020 A 
ATOM     93  C   UNL A   1      43.206  38.303  28.881  1.00  0.00     0.020 A 
ATOM     94  C   UNL A   1      42.601  38.638  27.676  1.00  0.00     0.054 A 
BRANCH  94  95
ATOM     95  S   UNL A   1      42.605  40.360  27.115  1.00  0.00     0.124 S 
ATOM     96  O   UNL A   1      43.513  40.301  25.972  1.00  0.00    -0.237 OA
ATOM     97  O   UNL A   1      41.201  40.602  26.786  1.00  0.00    -0.237 OA
ATOM     98  O   UNL A   1      43.101  41.096  28.275  1.00  0.00    -0.744 OA
ENDBRANCH  94  95
ENDBRANCH  68  89
ENDBRANCH  42  43
ENDBRANCH  34  37
ENDBRANCH  32  33
ENDBRANCH   1  32
TORSDOF 17
ENDMDL
