MODEL 1
REMARK VINA RESULT:     -10.4      0.000      0.000
REMARK SMILES CC[C@@](C)(C(=O)NCCCCNC(=O)c1ccc(-c2c3nc(c(-c4ccc(S(=O)(=O)[O-])cc4)c4ccc([nH]4)c(-c4ccc(S(=O)(=O)[O-])cc4)c4nc(c(-c5ccc(S(=O)(=O)[O-])cc5)c5ccc2[nH]5)C=C4)C=C3)cc1)n1nnnc1Cc1cccs1
REMARK SMILES IDX 9 1 8 2 7 3 5 4 6 5 3 7 4 8 2 9 1 10 75 11 76 12 79 13 77 14
REMARK SMILES IDX 78 15 80 16 81 17 82 18 85 19 83 20 84 21 10 22 11 23 12 24
REMARK SMILES IDX 13 25 14 27 15 28 16 29 74 30 17 31 73 32 18 33 19 34 20 35
REMARK SMILES IDX 67 36 21 37 72 38 66 39 68 40 22 41 71 42 65 43 64 44 23 46
REMARK SMILES IDX 53 47 34 48 52 49 35 50 38 51 51 52 69 53 36 54 37 55 50 57
REMARK SMILES IDX 70 58 39 59 24 60 25 61 33 62 26 63 32 64 27 65 28 66 29 67
REMARK SMILES IDX 30 68 31 69 54 70 55 71 63 72 56 73 62 74 57 75 58 76 59 77
REMARK SMILES IDX 60 78 61 79 40 80 41 81 49 82 42 83 48 84 43 85 44 86 45 87
REMARK SMILES IDX 46 88 47 89
REMARK H PARENT 7 6 12 26 68 45 38 56
REMARK Flexibility Score: inf
ROOT
ATOM      1  C   UNL A   1      32.592  27.429  26.732  1.00  0.00     0.023 C 
ENDROOT
BRANCH   1   2
ATOM      2  C   UNL A   1      32.142  27.878  25.347  1.00  0.00     0.116 C 
BRANCH   2   3
ATOM      3  N   UNL A   1      32.610  27.003  24.283  1.00  0.00    -0.354 N 
ATOM      4  C   UNL A   1      32.049  25.913  23.668  1.00  0.00     0.247 C 
ATOM      5  O   UNL A   1      32.553  25.615  22.581  1.00  0.00    -0.272 OA
ATOM      6  H   UNL A   1      33.502  27.238  23.938  1.00  0.00     0.163 HD
BRANCH   4   7
ATOM      7  C   UNL A   1      30.805  25.163  24.242  1.00  0.00     0.142 C 
ATOM      8  C   UNL A   1      30.366  24.201  23.126  1.00  0.00     0.048 C 
BRANCH   7   9
ATOM      9  C   UNL A   1      29.694  26.193  24.631  1.00  0.00     0.037 C 
ATOM     10  C   UNL A   1      29.129  27.015  23.477  1.00  0.00     0.007 C 
ENDBRANCH   7   9
BRANCH   7  11
ATOM     11  N   UNL A   1      31.201  24.460  25.490  1.00  0.00    -0.214 N 
ATOM     12  N   UNL A   1      30.301  24.455  26.510  1.00  0.00    -0.044 NA
ATOM     13  C   UNL A   1      32.217  23.577  25.825  1.00  0.00     0.157 A 
ATOM     14  N   UNL A   1      30.792  23.665  27.444  1.00  0.00    -0.024 NA
ATOM     15  N   UNL A   1      31.958  23.103  27.034  1.00  0.00    -0.113 NA
BRANCH  13  16
ATOM     16  C   UNL A   1      33.385  23.106  25.027  1.00  0.00     0.125 C 
BRANCH  16  17
ATOM     17  C   UNL A   1      33.388  21.617  24.810  1.00  0.00     0.012 A 
ATOM     18  C   UNL A   1      32.328  20.816  24.427  1.00  0.00     0.016 A 
ATOM     19  S   UNL A   1      34.826  20.701  24.980  1.00  0.00    -0.148 S 
ATOM     20  C   UNL A   1      32.692  19.444  24.319  1.00  0.00     0.012 A 
ATOM     21  C   UNL A   1      34.021  19.240  24.615  1.00  0.00     0.065 A 
ENDBRANCH  16  17
ENDBRANCH  13  16
ENDBRANCH   7  11
ENDBRANCH   4   7
ENDBRANCH   2   3
ENDBRANCH   1   2
BRANCH   1  22
ATOM     22  C   UNL A   1      33.639  28.326  27.392  1.00  0.00     0.023 C 
BRANCH  22  23
ATOM     23  C   UNL A   1      33.828  29.701  26.756  1.00  0.00     0.116 C 
BRANCH  23  24
ATOM     24  N   UNL A   1      33.752  30.799  27.711  1.00  0.00    -0.352 N 
ATOM     25  C   UNL A   1      34.667  31.183  28.664  1.00  0.00     0.251 C 
ATOM     26  H   UNL A   1      32.931  31.342  27.669  1.00  0.00     0.163 HD
ATOM     27  O   UNL A   1      34.396  32.082  29.456  1.00  0.00    -0.269 OA
BRANCH  25  28
ATOM     28  C   UNL A   1      35.958  30.473  28.750  1.00  0.00     0.039 A 
ATOM     29  C   UNL A   1      36.784  30.436  27.624  1.00  0.00     0.014 A 
ATOM     30  C   UNL A   1      36.384  29.924  29.962  1.00  0.00     0.014 A 
ATOM     31  C   UNL A   1      38.085  29.943  27.742  1.00  0.00     0.010 A 
ATOM     32  C   UNL A   1      37.699  29.490  30.092  1.00  0.00     0.010 A 
ATOM     33  C   UNL A   1      38.571  29.523  28.992  1.00  0.00    -0.014 A 
BRANCH  33  34
ATOM     34  C   UNL A   1      40.004  29.193  29.198  1.00  0.00     0.031 A 
ATOM     35  C   UNL A   1      40.981  30.266  29.586  1.00  0.00     0.074 A 
ATOM     36  C   UNL A   1      40.440  27.948  28.914  1.00  0.00     0.049 A 
ATOM     37  N   UNL A   1      42.284  30.195  29.675  1.00  0.00    -0.248 NA
ATOM     38  C   UNL A   1      40.428  31.597  29.887  1.00  0.00     0.031 C 
ATOM     39  C   UNL A   1      39.597  26.831  28.474  1.00  0.00     0.029 A 
ATOM     40  N   UNL A   1      41.708  27.419  28.923  1.00  0.00    -0.354 N 
ATOM     41  C   UNL A   1      42.710  31.475  30.013  1.00  0.00     0.074 A 
ATOM     42  C   UNL A   1      41.530  32.307  30.092  1.00  0.00     0.031 C 
ATOM     43  C   UNL A   1      40.369  25.755  28.256  1.00  0.00     0.029 A 
ATOM     44  C   UNL A   1      41.763  26.111  28.497  1.00  0.00     0.049 A 
ATOM     45  H   UNL A   1      42.501  27.926  29.209  1.00  0.00     0.167 HD
ATOM     46  C   UNL A   1      43.970  31.911  30.243  1.00  0.00     0.031 A 
ATOM     47  C   UNL A   1      42.817  25.297  28.293  1.00  0.00     0.031 A 
ATOM     48  C   UNL A   1      45.139  31.073  30.194  1.00  0.00     0.049 A 
ATOM     49  C   UNL A   1      44.205  25.811  28.557  1.00  0.00     0.074 A 
ATOM     50  C   UNL A   1      46.444  31.403  30.516  1.00  0.00     0.029 A 
ATOM     51  N   UNL A   1      45.149  29.748  29.789  1.00  0.00    -0.354 N 
ATOM     52  N   UNL A   1      44.577  26.997  28.975  1.00  0.00    -0.248 NA
ATOM     53  C   UNL A   1      45.317  24.878  28.322  1.00  0.00     0.031 C 
ATOM     54  C   UNL A   1      47.252  30.292  30.258  1.00  0.00     0.029 A 
ATOM     55  C   UNL A   1      46.443  29.257  29.817  1.00  0.00     0.049 A 
ATOM     56  H   UNL A   1      44.355  29.232  29.522  1.00  0.00     0.167 HD
ATOM     57  C   UNL A   1      45.962  26.948  29.065  1.00  0.00     0.074 A 
ATOM     58  C   UNL A   1      46.362  25.611  28.678  1.00  0.00     0.031 C 
ATOM     59  C   UNL A   1      46.827  27.925  29.429  1.00  0.00     0.031 A 
BRANCH  46  60
ATOM     60  C   UNL A   1      44.166  33.365  30.571  1.00  0.00    -0.014 A 
ATOM     61  C   UNL A   1      44.275  34.328  29.554  1.00  0.00     0.010 A 
ATOM     62  C   UNL A   1      44.146  33.782  31.915  1.00  0.00     0.010 A 
ATOM     63  C   UNL A   1      44.380  35.684  29.875  1.00  0.00     0.020 A 
ATOM     64  C   UNL A   1      44.231  35.138  32.239  1.00  0.00     0.020 A 
ATOM     65  C   UNL A   1      44.355  36.080  31.216  1.00  0.00     0.054 A 
BRANCH  65  66
ATOM     66  S   UNL A   1      44.431  37.851  31.601  1.00  0.00     0.124 S 
ATOM     67  O   UNL A   1      43.562  37.942  32.772  1.00  0.00    -0.237 OA
ATOM     68  O   UNL A   1      45.853  38.064  31.858  1.00  0.00    -0.237 OA
ATOM     69  O   UNL A   1      43.917  38.491  30.393  1.00  0.00    -0.744 OA
ENDBRANCH  65  66
ENDBRANCH  46  60
BRANCH  47  70
ATOM     70  C   UNL A   1      42.609  23.916  27.782  1.00  0.00    -0.014 A 
ATOM     71  C   UNL A   1      42.641  23.652  26.402  1.00  0.00     0.010 A 
ATOM     72  C   UNL A   1      42.357  22.860  28.676  1.00  0.00     0.010 A 
ATOM     73  C   UNL A   1      42.395  22.362  25.922  1.00  0.00     0.020 A 
ATOM     74  C   UNL A   1      42.136  21.563  28.202  1.00  0.00     0.020 A 
ATOM     75  C   UNL A   1      42.140  21.327  26.826  1.00  0.00     0.054 A 
BRANCH  75  76
ATOM     76  S   UNL A   1      41.851  19.653  26.188  1.00  0.00     0.124 S 
ATOM     77  O   UNL A   1      40.413  19.669  25.939  1.00  0.00    -0.237 OA
ATOM     78  O   UNL A   1      42.701  19.613  25.000  1.00  0.00    -0.237 OA
ATOM     79  O   UNL A   1      42.289  18.792  27.285  1.00  0.00    -0.744 OA
ENDBRANCH  75  76
ENDBRANCH  47  70
BRANCH  59  80
ATOM     80  C   UNL A   1      48.291  27.586  29.442  1.00  0.00    -0.014 A 
ATOM     81  C   UNL A   1      49.093  27.820  28.311  1.00  0.00     0.010 A 
ATOM     82  C   UNL A   1      48.885  27.097  30.619  1.00  0.00     0.010 A 
ATOM     83  C   UNL A   1      50.464  27.551  28.353  1.00  0.00     0.020 A 
ATOM     84  C   UNL A   1      50.258  26.848  30.671  1.00  0.00     0.020 A 
ATOM     85  C   UNL A   1      51.038  27.068  29.533  1.00  0.00     0.054 A 
BRANCH  85  86
ATOM     86  S   UNL A   1      52.829  26.787  29.583  1.00  0.00     0.124 S 
ATOM     87  O   UNL A   1      53.067  26.122  28.305  1.00  0.00    -0.237 OA
ATOM     88  O   UNL A   1      53.365  28.141  29.697  1.00  0.00    -0.237 OA
ATOM     89  O   UNL A   1      53.015  25.950  30.766  1.00  0.00    -0.744 OA
ENDBRANCH  85  86
ENDBRANCH  59  80
ENDBRANCH  33  34
ENDBRANCH  25  28
ENDBRANCH  23  24
ENDBRANCH  22  23
ENDBRANCH   1  22
TORSDOF 18
ENDMDL
MODEL 2
REMARK VINA RESULT:     -10.2      1.837      3.504
REMARK SMILES CC[C@@](C)(C(=O)NCCCCNC(=O)c1ccc(-c2c3nc(c(-c4ccc(S(=O)(=O)[O-])cc4)c4ccc([nH]4)c(-c4ccc(S(=O)(=O)[O-])cc4)c4nc(c(-c5ccc(S(=O)(=O)[O-])cc5)c5ccc2[nH]5)C=C4)C=C3)cc1)n1nnnc1Cc1cccs1
REMARK SMILES IDX 9 1 8 2 7 3 5 4 6 5 3 7 4 8 2 9 1 10 75 11 76 12 79 13 77 14
REMARK SMILES IDX 78 15 80 16 81 17 82 18 85 19 83 20 84 21 10 22 11 23 12 24
REMARK SMILES IDX 13 25 14 27 15 28 16 29 74 30 17 31 73 32 18 33 19 34 20 35
REMARK SMILES IDX 67 36 21 37 72 38 66 39 68 40 22 41 71 42 65 43 64 44 23 46
REMARK SMILES IDX 53 47 34 48 52 49 35 50 38 51 51 52 69 53 36 54 37 55 50 57
REMARK SMILES IDX 70 58 39 59 24 60 25 61 33 62 26 63 32 64 27 65 28 66 29 67
REMARK SMILES IDX 30 68 31 69 54 70 55 71 63 72 56 73 62 74 57 75 58 76 59 77
REMARK SMILES IDX 60 78 61 79 40 80 41 81 49 82 42 83 48 84 43 85 44 86 45 87
REMARK SMILES IDX 46 88 47 89
REMARK H PARENT 7 6 12 26 68 45 38 56
REMARK Flexibility Score: inf
ROOT
ATOM      1  C   UNL A   1      34.004  27.198  26.490  1.00  0.00     0.023 C 
ENDROOT
BRANCH   1   2
ATOM      2  C   UNL A   1      33.208  26.089  25.812  1.00  0.00     0.116 C 
BRANCH   2   3
ATOM      3  N   UNL A   1      31.802  26.087  26.182  1.00  0.00    -0.354 N 
ATOM      4  C   UNL A   1      30.651  25.971  25.444  1.00  0.00     0.247 C 
ATOM      5  O   UNL A   1      29.649  25.661  26.094  1.00  0.00    -0.272 OA
ATOM      6  H   UNL A   1      31.644  26.189  27.148  1.00  0.00     0.163 HD
BRANCH   4   7
ATOM      7  C   UNL A   1      30.624  26.116  23.890  1.00  0.00     0.142 C 
ATOM      8  C   UNL A   1      29.154  26.403  23.539  1.00  0.00     0.048 C 
BRANCH   7   9
ATOM      9  C   UNL A   1      31.166  24.810  23.221  1.00  0.00     0.037 C 
ATOM     10  C   UNL A   1      30.669  23.505  23.834  1.00  0.00     0.007 C 
ENDBRANCH   7   9
BRANCH   7  11
ATOM     11  N   UNL A   1      31.538  27.219  23.494  1.00  0.00    -0.214 N 
ATOM     12  N   UNL A   1      32.575  26.898  22.674  1.00  0.00    -0.044 NA
ATOM     13  C   UNL A   1      31.481  28.603  23.574  1.00  0.00     0.157 A 
ATOM     14  N   UNL A   1      33.158  28.032  22.340  1.00  0.00    -0.024 NA
ATOM     15  N   UNL A   1      32.490  29.090  22.868  1.00  0.00    -0.113 NA
BRANCH  13  16
ATOM     16  C   UNL A   1      30.476  29.487  24.229  1.00  0.00     0.125 C 
BRANCH  16  17
ATOM     17  C   UNL A   1      29.543  30.146  23.249  1.00  0.00     0.012 A 
ATOM     18  C   UNL A   1      29.179  29.694  21.994  1.00  0.00     0.016 A 
ATOM     19  S   UNL A   1      28.740  31.609  23.637  1.00  0.00    -0.148 S 
ATOM     20  C   UNL A   1      28.274  30.576  21.338  1.00  0.00     0.012 A 
ATOM     21  C   UNL A   1      27.969  31.670  22.115  1.00  0.00     0.065 A 
ENDBRANCH  16  17
ENDBRANCH  13  16
ENDBRANCH   7  11
ENDBRANCH   4   7
ENDBRANCH   2   3
ENDBRANCH   1   2
BRANCH   1  22
ATOM     22  C   UNL A   1      33.231  28.496  26.725  1.00  0.00     0.023 C 
BRANCH  22  23
ATOM     23  C   UNL A   1      34.033  29.784  26.548  1.00  0.00     0.116 C 
BRANCH  23  24
ATOM     24  N   UNL A   1      33.875  30.722  27.652  1.00  0.00    -0.352 N 
ATOM     25  C   UNL A   1      34.718  30.962  28.713  1.00  0.00     0.251 C 
ATOM     26  H   UNL A   1      33.049  31.259  27.638  1.00  0.00     0.163 HD
ATOM     27  O   UNL A   1      34.380  31.727  29.612  1.00  0.00    -0.269 OA
BRANCH  25  28
ATOM     28  C   UNL A   1      36.013  30.256  28.777  1.00  0.00     0.039 A 
ATOM     29  C   UNL A   1      36.813  30.208  27.633  1.00  0.00     0.014 A 
ATOM     30  C   UNL A   1      36.467  29.721  29.985  1.00  0.00     0.014 A 
ATOM     31  C   UNL A   1      38.118  29.720  27.727  1.00  0.00     0.010 A 
ATOM     32  C   UNL A   1      37.787  29.292  30.090  1.00  0.00     0.010 A 
ATOM     33  C   UNL A   1      38.633  29.315  28.970  1.00  0.00    -0.014 A 
BRANCH  33  34
ATOM     34  C   UNL A   1      40.071  28.992  29.147  1.00  0.00     0.031 A 
ATOM     35  C   UNL A   1      41.049  30.066  29.531  1.00  0.00     0.074 A 
ATOM     36  C   UNL A   1      40.509  27.753  28.841  1.00  0.00     0.049 A 
ATOM     37  N   UNL A   1      42.354  30.001  29.596  1.00  0.00    -0.248 NA
ATOM     38  C   UNL A   1      40.494  31.389  29.857  1.00  0.00     0.031 C 
ATOM     39  C   UNL A   1      39.665  26.636  28.403  1.00  0.00     0.029 A 
ATOM     40  N   UNL A   1      41.780  27.230  28.821  1.00  0.00    -0.354 N 
ATOM     41  C   UNL A   1      42.778  31.279  29.941  1.00  0.00     0.074 A 
ATOM     42  C   UNL A   1      41.595  32.103  30.051  1.00  0.00     0.031 C 
ATOM     43  C   UNL A   1      40.439  25.567  28.158  1.00  0.00     0.029 A 
ATOM     44  C   UNL A   1      41.835  25.928  28.378  1.00  0.00     0.049 A 
ATOM     45  H   UNL A   1      42.575  27.739  29.099  1.00  0.00     0.167 HD
ATOM     46  C   UNL A   1      44.040  31.719  30.155  1.00  0.00     0.031 A 
ATOM     47  C   UNL A   1      42.890  25.123  28.147  1.00  0.00     0.031 A 
ATOM     48  C   UNL A   1      45.212  30.889  30.075  1.00  0.00     0.049 A 
ATOM     49  C   UNL A   1      44.279  25.642  28.393  1.00  0.00     0.074 A 
ATOM     50  C   UNL A   1      46.521  31.223  30.378  1.00  0.00     0.029 A 
ATOM     51  N   UNL A   1      45.223  29.569  29.654  1.00  0.00    -0.354 N 
ATOM     52  N   UNL A   1      44.652  26.825  28.818  1.00  0.00    -0.248 NA
ATOM     53  C   UNL A   1      45.392  24.718  28.126  1.00  0.00     0.031 C 
ATOM     54  C   UNL A   1      47.331  30.120  30.092  1.00  0.00     0.029 A 
ATOM     55  C   UNL A   1      46.520  29.086  29.653  1.00  0.00     0.049 A 
ATOM     56  H   UNL A   1      44.427  29.052  29.395  1.00  0.00     0.167 HD
ATOM     57  C   UNL A   1      46.039  26.783  28.883  1.00  0.00     0.074 A 
ATOM     58  C   UNL A   1      46.439  25.453  28.473  1.00  0.00     0.031 C 
ATOM     59  C   UNL A   1      46.904  27.761  29.243  1.00  0.00     0.031 A 
BRANCH  46  60
ATOM     60  C   UNL A   1      44.233  33.171  30.496  1.00  0.00    -0.014 A 
ATOM     61  C   UNL A   1      44.319  34.146  29.489  1.00  0.00     0.010 A 
ATOM     62  C   UNL A   1      44.235  33.571  31.845  1.00  0.00     0.010 A 
ATOM     63  C   UNL A   1      44.422  35.499  29.825  1.00  0.00     0.020 A 
ATOM     64  C   UNL A   1      44.318  34.925  32.184  1.00  0.00     0.020 A 
ATOM     65  C   UNL A   1      44.419  35.879  31.171  1.00  0.00     0.054 A 
BRANCH  65  66
ATOM     66  S   UNL A   1      44.491  37.646  31.575  1.00  0.00     0.124 S 
ATOM     67  O   UNL A   1      45.914  37.833  31.848  1.00  0.00    -0.237 OA
ATOM     68  O   UNL A   1      44.000  38.276  30.352  1.00  0.00    -0.237 OA
ATOM     69  O   UNL A   1      43.613  37.774  32.734  1.00  0.00    -0.744 OA
ENDBRANCH  65  66
ENDBRANCH  46  60
BRANCH  47  70
ATOM     70  C   UNL A   1      42.680  23.746  27.623  1.00  0.00    -0.014 A 
ATOM     71  C   UNL A   1      42.408  22.681  28.498  1.00  0.00     0.010 A 
ATOM     72  C   UNL A   1      42.774  23.493  26.242  1.00  0.00     0.010 A 
ATOM     73  C   UNL A   1      42.262  21.381  28.006  1.00  0.00     0.020 A 
ATOM     74  C   UNL A   1      42.603  22.198  25.743  1.00  0.00     0.020 A 
ATOM     75  C   UNL A   1      42.365  21.147  26.632  1.00  0.00     0.054 A 
BRANCH  75  76
ATOM     76  S   UNL A   1      42.144  19.458  26.007  1.00  0.00     0.124 S 
ATOM     77  O   UNL A   1      40.708  19.418  25.749  1.00  0.00    -0.237 OA
ATOM     78  O   UNL A   1      43.001  19.440  24.824  1.00  0.00    -0.237 OA
ATOM     79  O   UNL A   1      42.608  18.623  27.114  1.00  0.00    -0.744 OA
ENDBRANCH  75  76
ENDBRANCH  47  70
BRANCH  59  80
ATOM     80  C   UNL A   1      48.370  27.430  29.226  1.00  0.00    -0.014 A 
ATOM     81  C   UNL A   1      49.182  27.816  28.145  1.00  0.00     0.010 A 
ATOM     82  C   UNL A   1      48.955  26.791  30.334  1.00  0.00     0.010 A 
ATOM     83  C   UNL A   1      50.554  27.551  28.165  1.00  0.00     0.020 A 
ATOM     84  C   UNL A   1      50.329  26.544  30.367  1.00  0.00     0.020 A 
ATOM     85  C   UNL A   1      51.120  26.918  29.277  1.00  0.00     0.054 A 
BRANCH  85  86
ATOM     86  S   UNL A   1      52.911  26.641  29.308  1.00  0.00     0.124 S 
ATOM     87  O   UNL A   1      53.431  27.998  29.170  1.00  0.00    -0.237 OA
ATOM     88  O   UNL A   1      53.118  26.018  30.613  1.00  0.00    -0.237 OA
ATOM     89  O   UNL A   1      53.146  25.763  28.163  1.00  0.00    -0.744 OA
ENDBRANCH  85  86
ENDBRANCH  59  80
ENDBRANCH  33  34
ENDBRANCH  25  28
ENDBRANCH  23  24
ENDBRANCH  22  23
ENDBRANCH   1  22
TORSDOF 18
ENDMDL
MODEL 3
REMARK VINA RESULT:     -10.2      3.081      9.338
REMARK SMILES CC[C@@](C)(C(=O)NCCCCNC(=O)c1ccc(-c2c3nc(c(-c4ccc(S(=O)(=O)[O-])cc4)c4ccc([nH]4)c(-c4ccc(S(=O)(=O)[O-])cc4)c4nc(c(-c5ccc(S(=O)(=O)[O-])cc5)c5ccc2[nH]5)C=C4)C=C3)cc1)n1nnnc1Cc1cccs1
REMARK SMILES IDX 9 1 8 2 7 3 5 4 6 5 3 7 4 8 2 9 1 10 75 11 76 12 79 13 77 14
REMARK SMILES IDX 78 15 80 16 81 17 82 18 85 19 83 20 84 21 10 22 11 23 12 24
REMARK SMILES IDX 13 25 14 27 15 28 16 29 74 30 17 31 73 32 18 33 19 34 20 35
REMARK SMILES IDX 67 36 21 37 72 38 66 39 68 40 22 41 71 42 65 43 64 44 23 46
REMARK SMILES IDX 53 47 34 48 52 49 35 50 38 51 51 52 69 53 36 54 37 55 50 57
REMARK SMILES IDX 70 58 39 59 24 60 25 61 33 62 26 63 32 64 27 65 28 66 29 67
REMARK SMILES IDX 30 68 31 69 54 70 55 71 63 72 56 73 62 74 57 75 58 76 59 77
REMARK SMILES IDX 60 78 61 79 40 80 41 81 49 82 42 83 48 84 43 85 44 86 45 87
REMARK SMILES IDX 46 88 47 89
REMARK H PARENT 7 6 12 26 68 45 38 56
REMARK Flexibility Score: inf
ROOT
ATOM      1  C   UNL A   1      34.703  23.090  25.049  1.00  0.00     0.023 C 
ENDROOT
BRANCH   1   2
ATOM      2  C   UNL A   1      34.248  24.529  24.839  1.00  0.00     0.116 C 
BRANCH   2   3
ATOM      3  N   UNL A   1      34.169  24.904  23.436  1.00  0.00    -0.354 N 
ATOM      4  C   UNL A   1      33.266  25.657  22.729  1.00  0.00     0.247 C 
ATOM      5  O   UNL A   1      33.674  26.065  21.638  1.00  0.00    -0.272 OA
ATOM      6  H   UNL A   1      34.905  24.550  22.887  1.00  0.00     0.163 HD
BRANCH   4   7
ATOM      7  C   UNL A   1      31.867  26.055  23.297  1.00  0.00     0.142 C 
ATOM      8  C   UNL A   1      32.039  26.055  24.825  1.00  0.00     0.048 C 
BRANCH   7   9
ATOM      9  C   UNL A   1      30.783  25.041  22.806  1.00  0.00     0.037 C 
ATOM     10  C   UNL A   1      30.793  23.683  23.500  1.00  0.00     0.007 C 
ENDBRANCH   7   9
BRANCH   7  11
ATOM     11  N   UNL A   1      31.491  27.388  22.758  1.00  0.00    -0.214 N 
ATOM     12  N   UNL A   1      30.244  27.511  22.227  1.00  0.00    -0.044 NA
ATOM     13  C   UNL A   1      32.032  28.662  22.855  1.00  0.00     0.157 A 
ATOM     14  N   UNL A   1      30.076  28.789  21.950  1.00  0.00    -0.024 NA
ATOM     15  N   UNL A   1      31.155  29.513  22.345  1.00  0.00    -0.113 NA
BRANCH  13  16
ATOM     16  C   UNL A   1      33.308  29.120  23.473  1.00  0.00     0.125 C 
BRANCH  16  17
ATOM     17  C   UNL A   1      33.232  29.231  24.972  1.00  0.00     0.012 A 
ATOM     18  C   UNL A   1      34.136  28.751  25.902  1.00  0.00     0.016 A 
ATOM     19  S   UNL A   1      31.944  30.065  25.734  1.00  0.00    -0.148 S 
ATOM     20  C   UNL A   1      33.743  29.035  27.241  1.00  0.00     0.012 A 
ATOM     21  C   UNL A   1      32.555  29.728  27.292  1.00  0.00     0.065 A 
ENDBRANCH  16  17
ENDBRANCH  13  16
ENDBRANCH   7  11
ENDBRANCH   4   7
ENDBRANCH   2   3
ENDBRANCH   1   2
BRANCH   1  22
ATOM     22  C   UNL A   1      35.956  22.928  25.908  1.00  0.00     0.023 C 
BRANCH  22  23
ATOM     23  C   UNL A   1      37.279  23.250  25.215  1.00  0.00     0.116 C 
BRANCH  23  24
ATOM     24  N   UNL A   1      38.389  22.421  25.668  1.00  0.00    -0.352 N 
ATOM     25  C   UNL A   1      39.501  22.783  26.393  1.00  0.00     0.251 C 
ATOM     26  H   UNL A   1      38.336  21.469  25.421  1.00  0.00     0.163 HD
ATOM     27  O   UNL A   1      40.393  21.966  26.608  1.00  0.00    -0.269 OA
BRANCH  25  28
ATOM     28  C   UNL A   1      39.629  24.174  26.870  1.00  0.00     0.039 A 
ATOM     29  C   UNL A   1      39.187  24.489  28.157  1.00  0.00     0.014 A 
ATOM     30  C   UNL A   1      40.258  25.138  26.079  1.00  0.00     0.014 A 
ATOM     31  C   UNL A   1      39.477  25.745  28.695  1.00  0.00     0.010 A 
ATOM     32  C   UNL A   1      40.599  26.366  26.638  1.00  0.00     0.010 A 
ATOM     33  C   UNL A   1      40.238  26.669  27.960  1.00  0.00    -0.014 A 
BRANCH  33  34
ATOM     34  C   UNL A   1      40.742  27.924  28.575  1.00  0.00     0.031 A 
ATOM     35  C   UNL A   1      42.120  27.976  29.172  1.00  0.00     0.074 A 
ATOM     36  C   UNL A   1      39.908  28.977  28.700  1.00  0.00     0.049 A 
ATOM     37  N   UNL A   1      42.675  28.933  29.868  1.00  0.00    -0.248 NA
ATOM     38  C   UNL A   1      42.973  26.791  28.988  1.00  0.00     0.031 C 
ATOM     39  C   UNL A   1      38.526  29.030  28.209  1.00  0.00     0.029 A 
ATOM     40  N   UNL A   1      40.088  30.196  29.306  1.00  0.00    -0.354 N 
ATOM     41  C   UNL A   1      43.930  28.458  30.230  1.00  0.00     0.074 A 
ATOM     42  C   UNL A   1      44.046  27.119  29.696  1.00  0.00     0.031 C 
ATOM     43  C   UNL A   1      37.988  30.216  28.534  1.00  0.00     0.029 A 
ATOM     44  C   UNL A   1      38.964  30.991  29.292  1.00  0.00     0.049 A 
ATOM     45  H   UNL A   1      40.940  30.475  29.712  1.00  0.00     0.167 HD
ATOM     46  C   UNL A   1      44.898  29.086  30.938  1.00  0.00     0.031 A 
ATOM     47  C   UNL A   1      38.733  32.196  29.849  1.00  0.00     0.031 A 
ATOM     48  C   UNL A   1      44.791  30.429  31.442  1.00  0.00     0.049 A 
ATOM     49  C   UNL A   1      39.829  32.867  30.629  1.00  0.00     0.074 A 
ATOM     50  C   UNL A   1      45.762  31.185  32.077  1.00  0.00     0.029 A 
ATOM     51  N   UNL A   1      43.650  31.211  31.379  1.00  0.00    -0.354 N 
ATOM     52  N   UNL A   1      41.045  32.441  30.873  1.00  0.00    -0.248 NA
ATOM     53  C   UNL A   1      39.522  34.182  31.212  1.00  0.00     0.031 C 
ATOM     54  C   UNL A   1      45.191  32.407  32.445  1.00  0.00     0.029 A 
ATOM     55  C   UNL A   1      43.879  32.428  31.998  1.00  0.00     0.049 A 
ATOM     56  H   UNL A   1      42.803  30.943  30.957  1.00  0.00     0.167 HD
ATOM     57  C   UNL A   1      41.651  33.441  31.624  1.00  0.00     0.074 A 
ATOM     58  C   UNL A   1      40.677  34.501  31.779  1.00  0.00     0.031 C 
ATOM     59  C   UNL A   1      42.901  33.474  32.146  1.00  0.00     0.031 A 
BRANCH  46  60
ATOM     60  C   UNL A   1      46.169  28.333  31.217  1.00  0.00    -0.014 A 
ATOM     61  C   UNL A   1      47.261  28.404  30.336  1.00  0.00     0.010 A 
ATOM     62  C   UNL A   1      46.303  27.620  32.423  1.00  0.00     0.010 A 
ATOM     63  C   UNL A   1      48.462  27.760  30.648  1.00  0.00     0.020 A 
ATOM     64  C   UNL A   1      47.508  26.992  32.748  1.00  0.00     0.020 A 
ATOM     65  C   UNL A   1      48.578  27.060  31.853  1.00  0.00     0.054 A 
BRANCH  65  66
ATOM     66  S   UNL A   1      50.167  26.286  32.259  1.00  0.00     0.124 S 
ATOM     67  O   UNL A   1      50.997  26.692  31.128  1.00  0.00    -0.237 OA
ATOM     68  O   UNL A   1      50.507  26.902  33.539  1.00  0.00    -0.237 OA
ATOM     69  O   UNL A   1      49.854  24.861  32.321  1.00  0.00    -0.744 OA
ENDBRANCH  65  66
ENDBRANCH  46  60
BRANCH  47  70
ATOM     70  C   UNL A   1      37.397  32.837  29.719  1.00  0.00    -0.014 A 
ATOM     71  C   UNL A   1      37.071  33.586  28.575  1.00  0.00     0.010 A 
ATOM     72  C   UNL A   1      36.451  32.718  30.754  1.00  0.00     0.010 A 
ATOM     73  C   UNL A   1      35.833  34.229  28.480  1.00  0.00     0.020 A 
ATOM     74  C   UNL A   1      35.202  33.338  30.651  1.00  0.00     0.020 A 
ATOM     75  C   UNL A   1      34.909  34.104  29.521  1.00  0.00     0.054 A 
BRANCH  75  76
ATOM     76  S   UNL A   1      33.296  34.921  29.368  1.00  0.00     0.124 S 
ATOM     77  O   UNL A   1      32.785  34.837  30.733  1.00  0.00    -0.237 OA
ATOM     78  O   UNL A   1      33.658  36.260  28.909  1.00  0.00    -0.237 OA
ATOM     79  O   UNL A   1      32.593  34.103  28.382  1.00  0.00    -0.744 OA
ENDBRANCH  75  76
ENDBRANCH  47  70
BRANCH  59  80
ATOM     80  C   UNL A   1      43.297  34.699  32.920  1.00  0.00    -0.014 A 
ATOM     81  C   UNL A   1      43.996  35.748  32.298  1.00  0.00     0.010 A 
ATOM     82  C   UNL A   1      42.904  34.834  34.263  1.00  0.00     0.010 A 
ATOM     83  C   UNL A   1      44.313  36.906  33.014  1.00  0.00     0.020 A 
ATOM     84  C   UNL A   1      43.199  35.999  34.976  1.00  0.00     0.020 A 
ATOM     85  C   UNL A   1      43.910  37.025  34.348  1.00  0.00     0.054 A 
BRANCH  85  86
ATOM     86  S   UNL A   1      44.277  38.561  35.239  1.00  0.00     0.124 S 
ATOM     87  O   UNL A   1      43.405  39.518  34.563  1.00  0.00    -0.237 OA
ATOM     88  O   UNL A   1      43.905  38.233  36.613  1.00  0.00    -0.237 OA
ATOM     89  O   UNL A   1      45.708  38.757  35.018  1.00  0.00    -0.744 OA
ENDBRANCH  85  86
ENDBRANCH  59  80
ENDBRANCH  33  34
ENDBRANCH  25  28
ENDBRANCH  23  24
ENDBRANCH  22  23
ENDBRANCH   1  22
TORSDOF 18
ENDMDL
