MODEL 1
REMARK VINA RESULT:     -13.3      0.000      0.000
REMARK SMILES Cc1cccc(NC(=O)C[C@@H]2CCCCO2)c1C(=O)NCCCCNC(=O)c1ccc(-c2c3nc(c(-c4ccc(S(=O)(=O)[O-])cc4)c4ccc([nH]4)c(-c4ccc(S(=O)(=O)[O-])cc4)c4nc(c(-c5ccc(S(=O)(=O)[O-])cc5)c5ccc2[nH]5)C=C4)C=C3)cc1
REMARK SMILES IDX 22 1 21 2 20 3 18 4 19 5 17 7 1 8 2 9 3 10 4 11 6 12 5 13
REMARK SMILES IDX 7 14 8 15 9 17 10 18 11 19 12 20 16 21 13 22 15 23 14 24
REMARK SMILES IDX 23 25 24 26 25 27 26 28 27 30 28 31 29 32 87 33 30 34 86 35
REMARK SMILES IDX 31 36 32 37 33 38 80 39 34 40 85 41 79 42 81 43 35 44 84 45
REMARK SMILES IDX 78 46 77 47 36 49 66 50 47 51 65 52 48 53 51 54 64 55 82 56
REMARK SMILES IDX 49 57 50 58 63 60 83 61 52 62 37 63 38 64 46 65 39 66 45 67
REMARK SMILES IDX 40 68 41 69 42 70 43 71 44 72 67 73 68 74 76 75 69 76 75 77
REMARK SMILES IDX 70 78 71 79 72 80 73 81 74 82 53 83 54 84 62 85 55 86 61 87
REMARK SMILES IDX 56 88 57 89 58 90 59 91 60 92
REMARK H PARENT 20 6 7 16 25 29 81 48 51 59
REMARK Flexibility Score: inf
ROOT
ATOM      1  C   UNL A   1      37.016  22.401  24.087  1.00  0.00     0.023 C 
ENDROOT
BRANCH   1   2
ATOM      2  C   UNL A   1      35.800  23.344  24.174  1.00  0.00     0.116 C 
BRANCH   2   3
ATOM      3  N   UNL A   1      35.047  23.328  22.925  1.00  0.00    -0.352 N 
ATOM      4  C   UNL A   1      33.727  23.129  22.608  1.00  0.00     0.253 C 
ATOM      5  O   UNL A   1      33.431  23.226  21.415  1.00  0.00    -0.269 OA
ATOM      6  H   UNL A   1      35.611  23.496  22.135  1.00  0.00     0.163 HD
BRANCH   4   7
ATOM      7  C   UNL A   1      32.643  22.933  23.626  1.00  0.00     0.066 A 
ATOM      8  C   UNL A   1      33.147  20.467  24.111  1.00  0.00     0.045 C 
ATOM      9  C   UNL A   1      32.515  21.789  24.440  1.00  0.00    -0.036 A 
ATOM     10  C   UNL A   1      31.615  21.798  25.523  1.00  0.00     0.004 A 
ATOM     11  C   UNL A   1      30.766  22.876  25.730  1.00  0.00     0.002 A 
ATOM     12  C   UNL A   1      31.588  23.879  23.684  1.00  0.00     0.054 A 
ATOM     13  C   UNL A   1      30.730  23.899  24.791  1.00  0.00     0.027 A 
BRANCH  12  14
ATOM     14  N   UNL A   1      31.321  24.711  22.569  1.00  0.00    -0.325 N 
ATOM     15  C   UNL A   1      31.414  26.080  22.458  1.00  0.00     0.227 C 
ATOM     16  H   UNL A   1      31.027  24.242  21.756  1.00  0.00     0.169 HD
ATOM     17  O   UNL A   1      31.102  26.620  21.391  1.00  0.00    -0.275 OA
BRANCH  15  18
ATOM     18  C   UNL A   1      31.835  26.947  23.633  1.00  0.00     0.132 C 
BRANCH  18  19
ATOM     19  C   UNL A   1      33.362  27.071  23.799  1.00  0.00     0.127 C 
ATOM     20  C   UNL A   1      33.850  26.348  25.065  1.00  0.00     0.033 C 
ATOM     21  O   UNL A   1      33.859  28.414  23.822  1.00  0.00    -0.378 OA
ATOM     22  C   UNL A   1      33.446  27.090  26.340  1.00  0.00     0.005 C 
ATOM     23  C   UNL A   1      33.483  29.187  24.955  1.00  0.00     0.160 C 
ATOM     24  C   UNL A   1      33.884  28.547  26.273  1.00  0.00     0.029 C 
ENDBRANCH  18  19
ENDBRANCH  15  18
ENDBRANCH  12  14
ENDBRANCH   4   7
ENDBRANCH   2   3
ENDBRANCH   1   2
BRANCH   1  25
ATOM     25  C   UNL A   1      37.619  22.019  25.441  1.00  0.00     0.023 C 
BRANCH  25  26
ATOM     26  C   UNL A   1      38.182  23.229  26.169  1.00  0.00     0.116 C 
BRANCH  26  27
ATOM     27  N   UNL A   1      39.371  22.958  26.963  1.00  0.00    -0.352 N 
ATOM     28  C   UNL A   1      40.203  23.885  27.563  1.00  0.00     0.251 C 
ATOM     29  H   UNL A   1      39.609  22.010  27.086  1.00  0.00     0.163 HD
ATOM     30  O   UNL A   1      41.313  23.585  27.995  1.00  0.00    -0.269 OA
BRANCH  28  31
ATOM     31  C   UNL A   1      39.655  25.241  27.770  1.00  0.00     0.039 A 
ATOM     32  C   UNL A   1      40.113  26.250  26.916  1.00  0.00     0.014 A 
ATOM     33  C   UNL A   1      39.005  25.547  28.962  1.00  0.00     0.014 A 
ATOM     34  C   UNL A   1      40.098  27.572  27.352  1.00  0.00     0.010 A 
ATOM     35  C   UNL A   1      39.100  26.841  29.439  1.00  0.00     0.010 A 
ATOM     36  C   UNL A   1      39.691  27.846  28.657  1.00  0.00    -0.014 A 
BRANCH  36  37
ATOM     37  C   UNL A   1      39.928  29.123  29.330  1.00  0.00     0.031 A 
ATOM     38  C   UNL A   1      38.928  30.214  29.219  1.00  0.00     0.074 A 
ATOM     39  C   UNL A   1      41.002  29.291  30.136  1.00  0.00     0.049 A 
ATOM     40  N   UNL A   1      39.167  31.462  29.460  1.00  0.00    -0.248 NA
ATOM     41  C   UNL A   1      37.568  29.979  28.745  1.00  0.00     0.031 C 
ATOM     42  C   UNL A   1      41.180  30.345  31.132  1.00  0.00     0.029 A 
ATOM     43  N   UNL A   1      42.255  28.675  30.077  1.00  0.00    -0.354 N 
ATOM     44  C   UNL A   1      37.952  32.112  29.505  1.00  0.00     0.074 A 
ATOM     45  C   UNL A   1      37.014  31.178  28.934  1.00  0.00     0.031 C 
ATOM     46  C   UNL A   1      42.493  30.512  31.351  1.00  0.00     0.029 A 
ATOM     47  C   UNL A   1      43.196  29.667  30.403  1.00  0.00     0.049 A 
ATOM     48  H   UNL A   1      42.441  27.735  29.853  1.00  0.00     0.167 HD
ATOM     49  C   UNL A   1      37.844  33.298  30.171  1.00  0.00     0.031 A 
ATOM     50  C   UNL A   1      44.207  30.077  29.581  1.00  0.00     0.031 A 
ATOM     51  C   UNL A   1      39.156  33.826  30.554  1.00  0.00     0.049 A 
ATOM     52  C   UNL A   1      44.173  31.561  29.283  1.00  0.00     0.074 A 
ATOM     53  C   UNL A   1      39.842  33.895  31.755  1.00  0.00     0.029 A 
ATOM     54  N   UNL A   1      40.073  34.152  29.560  1.00  0.00    -0.354 N 
ATOM     55  N   UNL A   1      43.170  32.337  29.585  1.00  0.00    -0.248 NA
ATOM     56  C   UNL A   1      45.228  32.277  28.568  1.00  0.00     0.031 C 
ATOM     57  C   UNL A   1      41.204  34.174  31.467  1.00  0.00     0.029 A 
ATOM     58  C   UNL A   1      41.338  34.305  30.095  1.00  0.00     0.049 A 
ATOM     59  H   UNL A   1      39.851  34.260  28.607  1.00  0.00     0.167 HD
ATOM     60  C   UNL A   1      43.396  33.598  29.102  1.00  0.00     0.074 A 
ATOM     61  C   UNL A   1      44.712  33.518  28.493  1.00  0.00     0.031 C 
ATOM     62  C   UNL A   1      42.470  34.593  29.225  1.00  0.00     0.031 A 
BRANCH  49  63
ATOM     63  C   UNL A   1      36.533  33.821  30.740  1.00  0.00    -0.014 A 
ATOM     64  C   UNL A   1      35.425  34.005  29.884  1.00  0.00     0.010 A 
ATOM     65  C   UNL A   1      36.348  34.246  32.069  1.00  0.00     0.010 A 
ATOM     66  C   UNL A   1      34.257  34.669  30.301  1.00  0.00     0.020 A 
ATOM     67  C   UNL A   1      35.201  34.930  32.497  1.00  0.00     0.020 A 
ATOM     68  C   UNL A   1      34.166  35.157  31.602  1.00  0.00     0.054 A 
BRANCH  68  69
ATOM     69  S   UNL A   1      32.705  36.099  32.108  1.00  0.00     0.124 S 
ATOM     70  O   UNL A   1      31.784  35.048  32.531  1.00  0.00    -0.237 OA
ATOM     71  O   UNL A   1      33.230  36.946  33.174  1.00  0.00    -0.237 OA
ATOM     72  O   UNL A   1      32.311  36.808  30.891  1.00  0.00    -0.744 OA
ENDBRANCH  68  69
ENDBRANCH  49  63
BRANCH  50  73
ATOM     73  C   UNL A   1      44.712  29.029  28.657  1.00  0.00    -0.014 A 
ATOM     74  C   UNL A   1      44.059  28.906  27.414  1.00  0.00     0.010 A 
ATOM     75  C   UNL A   1      46.020  28.531  28.797  1.00  0.00     0.010 A 
ATOM     76  C   UNL A   1      44.762  28.482  26.285  1.00  0.00     0.020 A 
ATOM     77  C   UNL A   1      46.726  28.101  27.665  1.00  0.00     0.020 A 
ATOM     78  C   UNL A   1      46.111  28.155  26.409  1.00  0.00     0.054 A 
BRANCH  78  79
ATOM     79  S   UNL A   1      47.095  28.028  24.886  1.00  0.00     0.124 S 
ATOM     80  O   UNL A   1      48.460  28.164  25.381  1.00  0.00    -0.237 OA
ATOM     81  O   UNL A   1      46.725  26.694  24.412  1.00  0.00    -0.237 OA
ATOM     82  O   UNL A   1      46.602  29.139  24.077  1.00  0.00    -0.744 OA
ENDBRANCH  78  79
ENDBRANCH  50  73
BRANCH  62  83
ATOM     83  C   UNL A   1      42.557  35.959  28.591  1.00  0.00    -0.014 A 
ATOM     84  C   UNL A   1      41.932  36.308  27.384  1.00  0.00     0.010 A 
ATOM     85  C   UNL A   1      43.198  36.997  29.309  1.00  0.00     0.010 A 
ATOM     86  C   UNL A   1      41.992  37.618  26.888  1.00  0.00     0.020 A 
ATOM     87  C   UNL A   1      43.229  38.313  28.843  1.00  0.00     0.020 A 
ATOM     88  C   UNL A   1      42.644  38.613  27.619  1.00  0.00     0.054 A 
BRANCH  88  89
ATOM     89  S   UNL A   1      42.662  40.318  27.010  1.00  0.00     0.124 S 
ATOM     90  O   UNL A   1      43.298  41.026  28.118  1.00  0.00    -0.237 OA
ATOM     91  O   UNL A   1      43.458  40.226  25.788  1.00  0.00    -0.237 OA
ATOM     92  O   UNL A   1      41.247  40.618  26.802  1.00  0.00    -0.744 OA
ENDBRANCH  88  89
ENDBRANCH  62  83
ENDBRANCH  36  37
ENDBRANCH  28  31
ENDBRANCH  26  27
ENDBRANCH  25  26
ENDBRANCH   1  25
TORSDOF 17
ENDMDL
MODEL 2
REMARK VINA RESULT:     -12.5      1.496      2.335
REMARK SMILES Cc1cccc(NC(=O)C[C@@H]2CCCCO2)c1C(=O)NCCCCNC(=O)c1ccc(-c2c3nc(c(-c4ccc(S(=O)(=O)[O-])cc4)c4ccc([nH]4)c(-c4ccc(S(=O)(=O)[O-])cc4)c4nc(c(-c5ccc(S(=O)(=O)[O-])cc5)c5ccc2[nH]5)C=C4)C=C3)cc1
REMARK SMILES IDX 22 1 21 2 20 3 18 4 19 5 17 7 1 8 2 9 3 10 4 11 6 12 5 13
REMARK SMILES IDX 7 14 8 15 9 17 10 18 11 19 12 20 16 21 13 22 15 23 14 24
REMARK SMILES IDX 23 25 24 26 25 27 26 28 27 30 28 31 29 32 87 33 30 34 86 35
REMARK SMILES IDX 31 36 32 37 33 38 80 39 34 40 85 41 79 42 81 43 35 44 84 45
REMARK SMILES IDX 78 46 77 47 36 49 66 50 47 51 65 52 48 53 51 54 64 55 82 56
REMARK SMILES IDX 49 57 50 58 63 60 83 61 52 62 37 63 38 64 46 65 39 66 45 67
REMARK SMILES IDX 40 68 41 69 42 70 43 71 44 72 67 73 68 74 76 75 69 76 75 77
REMARK SMILES IDX 70 78 71 79 72 80 73 81 74 82 53 83 54 84 62 85 55 86 61 87
REMARK SMILES IDX 56 88 57 89 58 90 59 91 60 92
REMARK H PARENT 20 6 7 16 25 29 81 48 51 59
REMARK Flexibility Score: inf
ROOT
ATOM      1  C   UNL A   1      35.819  23.791  25.314  1.00  0.00     0.023 C 
ENDROOT
BRANCH   1   2
ATOM      2  C   UNL A   1      35.148  22.974  24.194  1.00  0.00     0.116 C 
BRANCH   2   3
ATOM      3  N   UNL A   1      34.676  23.852  23.130  1.00  0.00    -0.352 N 
ATOM      4  C   UNL A   1      33.638  24.744  23.016  1.00  0.00     0.253 C 
ATOM      5  O   UNL A   1      33.560  25.358  21.950  1.00  0.00    -0.269 OA
ATOM      6  H   UNL A   1      35.221  23.792  22.311  1.00  0.00     0.163 HD
BRANCH   4   7
ATOM      7  C   UNL A   1      32.705  25.087  24.139  1.00  0.00     0.066 A 
ATOM      8  C   UNL A   1      30.880  23.396  23.522  1.00  0.00     0.045 C 
ATOM      9  C   UNL A   1      31.556  24.341  24.473  1.00  0.00    -0.036 A 
ATOM     10  C   UNL A   1      30.879  24.602  25.680  1.00  0.00     0.004 A 
ATOM     11  C   UNL A   1      31.258  25.662  26.491  1.00  0.00     0.002 A 
ATOM     12  C   UNL A   1      32.889  26.316  24.822  1.00  0.00     0.054 A 
ATOM     13  C   UNL A   1      32.241  26.538  26.044  1.00  0.00     0.027 A 
BRANCH  12  14
ATOM     14  N   UNL A   1      33.619  27.364  24.210  1.00  0.00    -0.325 N 
ATOM     15  C   UNL A   1      33.168  28.556  23.692  1.00  0.00     0.227 C 
ATOM     16  H   UNL A   1      34.590  27.218  24.145  1.00  0.00     0.169 HD
ATOM     17  O   UNL A   1      33.977  29.330  23.167  1.00  0.00    -0.275 OA
BRANCH  15  18
ATOM     18  C   UNL A   1      31.692  28.919  23.698  1.00  0.00     0.132 C 
BRANCH  18  19
ATOM     19  C   UNL A   1      30.932  28.452  22.442  1.00  0.00     0.127 C 
ATOM     20  C   UNL A   1      29.904  29.502  21.986  1.00  0.00     0.033 C 
ATOM     21  O   UNL A   1      30.266  27.192  22.572  1.00  0.00    -0.378 OA
ATOM     22  C   UNL A   1      28.705  29.578  22.933  1.00  0.00     0.005 C 
ATOM     23  C   UNL A   1      29.169  27.168  23.476  1.00  0.00     0.160 C 
ATOM     24  C   UNL A   1      28.101  28.195  23.143  1.00  0.00     0.029 C 
ENDBRANCH  18  19
ENDBRANCH  15  18
ENDBRANCH  12  14
ENDBRANCH   4   7
ENDBRANCH   2   3
ENDBRANCH   1   2
BRANCH   1  25
ATOM     25  C   UNL A   1      36.836  23.007  26.148  1.00  0.00     0.023 C 
BRANCH  25  26
ATOM     26  C   UNL A   1      38.262  23.282  25.703  1.00  0.00     0.116 C 
BRANCH  26  27
ATOM     27  N   UNL A   1      39.280  22.922  26.680  1.00  0.00    -0.352 N 
ATOM     28  C   UNL A   1      40.053  23.785  27.435  1.00  0.00     0.251 C 
ATOM     29  H   UNL A   1      39.434  21.959  26.817  1.00  0.00     0.163 HD
ATOM     30  O   UNL A   1      41.052  23.407  28.041  1.00  0.00    -0.269 OA
BRANCH  28  31
ATOM     31  C   UNL A   1      39.562  25.171  27.581  1.00  0.00     0.039 A 
ATOM     32  C   UNL A   1      40.173  26.149  26.788  1.00  0.00     0.014 A 
ATOM     33  C   UNL A   1      38.795  25.518  28.689  1.00  0.00     0.014 A 
ATOM     34  C   UNL A   1      40.182  27.471  27.224  1.00  0.00     0.010 A 
ATOM     35  C   UNL A   1      38.907  26.805  29.177  1.00  0.00     0.010 A 
ATOM     36  C   UNL A   1      39.641  27.773  28.473  1.00  0.00    -0.014 A 
BRANCH  36  37
ATOM     37  C   UNL A   1      39.870  29.036  29.172  1.00  0.00     0.031 A 
ATOM     38  C   UNL A   1      38.876  30.132  29.063  1.00  0.00     0.074 A 
ATOM     39  C   UNL A   1      40.929  29.186  30.001  1.00  0.00     0.049 A 
ATOM     40  N   UNL A   1      39.113  31.375  29.331  1.00  0.00    -0.248 NA
ATOM     41  C   UNL A   1      37.524  29.911  28.560  1.00  0.00     0.031 C 
ATOM     42  C   UNL A   1      41.092  30.223  31.019  1.00  0.00     0.029 A 
ATOM     43  N   UNL A   1      42.181  28.568  29.954  1.00  0.00    -0.354 N 
ATOM     44  C   UNL A   1      37.900  32.028  29.365  1.00  0.00     0.074 A 
ATOM     45  C   UNL A   1      36.970  31.108  28.760  1.00  0.00     0.031 C 
ATOM     46  C   UNL A   1      42.401  30.381  31.264  1.00  0.00     0.029 A 
ATOM     47  C   UNL A   1      43.120  29.550  30.314  1.00  0.00     0.049 A 
ATOM     48  H   UNL A   1      42.368  27.631  29.716  1.00  0.00     0.167 HD
ATOM     49  C   UNL A   1      37.784  33.203  30.050  1.00  0.00     0.031 A 
ATOM     50  C   UNL A   1      44.146  29.972  29.519  1.00  0.00     0.031 A 
ATOM     51  C   UNL A   1      39.090  33.720  30.466  1.00  0.00     0.049 A 
ATOM     52  C   UNL A   1      44.122  31.461  29.247  1.00  0.00     0.074 A 
ATOM     53  C   UNL A   1      39.754  33.765  31.681  1.00  0.00     0.029 A 
ATOM     54  N   UNL A   1      40.026  34.060  29.495  1.00  0.00    -0.354 N 
ATOM     55  N   UNL A   1      43.116  32.235  29.544  1.00  0.00    -0.248 NA
ATOM     56  C   UNL A   1      45.192  32.186  28.564  1.00  0.00     0.031 C 
ATOM     57  C   UNL A   1      41.122  34.044  31.422  1.00  0.00     0.029 A 
ATOM     58  C   UNL A   1      41.281  34.199  30.056  1.00  0.00     0.049 A 
ATOM     59  H   UNL A   1      39.822  34.186  28.540  1.00  0.00     0.167 HD
ATOM     60  C   UNL A   1      43.355  33.503  29.088  1.00  0.00     0.074 A 
ATOM     61  C   UNL A   1      44.682  33.429  28.501  1.00  0.00     0.031 C 
ATOM     62  C   UNL A   1      42.430  34.499  29.211  1.00  0.00     0.031 A 
BRANCH  49  63
ATOM     63  C   UNL A   1      36.464  33.720  30.603  1.00  0.00    -0.014 A 
ATOM     64  C   UNL A   1      35.410  34.034  29.718  1.00  0.00     0.010 A 
ATOM     65  C   UNL A   1      36.224  34.018  31.959  1.00  0.00     0.010 A 
ATOM     66  C   UNL A   1      34.246  34.700  30.142  1.00  0.00     0.020 A 
ATOM     67  C   UNL A   1      35.082  34.703  32.396  1.00  0.00     0.020 A 
ATOM     68  C   UNL A   1      34.104  35.060  31.479  1.00  0.00     0.054 A 
BRANCH  68  69
ATOM     69  S   UNL A   1      32.653  36.006  32.007  1.00  0.00     0.124 S 
ATOM     70  O   UNL A   1      32.233  36.654  30.767  1.00  0.00    -0.237 OA
ATOM     71  O   UNL A   1      31.763  34.964  32.508  1.00  0.00    -0.237 OA
ATOM     72  O   UNL A   1      33.182  36.913  33.025  1.00  0.00    -0.744 OA
ENDBRANCH  68  69
ENDBRANCH  49  63
BRANCH  50  73
ATOM     73  C   UNL A   1      44.665  28.938  28.586  1.00  0.00    -0.014 A 
ATOM     74  C   UNL A   1      45.724  28.132  29.053  1.00  0.00     0.010 A 
ATOM     75  C   UNL A   1      43.867  28.475  27.524  1.00  0.00     0.010 A 
ATOM     76  C   UNL A   1      45.857  26.815  28.612  1.00  0.00     0.020 A 
ATOM     77  C   UNL A   1      44.003  27.154  27.077  1.00  0.00     0.020 A 
ATOM     78  C   UNL A   1      44.947  26.316  27.680  1.00  0.00     0.054 A 
BRANCH  78  79
ATOM     79  S   UNL A   1      44.873  24.515  27.452  1.00  0.00     0.124 S 
ATOM     80  O   UNL A   1      44.122  24.079  28.625  1.00  0.00    -0.237 OA
ATOM     81  O   UNL A   1      44.163  24.413  26.176  1.00  0.00    -0.237 OA
ATOM     82  O   UNL A   1      46.278  24.124  27.419  1.00  0.00    -0.744 OA
ENDBRANCH  78  79
ENDBRANCH  50  73
BRANCH  62  83
ATOM     83  C   UNL A   1      42.533  35.875  28.604  1.00  0.00    -0.014 A 
ATOM     84  C   UNL A   1      42.020  36.220  27.344  1.00  0.00     0.010 A 
ATOM     85  C   UNL A   1      43.062  36.925  29.393  1.00  0.00     0.010 A 
ATOM     86  C   UNL A   1      42.084  37.538  26.869  1.00  0.00     0.020 A 
ATOM     87  C   UNL A   1      43.094  38.247  28.946  1.00  0.00     0.020 A 
ATOM     88  C   UNL A   1      42.625  38.544  27.673  1.00  0.00     0.054 A 
BRANCH  88  89
ATOM     89  S   UNL A   1      42.644  40.257  27.087  1.00  0.00     0.124 S 
ATOM     90  O   UNL A   1      42.984  40.988  28.304  1.00  0.00    -0.237 OA
ATOM     91  O   UNL A   1      43.681  40.244  26.057  1.00  0.00    -0.237 OA
ATOM     92  O   UNL A   1      41.286  40.460  26.589  1.00  0.00    -0.744 OA
ENDBRANCH  88  89
ENDBRANCH  62  83
ENDBRANCH  36  37
ENDBRANCH  28  31
ENDBRANCH  26  27
ENDBRANCH  25  26
ENDBRANCH   1  25
TORSDOF 17
ENDMDL
MODEL 3
REMARK VINA RESULT:     -12.4      4.817     11.227
REMARK SMILES Cc1cccc(NC(=O)C[C@@H]2CCCCO2)c1C(=O)NCCCCNC(=O)c1ccc(-c2c3nc(c(-c4ccc(S(=O)(=O)[O-])cc4)c4ccc([nH]4)c(-c4ccc(S(=O)(=O)[O-])cc4)c4nc(c(-c5ccc(S(=O)(=O)[O-])cc5)c5ccc2[nH]5)C=C4)C=C3)cc1
REMARK SMILES IDX 22 1 21 2 20 3 18 4 19 5 17 7 1 8 2 9 3 10 4 11 6 12 5 13
REMARK SMILES IDX 7 14 8 15 9 17 10 18 11 19 12 20 16 21 13 22 15 23 14 24
REMARK SMILES IDX 23 25 24 26 25 27 26 28 27 30 28 31 29 32 87 33 30 34 86 35
REMARK SMILES IDX 31 36 32 37 33 38 80 39 34 40 85 41 79 42 81 43 35 44 84 45
REMARK SMILES IDX 78 46 77 47 36 49 66 50 47 51 65 52 48 53 51 54 64 55 82 56
REMARK SMILES IDX 49 57 50 58 63 60 83 61 52 62 37 63 38 64 46 65 39 66 45 67
REMARK SMILES IDX 40 68 41 69 42 70 43 71 44 72 67 73 68 74 76 75 69 76 75 77
REMARK SMILES IDX 70 78 71 79 72 80 73 81 74 82 53 83 54 84 62 85 55 86 61 87
REMARK SMILES IDX 56 88 57 89 58 90 59 91 60 92
REMARK H PARENT 20 6 7 16 25 29 81 48 51 59
REMARK Flexibility Score: inf
ROOT
ATOM      1  C   UNL A   1      32.815  28.674  25.765  1.00  0.00     0.023 C 
ENDROOT
BRANCH   1   2
ATOM      2  C   UNL A   1      33.650  27.469  26.236  1.00  0.00     0.116 C 
BRANCH   2   3
ATOM      3  N   UNL A   1      34.101  26.679  25.096  1.00  0.00    -0.352 N 
ATOM      4  C   UNL A   1      34.270  25.336  24.870  1.00  0.00     0.253 C 
ATOM      5  O   UNL A   1      34.646  25.014  23.741  1.00  0.00    -0.269 OA
ATOM      6  H   UNL A   1      34.338  27.232  24.315  1.00  0.00     0.163 HD
BRANCH   4   7
ATOM      7  C   UNL A   1      33.908  24.270  25.862  1.00  0.00     0.066 A 
ATOM      8  C   UNL A   1      36.269  23.308  26.126  1.00  0.00     0.045 C 
ATOM      9  C   UNL A   1      34.846  23.491  26.569  1.00  0.00    -0.036 A 
ATOM     10  C   UNL A   1      34.419  22.687  27.644  1.00  0.00     0.004 A 
ATOM     11  C   UNL A   1      33.070  22.561  27.943  1.00  0.00     0.002 A 
ATOM     12  C   UNL A   1      32.543  23.908  25.999  1.00  0.00     0.054 A 
ATOM     13  C   UNL A   1      32.133  23.145  27.099  1.00  0.00     0.027 A 
BRANCH  12  14
ATOM     14  N   UNL A   1      31.625  24.203  24.962  1.00  0.00    -0.325 N 
ATOM     15  C   UNL A   1      31.016  23.354  24.066  1.00  0.00     0.227 C 
ATOM     16  H   UNL A   1      31.388  25.154  24.868  1.00  0.00     0.169 HD
ATOM     17  O   UNL A   1      30.260  23.824  23.208  1.00  0.00    -0.275 OA
BRANCH  15  18
ATOM     18  C   UNL A   1      31.296  21.860  24.070  1.00  0.00     0.132 C 
BRANCH  18  19
ATOM     19  C   UNL A   1      32.493  21.449  23.191  1.00  0.00     0.127 C 
ATOM     20  C   UNL A   1      32.252  20.089  22.515  1.00  0.00     0.033 C 
ATOM     21  O   UNL A   1      33.752  21.401  23.871  1.00  0.00    -0.378 OA
ATOM     22  C   UNL A   1      32.325  18.932  23.513  1.00  0.00     0.005 C 
ATOM     23  C   UNL A   1      33.881  20.382  24.853  1.00  0.00     0.160 C 
ATOM     24  C   UNL A   1      33.626  18.989  24.303  1.00  0.00     0.029 C 
ENDBRANCH  18  19
ENDBRANCH  15  18
ENDBRANCH  12  14
ENDBRANCH   4   7
ENDBRANCH   2   3
ENDBRANCH   1   2
BRANCH   1  25
ATOM     25  C   UNL A   1      33.399  30.037  26.146  1.00  0.00     0.023 C 
BRANCH  25  26
ATOM     26  C   UNL A   1      34.263  29.951  27.393  1.00  0.00     0.116 C 
BRANCH  26  27
ATOM     27  N   UNL A   1      35.079  31.130  27.646  1.00  0.00    -0.352 N 
ATOM     28  C   UNL A   1      36.360  31.163  28.165  1.00  0.00     0.251 C 
ATOM     29  H   UNL A   1      34.674  31.999  27.422  1.00  0.00     0.163 HD
ATOM     30  O   UNL A   1      36.872  32.200  28.578  1.00  0.00    -0.269 OA
BRANCH  28  31
ATOM     31  C   UNL A   1      37.142  29.911  28.099  1.00  0.00     0.039 A 
ATOM     32  C   UNL A   1      37.223  29.149  29.270  1.00  0.00     0.014 A 
ATOM     33  C   UNL A   1      38.023  29.704  27.042  1.00  0.00     0.014 A 
ATOM     34  C   UNL A   1      38.319  28.311  29.463  1.00  0.00     0.010 A 
ATOM     35  C   UNL A   1      39.166  28.965  27.286  1.00  0.00     0.010 A 
ATOM     36  C   UNL A   1      39.340  28.308  28.514  1.00  0.00    -0.014 A 
BRANCH  36  37
ATOM     37  C   UNL A   1      40.663  27.732  28.748  1.00  0.00     0.031 A 
ATOM     38  C   UNL A   1      40.906  26.297  28.458  1.00  0.00     0.074 A 
ATOM     39  C   UNL A   1      41.700  28.512  29.133  1.00  0.00     0.049 A 
ATOM     40  N   UNL A   1      41.889  25.603  28.932  1.00  0.00    -0.248 NA
ATOM     41  C   UNL A   1      39.991  25.500  27.647  1.00  0.00     0.031 C 
ATOM     42  C   UNL A   1      43.118  28.166  29.059  1.00  0.00     0.029 A 
ATOM     43  N   UNL A   1      41.685  29.696  29.875  1.00  0.00    -0.354 N 
ATOM     44  C   UNL A   1      41.925  24.413  28.239  1.00  0.00     0.074 A 
ATOM     45  C   UNL A   1      40.660  24.350  27.550  1.00  0.00     0.031 C 
ATOM     46  C   UNL A   1      43.786  28.902  29.959  1.00  0.00     0.029 A 
ATOM     47  C   UNL A   1      42.800  29.639  30.729  1.00  0.00     0.049 A 
ATOM     48  H   UNL A   1      41.026  30.424  29.811  1.00  0.00     0.167 HD
ATOM     49  C   UNL A   1      43.084  23.692  28.191  1.00  0.00     0.031 A 
ATOM     50  C   UNL A   1      42.736  29.681  32.092  1.00  0.00     0.031 A 
ATOM     51  C   UNL A   1      44.086  24.216  29.122  1.00  0.00     0.049 A 
ATOM     52  C   UNL A   1      43.368  28.478  32.760  1.00  0.00     0.074 A 
ATOM     53  C   UNL A   1      45.241  24.963  28.958  1.00  0.00     0.029 A 
ATOM     54  N   UNL A   1      43.815  24.208  30.486  1.00  0.00    -0.354 N 
ATOM     55  N   UNL A   1      43.736  27.404  32.118  1.00  0.00    -0.248 NA
ATOM     56  C   UNL A   1      43.576  28.357  34.202  1.00  0.00     0.031 C 
ATOM     57  C   UNL A   1      45.610  25.484  30.227  1.00  0.00     0.029 A 
ATOM     58  C   UNL A   1      44.699  25.027  31.163  1.00  0.00     0.049 A 
ATOM     59  H   UNL A   1      43.094  23.690  30.911  1.00  0.00     0.167 HD
ATOM     60  C   UNL A   1      44.179  26.462  33.007  1.00  0.00     0.074 A 
ATOM     61  C   UNL A   1      44.084  27.114  34.300  1.00  0.00     0.031 C 
ATOM     62  C   UNL A   1      44.565  25.216  32.602  1.00  0.00     0.031 A 
BRANCH  49  63
ATOM     63  C   UNL A   1      43.409  22.705  27.080  1.00  0.00    -0.014 A 
ATOM     64  C   UNL A   1      42.713  21.478  27.010  1.00  0.00     0.010 A 
ATOM     65  C   UNL A   1      44.444  22.867  26.140  1.00  0.00     0.010 A 
ATOM     66  C   UNL A   1      43.100  20.444  26.138  1.00  0.00     0.020 A 
ATOM     67  C   UNL A   1      44.859  21.840  25.280  1.00  0.00     0.020 A 
ATOM     68  C   UNL A   1      44.195  20.623  25.298  1.00  0.00     0.054 A 
BRANCH  68  69
ATOM     69  S   UNL A   1      44.755  19.256  24.248  1.00  0.00     0.124 S 
ATOM     70  O   UNL A   1      46.144  19.087  24.667  1.00  0.00    -0.237 OA
ATOM     71  O   UNL A   1      43.846  18.179  24.623  1.00  0.00    -0.237 OA
ATOM     72  O   UNL A   1      44.581  19.770  22.890  1.00  0.00    -0.744 OA
ENDBRANCH  68  69
ENDBRANCH  49  63
BRANCH  50  73
ATOM     73  C   UNL A   1      41.588  30.456  32.631  1.00  0.00    -0.014 A 
ATOM     74  C   UNL A   1      40.402  29.739  32.891  1.00  0.00     0.010 A 
ATOM     75  C   UNL A   1      41.804  31.685  33.280  1.00  0.00     0.010 A 
ATOM     76  C   UNL A   1      39.549  30.136  33.921  1.00  0.00     0.020 A 
ATOM     77  C   UNL A   1      40.945  32.087  34.311  1.00  0.00     0.020 A 
ATOM     78  C   UNL A   1      39.870  31.267  34.670  1.00  0.00     0.054 A 
BRANCH  78  79
ATOM     79  S   UNL A   1      39.000  31.511  36.248  1.00  0.00     0.124 S 
ATOM     80  O   UNL A   1      38.365  30.215  36.460  1.00  0.00    -0.237 OA
ATOM     81  O   UNL A   1      40.111  31.825  37.146  1.00  0.00    -0.237 OA
ATOM     82  O   UNL A   1      38.095  32.620  35.962  1.00  0.00    -0.744 OA
ENDBRANCH  78  79
ENDBRANCH  50  73
BRANCH  62  83
ATOM     83  C   UNL A   1      44.913  24.065  33.511  1.00  0.00    -0.014 A 
ATOM     84  C   UNL A   1      43.982  23.126  33.984  1.00  0.00     0.010 A 
ATOM     85  C   UNL A   1      46.276  23.828  33.810  1.00  0.00     0.010 A 
ATOM     86  C   UNL A   1      44.386  22.035  34.767  1.00  0.00     0.020 A 
ATOM     87  C   UNL A   1      46.692  22.723  34.555  1.00  0.00     0.020 A 
ATOM     88  C   UNL A   1      45.739  21.842  35.052  1.00  0.00     0.054 A 
BRANCH  88  89
ATOM     89  S   UNL A   1      46.266  20.395  36.005  1.00  0.00     0.124 S 
ATOM     90  O   UNL A   1      47.715  20.572  36.044  1.00  0.00    -0.237 OA
ATOM     91  O   UNL A   1      45.581  20.573  37.284  1.00  0.00    -0.237 OA
ATOM     92  O   UNL A   1      45.791  19.270  35.204  1.00  0.00    -0.744 OA
ENDBRANCH  88  89
ENDBRANCH  62  83
ENDBRANCH  36  37
ENDBRANCH  28  31
ENDBRANCH  26  27
ENDBRANCH  25  26
ENDBRANCH   1  25
TORSDOF 17
ENDMDL
