MODEL 1
REMARK VINA RESULT:     -10.7      0.000      0.000
REMARK SMILES CC1(C)CCCC[C@@]1(C(=O)NCCCCNC(=O)c1ccc(-c2c3nc(c(-c4ccc(S(=O)(=O)[O-])cc4)c4ccc([nH]4)c(-c4ccc(S(=O)(=O)[O-])cc4)c4nc(c(-c5ccc(S(=O)(=O)[O-])cc5)c5ccc2[nH]5)C=C4)C=C3)cc1)[NH+]1CC[NH2+]CC1
REMARK SMILES IDX 14 1 13 2 12 3 11 4 9 5 10 6 8 8 1 9 2 10 3 11 4 12 5 13
REMARK SMILES IDX 7 14 6 15 79 16 80 17 84 18 81 20 83 21 82 22 15 25 16 26
REMARK SMILES IDX 17 27 18 29 19 30 20 31 78 32 21 33 77 34 22 35 23 36 24 37
REMARK SMILES IDX 71 38 25 39 76 40 70 41 72 42 26 43 75 44 69 45 68 46 27 48
REMARK SMILES IDX 57 49 38 50 56 51 39 52 42 53 55 54 73 55 40 56 41 57 54 59
REMARK SMILES IDX 74 60 43 61 28 62 29 63 37 64 30 65 36 66 31 67 32 68 33 69
REMARK SMILES IDX 34 70 35 71 58 72 59 73 67 74 60 75 66 76 61 77 62 78 63 79
REMARK SMILES IDX 64 80 65 81 44 82 45 83 53 84 46 85 52 86 47 87 48 88 49 89
REMARK SMILES IDX 50 90 51 91
REMARK H PARENT 11 7 79 19 82 23 82 24 16 28 72 47 42 58
REMARK Flexibility Score: inf
ROOT
ATOM      1  C   UNL A   1      32.559  28.585  25.782  1.00  0.00     0.023 C 
ENDROOT
BRANCH   1   2
ATOM      2  C   UNL A   1      31.491  27.492  25.813  1.00  0.00     0.023 C 
BRANCH   2   3
ATOM      3  C   UNL A   1      31.754  26.323  26.755  1.00  0.00     0.116 C 
BRANCH   3   4
ATOM      4  N   UNL A   1      31.195  25.070  26.293  1.00  0.00    -0.351 N 
ATOM      5  C   UNL A   1      31.653  23.963  25.648  1.00  0.00     0.281 C 
ATOM      6  O   UNL A   1      30.771  23.094  25.563  1.00  0.00    -0.268 OA
ATOM      7  H   UNL A   1      30.234  25.001  26.499  1.00  0.00     0.163 HD
BRANCH   5   8
ATOM      8  C   UNL A   1      33.081  23.780  24.896  1.00  0.00     0.182 C 
ATOM      9  C   UNL A   1      34.529  21.774  23.796  1.00  0.00     0.018 C 
ATOM     10  C   UNL A   1      33.234  22.180  24.564  1.00  0.00     0.029 C 
ATOM     11  C   UNL A   1      32.088  21.595  23.700  1.00  0.00     0.018 C 
ATOM     12  C   UNL A   1      33.267  21.406  25.919  1.00  0.00     0.013 C 
ATOM     13  C   UNL A   1      34.425  21.837  26.818  1.00  0.00     0.001 C 
ATOM     14  C   UNL A   1      34.309  24.154  25.775  1.00  0.00     0.080 C 
ATOM     15  C   UNL A   1      34.428  23.337  27.066  1.00  0.00     0.007 C 
BRANCH   8  16
ATOM     16  N   UNL A   1      33.007  24.637  23.634  1.00  0.00    -0.313 N 
ATOM     17  C   UNL A   1      33.793  25.887  23.629  1.00  0.00     0.325 C 
ATOM     18  C   UNL A   1      31.619  24.964  23.207  1.00  0.00     0.325 C 
ATOM     19  H   UNL A   1      33.446  24.006  22.964  1.00  0.00     0.349 HD
ATOM     20  C   UNL A   1      33.712  26.653  22.286  1.00  0.00     0.322 C 
ATOM     21  C   UNL A   1      31.533  25.801  21.904  1.00  0.00     0.322 C 
ATOM     22  N   UNL A   1      32.336  27.033  21.942  1.00  0.00    -0.337 N 
ATOM     23  H   UNL A   1      32.318  27.487  21.029  1.00  0.00     0.346 HD
ATOM     24  H   UNL A   1      31.960  27.684  22.630  1.00  0.00     0.346 HD
ENDBRANCH   8  16
ENDBRANCH   5   8
ENDBRANCH   3   4
ENDBRANCH   2   3
ENDBRANCH   1   2
BRANCH   1  25
ATOM     25  C   UNL A   1      33.354  28.793  27.070  1.00  0.00     0.116 C 
BRANCH  25  26
ATOM     26  N   UNL A   1      33.385  30.175  27.529  1.00  0.00    -0.352 N 
ATOM     27  C   UNL A   1      34.399  30.872  28.141  1.00  0.00     0.251 C 
ATOM     28  H   UNL A   1      32.556  30.685  27.378  1.00  0.00     0.163 HD
ATOM     29  O   UNL A   1      34.211  32.028  28.512  1.00  0.00    -0.269 OA
BRANCH  27  30
ATOM     30  C   UNL A   1      35.697  30.212  28.395  1.00  0.00     0.039 A 
ATOM     31  C   UNL A   1      36.668  30.233  27.389  1.00  0.00     0.014 A 
ATOM     32  C   UNL A   1      35.974  29.620  29.629  1.00  0.00     0.014 A 
ATOM     33  C   UNL A   1      37.950  29.747  27.657  1.00  0.00     0.010 A 
ATOM     34  C   UNL A   1      37.271  29.201  29.915  1.00  0.00     0.010 A 
ATOM     35  C   UNL A   1      38.276  29.274  28.939  1.00  0.00    -0.014 A 
BRANCH  35  36
ATOM     36  C   UNL A   1      39.667  28.888  29.290  1.00  0.00     0.031 A 
ATOM     37  C   UNL A   1      40.594  29.889  29.925  1.00  0.00     0.074 A 
ATOM     38  C   UNL A   1      40.124  27.665  28.949  1.00  0.00     0.049 A 
ATOM     39  N   UNL A   1      41.863  29.765  30.217  1.00  0.00    -0.248 NA
ATOM     40  C   UNL A   1      40.032  31.212  30.247  1.00  0.00     0.031 C 
ATOM     41  C   UNL A   1      39.345  26.624  28.270  1.00  0.00     0.029 A 
ATOM     42  N   UNL A   1      41.363  27.094  29.111  1.00  0.00    -0.354 N 
ATOM     43  C   UNL A   1      42.258  30.996  30.723  1.00  0.00     0.074 A 
ATOM     44  C   UNL A   1      41.103  31.866  30.673  1.00  0.00     0.031 C 
ATOM     45  C   UNL A   1      40.120  25.542  28.085  1.00  0.00     0.029 A 
ATOM     46  C   UNL A   1      41.457  25.820  28.598  1.00  0.00     0.049 A 
ATOM     47  H   UNL A   1      42.113  27.553  29.552  1.00  0.00     0.167 HD
ATOM     48  C   UNL A   1      43.470  31.367  31.199  1.00  0.00     0.031 A 
ATOM     49  C   UNL A   1      42.504  24.974  28.538  1.00  0.00     0.031 A 
ATOM     50  C   UNL A   1      44.606  30.489  31.290  1.00  0.00     0.049 A 
ATOM     51  C   UNL A   1      43.826  25.398  29.117  1.00  0.00     0.074 A 
ATOM     52  C   UNL A   1      45.846  30.747  31.848  1.00  0.00     0.029 A 
ATOM     53  N   UNL A   1      44.642  29.189  30.814  1.00  0.00    -0.354 N 
ATOM     54  N   UNL A   1      44.150  26.538  29.678  1.00  0.00    -0.248 NA
ATOM     55  C   UNL A   1      44.920  24.417  29.066  1.00  0.00     0.031 C 
ATOM     56  C   UNL A   1      46.647  29.615  31.674  1.00  0.00     0.029 A 
ATOM     57  C   UNL A   1      45.890  28.638  31.049  1.00  0.00     0.049 A 
ATOM     58  H   UNL A   1      43.893  28.726  30.376  1.00  0.00     0.167 HD
ATOM     59  C   UNL A   1      45.477  26.401  30.071  1.00  0.00     0.074 A 
ATOM     60  C   UNL A   1      45.890  25.064  29.697  1.00  0.00     0.031 C 
ATOM     61  C   UNL A   1      46.282  27.302  30.683  1.00  0.00     0.031 A 
BRANCH  48  62
ATOM     62  C   UNL A   1      43.638  32.785  31.672  1.00  0.00    -0.014 A 
ATOM     63  C   UNL A   1      43.441  33.127  33.021  1.00  0.00     0.010 A 
ATOM     64  C   UNL A   1      44.082  33.770  30.770  1.00  0.00     0.010 A 
ATOM     65  C   UNL A   1      43.664  34.436  33.457  1.00  0.00     0.020 A 
ATOM     66  C   UNL A   1      44.328  35.075  31.207  1.00  0.00     0.020 A 
ATOM     67  C   UNL A   1      44.107  35.401  32.547  1.00  0.00     0.054 A 
BRANCH  67  68
ATOM     68  S   UNL A   1      44.448  37.077  33.154  1.00  0.00     0.124 S 
ATOM     69  O   UNL A   1      44.992  37.723  31.962  1.00  0.00    -0.237 OA
ATOM     70  O   UNL A   1      43.128  37.542  33.571  1.00  0.00    -0.237 OA
ATOM     71  O   UNL A   1      45.402  36.865  34.238  1.00  0.00    -0.744 OA
ENDBRANCH  67  68
ENDBRANCH  48  62
BRANCH  49  72
ATOM     72  C   UNL A   1      42.353  23.635  27.905  1.00  0.00    -0.014 A 
ATOM     73  C   UNL A   1      41.673  22.601  28.571  1.00  0.00     0.010 A 
ATOM     74  C   UNL A   1      42.915  23.382  26.640  1.00  0.00     0.010 A 
ATOM     75  C   UNL A   1      41.590  21.326  28.003  1.00  0.00     0.020 A 
ATOM     76  C   UNL A   1      42.809  22.115  26.056  1.00  0.00     0.020 A 
ATOM     77  C   UNL A   1      42.164  21.090  26.751  1.00  0.00     0.054 A 
BRANCH  77  78
ATOM     78  S   UNL A   1      42.032  19.435  26.019  1.00  0.00     0.124 S 
ATOM     79  O   UNL A   1      40.592  19.309  25.818  1.00  0.00    -0.237 OA
ATOM     80  O   UNL A   1      42.832  19.559  24.803  1.00  0.00    -0.237 OA
ATOM     81  O   UNL A   1      42.602  18.565  27.045  1.00  0.00    -0.744 OA
ENDBRANCH  77  78
ENDBRANCH  49  72
BRANCH  61  82
ATOM     82  C   UNL A   1      47.679  26.864  31.026  1.00  0.00    -0.014 A 
ATOM     83  C   UNL A   1      47.957  26.208  32.238  1.00  0.00     0.010 A 
ATOM     84  C   UNL A   1      48.716  27.062  30.096  1.00  0.00     0.010 A 
ATOM     85  C   UNL A   1      49.256  25.781  32.525  1.00  0.00     0.020 A 
ATOM     86  C   UNL A   1      50.011  26.614  30.370  1.00  0.00     0.020 A 
ATOM     87  C   UNL A   1      50.274  25.988  31.589  1.00  0.00     0.054 A 
BRANCH  87  88
ATOM     88  S   UNL A   1      51.943  25.382  31.963  1.00  0.00     0.124 S 
ATOM     89  O   UNL A   1      52.692  25.813  30.786  1.00  0.00    -0.237 OA
ATOM     90  O   UNL A   1      52.270  26.078  33.205  1.00  0.00    -0.237 OA
ATOM     91  O   UNL A   1      51.764  23.937  32.094  1.00  0.00    -0.744 OA
ENDBRANCH  87  88
ENDBRANCH  61  82
ENDBRANCH  35  36
ENDBRANCH  27  30
ENDBRANCH  25  26
ENDBRANCH   1  25
TORSDOF 15
ENDMDL
MODEL 2
REMARK VINA RESULT:     -10.7      4.426     10.283
REMARK SMILES CC1(C)CCCC[C@@]1(C(=O)NCCCCNC(=O)c1ccc(-c2c3nc(c(-c4ccc(S(=O)(=O)[O-])cc4)c4ccc([nH]4)c(-c4ccc(S(=O)(=O)[O-])cc4)c4nc(c(-c5ccc(S(=O)(=O)[O-])cc5)c5ccc2[nH]5)C=C4)C=C3)cc1)[NH+]1CC[NH2+]CC1
REMARK SMILES IDX 14 1 13 2 12 3 11 4 9 5 10 6 8 8 1 9 2 10 3 11 4 12 5 13
REMARK SMILES IDX 7 14 6 15 79 16 80 17 84 18 81 20 83 21 82 22 15 25 16 26
REMARK SMILES IDX 17 27 18 29 19 30 20 31 78 32 21 33 77 34 22 35 23 36 24 37
REMARK SMILES IDX 71 38 25 39 76 40 70 41 72 42 26 43 75 44 69 45 68 46 27 48
REMARK SMILES IDX 57 49 38 50 56 51 39 52 42 53 55 54 73 55 40 56 41 57 54 59
REMARK SMILES IDX 74 60 43 61 28 62 29 63 37 64 30 65 36 66 31 67 32 68 33 69
REMARK SMILES IDX 34 70 35 71 58 72 59 73 67 74 60 75 66 76 61 77 62 78 63 79
REMARK SMILES IDX 64 80 65 81 44 82 45 83 53 84 46 85 52 86 47 87 48 88 49 89
REMARK SMILES IDX 50 90 51 91
REMARK H PARENT 11 7 79 19 82 23 82 24 16 28 72 47 42 58
REMARK Flexibility Score: inf
ROOT
ATOM      1  C   UNL A   1      37.672  22.812  25.923  1.00  0.00     0.023 C 
ENDROOT
BRANCH   1   2
ATOM      2  C   UNL A   1      36.160  23.030  25.897  1.00  0.00     0.023 C 
BRANCH   2   3
ATOM      3  C   UNL A   1      35.691  24.448  25.595  1.00  0.00     0.116 C 
BRANCH   3   4
ATOM      4  N   UNL A   1      35.094  24.595  24.284  1.00  0.00    -0.351 N 
ATOM      5  C   UNL A   1      33.988  25.192  23.764  1.00  0.00     0.281 C 
ATOM      6  O   UNL A   1      33.971  25.109  22.526  1.00  0.00    -0.268 OA
ATOM      7  H   UNL A   1      35.627  24.146  23.589  1.00  0.00     0.163 HD
BRANCH   5   8
ATOM      8  C   UNL A   1      32.717  25.794  24.578  1.00  0.00     0.182 C 
ATOM      9  C   UNL A   1      30.614  27.429  24.094  1.00  0.00     0.018 C 
ATOM     10  C   UNL A   1      31.910  26.768  23.532  1.00  0.00     0.029 C 
ATOM     11  C   UNL A   1      31.436  26.059  22.237  1.00  0.00     0.018 C 
ATOM     12  C   UNL A   1      32.860  27.938  23.129  1.00  0.00     0.013 C 
ATOM     13  C   UNL A   1      33.315  28.770  24.327  1.00  0.00     0.001 C 
ATOM     14  C   UNL A   1      33.111  26.696  25.784  1.00  0.00     0.080 C 
ATOM     15  C   UNL A   1      33.959  27.914  25.405  1.00  0.00     0.007 C 
BRANCH   8  16
ATOM     16  N   UNL A   1      31.889  24.590  25.019  1.00  0.00    -0.313 N 
ATOM     17  C   UNL A   1      31.664  24.429  26.470  1.00  0.00     0.325 C 
ATOM     18  C   UNL A   1      32.378  23.291  24.482  1.00  0.00     0.325 C 
ATOM     19  H   UNL A   1      30.990  24.831  24.603  1.00  0.00     0.349 HD
ATOM     20  C   UNL A   1      30.758  23.224  26.817  1.00  0.00     0.322 C 
ATOM     21  C   UNL A   1      31.520  22.066  24.893  1.00  0.00     0.322 C 
ATOM     22  N   UNL A   1      31.318  21.950  26.345  1.00  0.00    -0.337 N 
ATOM     23  H   UNL A   1      30.668  21.189  26.546  1.00  0.00     0.346 HD
ATOM     24  H   UNL A   1      32.199  21.750  26.815  1.00  0.00     0.346 HD
ENDBRANCH   8  16
ENDBRANCH   5   8
ENDBRANCH   3   4
ENDBRANCH   2   3
ENDBRANCH   1   2
BRANCH   1  25
ATOM     25  C   UNL A   1      38.515  23.969  26.455  1.00  0.00     0.116 C 
BRANCH  25  26
ATOM     26  N   UNL A   1      39.942  23.827  26.200  1.00  0.00    -0.352 N 
ATOM     27  C   UNL A   1      40.993  24.590  26.651  1.00  0.00     0.251 C 
ATOM     28  H   UNL A   1      40.191  23.072  25.618  1.00  0.00     0.163 HD
ATOM     29  O   UNL A   1      42.135  24.343  26.274  1.00  0.00    -0.269 OA
BRANCH  27  30
ATOM     30  C   UNL A   1      40.738  25.733  27.552  1.00  0.00     0.039 A 
ATOM     31  C   UNL A   1      39.772  25.597  28.553  1.00  0.00     0.014 A 
ATOM     32  C   UNL A   1      41.479  26.913  27.444  1.00  0.00     0.014 A 
ATOM     33  C   UNL A   1      39.619  26.606  29.507  1.00  0.00     0.010 A 
ATOM     34  C   UNL A   1      41.371  27.886  28.434  1.00  0.00     0.010 A 
ATOM     35  C   UNL A   1      40.452  27.736  29.484  1.00  0.00    -0.014 A 
BRANCH  35  36
ATOM     36  C   UNL A   1      40.407  28.752  30.568  1.00  0.00     0.031 A 
ATOM     37  C   UNL A   1      41.290  28.610  31.777  1.00  0.00     0.074 A 
ATOM     38  C   UNL A   1      39.501  29.751  30.505  1.00  0.00     0.049 A 
ATOM     39  N   UNL A   1      41.325  29.342  32.861  1.00  0.00    -0.248 NA
ATOM     40  C   UNL A   1      42.238  27.482  31.785  1.00  0.00     0.031 C 
ATOM     41  C   UNL A   1      38.542  29.962  29.417  1.00  0.00     0.029 A 
ATOM     42  N   UNL A   1      39.227  30.767  31.387  1.00  0.00    -0.354 N 
ATOM     43  C   UNL A   1      42.268  28.748  33.690  1.00  0.00     0.074 A 
ATOM     44  C   UNL A   1      42.763  27.578  32.999  1.00  0.00     0.031 C 
ATOM     45  C   UNL A   1      37.794  31.045  29.692  1.00  0.00     0.029 A 
ATOM     46  C   UNL A   1      38.194  31.584  30.986  1.00  0.00     0.049 A 
ATOM     47  H   UNL A   1      39.722  30.898  32.228  1.00  0.00     0.167 HD
ATOM     48  C   UNL A   1      42.693  29.147  34.912  1.00  0.00     0.031 A 
ATOM     49  C   UNL A   1      37.626  32.643  31.596  1.00  0.00     0.031 A 
ATOM     50  C   UNL A   1      42.233  30.335  35.579  1.00  0.00     0.049 A 
ATOM     51  C   UNL A   1      38.151  33.091  32.933  1.00  0.00     0.074 A 
ATOM     52  C   UNL A   1      42.677  30.874  36.774  1.00  0.00     0.029 A 
ATOM     53  N   UNL A   1      41.229  31.168  35.112  1.00  0.00    -0.354 N 
ATOM     54  N   UNL A   1      39.111  32.567  33.656  1.00  0.00    -0.248 NA
ATOM     55  C   UNL A   1      37.525  34.280  33.530  1.00  0.00     0.031 C 
ATOM     56  C   UNL A   1      41.914  32.012  37.051  1.00  0.00     0.029 A 
ATOM     57  C   UNL A   1      41.026  32.206  36.005  1.00  0.00     0.049 A 
ATOM     58  H   UNL A   1      40.735  31.042  34.271  1.00  0.00     0.167 HD
ATOM     59  C   UNL A   1      39.222  33.378  34.781  1.00  0.00     0.074 A 
ATOM     60  C   UNL A   1      38.243  34.435  34.633  1.00  0.00     0.031 C 
ATOM     61  C   UNL A   1      40.057  33.257  35.840  1.00  0.00     0.031 A 
BRANCH  48  62
ATOM     62  C   UNL A   1      43.719  28.300  35.613  1.00  0.00    -0.014 A 
ATOM     63  C   UNL A   1      43.332  27.252  36.467  1.00  0.00     0.010 A 
ATOM     64  C   UNL A   1      45.085  28.502  35.348  1.00  0.00     0.010 A 
ATOM     65  C   UNL A   1      44.297  26.434  37.061  1.00  0.00     0.020 A 
ATOM     66  C   UNL A   1      46.052  27.671  35.922  1.00  0.00     0.020 A 
ATOM     67  C   UNL A   1      45.650  26.648  36.784  1.00  0.00     0.054 A 
BRANCH  67  68
ATOM     68  S   UNL A   1      46.876  25.531  37.520  1.00  0.00     0.124 S 
ATOM     69  O   UNL A   1      48.122  26.253  37.280  1.00  0.00    -0.237 OA
ATOM     70  O   UNL A   1      46.451  25.462  38.915  1.00  0.00    -0.237 OA
ATOM     71  O   UNL A   1      46.717  24.293  36.761  1.00  0.00    -0.744 OA
ENDBRANCH  67  68
ENDBRANCH  48  62
BRANCH  49  72
ATOM     72  C   UNL A   1      36.490  33.361  30.954  1.00  0.00    -0.014 A 
ATOM     73  C   UNL A   1      36.667  34.029  29.730  1.00  0.00     0.010 A 
ATOM     74  C   UNL A   1      35.231  33.400  31.580  1.00  0.00     0.010 A 
ATOM     75  C   UNL A   1      35.617  34.757  29.162  1.00  0.00     0.020 A 
ATOM     76  C   UNL A   1      34.171  34.104  31.001  1.00  0.00     0.020 A 
ATOM     77  C   UNL A   1      34.377  34.794  29.806  1.00  0.00     0.054 A 
BRANCH  77  78
ATOM     78  S   UNL A   1      33.019  35.728  29.046  1.00  0.00     0.124 S 
ATOM     79  O   UNL A   1      32.256  36.155  30.214  1.00  0.00    -0.237 OA
ATOM     80  O   UNL A   1      33.723  36.788  28.329  1.00  0.00    -0.237 OA
ATOM     81  O   UNL A   1      32.363  34.739  28.193  1.00  0.00    -0.744 OA
ENDBRANCH  77  78
ENDBRANCH  49  72
BRANCH  61  82
ATOM     82  C   UNL A   1      39.981  34.313  36.907  1.00  0.00    -0.014 A 
ATOM     83  C   UNL A   1      40.704  35.513  36.795  1.00  0.00     0.010 A 
ATOM     84  C   UNL A   1      39.129  34.124  38.010  1.00  0.00     0.010 A 
ATOM     85  C   UNL A   1      40.596  36.495  37.782  1.00  0.00     0.020 A 
ATOM     86  C   UNL A   1      38.999  35.115  38.987  1.00  0.00     0.020 A 
ATOM     87  C   UNL A   1      39.745  36.289  38.872  1.00  0.00     0.054 A 
BRANCH  87  88
ATOM     88  S   UNL A   1      39.584  37.599  40.118  1.00  0.00     0.124 S 
ATOM     89  O   UNL A   1      40.633  38.530  39.716  1.00  0.00    -0.237 OA
ATOM     90  O   UNL A   1      38.215  38.069  39.917  1.00  0.00    -0.237 OA
ATOM     91  O   UNL A   1      39.817  36.903  41.382  1.00  0.00    -0.744 OA
ENDBRANCH  87  88
ENDBRANCH  61  82
ENDBRANCH  35  36
ENDBRANCH  27  30
ENDBRANCH  25  26
ENDBRANCH   1  25
TORSDOF 15
ENDMDL
MODEL 3
REMARK VINA RESULT:     -10.7      1.168      2.084
REMARK SMILES CC1(C)CCCC[C@@]1(C(=O)NCCCCNC(=O)c1ccc(-c2c3nc(c(-c4ccc(S(=O)(=O)[O-])cc4)c4ccc([nH]4)c(-c4ccc(S(=O)(=O)[O-])cc4)c4nc(c(-c5ccc(S(=O)(=O)[O-])cc5)c5ccc2[nH]5)C=C4)C=C3)cc1)[NH+]1CC[NH2+]CC1
REMARK SMILES IDX 14 1 13 2 12 3 11 4 9 5 10 6 8 8 1 9 2 10 3 11 4 12 5 13
REMARK SMILES IDX 7 14 6 15 79 16 80 17 84 18 81 20 83 21 82 22 15 25 16 26
REMARK SMILES IDX 17 27 18 29 19 30 20 31 78 32 21 33 77 34 22 35 23 36 24 37
REMARK SMILES IDX 71 38 25 39 76 40 70 41 72 42 26 43 75 44 69 45 68 46 27 48
REMARK SMILES IDX 57 49 38 50 56 51 39 52 42 53 55 54 73 55 40 56 41 57 54 59
REMARK SMILES IDX 74 60 43 61 28 62 29 63 37 64 30 65 36 66 31 67 32 68 33 69
REMARK SMILES IDX 34 70 35 71 58 72 59 73 67 74 60 75 66 76 61 77 62 78 63 79
REMARK SMILES IDX 64 80 65 81 44 82 45 83 53 84 46 85 52 86 47 87 48 88 49 89
REMARK SMILES IDX 50 90 51 91
REMARK H PARENT 11 7 79 19 82 23 82 24 16 28 72 47 42 58
REMARK Flexibility Score: inf
ROOT
ATOM      1  C   UNL A   1      31.894  28.318  27.386  1.00  0.00     0.023 C 
ENDROOT
BRANCH   1   2
ATOM      2  C   UNL A   1      31.634  27.032  26.603  1.00  0.00     0.023 C 
BRANCH   2   3
ATOM      3  C   UNL A   1      32.807  26.065  26.492  1.00  0.00     0.116 C 
BRANCH   3   4
ATOM      4  N   UNL A   1      33.202  25.787  25.127  1.00  0.00    -0.351 N 
ATOM      5  C   UNL A   1      33.483  24.681  24.387  1.00  0.00     0.281 C 
ATOM      6  O   UNL A   1      33.688  24.974  23.198  1.00  0.00    -0.268 OA
ATOM      7  H   UNL A   1      33.291  26.613  24.599  1.00  0.00     0.163 HD
BRANCH   5   8
ATOM      8  C   UNL A   1      33.722  23.167  24.926  1.00  0.00     0.182 C 
ATOM      9  C   UNL A   1      32.813  20.675  24.384  1.00  0.00     0.018 C 
ATOM     10  C   UNL A   1      32.721  22.198  24.059  1.00  0.00     0.029 C 
ATOM     11  C   UNL A   1      32.937  22.266  22.525  1.00  0.00     0.018 C 
ATOM     12  C   UNL A   1      31.251  22.623  24.365  1.00  0.00     0.013 C 
ATOM     13  C   UNL A   1      30.896  22.501  25.846  1.00  0.00     0.001 C 
ATOM     14  C   UNL A   1      33.331  22.961  26.417  1.00  0.00     0.080 C 
ATOM     15  C   UNL A   1      31.864  23.271  26.730  1.00  0.00     0.007 C 
BRANCH   8  16
ATOM     16  N   UNL A   1      35.197  22.860  24.680  1.00  0.00    -0.313 N 
ATOM     17  C   UNL A   1      35.659  21.496  25.007  1.00  0.00     0.325 C 
ATOM     18  C   UNL A   1      36.131  23.828  25.316  1.00  0.00     0.325 C 
ATOM     19  H   UNL A   1      35.230  22.949  23.664  1.00  0.00     0.349 HD
ATOM     20  C   UNL A   1      37.148  21.256  24.660  1.00  0.00     0.322 C 
ATOM     21  C   UNL A   1      37.630  23.546  25.038  1.00  0.00     0.322 C 
ATOM     22  N   UNL A   1      38.043  22.175  25.374  1.00  0.00    -0.337 N 
ATOM     23  H   UNL A   1      39.008  22.020  25.079  1.00  0.00     0.346 HD
ATOM     24  H   UNL A   1      37.988  22.020  26.380  1.00  0.00     0.346 HD
ENDBRANCH   8  16
ENDBRANCH   5   8
ENDBRANCH   3   4
ENDBRANCH   2   3
ENDBRANCH   1   2
BRANCH   1  25
ATOM     25  C   UNL A   1      33.329  28.841  27.374  1.00  0.00     0.116 C 
BRANCH  25  26
ATOM     26  N   UNL A   1      33.440  30.269  27.638  1.00  0.00    -0.352 N 
ATOM     27  C   UNL A   1      34.519  30.997  28.080  1.00  0.00     0.251 C 
ATOM     28  H   UNL A   1      32.620  30.790  27.477  1.00  0.00     0.163 HD
ATOM     29  O   UNL A   1      34.399  32.198  28.302  1.00  0.00    -0.269 OA
BRANCH  27  30
ATOM     30  C   UNL A   1      35.810  30.320  28.332  1.00  0.00     0.039 A 
ATOM     31  C   UNL A   1      36.765  30.296  27.312  1.00  0.00     0.014 A 
ATOM     32  C   UNL A   1      36.095  29.758  29.578  1.00  0.00     0.014 A 
ATOM     33  C   UNL A   1      38.042  29.795  27.574  1.00  0.00     0.010 A 
ATOM     34  C   UNL A   1      37.389  29.323  29.856  1.00  0.00     0.010 A 
ATOM     35  C   UNL A   1      38.380  29.351  28.862  1.00  0.00    -0.014 A 
BRANCH  35  36
ATOM     36  C   UNL A   1      39.769  28.951  29.203  1.00  0.00     0.031 A 
ATOM     37  C   UNL A   1      40.717  29.945  29.815  1.00  0.00     0.074 A 
ATOM     38  C   UNL A   1      40.205  27.716  28.873  1.00  0.00     0.049 A 
ATOM     39  N   UNL A   1      41.987  29.807  30.095  1.00  0.00    -0.248 NA
ATOM     40  C   UNL A   1      40.177  31.280  30.127  1.00  0.00     0.031 C 
ATOM     41  C   UNL A   1      39.404  26.679  28.216  1.00  0.00     0.029 A 
ATOM     42  N   UNL A   1      41.437  27.130  29.028  1.00  0.00    -0.354 N 
ATOM     43  C   UNL A   1      42.405  31.039  30.581  1.00  0.00     0.074 A 
ATOM     44  C   UNL A   1      41.262  31.924  30.533  1.00  0.00     0.031 C 
ATOM     45  C   UNL A   1      40.162  25.584  28.035  1.00  0.00     0.029 A 
ATOM     46  C   UNL A   1      41.508  25.849  28.530  1.00  0.00     0.049 A 
ATOM     47  H   UNL A   1      42.199  27.584  29.455  1.00  0.00     0.167 HD
ATOM     48  C   UNL A   1      43.627  31.399  31.038  1.00  0.00     0.031 A 
ATOM     49  C   UNL A   1      42.542  24.988  28.469  1.00  0.00     0.031 A 
ATOM     50  C   UNL A   1      44.752  30.506  31.128  1.00  0.00     0.049 A 
ATOM     51  C   UNL A   1      43.876  25.400  29.028  1.00  0.00     0.074 A 
ATOM     52  C   UNL A   1      46.002  30.753  31.669  1.00  0.00     0.029 A 
ATOM     53  N   UNL A   1      44.765  29.200  30.669  1.00  0.00    -0.354 N 
ATOM     54  N   UNL A   1      44.223  26.542  29.571  1.00  0.00    -0.248 NA
ATOM     55  C   UNL A   1      44.956  24.403  28.977  1.00  0.00     0.031 C 
ATOM     56  C   UNL A   1      46.785  29.607  31.501  1.00  0.00     0.029 A 
ATOM     57  C   UNL A   1      46.007  28.634  30.896  1.00  0.00     0.049 A 
ATOM     58  H   UNL A   1      44.004  28.741  30.244  1.00  0.00     0.167 HD
ATOM     59  C   UNL A   1      45.552  26.391  29.951  1.00  0.00     0.074 A 
ATOM     60  C   UNL A   1      45.941  25.044  29.590  1.00  0.00     0.031 C 
ATOM     61  C   UNL A   1      46.376  27.288  30.542  1.00  0.00     0.031 A 
BRANCH  48  62
ATOM     62  C   UNL A   1      43.821  32.820  31.492  1.00  0.00    -0.014 A 
ATOM     63  C   UNL A   1      43.346  33.253  32.742  1.00  0.00     0.010 A 
ATOM     64  C   UNL A   1      44.561  33.709  30.692  1.00  0.00     0.010 A 
ATOM     65  C   UNL A   1      43.590  34.559  33.176  1.00  0.00     0.020 A 
ATOM     66  C   UNL A   1      44.827  35.009  31.132  1.00  0.00     0.020 A 
ATOM     67  C   UNL A   1      44.330  35.428  32.369  1.00  0.00     0.054 A 
BRANCH  67  68
ATOM     68  S   UNL A   1      44.684  37.098  32.985  1.00  0.00     0.124 S 
ATOM     69  O   UNL A   1      44.718  37.873  31.747  1.00  0.00    -0.237 OA
ATOM     70  O   UNL A   1      43.547  37.365  33.861  1.00  0.00    -0.237 OA
ATOM     71  O   UNL A   1      45.969  36.951  33.664  1.00  0.00    -0.744 OA
ENDBRANCH  67  68
ENDBRANCH  48  62
BRANCH  49  72
ATOM     72  C   UNL A   1      42.366  23.643  27.854  1.00  0.00    -0.014 A 
ATOM     73  C   UNL A   1      41.922  22.556  28.627  1.00  0.00     0.010 A 
ATOM     74  C   UNL A   1      42.667  23.440  26.495  1.00  0.00     0.010 A 
ATOM     75  C   UNL A   1      41.821  21.280  28.063  1.00  0.00     0.020 A 
ATOM     76  C   UNL A   1      42.539  22.171  25.921  1.00  0.00     0.020 A 
ATOM     77  C   UNL A   1      42.136  21.096  26.714  1.00  0.00     0.054 A 
BRANCH  77  78
ATOM     78  S   UNL A   1      41.980  19.438  25.993  1.00  0.00     0.124 S 
ATOM     79  O   UNL A   1      42.854  19.533  24.828  1.00  0.00    -0.237 OA
ATOM     80  O   UNL A   1      42.457  18.575  27.072  1.00  0.00    -0.237 OA
ATOM     81  O   UNL A   1      40.553  19.327  25.702  1.00  0.00    -0.744 OA
ENDBRANCH  77  78
ENDBRANCH  49  72
BRANCH  61  82
ATOM     82  C   UNL A   1      47.770  26.835  30.876  1.00  0.00    -0.014 A 
ATOM     83  C   UNL A   1      48.817  26.961  29.946  1.00  0.00     0.010 A 
ATOM     84  C   UNL A   1      48.047  26.329  32.159  1.00  0.00     0.010 A 
ATOM     85  C   UNL A   1      50.112  26.563  30.285  1.00  0.00     0.020 A 
ATOM     86  C   UNL A   1      49.346  25.953  32.511  1.00  0.00     0.020 A 
ATOM     87  C   UNL A   1      50.368  26.060  31.566  1.00  0.00     0.054 A 
BRANCH  87  88
ATOM     88  S   UNL A   1      52.067  25.595  32.001  1.00  0.00     0.124 S 
ATOM     89  O   UNL A   1      52.288  26.364  33.222  1.00  0.00    -0.237 OA
ATOM     90  O   UNL A   1      51.970  24.148  32.179  1.00  0.00    -0.237 OA
ATOM     91  O   UNL A   1      52.849  26.022  30.843  1.00  0.00    -0.744 OA
ENDBRANCH  87  88
ENDBRANCH  61  82
ENDBRANCH  35  36
ENDBRANCH  27  30
ENDBRANCH  25  26
ENDBRANCH   1  25
TORSDOF 15
ENDMDL
