MODEL 1
REMARK VINA RESULT:     -12.0      0.000      0.000
REMARK SMILES Cc1cc(C(=O)Nc2c(Cl)cc(Cl)cc2C(=O)NCCCCNC(=O)c2ccc(-c3c4nc(c(-c5ccc(S(=O)(=O)[O-])cc5)c5ccc([nH]5)c(-c5ccc(S(=O)(=O)[O-])cc5)c5nc(c(-c6ccc(S(=O)(=O)[O-])cc6)c6ccc3[nH]6)C=C5)C=C4)cc2)c(C)s1
REMARK SMILES IDX 21 1 20 2 19 3 18 4 16 5 17 6 15 8 8 9 9 10 10 11 11 12
REMARK SMILES IDX 14 13 12 14 13 15 7 16 5 17 6 18 4 20 1 21 2 22 3 23 88 24
REMARK SMILES IDX 86 25 87 26 22 27 23 28 24 29 25 31 26 32 27 33 85 34 28 35
REMARK SMILES IDX 84 36 29 37 30 38 31 39 78 40 32 41 83 42 77 43 79 44 33 45
REMARK SMILES IDX 82 46 76 47 75 48 34 50 64 51 45 52 63 53 46 54 49 55 62 56
REMARK SMILES IDX 80 57 47 58 48 59 61 61 81 62 50 63 35 64 36 65 44 66 37 67
REMARK SMILES IDX 43 68 38 69 39 70 40 71 41 72 42 73 65 74 66 75 74 76 67 77
REMARK SMILES IDX 73 78 68 79 69 80 70 81 71 82 72 83 51 84 52 85 60 86 53 87
REMARK SMILES IDX 59 88 54 89 55 90 56 91 57 92 58 93
REMARK H PARENT 18 7 7 19 23 30 79 49 49 60
REMARK Flexibility Score: inf
ROOT
ATOM      1  C   UNL A   1      40.113  21.719  26.579  1.00  0.00     0.023 C 
ENDROOT
BRANCH   1   2
ATOM      2  C   UNL A   1      38.858  21.260  25.841  1.00  0.00     0.023 C 
BRANCH   2   3
ATOM      3  C   UNL A   1      37.691  22.235  25.777  1.00  0.00     0.116 C 
BRANCH   3   4
ATOM      4  N   UNL A   1      37.274  22.687  24.474  1.00  0.00    -0.352 N 
ATOM      5  C   UNL A   1      36.020  22.860  23.940  1.00  0.00     0.253 C 
ATOM      6  O   UNL A   1      35.962  23.330  22.800  1.00  0.00    -0.269 OA
ATOM      7  H   UNL A   1      38.013  22.909  23.863  1.00  0.00     0.163 HD
BRANCH   5   8
ATOM      8  C   UNL A   1      34.717  22.479  24.580  1.00  0.00     0.066 A 
ATOM      9  C   UNL A   1      33.828  23.278  25.330  1.00  0.00     0.073 A 
ATOM     10  C   UNL A   1      32.553  22.760  25.678  1.00  0.00     0.066 A 
ATOM     11  Cl  UNL A   1      31.333  23.739  26.430  1.00  0.00    -0.082 Cl
ATOM     12  C   UNL A   1      32.214  21.434  25.417  1.00  0.00     0.043 A 
ATOM     13  C   UNL A   1      34.344  21.139  24.326  1.00  0.00     0.036 A 
ATOM     14  C   UNL A   1      33.127  20.621  24.764  1.00  0.00     0.043 A 
ATOM     15  Cl  UNL A   1      32.742  18.969  24.483  1.00  0.00    -0.084 Cl
BRANCH   9  16
ATOM     16  N   UNL A   1      34.157  24.581  25.725  1.00  0.00    -0.320 N 
ATOM     17  C   UNL A   1      33.900  25.789  25.080  1.00  0.00     0.256 C 
ATOM     18  O   UNL A   1      34.345  26.793  25.640  1.00  0.00    -0.269 OA
ATOM     19  H   UNL A   1      34.639  24.654  26.580  1.00  0.00     0.170 HD
BRANCH  17  20
ATOM     20  C   UNL A   1      33.034  25.892  23.874  1.00  0.00     0.054 A 
ATOM     21  C   UNL A   1      32.496  25.605  20.133  1.00  0.00     0.056 C 
ATOM     22  C   UNL A   1      32.390  25.809  21.604  1.00  0.00     0.003 A 
ATOM     23  C   UNL A   1      33.171  25.253  22.591  1.00  0.00     0.029 A 
ATOM     24  S   UNL A   1      31.206  26.818  22.275  1.00  0.00    -0.145 S 
ATOM     25  C   UNL A   1      31.823  26.592  23.865  1.00  0.00     0.014 A 
ATOM     26  C   UNL A   1      31.034  27.180  24.994  1.00  0.00     0.057 C 
ENDBRANCH  17  20
ENDBRANCH   9  16
ENDBRANCH   5   8
ENDBRANCH   3   4
ENDBRANCH   2   3
ENDBRANCH   1   2
BRANCH   1  27
ATOM     27  C   UNL A   1      40.194  23.186  26.992  1.00  0.00     0.116 C 
BRANCH  27  28
ATOM     28  N   UNL A   1      40.808  24.067  26.009  1.00  0.00    -0.352 N 
ATOM     29  C   UNL A   1      41.271  25.360  26.120  1.00  0.00     0.251 C 
ATOM     30  H   UNL A   1      40.910  23.672  25.113  1.00  0.00     0.163 HD
ATOM     31  O   UNL A   1      41.718  25.924  25.121  1.00  0.00    -0.269 OA
BRANCH  29  32
ATOM     32  C   UNL A   1      41.190  26.107  27.399  1.00  0.00     0.039 A 
ATOM     33  C   UNL A   1      42.200  27.028  27.695  1.00  0.00     0.014 A 
ATOM     34  C   UNL A   1      40.148  25.920  28.308  1.00  0.00     0.014 A 
ATOM     35  C   UNL A   1      42.104  27.832  28.835  1.00  0.00     0.010 A 
ATOM     36  C   UNL A   1      40.002  26.785  29.394  1.00  0.00     0.010 A 
ATOM     37  C   UNL A   1      40.971  27.763  29.663  1.00  0.00    -0.014 A 
BRANCH  37  38
ATOM     38  C   UNL A   1      40.779  28.729  30.781  1.00  0.00     0.031 A 
ATOM     39  C   UNL A   1      41.609  28.636  32.035  1.00  0.00     0.074 A 
ATOM     40  C   UNL A   1      39.815  29.669  30.687  1.00  0.00     0.049 A 
ATOM     41  N   UNL A   1      41.556  29.376  33.114  1.00  0.00    -0.248 NA
ATOM     42  C   UNL A   1      42.613  27.561  32.097  1.00  0.00     0.031 C 
ATOM     43  C   UNL A   1      38.895  29.832  29.556  1.00  0.00     0.029 A 
ATOM     44  N   UNL A   1      39.444  30.666  31.556  1.00  0.00    -0.354 N 
ATOM     45  C   UNL A   1      42.512  28.857  33.980  1.00  0.00     0.074 A 
ATOM     46  C   UNL A   1      43.088  27.703  33.328  1.00  0.00     0.031 C 
ATOM     47  C   UNL A   1      38.091  30.883  29.786  1.00  0.00     0.029 A 
ATOM     48  C   UNL A   1      38.409  31.449  31.093  1.00  0.00     0.049 A 
ATOM     49  H   UNL A   1      39.876  30.809  32.428  1.00  0.00     0.167 HD
ATOM     50  C   UNL A   1      42.899  29.315  35.195  1.00  0.00     0.031 A 
ATOM     51  C   UNL A   1      37.783  32.502  31.653  1.00  0.00     0.031 A 
ATOM     52  C   UNL A   1      42.336  30.470  35.845  1.00  0.00     0.049 A 
ATOM     53  C   UNL A   1      38.236  32.992  33.002  1.00  0.00     0.074 A 
ATOM     54  C   UNL A   1      42.688  31.030  37.062  1.00  0.00     0.029 A 
ATOM     55  N   UNL A   1      41.308  31.246  35.332  1.00  0.00    -0.354 N 
ATOM     56  N   UNL A   1      39.185  32.520  33.774  1.00  0.00    -0.248 NA
ATOM     57  C   UNL A   1      37.545  34.169  33.546  1.00  0.00     0.031 C 
ATOM     58  C   UNL A   1      41.848  32.122  37.302  1.00  0.00     0.029 A 
ATOM     59  C   UNL A   1      41.007  32.274  36.211  1.00  0.00     0.049 A 
ATOM     60  H   UNL A   1      40.859  31.090  34.470  1.00  0.00     0.167 HD
ATOM     61  C   UNL A   1      39.217  33.356  34.884  1.00  0.00     0.074 A 
ATOM     62  C   UNL A   1      38.214  34.378  34.670  1.00  0.00     0.031 C 
ATOM     63  C   UNL A   1      40.005  33.282  35.987  1.00  0.00     0.031 A 
BRANCH  50  64
ATOM     64  C   UNL A   1      44.008  28.576  35.897  1.00  0.00    -0.014 A 
ATOM     65  C   UNL A   1      45.347  28.980  35.744  1.00  0.00     0.010 A 
ATOM     66  C   UNL A   1      43.710  27.514  36.769  1.00  0.00     0.010 A 
ATOM     67  C   UNL A   1      46.370  28.318  36.426  1.00  0.00     0.020 A 
ATOM     68  C   UNL A   1      44.730  26.865  37.475  1.00  0.00     0.020 A 
ATOM     69  C   UNL A   1      46.055  27.265  37.289  1.00  0.00     0.054 A 
BRANCH  69  70
ATOM     70  S   UNL A   1      47.401  26.454  38.195  1.00  0.00     0.124 S 
ATOM     71  O   UNL A   1      47.883  25.484  37.215  1.00  0.00    -0.237 OA
ATOM     72  O   UNL A   1      48.308  27.563  38.479  1.00  0.00    -0.237 OA
ATOM     73  O   UNL A   1      46.737  25.880  39.363  1.00  0.00    -0.744 OA
ENDBRANCH  69  70
ENDBRANCH  50  64
BRANCH  51  74
ATOM     74  C   UNL A   1      36.658  33.172  30.943  1.00  0.00    -0.014 A 
ATOM     75  C   UNL A   1      36.892  33.952  29.797  1.00  0.00     0.010 A 
ATOM     76  C   UNL A   1      35.342  33.051  31.429  1.00  0.00     0.010 A 
ATOM     77  C   UNL A   1      35.841  34.630  29.173  1.00  0.00     0.020 A 
ATOM     78  C   UNL A   1      34.283  33.701  30.789  1.00  0.00     0.020 A 
ATOM     79  C   UNL A   1      34.543  34.504  29.676  1.00  0.00     0.054 A 
BRANCH  79  80
ATOM     80  S   UNL A   1      33.187  35.375  28.841  1.00  0.00     0.124 S 
ATOM     81  O   UNL A   1      32.434  35.912  29.970  1.00  0.00    -0.237 OA
ATOM     82  O   UNL A   1      33.895  36.359  28.027  1.00  0.00    -0.237 OA
ATOM     83  O   UNL A   1      32.518  34.319  28.086  1.00  0.00    -0.744 OA
ENDBRANCH  79  80
ENDBRANCH  51  74
BRANCH  63  84
ATOM     84  C   UNL A   1      39.829  34.354  37.030  1.00  0.00    -0.014 A 
ATOM     85  C   UNL A   1      40.473  35.598  36.912  1.00  0.00     0.010 A 
ATOM     86  C   UNL A   1      38.990  34.119  38.134  1.00  0.00     0.010 A 
ATOM     87  C   UNL A   1      40.317  36.571  37.902  1.00  0.00     0.020 A 
ATOM     88  C   UNL A   1      38.808  35.100  39.112  1.00  0.00     0.020 A 
ATOM     89  C   UNL A   1      39.490  36.314  38.999  1.00  0.00     0.054 A 
BRANCH  89  90
ATOM     90  S   UNL A   1      39.290  37.599  40.263  1.00  0.00     0.124 S 
ATOM     91  O   UNL A   1      38.820  36.825  41.410  1.00  0.00    -0.237 OA
ATOM     92  O   UNL A   1      40.639  38.145  40.384  1.00  0.00    -0.237 OA
ATOM     93  O   UNL A   1      38.306  38.508  39.680  1.00  0.00    -0.744 OA
ENDBRANCH  89  90
ENDBRANCH  63  84
ENDBRANCH  37  38
ENDBRANCH  29  32
ENDBRANCH  27  28
ENDBRANCH   1  27
TORSDOF 16
ENDMDL
MODEL 2
REMARK VINA RESULT:     -12.0      4.394     10.179
REMARK SMILES Cc1cc(C(=O)Nc2c(Cl)cc(Cl)cc2C(=O)NCCCCNC(=O)c2ccc(-c3c4nc(c(-c5ccc(S(=O)(=O)[O-])cc5)c5ccc([nH]5)c(-c5ccc(S(=O)(=O)[O-])cc5)c5nc(c(-c6ccc(S(=O)(=O)[O-])cc6)c6ccc3[nH]6)C=C5)C=C4)cc2)c(C)s1
REMARK SMILES IDX 21 1 20 2 19 3 18 4 16 5 17 6 15 8 8 9 9 10 10 11 11 12
REMARK SMILES IDX 14 13 12 14 13 15 7 16 5 17 6 18 4 20 1 21 2 22 3 23 88 24
REMARK SMILES IDX 86 25 87 26 22 27 23 28 24 29 25 31 26 32 27 33 85 34 28 35
REMARK SMILES IDX 84 36 29 37 30 38 31 39 78 40 32 41 83 42 77 43 79 44 33 45
REMARK SMILES IDX 82 46 76 47 75 48 34 50 64 51 45 52 63 53 46 54 49 55 62 56
REMARK SMILES IDX 80 57 47 58 48 59 61 61 81 62 50 63 35 64 36 65 44 66 37 67
REMARK SMILES IDX 43 68 38 69 39 70 40 71 41 72 42 73 65 74 66 75 74 76 67 77
REMARK SMILES IDX 73 78 68 79 69 80 70 81 71 82 72 83 51 84 52 85 60 86 53 87
REMARK SMILES IDX 59 88 54 89 55 90 56 91 57 92 58 93
REMARK H PARENT 18 7 7 19 23 30 79 49 49 60
REMARK Flexibility Score: inf
ROOT
ATOM      1  C   UNL A   1      33.879  28.120  26.013  1.00  0.00     0.023 C 
ENDROOT
BRANCH   1   2
ATOM      2  C   UNL A   1      33.551  28.907  24.747  1.00  0.00     0.023 C 
BRANCH   2   3
ATOM      3  C   UNL A   1      32.693  28.214  23.699  1.00  0.00     0.116 C 
BRANCH   3   4
ATOM      4  N   UNL A   1      33.295  27.137  22.955  1.00  0.00    -0.352 N 
ATOM      5  C   UNL A   1      33.324  25.784  23.192  1.00  0.00     0.253 C 
ATOM      6  O   UNL A   1      33.867  25.081  22.336  1.00  0.00    -0.269 OA
ATOM      7  H   UNL A   1      33.765  27.418  22.136  1.00  0.00     0.163 HD
BRANCH   5   8
ATOM      8  C   UNL A   1      32.815  25.083  24.417  1.00  0.00     0.066 A 
ATOM      9  C   UNL A   1      33.466  24.134  25.234  1.00  0.00     0.073 A 
ATOM     10  C   UNL A   1      32.866  23.744  26.461  1.00  0.00     0.066 A 
ATOM     11  Cl  UNL A   1      33.686  22.732  27.607  1.00  0.00    -0.082 Cl
ATOM     12  C   UNL A   1      31.587  24.172  26.809  1.00  0.00     0.043 A 
ATOM     13  C   UNL A   1      31.519  25.502  24.799  1.00  0.00     0.036 A 
ATOM     14  C   UNL A   1      30.908  25.031  25.960  1.00  0.00     0.043 A 
ATOM     15  Cl  UNL A   1      29.308  25.523  26.352  1.00  0.00    -0.084 Cl
BRANCH   9  16
ATOM     16  N   UNL A   1      34.702  23.578  24.881  1.00  0.00    -0.320 N 
ATOM     17  C   UNL A   1      35.032  22.246  24.637  1.00  0.00     0.256 C 
ATOM     18  O   UNL A   1      36.219  22.035  24.382  1.00  0.00    -0.269 OA
ATOM     19  H   UNL A   1      35.443  24.219  24.792  1.00  0.00     0.170 HD
BRANCH  17  20
ATOM     20  C   UNL A   1      34.014  21.165  24.551  1.00  0.00     0.054 A 
ATOM     21  C   UNL A   1      32.681  17.764  25.565  1.00  0.00     0.056 C 
ATOM     22  C   UNL A   1      32.935  19.107  24.975  1.00  0.00     0.003 A 
ATOM     23  C   UNL A   1      33.697  20.127  25.498  1.00  0.00     0.029 A 
ATOM     24  S   UNL A   1      32.262  19.564  23.489  1.00  0.00    -0.145 S 
ATOM     25  C   UNL A   1      33.089  21.073  23.506  1.00  0.00     0.014 A 
ATOM     26  C   UNL A   1      32.751  22.049  22.421  1.00  0.00     0.057 C 
ENDBRANCH  17  20
ENDBRANCH   9  16
ENDBRANCH   5   8
ENDBRANCH   3   4
ENDBRANCH   2   3
ENDBRANCH   1   2
BRANCH   1  27
ATOM     27  C   UNL A   1      33.226  28.571  27.317  1.00  0.00     0.116 C 
BRANCH  27  28
ATOM     28  N   UNL A   1      33.348  29.993  27.604  1.00  0.00    -0.352 N 
ATOM     29  C   UNL A   1      34.423  30.736  28.042  1.00  0.00     0.251 C 
ATOM     30  H   UNL A   1      32.524  30.512  27.462  1.00  0.00     0.163 HD
ATOM     31  O   UNL A   1      34.271  31.938  28.259  1.00  0.00    -0.269 OA
BRANCH  29  32
ATOM     32  C   UNL A   1      35.741  30.111  28.310  1.00  0.00     0.039 A 
ATOM     33  C   UNL A   1      36.689  30.094  27.282  1.00  0.00     0.014 A 
ATOM     34  C   UNL A   1      36.061  29.547  29.545  1.00  0.00     0.014 A 
ATOM     35  C   UNL A   1      37.980  29.616  27.527  1.00  0.00     0.010 A 
ATOM     36  C   UNL A   1      37.375  29.158  29.817  1.00  0.00     0.010 A 
ATOM     37  C   UNL A   1      38.355  29.202  28.816  1.00  0.00    -0.014 A 
BRANCH  37  38
ATOM     38  C   UNL A   1      39.769  28.852  29.127  1.00  0.00     0.031 A 
ATOM     39  C   UNL A   1      40.690  29.851  29.778  1.00  0.00     0.074 A 
ATOM     40  C   UNL A   1      40.243  27.637  28.776  1.00  0.00     0.049 A 
ATOM     41  N   UNL A   1      41.954  29.722  30.094  1.00  0.00    -0.248 NA
ATOM     42  C   UNL A   1      40.127  31.174  30.096  1.00  0.00     0.031 C 
ATOM     43  C   UNL A   1      39.480  26.596  28.081  1.00  0.00     0.029 A 
ATOM     44  N   UNL A   1      41.483  27.071  28.952  1.00  0.00    -0.354 N 
ATOM     45  C   UNL A   1      42.337  30.941  30.642  1.00  0.00     0.074 A 
ATOM     46  C   UNL A   1      41.190  31.817  30.560  1.00  0.00     0.031 C 
ATOM     47  C   UNL A   1      40.254  25.510  27.921  1.00  0.00     0.029 A 
ATOM     48  C   UNL A   1      41.580  25.786  28.465  1.00  0.00     0.049 A 
ATOM     49  H   UNL A   1      42.232  27.539  29.385  1.00  0.00     0.167 HD
ATOM     50  C   UNL A   1      43.524  31.293  31.193  1.00  0.00     0.031 A 
ATOM     51  C   UNL A   1      42.616  24.925  28.453  1.00  0.00     0.031 A 
ATOM     52  C   UNL A   1      44.666  30.421  31.285  1.00  0.00     0.049 A 
ATOM     53  C   UNL A   1      43.922  25.341  29.074  1.00  0.00     0.074 A 
ATOM     54  C   UNL A   1      45.900  30.679  31.858  1.00  0.00     0.029 A 
ATOM     55  N   UNL A   1      44.714  29.123  30.802  1.00  0.00    -0.354 N 
ATOM     56  N   UNL A   1      44.240  26.479  29.642  1.00  0.00    -0.248 NA
ATOM     57  C   UNL A   1      45.004  24.346  29.071  1.00  0.00     0.031 C 
ATOM     58  C   UNL A   1      46.708  29.550  31.685  1.00  0.00     0.029 A 
ATOM     59  C   UNL A   1      45.959  28.570  31.053  1.00  0.00     0.049 A 
ATOM     60  H   UNL A   1      43.972  28.662  30.347  1.00  0.00     0.167 HD
ATOM     61  C   UNL A   1      45.550  26.330  30.080  1.00  0.00     0.074 A 
ATOM     62  C   UNL A   1      45.956  24.982  29.738  1.00  0.00     0.031 C 
ATOM     63  C   UNL A   1      46.350  27.229  30.706  1.00  0.00     0.031 A 
BRANCH  50  64
ATOM     64  C   UNL A   1      43.643  32.682  31.763  1.00  0.00    -0.014 A 
ATOM     65  C   UNL A   1      44.106  33.746  30.966  1.00  0.00     0.010 A 
ATOM     66  C   UNL A   1      43.228  32.945  33.081  1.00  0.00     0.010 A 
ATOM     67  C   UNL A   1      44.179  35.040  31.485  1.00  0.00     0.020 A 
ATOM     68  C   UNL A   1      43.274  34.245  33.596  1.00  0.00     0.020 A 
ATOM     69  C   UNL A   1      43.762  35.282  32.797  1.00  0.00     0.054 A 
BRANCH  69  70
ATOM     70  S   UNL A   1      43.826  36.982  33.427  1.00  0.00     0.124 S 
ATOM     71  O   UNL A   1      43.807  37.762  32.192  1.00  0.00    -0.237 OA
ATOM     72  O   UNL A   1      42.615  37.067  34.241  1.00  0.00    -0.237 OA
ATOM     73  O   UNL A   1      45.079  37.029  34.174  1.00  0.00    -0.744 OA
ENDBRANCH  69  70
ENDBRANCH  50  64
BRANCH  51  74
ATOM     74  C   UNL A   1      42.467  23.578  27.834  1.00  0.00    -0.014 A 
ATOM     75  C   UNL A   1      42.015  22.484  28.592  1.00  0.00     0.010 A 
ATOM     76  C   UNL A   1      42.802  23.379  26.482  1.00  0.00     0.010 A 
ATOM     77  C   UNL A   1      41.938  21.209  28.022  1.00  0.00     0.020 A 
ATOM     78  C   UNL A   1      42.697  22.114  25.899  1.00  0.00     0.020 A 
ATOM     79  C   UNL A   1      42.284  21.031  26.680  1.00  0.00     0.054 A 
BRANCH  79  80
ATOM     80  S   UNL A   1      42.159  19.374  25.951  1.00  0.00     0.124 S 
ATOM     81  O   UNL A   1      42.678  18.532  27.024  1.00  0.00    -0.237 OA
ATOM     82  O   UNL A   1      40.729  19.251  25.685  1.00  0.00    -0.237 OA
ATOM     83  O   UNL A   1      43.001  19.462  24.760  1.00  0.00    -0.744 OA
ENDBRANCH  79  80
ENDBRANCH  51  74
BRANCH  63  84
ATOM     84  C   UNL A   1      47.734  26.772  31.085  1.00  0.00    -0.014 A 
ATOM     85  C   UNL A   1      47.991  26.197  32.343  1.00  0.00     0.010 A 
ATOM     86  C   UNL A   1      48.787  26.899  30.161  1.00  0.00     0.010 A 
ATOM     87  C   UNL A   1      49.287  25.800  32.686  1.00  0.00     0.020 A 
ATOM     88  C   UNL A   1      50.077  26.476  30.490  1.00  0.00     0.020 A 
ATOM     89  C   UNL A   1      50.322  25.948  31.759  1.00  0.00     0.054 A 
BRANCH  89  90
ATOM     90  S   UNL A   1      51.992  25.411  32.221  1.00  0.00     0.124 S 
ATOM     91  O   UNL A   1      52.784  25.870  31.084  1.00  0.00    -0.237 OA
ATOM     92  O   UNL A   1      52.223  26.122  33.476  1.00  0.00    -0.237 OA
ATOM     93  O   UNL A   1      51.866  23.960  32.348  1.00  0.00    -0.744 OA
ENDBRANCH  89  90
ENDBRANCH  63  84
ENDBRANCH  37  38
ENDBRANCH  29  32
ENDBRANCH  27  28
ENDBRANCH   1  27
TORSDOF 16
ENDMDL
MODEL 3
REMARK VINA RESULT:     -11.8      3.407      4.262
REMARK SMILES Cc1cc(C(=O)Nc2c(Cl)cc(Cl)cc2C(=O)NCCCCNC(=O)c2ccc(-c3c4nc(c(-c5ccc(S(=O)(=O)[O-])cc5)c5ccc([nH]5)c(-c5ccc(S(=O)(=O)[O-])cc5)c5nc(c(-c6ccc(S(=O)(=O)[O-])cc6)c6ccc3[nH]6)C=C5)C=C4)cc2)c(C)s1
REMARK SMILES IDX 21 1 20 2 19 3 18 4 16 5 17 6 15 8 8 9 9 10 10 11 11 12
REMARK SMILES IDX 14 13 12 14 13 15 7 16 5 17 6 18 4 20 1 21 2 22 3 23 88 24
REMARK SMILES IDX 86 25 87 26 22 27 23 28 24 29 25 31 26 32 27 33 85 34 28 35
REMARK SMILES IDX 84 36 29 37 30 38 31 39 78 40 32 41 83 42 77 43 79 44 33 45
REMARK SMILES IDX 82 46 76 47 75 48 34 50 64 51 45 52 63 53 46 54 49 55 62 56
REMARK SMILES IDX 80 57 47 58 48 59 61 61 81 62 50 63 35 64 36 65 44 66 37 67
REMARK SMILES IDX 43 68 38 69 39 70 40 71 41 72 42 73 65 74 66 75 74 76 67 77
REMARK SMILES IDX 73 78 68 79 69 80 70 81 71 82 72 83 51 84 52 85 60 86 53 87
REMARK SMILES IDX 59 88 54 89 55 90 56 91 57 92 58 93
REMARK H PARENT 18 7 7 19 23 30 79 49 49 60
REMARK Flexibility Score: inf
ROOT
ATOM      1  C   UNL A   1      35.706  22.184  25.836  1.00  0.00     0.023 C 
ENDROOT
BRANCH   1   2
ATOM      2  C   UNL A   1      35.176  22.099  27.266  1.00  0.00     0.023 C 
BRANCH   2   3
ATOM      3  C   UNL A   1      33.831  21.418  27.470  1.00  0.00     0.116 C 
BRANCH   3   4
ATOM      4  N   UNL A   1      32.682  22.264  27.672  1.00  0.00    -0.352 N 
ATOM      5  C   UNL A   1      31.985  23.062  26.796  1.00  0.00     0.253 C 
ATOM      6  O   UNL A   1      30.986  23.633  27.241  1.00  0.00    -0.269 OA
ATOM      7  H   UNL A   1      32.337  22.272  28.594  1.00  0.00     0.163 HD
BRANCH   5   8
ATOM      8  C   UNL A   1      32.353  23.354  25.372  1.00  0.00     0.066 A 
ATOM      9  C   UNL A   1      33.055  24.459  24.843  1.00  0.00     0.073 A 
ATOM     10  C   UNL A   1      33.465  24.436  23.483  1.00  0.00     0.066 A 
ATOM     11  Cl  UNL A   1      34.491  25.662  22.809  1.00  0.00    -0.082 Cl
ATOM     12  C   UNL A   1      33.069  23.412  22.625  1.00  0.00     0.043 A 
ATOM     13  C   UNL A   1      31.970  22.328  24.477  1.00  0.00     0.036 A 
ATOM     14  C   UNL A   1      32.299  22.374  23.124  1.00  0.00     0.043 A 
ATOM     15  Cl  UNL A   1      31.760  21.133  22.062  1.00  0.00    -0.084 Cl
BRANCH   9  16
ATOM     16  N   UNL A   1      33.381  25.572  25.627  1.00  0.00    -0.320 N 
ATOM     17  C   UNL A   1      32.850  26.860  25.594  1.00  0.00     0.256 C 
ATOM     18  O   UNL A   1      33.359  27.661  26.379  1.00  0.00    -0.269 OA
ATOM     19  H   UNL A   1      34.086  25.424  26.298  1.00  0.00     0.170 HD
BRANCH  17  20
ATOM     20  C   UNL A   1      31.663  27.222  24.774  1.00  0.00     0.054 A 
ATOM     21  C   UNL A   1      28.066  26.681  23.709  1.00  0.00     0.056 C 
ATOM     22  C   UNL A   1      29.468  27.140  23.908  1.00  0.00     0.003 A 
ATOM     23  C   UNL A   1      30.269  26.952  25.010  1.00  0.00     0.029 A 
ATOM     24  S   UNL A   1      30.292  28.012  22.711  1.00  0.00    -0.145 S 
ATOM     25  C   UNL A   1      31.744  28.028  23.633  1.00  0.00     0.014 A 
ATOM     26  C   UNL A   1      32.882  28.845  23.101  1.00  0.00     0.057 C 
ENDBRANCH  17  20
ENDBRANCH   9  16
ENDBRANCH   5   8
ENDBRANCH   3   4
ENDBRANCH   2   3
ENDBRANCH   1   2
BRANCH   1  27
ATOM     27  C   UNL A   1      36.933  23.058  25.587  1.00  0.00     0.116 C 
BRANCH  27  28
ATOM     28  N   UNL A   1      38.209  22.362  25.669  1.00  0.00    -0.352 N 
ATOM     29  C   UNL A   1      39.423  22.761  26.184  1.00  0.00     0.251 C 
ATOM     30  H   UNL A   1      38.203  21.452  25.295  1.00  0.00     0.163 HD
ATOM     31  O   UNL A   1      40.388  22.001  26.101  1.00  0.00    -0.269 OA
BRANCH  29  32
ATOM     32  C   UNL A   1      39.608  24.106  26.784  1.00  0.00     0.039 A 
ATOM     33  C   UNL A   1      39.167  24.314  28.094  1.00  0.00     0.014 A 
ATOM     34  C   UNL A   1      40.203  25.158  26.087  1.00  0.00     0.014 A 
ATOM     35  C   UNL A   1      39.423  25.530  28.735  1.00  0.00     0.010 A 
ATOM     36  C   UNL A   1      40.542  26.336  26.755  1.00  0.00     0.010 A 
ATOM     37  C   UNL A   1      40.169  26.532  28.092  1.00  0.00    -0.014 A 
BRANCH  37  38
ATOM     38  C   UNL A   1      40.591  27.761  28.822  1.00  0.00     0.031 A 
ATOM     39  C   UNL A   1      41.943  27.844  29.481  1.00  0.00     0.074 A 
ATOM     40  C   UNL A   1      39.728  28.793  28.934  1.00  0.00     0.049 A 
ATOM     41  N   UNL A   1      42.460  28.825  30.177  1.00  0.00    -0.248 NA
ATOM     42  C   UNL A   1      42.822  26.669  29.362  1.00  0.00     0.031 C 
ATOM     43  C   UNL A   1      38.363  28.821  28.400  1.00  0.00     0.029 A 
ATOM     44  N   UNL A   1      39.869  30.020  29.536  1.00  0.00    -0.354 N 
ATOM     45  C   UNL A   1      43.716  28.386  30.581  1.00  0.00     0.074 A 
ATOM     46  C   UNL A   1      43.860  27.029  30.104  1.00  0.00     0.031 C 
ATOM     47  C   UNL A   1      37.806  30.013  28.669  1.00  0.00     0.029 A 
ATOM     48  C   UNL A   1      38.755  30.823  29.425  1.00  0.00     0.049 A 
ATOM     49  H   UNL A   1      40.688  30.300  30.004  1.00  0.00     0.167 HD
ATOM     50  C   UNL A   1      44.677  29.059  31.260  1.00  0.00     0.031 A 
ATOM     51  C   UNL A   1      38.520  32.069  29.880  1.00  0.00     0.031 A 
ATOM     52  C   UNL A   1      44.542  30.414  31.728  1.00  0.00     0.049 A 
ATOM     53  C   UNL A   1      39.605  32.795  30.628  1.00  0.00     0.074 A 
ATOM     54  C   UNL A   1      45.475  31.190  32.395  1.00  0.00     0.029 A 
ATOM     55  N   UNL A   1      43.409  31.197  31.574  1.00  0.00    -0.354 N 
ATOM     56  N   UNL A   1      40.808  32.379  30.943  1.00  0.00    -0.248 NA
ATOM     57  C   UNL A   1      39.307  34.166  31.064  1.00  0.00     0.031 C 
ATOM     58  C   UNL A   1      44.892  32.430  32.679  1.00  0.00     0.029 A 
ATOM     59  C   UNL A   1      43.615  32.444  32.142  1.00  0.00     0.049 A 
ATOM     60  H   UNL A   1      42.580  30.910  31.128  1.00  0.00     0.167 HD
ATOM     61  C   UNL A   1      41.416  33.445  31.596  1.00  0.00     0.074 A 
ATOM     62  C   UNL A   1      40.460  34.532  31.605  1.00  0.00     0.031 C 
ATOM     63  C   UNL A   1      42.655  33.517  32.145  1.00  0.00     0.031 A 
BRANCH  50  64
ATOM     64  C   UNL A   1      45.977  28.345  31.519  1.00  0.00    -0.014 A 
ATOM     65  C   UNL A   1      46.120  27.500  32.635  1.00  0.00     0.010 A 
ATOM     66  C   UNL A   1      47.043  28.461  30.608  1.00  0.00     0.010 A 
ATOM     67  C   UNL A   1      47.313  26.808  32.852  1.00  0.00     0.020 A 
ATOM     68  C   UNL A   1      48.231  27.748  30.808  1.00  0.00     0.020 A 
ATOM     69  C   UNL A   1      48.362  26.936  31.936  1.00  0.00     0.054 A 
BRANCH  69  70
ATOM     70  S   UNL A   1      49.882  25.989  32.222  1.00  0.00     0.124 S 
ATOM     71  O   UNL A   1      50.662  26.911  33.045  1.00  0.00    -0.237 OA
ATOM     72  O   UNL A   1      49.392  24.797  32.909  1.00  0.00    -0.237 OA
ATOM     73  O   UNL A   1      50.406  25.760  30.878  1.00  0.00    -0.744 OA
ENDBRANCH  69  70
ENDBRANCH  50  64
BRANCH  51  74
ATOM     74  C   UNL A   1      37.200  32.719  29.643  1.00  0.00    -0.014 A 
ATOM     75  C   UNL A   1      36.998  33.552  28.528  1.00  0.00     0.010 A 
ATOM     76  C   UNL A   1      36.141  32.524  30.550  1.00  0.00     0.010 A 
ATOM     77  C   UNL A   1      35.777  34.209  28.346  1.00  0.00     0.020 A 
ATOM     78  C   UNL A   1      34.910  33.154  30.354  1.00  0.00     0.020 A 
ATOM     79  C   UNL A   1      34.742  34.010  29.262  1.00  0.00     0.054 A 
BRANCH  79  80
ATOM     80  S   UNL A   1      33.158  34.855  29.000  1.00  0.00     0.124 S 
ATOM     81  O   UNL A   1      33.590  36.160  28.510  1.00  0.00    -0.237 OA
ATOM     82  O   UNL A   1      32.499  33.997  28.019  1.00  0.00    -0.237 OA
ATOM     83  O   UNL A   1      32.547  34.854  30.327  1.00  0.00    -0.744 OA
ENDBRANCH  79  80
ENDBRANCH  51  74
BRANCH  63  84
ATOM     84  C   UNL A   1      43.053  34.825  32.774  1.00  0.00    -0.014 A 
ATOM     85  C   UNL A   1      43.667  35.839  32.018  1.00  0.00     0.010 A 
ATOM     86  C   UNL A   1      42.789  35.051  34.138  1.00  0.00     0.010 A 
ATOM     87  C   UNL A   1      44.052  37.038  32.625  1.00  0.00     0.020 A 
ATOM     88  C   UNL A   1      43.145  36.259  34.741  1.00  0.00     0.020 A 
ATOM     89  C   UNL A   1      43.793  37.238  33.984  1.00  0.00     0.054 A 
BRANCH  89  90
ATOM     90  S   UNL A   1      44.287  38.809  34.746  1.00  0.00     0.124 S 
ATOM     91  O   UNL A   1      44.098  38.529  36.167  1.00  0.00    -0.237 OA
ATOM     92  O   UNL A   1      45.674  38.955  34.312  1.00  0.00    -0.237 OA
ATOM     93  O   UNL A   1      43.356  39.779  34.173  1.00  0.00    -0.744 OA
ENDBRANCH  89  90
ENDBRANCH  63  84
ENDBRANCH  37  38
ENDBRANCH  29  32
ENDBRANCH  27  28
ENDBRANCH   1  27
TORSDOF 16
ENDMDL
