MODEL 1
REMARK VINA RESULT:     -12.8      0.000      0.000
REMARK SMILES Cc1oc2cc3c(cc2c1C)[C@H](C)[C@@H](CC(=O)N[C@H](CC1=c2ccccc2=NC1)C(=O)NCCCCNC(=O)c1ccc(-c2c4nc(c(-c5ccc(S(=O)(=O)[O-])cc5)c5ccc([nH]5)c(-c5ccc(S(=O)(=O)[O-])cc5)c5nc(c(-c6ccc(S(=O)(=O)[O-])cc6)c6ccc2[nH]6)C=C5)C=C4)cc1)C(=O)O3
REMARK SMILES IDX 34 1 33 2 32 3 30 4 31 5 19 7 18 8 16 9 17 10 15 12 14 13
REMARK SMILES IDX 1 14 2 15 3 16 10 17 4 18 9 19 11 20 5 21 8 22 6 23 7 24
REMARK SMILES IDX 102 25 12 26 100 27 13 28 101 29 20 30 21 31 22 32 29 33
REMARK SMILES IDX 23 34 27 35 28 36 24 37 26 38 25 39 35 40 36 41 37 42 38 43
REMARK SMILES IDX 39 45 40 46 41 47 99 48 42 49 98 50 43 51 44 52 45 53 92 54
REMARK SMILES IDX 46 55 97 56 91 57 93 58 47 59 96 60 90 61 89 62 48 64 78 65
REMARK SMILES IDX 59 66 77 67 60 68 63 69 76 70 94 71 61 72 62 73 75 75 95 76
REMARK SMILES IDX 64 77 49 78 50 79 58 80 51 81 57 82 52 83 53 84 54 85 55 86
REMARK SMILES IDX 56 87 79 88 80 89 88 90 81 91 87 92 82 93 83 94 84 95 85 96
REMARK SMILES IDX 86 97 65 98 66 99 74 100 67 101 73 102 68 103 69 104 70 105
REMARK SMILES IDX 71 106 72 107
REMARK H PARENT 32 6 18 11 37 44 93 63 63 74
REMARK Flexibility Score: inf
ROOT
ATOM      1  C   UNL A   1      34.171  28.470  26.489  1.00  0.00     0.023 C 
ENDROOT
BRANCH   1   2
ATOM      2  C   UNL A   1      33.235  29.256  25.567  1.00  0.00     0.116 C 
BRANCH   2   3
ATOM      3  N   UNL A   1      33.270  28.716  24.227  1.00  0.00    -0.354 N 
ATOM      4  C   UNL A   1      32.303  28.129  23.471  1.00  0.00     0.242 C 
ATOM      5  O   UNL A   1      32.671  27.458  22.502  1.00  0.00    -0.273 OA
ATOM      6  H   UNL A   1      34.146  28.786  23.784  1.00  0.00     0.163 HD
BRANCH   4   7
ATOM      7  C   UNL A   1      30.831  28.092  23.927  1.00  0.00     0.175 C 
BRANCH   7   8
ATOM      8  N   UNL A   1      30.301  26.774  24.410  1.00  0.00    -0.344 N 
ATOM      9  C   UNL A   1      30.566  25.885  25.400  1.00  0.00     0.221 C 
ATOM     10  O   UNL A   1      29.713  25.011  25.597  1.00  0.00    -0.275 OA
ATOM     11  H   UNL A   1      29.549  26.469  23.852  1.00  0.00     0.164 HD
BRANCH   9  12
ATOM     12  C   UNL A   1      31.871  25.800  26.167  1.00  0.00     0.116 C 
BRANCH  12  13
ATOM     13  C   UNL A   1      32.564  24.517  25.701  1.00  0.00     0.116 C 
ATOM     14  C   UNL A   1      34.021  16.409  23.842  1.00  0.00     0.088 C 
ATOM     15  C   UNL A   1      33.677  17.846  23.922  1.00  0.00     0.105 A 
ATOM     16  O   UNL A   1      34.254  18.509  24.954  1.00  0.00    -0.461 OA
ATOM     17  C   UNL A   1      32.859  18.700  23.196  1.00  0.00    -0.002 A 
ATOM     18  C   UNL A   1      33.802  19.779  24.917  1.00  0.00     0.138 A 
ATOM     19  C   UNL A   1      32.960  19.982  23.833  1.00  0.00     0.024 A 
ATOM     20  C   UNL A   1      32.015  18.348  22.031  1.00  0.00     0.049 C 
ATOM     21  C   UNL A   1      34.104  20.723  25.874  1.00  0.00     0.095 A 
ATOM     22  C   UNL A   1      32.404  21.274  23.641  1.00  0.00     0.020 A 
ATOM     23  C   UNL A   1      33.452  21.939  25.720  1.00  0.00     0.138 A 
ATOM     24  C   UNL A   1      32.662  22.280  24.594  1.00  0.00    -0.001 A 
ATOM     25  O   UNL A   1      33.558  22.747  26.850  1.00  0.00    -0.426 OA
ATOM     26  C   UNL A   1      32.028  23.687  24.513  1.00  0.00     0.035 C 
ATOM     27  C   UNL A   1      32.462  23.553  26.838  1.00  0.00     0.315 C 
ATOM     28  C   UNL A   1      32.331  24.365  23.173  1.00  0.00     0.014 C 
ATOM     29  O   UNL A   1      31.515  23.466  27.605  1.00  0.00    -0.251 OA
ENDBRANCH  12  13
ENDBRANCH   9  12
ENDBRANCH   7   8
BRANCH   7  30
ATOM     30  C   UNL A   1      30.024  28.702  22.689  1.00  0.00     0.068 C 
BRANCH  30  31
ATOM     31  C   UNL A   1      28.941  29.667  23.076  1.00  0.00    -0.037 C 
ATOM     32  C   UNL A   1      29.055  30.888  23.602  1.00  0.00     0.001 A 
ATOM     33  C   UNL A   1      27.558  29.500  22.527  1.00  0.00     0.174 C 
ATOM     34  C   UNL A   1      29.949  31.637  24.427  1.00  0.00     0.010 A 
ATOM     35  C   UNL A   1      28.070  31.585  22.741  1.00  0.00     0.065 A 
ATOM     36  N   UNL A   1      27.189  30.865  22.116  1.00  0.00    -0.280 NA
ATOM     37  C   UNL A   1      29.932  32.980  24.351  1.00  0.00     0.001 A 
ATOM     38  C   UNL A   1      28.311  33.027  22.517  1.00  0.00     0.028 A 
ATOM     39  C   UNL A   1      29.208  33.660  23.291  1.00  0.00     0.002 A 
ENDBRANCH  30  31
ENDBRANCH   7  30
ENDBRANCH   4   7
ENDBRANCH   2   3
ENDBRANCH   1   2
BRANCH   1  40
ATOM     40  C   UNL A   1      35.238  29.354  27.129  1.00  0.00     0.023 C 
BRANCH  40  41
ATOM     41  C   UNL A   1      34.802  29.902  28.492  1.00  0.00     0.116 C 
BRANCH  41  42
ATOM     42  N   UNL A   1      34.336  31.279  28.452  1.00  0.00    -0.352 N 
ATOM     43  C   UNL A   1      34.940  32.424  28.940  1.00  0.00     0.251 C 
ATOM     44  H   UNL A   1      33.465  31.417  28.016  1.00  0.00     0.163 HD
ATOM     45  O   UNL A   1      34.409  33.507  28.837  1.00  0.00    -0.269 OA
BRANCH  43  46
ATOM     46  C   UNL A   1      36.214  32.259  29.670  1.00  0.00     0.039 A 
ATOM     47  C   UNL A   1      37.402  32.067  28.963  1.00  0.00     0.014 A 
ATOM     48  C   UNL A   1      36.163  32.115  31.059  1.00  0.00     0.014 A 
ATOM     49  C   UNL A   1      38.493  31.524  29.623  1.00  0.00     0.010 A 
ATOM     50  C   UNL A   1      37.279  31.626  31.728  1.00  0.00     0.010 A 
ATOM     51  C   UNL A   1      38.411  31.255  30.994  1.00  0.00    -0.014 A 
BRANCH  51  52
ATOM     52  C   UNL A   1      39.561  30.571  31.591  1.00  0.00     0.031 A 
ATOM     53  C   UNL A   1      39.837  29.226  31.019  1.00  0.00     0.074 A 
ATOM     54  C   UNL A   1      40.584  31.258  32.140  1.00  0.00     0.049 A 
ATOM     55  N   UNL A   1      40.477  29.063  29.897  1.00  0.00    -0.248 NA
ATOM     56  C   UNL A   1      39.185  28.021  31.524  1.00  0.00     0.031 C 
ATOM     57  C   UNL A   1      41.053  32.572  31.675  1.00  0.00     0.029 A 
ATOM     58  N   UNL A   1      41.543  30.855  33.031  1.00  0.00    -0.354 N 
ATOM     59  C   UNL A   1      40.283  27.749  29.517  1.00  0.00     0.074 A 
ATOM     60  C   UNL A   1      39.477  27.140  30.555  1.00  0.00     0.031 C 
ATOM     61  C   UNL A   1      42.312  32.761  32.122  1.00  0.00     0.029 A 
ATOM     62  C   UNL A   1      42.659  31.686  33.039  1.00  0.00     0.049 A 
ATOM     63  H   UNL A   1      41.454  30.060  33.605  1.00  0.00     0.167 HD
ATOM     64  C   UNL A   1      40.782  27.220  28.369  1.00  0.00     0.031 A 
ATOM     65  C   UNL A   1      43.918  31.274  33.351  1.00  0.00     0.031 A 
ATOM     66  C   UNL A   1      41.605  28.089  27.585  1.00  0.00     0.049 A 
ATOM     67  C   UNL A   1      44.262  30.492  32.100  1.00  0.00     0.074 A 
ATOM     68  C   UNL A   1      41.457  28.915  26.493  1.00  0.00     0.029 A 
ATOM     69  N   UNL A   1      42.908  28.277  27.984  1.00  0.00    -0.354 N 
ATOM     70  N   UNL A   1      44.646  30.988  30.952  1.00  0.00    -0.248 NA
ATOM     71  C   UNL A   1      43.804  29.102  32.033  1.00  0.00     0.031 C 
ATOM     72  C   UNL A   1      42.526  29.862  26.579  1.00  0.00     0.029 A 
ATOM     73  C   UNL A   1      43.220  29.594  27.759  1.00  0.00     0.049 A 
ATOM     74  H   UNL A   1      43.507  27.593  28.361  1.00  0.00     0.167 HD
ATOM     75  C   UNL A   1      44.195  30.085  29.983  1.00  0.00     0.074 A 
ATOM     76  C   UNL A   1      43.707  28.938  30.722  1.00  0.00     0.031 C 
ATOM     77  C   UNL A   1      44.056  30.376  28.655  1.00  0.00     0.031 A 
BRANCH  64  78
ATOM     78  C   UNL A   1      40.619  25.795  28.019  1.00  0.00    -0.014 A 
ATOM     79  C   UNL A   1      39.473  25.319  27.365  1.00  0.00     0.010 A 
ATOM     80  C   UNL A   1      41.687  24.920  28.274  1.00  0.00     0.010 A 
ATOM     81  C   UNL A   1      39.409  23.983  26.954  1.00  0.00     0.020 A 
ATOM     82  C   UNL A   1      41.629  23.590  27.862  1.00  0.00     0.020 A 
ATOM     83  C   UNL A   1      40.491  23.130  27.200  1.00  0.00     0.054 A 
BRANCH  83  84
ATOM     84  S   UNL A   1      40.416  21.420  26.602  1.00  0.00     0.124 S 
ATOM     85  O   UNL A   1      39.085  21.366  26.003  1.00  0.00    -0.237 OA
ATOM     86  O   UNL A   1      41.532  21.365  25.663  1.00  0.00    -0.237 OA
ATOM     87  O   UNL A   1      40.584  20.622  27.814  1.00  0.00    -0.744 OA
ENDBRANCH  83  84
ENDBRANCH  64  78
BRANCH  65  88
ATOM     88  C   UNL A   1      44.017  30.720  34.747  1.00  0.00    -0.014 A 
ATOM     89  C   UNL A   1      43.389  31.251  35.883  1.00  0.00     0.010 A 
ATOM     90  C   UNL A   1      44.880  29.613  34.942  1.00  0.00     0.010 A 
ATOM     91  C   UNL A   1      43.766  30.839  37.170  1.00  0.00     0.020 A 
ATOM     92  C   UNL A   1      45.242  29.178  36.220  1.00  0.00     0.020 A 
ATOM     93  C   UNL A   1      44.727  29.840  37.330  1.00  0.00     0.054 A 
BRANCH  93  94
ATOM     94  S   UNL A   1      45.326  29.418  38.989  1.00  0.00     0.124 S 
ATOM     95  O   UNL A   1      46.768  29.601  38.839  1.00  0.00    -0.237 OA
ATOM     96  O   UNL A   1      44.654  30.396  39.841  1.00  0.00    -0.237 OA
ATOM     97  O   UNL A   1      44.887  28.037  39.170  1.00  0.00    -0.744 OA
ENDBRANCH  93  94
ENDBRANCH  65  88
BRANCH  77  98
ATOM     98  C   UNL A   1      44.624  31.676  28.168  1.00  0.00    -0.014 A 
ATOM     99  C   UNL A   1      45.945  31.750  27.689  1.00  0.00     0.010 A 
ATOM    100  C   UNL A   1      43.892  32.865  28.318  1.00  0.00     0.010 A 
ATOM    101  C   UNL A   1      46.558  32.987  27.472  1.00  0.00     0.020 A 
ATOM    102  C   UNL A   1      44.491  34.106  28.079  1.00  0.00     0.020 A 
ATOM    103  C   UNL A   1      45.834  34.159  27.698  1.00  0.00     0.054 A 
BRANCH 103 104
ATOM    104  S   UNL A   1      46.688  35.750  27.535  1.00  0.00     0.124 S 
ATOM    105  O   UNL A   1      46.179  36.493  28.684  1.00  0.00    -0.237 OA
ATOM    106  O   UNL A   1      48.097  35.369  27.611  1.00  0.00    -0.237 OA
ATOM    107  O   UNL A   1      46.253  36.250  26.232  1.00  0.00    -0.744 OA
ENDBRANCH 103 104
ENDBRANCH  77  98
ENDBRANCH  51  52
ENDBRANCH  43  46
ENDBRANCH  41  42
ENDBRANCH  40  41
ENDBRANCH   1  40
TORSDOF 19
ENDMDL
MODEL 2
REMARK VINA RESULT:     -12.6      2.848      9.875
REMARK SMILES Cc1oc2cc3c(cc2c1C)[C@H](C)[C@@H](CC(=O)N[C@H](CC1=c2ccccc2=NC1)C(=O)NCCCCNC(=O)c1ccc(-c2c4nc(c(-c5ccc(S(=O)(=O)[O-])cc5)c5ccc([nH]5)c(-c5ccc(S(=O)(=O)[O-])cc5)c5nc(c(-c6ccc(S(=O)(=O)[O-])cc6)c6ccc2[nH]6)C=C5)C=C4)cc1)C(=O)O3
REMARK SMILES IDX 34 1 33 2 32 3 30 4 31 5 19 7 18 8 16 9 17 10 15 12 14 13
REMARK SMILES IDX 1 14 2 15 3 16 10 17 4 18 9 19 11 20 5 21 8 22 6 23 7 24
REMARK SMILES IDX 102 25 12 26 100 27 13 28 101 29 20 30 21 31 22 32 29 33
REMARK SMILES IDX 23 34 27 35 28 36 24 37 26 38 25 39 35 40 36 41 37 42 38 43
REMARK SMILES IDX 39 45 40 46 41 47 99 48 42 49 98 50 43 51 44 52 45 53 92 54
REMARK SMILES IDX 46 55 97 56 91 57 93 58 47 59 96 60 90 61 89 62 48 64 78 65
REMARK SMILES IDX 59 66 77 67 60 68 63 69 76 70 94 71 61 72 62 73 75 75 95 76
REMARK SMILES IDX 64 77 49 78 50 79 58 80 51 81 57 82 52 83 53 84 54 85 55 86
REMARK SMILES IDX 56 87 79 88 80 89 88 90 81 91 87 92 82 93 83 94 84 95 85 96
REMARK SMILES IDX 86 97 65 98 66 99 74 100 67 101 73 102 68 103 69 104 70 105
REMARK SMILES IDX 71 106 72 107
REMARK H PARENT 32 6 18 11 37 44 93 63 63 74
REMARK Flexibility Score: inf
ROOT
ATOM      1  C   UNL A   1      39.047  21.397  25.775  1.00  0.00     0.023 C 
ENDROOT
BRANCH   1   2
ATOM      2  C   UNL A   1      37.906  22.308  25.313  1.00  0.00     0.116 C 
BRANCH   2   3
ATOM      3  N   UNL A   1      36.809  22.265  26.253  1.00  0.00    -0.354 N 
ATOM      4  C   UNL A   1      35.501  21.926  26.090  1.00  0.00     0.242 C 
ATOM      5  O   UNL A   1      34.708  22.293  26.962  1.00  0.00    -0.273 OA
ATOM      6  H   UNL A   1      37.050  22.527  27.171  1.00  0.00     0.163 HD
BRANCH   4   7
ATOM      7  C   UNL A   1      34.980  21.324  24.770  1.00  0.00     0.175 C 
BRANCH   7   8
ATOM      8  N   UNL A   1      34.561  22.287  23.700  1.00  0.00    -0.344 N 
ATOM      9  C   UNL A   1      34.268  23.608  23.596  1.00  0.00     0.221 C 
ATOM     10  O   UNL A   1      34.194  24.066  22.449  1.00  0.00    -0.275 OA
ATOM     11  H   UNL A   1      34.476  21.836  22.830  1.00  0.00     0.164 HD
BRANCH   9  12
ATOM     12  C   UNL A   1      33.886  24.510  24.753  1.00  0.00     0.116 C 
BRANCH  12  13
ATOM     13  C   UNL A   1      33.102  25.679  24.151  1.00  0.00     0.116 C 
ATOM     14  C   UNL A   1      27.540  31.964  23.207  1.00  0.00     0.088 C 
ATOM     15  C   UNL A   1      28.670  31.047  23.474  1.00  0.00     0.105 A 
ATOM     16  O   UNL A   1      28.612  29.868  22.808  1.00  0.00    -0.461 OA
ATOM     17  C   UNL A   1      29.794  31.086  24.288  1.00  0.00    -0.002 A 
ATOM     18  C   UNL A   1      29.674  29.135  23.197  1.00  0.00     0.138 A 
ATOM     19  C   UNL A   1      30.473  29.838  24.088  1.00  0.00     0.024 A 
ATOM     20  C   UNL A   1      30.186  32.176  25.212  1.00  0.00     0.049 C 
ATOM     21  C   UNL A   1      29.890  27.834  22.795  1.00  0.00     0.095 A 
ATOM     22  C   UNL A   1      31.643  29.211  24.589  1.00  0.00     0.020 A 
ATOM     23  C   UNL A   1      30.978  27.212  23.393  1.00  0.00     0.138 A 
ATOM     24  C   UNL A   1      31.913  27.875  24.227  1.00  0.00    -0.001 A 
ATOM     25  O   UNL A   1      30.985  25.835  23.184  1.00  0.00    -0.426 OA
ATOM     26  C   UNL A   1      33.114  27.085  24.794  1.00  0.00     0.035 C 
ATOM     27  C   UNL A   1      31.660  25.299  24.238  1.00  0.00     0.315 C 
ATOM     28  C   UNL A   1      34.439  27.809  24.533  1.00  0.00     0.014 C 
ATOM     29  O   UNL A   1      31.154  24.654  25.143  1.00  0.00    -0.251 OA
ENDBRANCH  12  13
ENDBRANCH   9  12
ENDBRANCH   7   8
BRANCH   7  30
ATOM     30  C   UNL A   1      33.822  20.321  25.229  1.00  0.00     0.068 C 
BRANCH  30  31
ATOM     31  C   UNL A   1      33.642  19.133  24.329  1.00  0.00    -0.037 C 
ATOM     32  C   UNL A   1      34.183  17.918  24.427  1.00  0.00     0.001 A 
ATOM     33  C   UNL A   1      32.476  19.074  23.391  1.00  0.00     0.174 C 
ATOM     34  C   UNL A   1      35.358  17.289  24.941  1.00  0.00     0.010 A 
ATOM     35  C   UNL A   1      32.962  17.119  24.162  1.00  0.00     0.065 A 
ATOM     36  N   UNL A   1      31.966  17.704  23.569  1.00  0.00    -0.280 NA
ATOM     37  C   UNL A   1      35.315  15.980  25.248  1.00  0.00     0.001 A 
ATOM     38  C   UNL A   1      32.919  15.776  24.783  1.00  0.00     0.028 A 
ATOM     39  C   UNL A   1      34.050  15.267  25.298  1.00  0.00     0.002 A 
ENDBRANCH  30  31
ENDBRANCH   7  30
ENDBRANCH   4   7
ENDBRANCH   2   3
ENDBRANCH   1   2
BRANCH   1  40
ATOM     40  C   UNL A   1      39.820  21.984  26.953  1.00  0.00     0.023 C 
BRANCH  40  41
ATOM     41  C   UNL A   1      40.870  21.015  27.505  1.00  0.00     0.116 C 
BRANCH  41  42
ATOM     42  N   UNL A   1      41.974  20.761  26.594  1.00  0.00    -0.352 N 
ATOM     43  C   UNL A   1      42.882  21.650  26.046  1.00  0.00     0.251 C 
ATOM     44  H   UNL A   1      42.093  19.821  26.327  1.00  0.00     0.163 HD
ATOM     45  O   UNL A   1      43.746  21.276  25.285  1.00  0.00    -0.269 OA
BRANCH  43  46
ATOM     46  C   UNL A   1      42.699  23.082  26.357  1.00  0.00     0.039 A 
ATOM     47  C   UNL A   1      42.601  24.014  25.323  1.00  0.00     0.014 A 
ATOM     48  C   UNL A   1      42.817  23.486  27.690  1.00  0.00     0.014 A 
ATOM     49  C   UNL A   1      42.832  25.351  25.601  1.00  0.00     0.010 A 
ATOM     50  C   UNL A   1      42.990  24.836  27.973  1.00  0.00     0.010 A 
ATOM     51  C   UNL A   1      43.078  25.753  26.920  1.00  0.00    -0.014 A 
BRANCH  51  52
ATOM     52  C   UNL A   1      43.433  27.161  27.115  1.00  0.00     0.031 A 
ATOM     53  C   UNL A   1      42.267  28.070  27.271  1.00  0.00     0.074 A 
ATOM     54  C   UNL A   1      44.607  27.521  27.672  1.00  0.00     0.049 A 
ATOM     55  N   UNL A   1      41.629  28.201  28.398  1.00  0.00    -0.248 NA
ATOM     56  C   UNL A   1      41.591  28.667  26.122  1.00  0.00     0.031 C 
ATOM     57  C   UNL A   1      45.317  26.747  28.701  1.00  0.00     0.029 A 
ATOM     58  N   UNL A   1      45.277  28.716  27.629  1.00  0.00    -0.354 N 
ATOM     59  C   UNL A   1      40.447  28.857  28.113  1.00  0.00     0.074 A 
ATOM     60  C   UNL A   1      40.466  29.127  26.690  1.00  0.00     0.031 C 
ATOM     61  C   UNL A   1      46.180  27.567  29.337  1.00  0.00     0.029 A 
ATOM     62  C   UNL A   1      46.216  28.848  28.648  1.00  0.00     0.049 A 
ATOM     63  H   UNL A   1      45.113  29.408  26.948  1.00  0.00     0.167 HD
ATOM     64  C   UNL A   1      39.505  29.144  29.048  1.00  0.00     0.031 A 
ATOM     65  C   UNL A   1      46.595  30.038  29.189  1.00  0.00     0.031 A 
ATOM     66  C   UNL A   1      39.833  28.792  30.395  1.00  0.00     0.049 A 
ATOM     67  C   UNL A   1      45.363  30.366  30.007  1.00  0.00     0.074 A 
ATOM     68  C   UNL A   1      39.586  27.748  31.261  1.00  0.00     0.029 A 
ATOM     69  N   UNL A   1      40.678  29.623  31.093  1.00  0.00    -0.354 N 
ATOM     70  N   UNL A   1      45.049  29.868  31.177  1.00  0.00    -0.248 NA
ATOM     71  C   UNL A   1      44.251  31.017  29.311  1.00  0.00     0.031 C 
ATOM     72  C   UNL A   1      40.635  27.798  32.232  1.00  0.00     0.029 A 
ATOM     73  C   UNL A   1      41.496  28.830  31.857  1.00  0.00     0.049 A 
ATOM     74  H   UNL A   1      40.693  30.607  31.051  1.00  0.00     0.167 HD
ATOM     75  C   UNL A   1      43.651  29.874  31.224  1.00  0.00     0.074 A 
ATOM     76  C   UNL A   1      43.228  30.616  30.053  1.00  0.00     0.031 C 
ATOM     77  C   UNL A   1      42.900  29.127  32.087  1.00  0.00     0.031 A 
BRANCH  64  78
ATOM     78  C   UNL A   1      38.282  29.907  28.730  1.00  0.00    -0.014 A 
ATOM     79  C   UNL A   1      37.110  29.277  28.286  1.00  0.00     0.010 A 
ATOM     80  C   UNL A   1      38.279  31.291  28.970  1.00  0.00     0.010 A 
ATOM     81  C   UNL A   1      35.942  30.026  28.103  1.00  0.00     0.020 A 
ATOM     82  C   UNL A   1      37.117  32.039  28.793  1.00  0.00     0.020 A 
ATOM     83  C   UNL A   1      35.953  31.402  28.364  1.00  0.00     0.054 A 
BRANCH  83  84
ATOM     84  S   UNL A   1      34.415  32.343  28.184  1.00  0.00     0.124 S 
ATOM     85  O   UNL A   1      34.005  32.525  29.573  1.00  0.00    -0.237 OA
ATOM     86  O   UNL A   1      34.862  33.551  27.496  1.00  0.00    -0.237 OA
ATOM     87  O   UNL A   1      33.559  31.461  27.393  1.00  0.00    -0.744 OA
ENDBRANCH  83  84
ENDBRANCH  64  78
BRANCH  65  88
ATOM     88  C   UNL A   1      47.205  30.967  28.174  1.00  0.00    -0.014 A 
ATOM     89  C   UNL A   1      48.548  30.964  27.768  1.00  0.00     0.010 A 
ATOM     90  C   UNL A   1      46.369  31.979  27.641  1.00  0.00     0.010 A 
ATOM     91  C   UNL A   1      49.080  32.039  27.039  1.00  0.00     0.020 A 
ATOM     92  C   UNL A   1      46.885  33.041  26.891  1.00  0.00     0.020 A 
ATOM     93  C   UNL A   1      48.254  33.095  26.650  1.00  0.00     0.054 A 
BRANCH  93  94
ATOM     94  S   UNL A   1      48.970  34.554  25.845  1.00  0.00     0.124 S 
ATOM     95  O   UNL A   1      48.020  34.790  24.761  1.00  0.00    -0.237 OA
ATOM     96  O   UNL A   1      48.968  35.553  26.911  1.00  0.00    -0.237 OA
ATOM     97  O   UNL A   1      50.294  34.099  25.428  1.00  0.00    -0.744 OA
ENDBRANCH  93  94
ENDBRANCH  65  88
BRANCH  77  98
ATOM     98  C   UNL A   1      43.620  28.416  33.195  1.00  0.00    -0.014 A 
ATOM     99  C   UNL A   1      44.178  27.141  32.987  1.00  0.00     0.010 A 
ATOM    100  C   UNL A   1      43.621  28.951  34.493  1.00  0.00     0.010 A 
ATOM    101  C   UNL A   1      44.623  26.372  34.066  1.00  0.00     0.020 A 
ATOM    102  C   UNL A   1      44.087  28.197  35.574  1.00  0.00     0.020 A 
ATOM    103  C   UNL A   1      44.547  26.896  35.358  1.00  0.00     0.054 A 
BRANCH 103 104
ATOM    104  S   UNL A   1      45.010  25.834  36.752  1.00  0.00     0.124 S 
ATOM    105  O   UNL A   1      44.930  24.500  36.164  1.00  0.00    -0.237 OA
ATOM    106  O   UNL A   1      46.359  26.294  37.075  1.00  0.00    -0.237 OA
ATOM    107  O   UNL A   1      43.998  26.125  37.766  1.00  0.00    -0.744 OA
ENDBRANCH 103 104
ENDBRANCH  77  98
ENDBRANCH  51  52
ENDBRANCH  43  46
ENDBRANCH  41  42
ENDBRANCH  40  41
ENDBRANCH   1  40
TORSDOF 19
ENDMDL
MODEL 3
REMARK VINA RESULT:     -12.5      1.608      2.096
REMARK SMILES Cc1oc2cc3c(cc2c1C)[C@H](C)[C@@H](CC(=O)N[C@H](CC1=c2ccccc2=NC1)C(=O)NCCCCNC(=O)c1ccc(-c2c4nc(c(-c5ccc(S(=O)(=O)[O-])cc5)c5ccc([nH]5)c(-c5ccc(S(=O)(=O)[O-])cc5)c5nc(c(-c6ccc(S(=O)(=O)[O-])cc6)c6ccc2[nH]6)C=C5)C=C4)cc1)C(=O)O3
REMARK SMILES IDX 34 1 33 2 32 3 30 4 31 5 19 7 18 8 16 9 17 10 15 12 14 13
REMARK SMILES IDX 1 14 2 15 3 16 10 17 4 18 9 19 11 20 5 21 8 22 6 23 7 24
REMARK SMILES IDX 102 25 12 26 100 27 13 28 101 29 20 30 21 31 22 32 29 33
REMARK SMILES IDX 23 34 27 35 28 36 24 37 26 38 25 39 35 40 36 41 37 42 38 43
REMARK SMILES IDX 39 45 40 46 41 47 99 48 42 49 98 50 43 51 44 52 45 53 92 54
REMARK SMILES IDX 46 55 97 56 91 57 93 58 47 59 96 60 90 61 89 62 48 64 78 65
REMARK SMILES IDX 59 66 77 67 60 68 63 69 76 70 94 71 61 72 62 73 75 75 95 76
REMARK SMILES IDX 64 77 49 78 50 79 58 80 51 81 57 82 52 83 53 84 54 85 55 86
REMARK SMILES IDX 56 87 79 88 80 89 88 90 81 91 87 92 82 93 83 94 84 95 85 96
REMARK SMILES IDX 86 97 65 98 66 99 74 100 67 101 73 102 68 103 69 104 70 105
REMARK SMILES IDX 71 106 72 107
REMARK H PARENT 32 6 18 11 37 44 93 63 63 74
REMARK Flexibility Score: inf
ROOT
ATOM      1  C   UNL A   1      34.783  29.556  27.432  1.00  0.00     0.023 C 
ENDROOT
BRANCH   1   2
ATOM      2  C   UNL A   1      33.714  28.666  26.793  1.00  0.00     0.116 C 
BRANCH   2   3
ATOM      3  N   UNL A   1      34.016  28.431  25.398  1.00  0.00    -0.354 N 
ATOM      4  C   UNL A   1      33.205  28.183  24.334  1.00  0.00     0.242 C 
ATOM      5  O   UNL A   1      33.725  27.689  23.329  1.00  0.00    -0.273 OA
ATOM      6  H   UNL A   1      34.976  28.453  25.181  1.00  0.00     0.163 HD
BRANCH   4   7
ATOM      7  C   UNL A   1      31.672  28.284  24.446  1.00  0.00     0.175 C 
BRANCH   7   8
ATOM      8  N   UNL A   1      30.909  26.995  24.533  1.00  0.00    -0.344 N 
ATOM      9  C   UNL A   1      30.771  25.966  25.407  1.00  0.00     0.221 C 
ATOM     10  O   UNL A   1      29.831  25.189  25.197  1.00  0.00    -0.275 OA
ATOM     11  H   UNL A   1      30.352  26.858  23.733  1.00  0.00     0.164 HD
BRANCH   9  12
ATOM     12  C   UNL A   1      31.751  25.623  26.511  1.00  0.00     0.116 C 
BRANCH  12  13
ATOM     13  C   UNL A   1      32.385  24.283  26.127  1.00  0.00     0.116 C 
ATOM     14  C   UNL A   1      33.298  16.185  23.911  1.00  0.00     0.088 C 
ATOM     15  C   UNL A   1      33.128  17.650  24.042  1.00  0.00     0.105 A 
ATOM     16  O   UNL A   1      33.454  18.151  25.259  1.00  0.00    -0.461 OA
ATOM     17  C   UNL A   1      32.675  18.663  23.208  1.00  0.00    -0.002 A 
ATOM     18  C   UNL A   1      33.197  19.474  25.230  1.00  0.00     0.138 A 
ATOM     19  C   UNL A   1      32.743  19.871  23.979  1.00  0.00     0.024 A 
ATOM     20  C   UNL A   1      32.175  18.517  21.822  1.00  0.00     0.049 C 
ATOM     21  C   UNL A   1      33.318  20.298  26.327  1.00  0.00     0.095 A 
ATOM     22  C   UNL A   1      32.434  21.241  23.775  1.00  0.00     0.020 A 
ATOM     23  C   UNL A   1      32.898  21.605  26.125  1.00  0.00     0.138 A 
ATOM     24  C   UNL A   1      32.524  22.133  24.863  1.00  0.00    -0.001 A 
ATOM     25  O   UNL A   1      32.767  22.313  27.317  1.00  0.00    -0.426 OA
ATOM     26  C   UNL A   1      32.123  23.622  24.755  1.00  0.00     0.035 C 
ATOM     27  C   UNL A   1      31.832  23.275  27.081  1.00  0.00     0.315 C 
ATOM     28  C   UNL A   1      32.890  24.332  23.635  1.00  0.00     0.014 C 
ATOM     29  O   UNL A   1      30.699  23.281  27.535  1.00  0.00    -0.251 OA
ENDBRANCH  12  13
ENDBRANCH   9  12
ENDBRANCH   7   8
BRANCH   7  30
ATOM     30  C   UNL A   1      31.250  29.204  23.208  1.00  0.00     0.068 C 
BRANCH  30  31
ATOM     31  C   UNL A   1      29.787  29.538  23.159  1.00  0.00    -0.037 C 
ATOM     32  C   UNL A   1      29.200  30.736  23.176  1.00  0.00     0.001 A 
ATOM     33  C   UNL A   1      28.802  28.520  22.675  1.00  0.00     0.174 C 
ATOM     34  C   UNL A   1      29.434  32.054  23.674  1.00  0.00     0.010 A 
ATOM     35  C   UNL A   1      28.224  30.512  22.083  1.00  0.00     0.065 A 
ATOM     36  N   UNL A   1      27.943  29.287  21.757  1.00  0.00    -0.280 NA
ATOM     37  C   UNL A   1      28.812  33.092  23.086  1.00  0.00     0.001 A 
ATOM     38  C   UNL A   1      27.811  31.715  21.327  1.00  0.00     0.028 A 
ATOM     39  C   UNL A   1      28.112  32.925  21.823  1.00  0.00     0.002 A 
ENDBRANCH  30  31
ENDBRANCH   7  30
ENDBRANCH   4   7
ENDBRANCH   2   3
ENDBRANCH   1   2
BRANCH   1  40
ATOM     40  C   UNL A   1      34.440  31.040  27.335  1.00  0.00     0.023 C 
BRANCH  40  41
ATOM     41  C   UNL A   1      35.568  31.937  27.854  1.00  0.00     0.116 C 
BRANCH  41  42
ATOM     42  N   UNL A   1      35.185  32.774  28.980  1.00  0.00    -0.352 N 
ATOM     43  C   UNL A   1      35.893  33.076  30.130  1.00  0.00     0.251 C 
ATOM     44  H   UNL A   1      34.293  33.185  28.916  1.00  0.00     0.163 HD
ATOM     45  O   UNL A   1      35.422  33.788  30.988  1.00  0.00    -0.269 OA
BRANCH  43  46
ATOM     46  C   UNL A   1      37.206  32.423  30.307  1.00  0.00     0.039 A 
ATOM     47  C   UNL A   1      37.673  31.524  29.348  1.00  0.00     0.014 A 
ATOM     48  C   UNL A   1      37.862  32.587  31.531  1.00  0.00     0.014 A 
ATOM     49  C   UNL A   1      38.677  30.635  29.696  1.00  0.00     0.010 A 
ATOM     50  C   UNL A   1      38.909  31.731  31.854  1.00  0.00     0.010 A 
ATOM     51  C   UNL A   1      39.257  30.706  30.968  1.00  0.00    -0.014 A 
BRANCH  51  52
ATOM     52  C   UNL A   1      40.223  29.656  31.301  1.00  0.00     0.031 A 
ATOM     53  C   UNL A   1      40.018  28.380  30.565  1.00  0.00     0.074 A 
ATOM     54  C   UNL A   1      41.464  29.952  31.738  1.00  0.00     0.049 A 
ATOM     55  N   UNL A   1      40.432  28.203  29.344  1.00  0.00    -0.248 NA
ATOM     56  C   UNL A   1      39.112  27.342  31.052  1.00  0.00     0.031 C 
ATOM     57  C   UNL A   1      42.233  31.138  31.332  1.00  0.00     0.029 A 
ATOM     58  N   UNL A   1      42.370  29.181  32.418  1.00  0.00    -0.354 N 
ATOM     59  C   UNL A   1      39.814  27.059  28.876  1.00  0.00     0.074 A 
ATOM     60  C   UNL A   1      39.007  26.558  29.968  1.00  0.00     0.031 C 
ATOM     61  C   UNL A   1      43.539  30.910  31.583  1.00  0.00     0.029 A 
ATOM     62  C   UNL A   1      43.672  29.665  32.324  1.00  0.00     0.049 A 
ATOM     63  H   UNL A   1      42.127  28.371  32.921  1.00  0.00     0.167 HD
ATOM     64  C   UNL A   1      39.985  26.578  27.617  1.00  0.00     0.031 A 
ATOM     65  C   UNL A   1      44.784  28.884  32.386  1.00  0.00     0.031 A 
ATOM     66  C   UNL A   1      40.917  27.287  26.796  1.00  0.00     0.049 A 
ATOM     67  C   UNL A   1      44.720  28.218  31.026  1.00  0.00     0.074 A 
ATOM     68  C   UNL A   1      40.878  28.265  25.826  1.00  0.00     0.029 A 
ATOM     69  N   UNL A   1      42.258  27.053  26.993  1.00  0.00    -0.354 N 
ATOM     70  N   UNL A   1      45.081  28.744  29.883  1.00  0.00    -0.248 NA
ATOM     71  C   UNL A   1      43.871  27.030  30.902  1.00  0.00     0.031 C 
ATOM     72  C   UNL A   1      42.179  28.860  25.827  1.00  0.00     0.029 A 
ATOM     73  C   UNL A   1      42.911  28.251  26.848  1.00  0.00     0.049 A 
ATOM     74  H   UNL A   1      42.674  26.185  27.200  1.00  0.00     0.167 HD
ATOM     75  C   UNL A   1      44.264  28.143  28.920  1.00  0.00     0.074 A 
ATOM     76  C   UNL A   1      43.562  27.083  29.614  1.00  0.00     0.031 C 
ATOM     77  C   UNL A   1      44.047  28.641  27.665  1.00  0.00     0.031 A 
BRANCH  64  78
ATOM     78  C   UNL A   1      39.368  25.316  27.164  1.00  0.00    -0.014 A 
ATOM     79  C   UNL A   1      38.030  25.253  26.747  1.00  0.00     0.010 A 
ATOM     80  C   UNL A   1      40.180  24.175  27.067  1.00  0.00     0.010 A 
ATOM     81  C   UNL A   1      37.519  24.061  26.220  1.00  0.00     0.020 A 
ATOM     82  C   UNL A   1      39.676  22.987  26.540  1.00  0.00     0.020 A 
ATOM     83  C   UNL A   1      38.349  22.938  26.115  1.00  0.00     0.054 A 
BRANCH  83  84
ATOM     84  S   UNL A   1      37.688  21.423  25.370  1.00  0.00     0.124 S 
ATOM     85  O   UNL A   1      36.469  21.211  26.145  1.00  0.00    -0.237 OA
ATOM     86  O   UNL A   1      37.489  21.816  23.979  1.00  0.00    -0.237 OA
ATOM     87  O   UNL A   1      38.745  20.439  25.592  1.00  0.00    -0.744 OA
ENDBRANCH  83  84
ENDBRANCH  64  78
BRANCH  65  88
ATOM     88  C   UNL A   1      44.895  28.136  33.687  1.00  0.00    -0.014 A 
ATOM     89  C   UNL A   1      45.341  26.814  33.834  1.00  0.00     0.010 A 
ATOM     90  C   UNL A   1      44.438  28.798  34.853  1.00  0.00     0.010 A 
ATOM     91  C   UNL A   1      45.140  26.118  35.035  1.00  0.00     0.020 A 
ATOM     92  C   UNL A   1      44.259  28.121  36.063  1.00  0.00     0.020 A 
ATOM     93  C   UNL A   1      44.555  26.763  36.126  1.00  0.00     0.054 A 
BRANCH  93  94
ATOM     94  S   UNL A   1      44.155  25.823  37.624  1.00  0.00     0.124 S 
ATOM     95  O   UNL A   1      45.356  26.025  38.431  1.00  0.00    -0.237 OA
ATOM     96  O   UNL A   1      42.949  26.483  38.116  1.00  0.00    -0.237 OA
ATOM     97  O   UNL A   1      43.956  24.462  37.132  1.00  0.00    -0.744 OA
ENDBRANCH  93  94
ENDBRANCH  65  88
BRANCH  77  98
ATOM     98  C   UNL A   1      44.902  29.790  27.219  1.00  0.00    -0.014 A 
ATOM     99  C   UNL A   1      46.199  29.569  26.719  1.00  0.00     0.010 A 
ATOM    100  C   UNL A   1      44.474  31.111  27.429  1.00  0.00     0.010 A 
ATOM    101  C   UNL A   1      47.086  30.634  26.539  1.00  0.00     0.020 A 
ATOM    102  C   UNL A   1      45.349  32.184  27.228  1.00  0.00     0.020 A 
ATOM    103  C   UNL A   1      46.663  31.934  26.824  1.00  0.00     0.054 A 
BRANCH 103 104
ATOM    104  S   UNL A   1      47.868  33.283  26.708  1.00  0.00     0.124 S 
ATOM    105  O   UNL A   1      47.300  34.113  25.649  1.00  0.00    -0.237 OA
ATOM    106  O   UNL A   1      47.830  33.866  28.047  1.00  0.00    -0.237 OA
ATOM    107  O   UNL A   1      49.117  32.608  26.362  1.00  0.00    -0.744 OA
ENDBRANCH 103 104
ENDBRANCH  77  98
ENDBRANCH  51  52
ENDBRANCH  43  46
ENDBRANCH  41  42
ENDBRANCH  40  41
ENDBRANCH   1  40
TORSDOF 19
ENDMDL
