MODEL 1
REMARK VINA RESULT:     -11.1      0.000      0.000
REMARK SMILES Cc1ccc(C(N)=O)c(NCc2ccc(C(=O)NCCCCNC(=O)c3ccc(-c4c5nc(c(-c6ccc(S(=O)(=O)[O-])cc6)c6ccc([nH]6)c(-c6ccc(S(=O)(=O)[O-])cc6)c6nc(c(-c7ccc(S(=O)(=O)[O-])cc7)c7ccc4[nH]7)C=C6)C=C5)cc3)o2)n1
REMARK SMILES IDX 20 1 19 2 18 3 16 4 17 5 15 7 12 8 13 9 86 10 14 11 11 12
REMARK SMILES IDX 10 13 9 15 1 16 2 17 3 18 87 19 4 20 5 21 6 22 7 23 8 24
REMARK SMILES IDX 21 27 22 28 23 29 24 30 25 32 26 33 27 34 85 35 28 36 84 37
REMARK SMILES IDX 29 38 30 39 31 40 78 41 32 42 83 43 77 44 79 45 33 46 82 47
REMARK SMILES IDX 76 48 75 49 34 51 64 52 45 53 63 54 46 55 49 56 62 57 80 58
REMARK SMILES IDX 47 59 48 60 61 62 81 63 50 64 35 65 36 66 44 67 37 68 43 69
REMARK SMILES IDX 38 70 39 71 40 72 41 73 42 74 65 75 66 76 74 77 67 78 73 79
REMARK SMILES IDX 68 80 69 81 70 82 71 83 72 84 51 85 52 86 60 87 53 88 59 89
REMARK SMILES IDX 54 90 55 91 56 92 57 93 58 94
REMARK H PARENT 18 6 10 14 7 25 7 26 23 31 79 50 49 61
REMARK Flexibility Score: inf
ROOT
ATOM      1  C   UNL A   1      33.123  29.243  24.716  1.00  0.00     0.023 C 
ENDROOT
BRANCH   1   2
ATOM      2  C   UNL A   1      33.282  28.930  23.229  1.00  0.00     0.116 C 
BRANCH   2   3
ATOM      3  N   UNL A   1      32.067  29.220  22.497  1.00  0.00    -0.349 N 
ATOM      4  C   UNL A   1      30.865  28.550  22.446  1.00  0.00     0.286 C 
ATOM      5  O   UNL A   1      29.973  29.099  21.794  1.00  0.00    -0.266 OA
ATOM      6  H   UNL A   1      32.106  30.032  21.944  1.00  0.00     0.163 HD
BRANCH   4   7
ATOM      7  C   UNL A   1      30.668  27.285  23.135  1.00  0.00     0.191 A 
ATOM      8  C   UNL A   1      31.199  25.169  23.536  1.00  0.00     0.124 A 
ATOM      9  C   UNL A   1      30.112  25.452  24.331  1.00  0.00     0.048 A 
ATOM     10  O   UNL A   1      31.536  26.270  22.809  1.00  0.00    -0.454 OA
ATOM     11  C   UNL A   1      29.802  26.816  24.109  1.00  0.00     0.056 A 
BRANCH   8  12
ATOM     12  C   UNL A   1      32.052  23.959  23.350  1.00  0.00     0.190 C 
BRANCH  12  13
ATOM     13  N   UNL A   1      32.894  23.670  24.502  1.00  0.00    -0.362 N 
ATOM     14  H   UNL A   1      33.037  24.362  25.187  1.00  0.00     0.162 HD
BRANCH  13  15
ATOM     15  C   UNL A   1      33.497  22.431  24.647  1.00  0.00     0.139 A 
ATOM     16  C   UNL A   1      32.452  18.955  24.003  1.00  0.00     0.067 C 
ATOM     17  C   UNL A   1      33.322  20.108  24.401  1.00  0.00     0.040 A 
ATOM     18  C   UNL A   1      34.623  19.909  24.832  1.00  0.00     0.024 A 
ATOM     19  N   UNL A   1      32.763  21.340  24.325  1.00  0.00    -0.236 NA
ATOM     20  C   UNL A   1      35.375  21.020  25.192  1.00  0.00     0.019 A 
ATOM     21  C   UNL A   1      34.812  22.301  25.114  1.00  0.00     0.081 A 
BRANCH  21  22
ATOM     22  C   UNL A   1      35.657  23.435  25.575  1.00  0.00     0.252 C 
ATOM     23  N   UNL A   1      36.652  23.168  26.473  1.00  0.00    -0.365 N 
ATOM     24  O   UNL A   1      35.500  24.569  25.136  1.00  0.00    -0.269 OA
ATOM     25  H   UNL A   1      36.770  22.254  26.820  1.00  0.00     0.159 HD
ATOM     26  H   UNL A   1      37.250  23.889  26.772  1.00  0.00     0.159 HD
ENDBRANCH  21  22
ENDBRANCH  13  15
ENDBRANCH  12  13
ENDBRANCH   8  12
ENDBRANCH   4   7
ENDBRANCH   2   3
ENDBRANCH   1   2
BRANCH   1  27
ATOM     27  C   UNL A   1      33.694  28.165  25.646  1.00  0.00     0.023 C 
BRANCH  27  28
ATOM     28  C   UNL A   1      33.496  28.424  27.138  1.00  0.00     0.116 C 
BRANCH  28  29
ATOM     29  N   UNL A   1      33.383  29.836  27.471  1.00  0.00    -0.352 N 
ATOM     30  C   UNL A   1      34.330  30.652  28.047  1.00  0.00     0.251 C 
ATOM     31  H   UNL A   1      32.521  30.260  27.258  1.00  0.00     0.163 HD
ATOM     32  O   UNL A   1      34.050  31.801  28.360  1.00  0.00    -0.269 OA
BRANCH  30  33
ATOM     33  C   UNL A   1      35.676  30.105  28.318  1.00  0.00     0.039 A 
ATOM     34  C   UNL A   1      36.634  30.132  27.303  1.00  0.00     0.014 A 
ATOM     35  C   UNL A   1      35.999  29.615  29.585  1.00  0.00     0.014 A 
ATOM     36  C   UNL A   1      37.944  29.733  27.580  1.00  0.00     0.010 A 
ATOM     37  C   UNL A   1      37.317  29.277  29.875  1.00  0.00     0.010 A 
ATOM     38  C   UNL A   1      38.303  29.339  28.879  1.00  0.00    -0.014 A 
BRANCH  38  39
ATOM     39  C   UNL A   1      39.703  28.992  29.229  1.00  0.00     0.031 A 
ATOM     40  C   UNL A   1      40.595  30.026  29.857  1.00  0.00     0.074 A 
ATOM     41  C   UNL A   1      40.196  27.782  28.898  1.00  0.00     0.049 A 
ATOM     42  N   UNL A   1      41.875  29.963  30.117  1.00  0.00    -0.248 NA
ATOM     43  C   UNL A   1      39.970  31.311  30.214  1.00  0.00     0.031 C 
ATOM     44  C   UNL A   1      39.440  26.702  28.257  1.00  0.00     0.029 A 
ATOM     45  N   UNL A   1      41.457  27.261  29.042  1.00  0.00    -0.354 N 
ATOM     46  C   UNL A   1      42.214  31.204  30.642  1.00  0.00     0.074 A 
ATOM     47  C   UNL A   1      41.015  32.013  30.627  1.00  0.00     0.031 C 
ATOM     48  C   UNL A   1      40.250  25.645  28.077  1.00  0.00     0.029 A 
ATOM     49  C   UNL A   1      41.588  25.985  28.547  1.00  0.00     0.049 A 
ATOM     50  H   UNL A   1      42.200  27.755  29.459  1.00  0.00     0.167 HD
ATOM     51  C   UNL A   1      43.413  31.628  31.109  1.00  0.00     0.031 A 
ATOM     52  C   UNL A   1      42.668  25.181  28.470  1.00  0.00     0.031 A 
ATOM     53  C   UNL A   1      44.599  30.814  31.139  1.00  0.00     0.049 A 
ATOM     54  C   UNL A   1      43.989  25.673  28.995  1.00  0.00     0.074 A 
ATOM     55  C   UNL A   1      45.850  31.137  31.634  1.00  0.00     0.029 A 
ATOM     56  N   UNL A   1      44.679  29.516  30.658  1.00  0.00    -0.354 N 
ATOM     57  N   UNL A   1      44.280  26.836  29.528  1.00  0.00    -0.248 NA
ATOM     58  C   UNL A   1      45.124  24.743  28.916  1.00  0.00     0.031 C 
ATOM     59  C   UNL A   1      46.699  30.046  31.418  1.00  0.00     0.029 A 
ATOM     60  C   UNL A   1      45.963  29.027  30.835  1.00  0.00     0.049 A 
ATOM     61  H   UNL A   1      43.936  29.017  30.251  1.00  0.00     0.167 HD
ATOM     62  C   UNL A   1      45.623  26.763  29.881  1.00  0.00     0.074 A 
ATOM     63  C   UNL A   1      46.085  25.443  29.505  1.00  0.00     0.031 C 
ATOM     64  C   UNL A   1      46.401  27.704  30.469  1.00  0.00     0.031 A 
BRANCH  51  65
ATOM     65  C   UNL A   1      43.499  33.041  31.620  1.00  0.00    -0.014 A 
ATOM     66  C   UNL A   1      43.810  34.106  30.755  1.00  0.00     0.010 A 
ATOM     67  C   UNL A   1      43.235  33.313  32.974  1.00  0.00     0.010 A 
ATOM     68  C   UNL A   1      43.900  35.412  31.245  1.00  0.00     0.020 A 
ATOM     69  C   UNL A   1      43.296  34.621  33.462  1.00  0.00     0.020 A 
ATOM     70  C   UNL A   1      43.647  35.659  32.598  1.00  0.00     0.054 A 
BRANCH  70  71
ATOM     71  S   UNL A   1      43.756  37.365  33.204  1.00  0.00     0.124 S 
ATOM     72  O   UNL A   1      45.005  37.335  33.962  1.00  0.00    -0.237 OA
ATOM     73  O   UNL A   1      43.791  38.144  31.968  1.00  0.00    -0.237 OA
ATOM     74  O   UNL A   1      42.546  37.527  34.005  1.00  0.00    -0.744 OA
ENDBRANCH  70  71
ENDBRANCH  51  65
BRANCH  52  75
ATOM     75  C   UNL A   1      42.539  23.818  27.885  1.00  0.00    -0.014 A 
ATOM     76  C   UNL A   1      42.338  22.704  28.718  1.00  0.00     0.010 A 
ATOM     77  C   UNL A   1      42.604  23.629  26.492  1.00  0.00     0.010 A 
ATOM     78  C   UNL A   1      42.224  21.422  28.172  1.00  0.00     0.020 A 
ATOM     79  C   UNL A   1      42.464  22.352  25.941  1.00  0.00     0.020 A 
ATOM     80  C   UNL A   1      42.286  21.254  26.786  1.00  0.00     0.054 A 
BRANCH  80  81
ATOM     81  S   UNL A   1      42.083  19.589  26.095  1.00  0.00     0.124 S 
ATOM     82  O   UNL A   1      43.019  19.610  24.976  1.00  0.00    -0.237 OA
ATOM     83  O   UNL A   1      42.458  18.733  27.219  1.00  0.00    -0.237 OA
ATOM     84  O   UNL A   1      40.669  19.542  25.732  1.00  0.00    -0.744 OA
ENDBRANCH  80  81
ENDBRANCH  52  75
BRANCH  64  85
ATOM     85  C   UNL A   1      47.821  27.330  30.797  1.00  0.00    -0.014 A 
ATOM     86  C   UNL A   1      48.161  26.775  32.043  1.00  0.00     0.010 A 
ATOM     87  C   UNL A   1      48.815  27.468  29.811  1.00  0.00     0.010 A 
ATOM     88  C   UNL A   1      49.476  26.381  32.302  1.00  0.00     0.020 A 
ATOM     89  C   UNL A   1      50.124  27.052  30.058  1.00  0.00     0.020 A 
ATOM     90  C   UNL A   1      50.450  26.519  31.307  1.00  0.00     0.054 A 
BRANCH  90  91
ATOM     91  S   UNL A   1      52.135  25.941  31.645  1.00  0.00     0.124 S 
ATOM     92  O   UNL A   1      51.914  24.538  31.983  1.00  0.00    -0.237 OA
ATOM     93  O   UNL A   1      52.818  26.181  30.376  1.00  0.00    -0.237 OA
ATOM     94  O   UNL A   1      52.576  26.787  32.752  1.00  0.00    -0.744 OA
ENDBRANCH  90  91
ENDBRANCH  64  85
ENDBRANCH  38  39
ENDBRANCH  30  33
ENDBRANCH  28  29
ENDBRANCH  27  28
ENDBRANCH   1  27
TORSDOF 18
ENDMDL
MODEL 2
REMARK VINA RESULT:     -10.6      2.580      9.372
REMARK SMILES Cc1ccc(C(N)=O)c(NCc2ccc(C(=O)NCCCCNC(=O)c3ccc(-c4c5nc(c(-c6ccc(S(=O)(=O)[O-])cc6)c6ccc([nH]6)c(-c6ccc(S(=O)(=O)[O-])cc6)c6nc(c(-c7ccc(S(=O)(=O)[O-])cc7)c7ccc4[nH]7)C=C6)C=C5)cc3)o2)n1
REMARK SMILES IDX 20 1 19 2 18 3 16 4 17 5 15 7 12 8 13 9 86 10 14 11 11 12
REMARK SMILES IDX 10 13 9 15 1 16 2 17 3 18 87 19 4 20 5 21 6 22 7 23 8 24
REMARK SMILES IDX 21 27 22 28 23 29 24 30 25 32 26 33 27 34 85 35 28 36 84 37
REMARK SMILES IDX 29 38 30 39 31 40 78 41 32 42 83 43 77 44 79 45 33 46 82 47
REMARK SMILES IDX 76 48 75 49 34 51 64 52 45 53 63 54 46 55 49 56 62 57 80 58
REMARK SMILES IDX 47 59 48 60 61 62 81 63 50 64 35 65 36 66 44 67 37 68 43 69
REMARK SMILES IDX 38 70 39 71 40 72 41 73 42 74 65 75 66 76 74 77 67 78 73 79
REMARK SMILES IDX 68 80 69 81 70 82 71 83 72 84 51 85 52 86 60 87 53 88 59 89
REMARK SMILES IDX 54 90 55 91 56 92 57 93 58 94
REMARK H PARENT 18 6 10 14 7 25 7 26 23 31 79 50 49 61
REMARK Flexibility Score: inf
ROOT
ATOM      1  C   UNL A   1      35.592  21.558  25.267  1.00  0.00     0.023 C 
ENDROOT
BRANCH   1   2
ATOM      2  C   UNL A   1      34.194  20.965  25.443  1.00  0.00     0.116 C 
BRANCH   2   3
ATOM      3  N   UNL A   1      33.440  21.017  24.208  1.00  0.00    -0.349 N 
ATOM      4  C   UNL A   1      32.306  21.722  23.874  1.00  0.00     0.286 C 
ATOM      5  O   UNL A   1      31.944  21.630  22.698  1.00  0.00    -0.266 OA
ATOM      6  H   UNL A   1      33.799  20.454  23.485  1.00  0.00     0.163 HD
BRANCH   4   7
ATOM      7  C   UNL A   1      31.598  22.534  24.851  1.00  0.00     0.191 A 
ATOM      8  C   UNL A   1      30.836  24.478  25.599  1.00  0.00     0.124 A 
ATOM      9  C   UNL A   1      30.476  23.535  26.535  1.00  0.00     0.048 A 
ATOM     10  O   UNL A   1      31.517  23.881  24.583  1.00  0.00    -0.454 OA
ATOM     11  C   UNL A   1      30.922  22.288  26.034  1.00  0.00     0.056 A 
BRANCH   8  12
ATOM     12  C   UNL A   1      30.609  25.947  25.478  1.00  0.00     0.190 C 
BRANCH  12  13
ATOM     13  N   UNL A   1      31.272  26.536  24.323  1.00  0.00    -0.362 N 
ATOM     14  H   UNL A   1      32.156  26.203  24.047  1.00  0.00     0.162 HD
BRANCH  13  15
ATOM     15  C   UNL A   1      30.674  27.560  23.608  1.00  0.00     0.139 A 
ATOM     16  C   UNL A   1      27.195  28.668  23.094  1.00  0.00     0.067 C 
ATOM     17  C   UNL A   1      28.690  28.645  22.994  1.00  0.00     0.040 A 
ATOM     18  C   UNL A   1      29.374  29.607  22.271  1.00  0.00     0.024 A 
ATOM     19  N   UNL A   1      29.322  27.632  23.637  1.00  0.00    -0.236 NA
ATOM     20  C   UNL A   1      30.760  29.525  22.212  1.00  0.00     0.019 A 
ATOM     21  C   UNL A   1      31.428  28.487  22.875  1.00  0.00     0.081 A 
BRANCH  21  22
ATOM     22  C   UNL A   1      32.906  28.429  22.715  1.00  0.00     0.252 C 
ATOM     23  N   UNL A   1      33.640  29.492  23.159  1.00  0.00    -0.365 N 
ATOM     24  O   UNL A   1      33.459  27.444  22.240  1.00  0.00    -0.269 OA
ATOM     25  H   UNL A   1      33.186  30.280  23.539  1.00  0.00     0.159 HD
ATOM     26  H   UNL A   1      34.622  29.471  23.100  1.00  0.00     0.159 HD
ENDBRANCH  21  22
ENDBRANCH  13  15
ENDBRANCH  12  13
ENDBRANCH   8  12
ENDBRANCH   4   7
ENDBRANCH   2   3
ENDBRANCH   1   2
BRANCH   1  27
ATOM     27  C   UNL A   1      35.618  23.090  25.203  1.00  0.00     0.023 C 
BRANCH  27  28
ATOM     28  C   UNL A   1      37.011  23.715  25.202  1.00  0.00     0.116 C 
BRANCH  28  29
ATOM     29  N   UNL A   1      38.076  22.758  25.460  1.00  0.00    -0.352 N 
ATOM     30  C   UNL A   1      39.250  22.958  26.151  1.00  0.00     0.251 C 
ATOM     31  H   UNL A   1      37.940  21.854  25.094  1.00  0.00     0.163 HD
ATOM     32  O   UNL A   1      40.099  22.079  26.197  1.00  0.00    -0.269 OA
BRANCH  30  33
ATOM     33  C   UNL A   1      39.484  24.266  26.799  1.00  0.00     0.039 A 
ATOM     34  C   UNL A   1      39.007  24.473  28.095  1.00  0.00     0.014 A 
ATOM     35  C   UNL A   1      40.214  25.260  26.143  1.00  0.00     0.014 A 
ATOM     36  C   UNL A   1      39.326  25.656  28.765  1.00  0.00     0.010 A 
ATOM     37  C   UNL A   1      40.582  26.409  26.835  1.00  0.00     0.010 A 
ATOM     38  C   UNL A   1      40.149  26.616  28.154  1.00  0.00    -0.014 A 
BRANCH  38  39
ATOM     39  C   UNL A   1      40.578  27.844  28.868  1.00  0.00     0.031 A 
ATOM     40  C   UNL A   1      41.915  27.879  29.556  1.00  0.00     0.074 A 
ATOM     41  C   UNL A   1      39.732  28.887  28.977  1.00  0.00     0.049 A 
ATOM     42  N   UNL A   1      42.417  28.801  30.336  1.00  0.00    -0.248 NA
ATOM     43  C   UNL A   1      42.791  26.712  29.362  1.00  0.00     0.031 C 
ATOM     44  C   UNL A   1      38.395  28.962  28.381  1.00  0.00     0.029 A 
ATOM     45  N   UNL A   1      39.865  30.080  29.642  1.00  0.00    -0.354 N 
ATOM     46  C   UNL A   1      43.652  28.315  30.747  1.00  0.00     0.074 A 
ATOM     47  C   UNL A   1      43.806  27.001  30.162  1.00  0.00     0.031 C 
ATOM     48  C   UNL A   1      37.839  30.144  28.697  1.00  0.00     0.029 A 
ATOM     49  C   UNL A   1      38.758  30.891  29.550  1.00  0.00     0.049 A 
ATOM     50  H   UNL A   1      40.677  30.332  30.139  1.00  0.00     0.167 HD
ATOM     51  C   UNL A   1      44.581  28.914  31.530  1.00  0.00     0.031 A 
ATOM     52  C   UNL A   1      38.505  32.095  30.100  1.00  0.00     0.031 A 
ATOM     53  C   UNL A   1      44.431  30.229  32.095  1.00  0.00     0.049 A 
ATOM     54  C   UNL A   1      39.552  32.741  30.965  1.00  0.00     0.074 A 
ATOM     55  C   UNL A   1      45.335  30.942  32.863  1.00  0.00     0.029 A 
ATOM     56  N   UNL A   1      43.308  31.028  31.950  1.00  0.00    -0.354 N 
ATOM     57  N   UNL A   1      40.733  32.284  31.307  1.00  0.00    -0.248 NA
ATOM     58  C   UNL A   1      39.236  34.069  31.511  1.00  0.00     0.031 C 
ATOM     59  C   UNL A   1      44.742  32.159  33.214  1.00  0.00     0.029 A 
ATOM     60  C   UNL A   1      43.491  32.224  32.623  1.00  0.00     0.049 A 
ATOM     61  H   UNL A   1      42.500  30.783  31.443  1.00  0.00     0.167 HD
ATOM     62  C   UNL A   1      41.315  33.284  32.079  1.00  0.00     0.074 A 
ATOM     63  C   UNL A   1      40.360  34.370  32.150  1.00  0.00     0.031 C 
ATOM     64  C   UNL A   1      42.535  33.301  32.671  1.00  0.00     0.031 A 
BRANCH  51  65
ATOM     65  C   UNL A   1      45.842  28.146  31.823  1.00  0.00    -0.014 A 
ATOM     66  C   UNL A   1      45.917  27.271  32.921  1.00  0.00     0.010 A 
ATOM     67  C   UNL A   1      46.955  28.276  30.974  1.00  0.00     0.010 A 
ATOM     68  C   UNL A   1      47.097  26.573  33.191  1.00  0.00     0.020 A 
ATOM     69  C   UNL A   1      48.128  27.559  31.224  1.00  0.00     0.020 A 
ATOM     70  C   UNL A   1      48.198  26.727  32.342  1.00  0.00     0.054 A 
BRANCH  70  71
ATOM     71  S   UNL A   1      49.713  25.799  32.707  1.00  0.00     0.124 S 
ATOM     72  O   UNL A   1      49.907  25.044  31.471  1.00  0.00    -0.237 OA
ATOM     73  O   UNL A   1      50.688  26.859  32.954  1.00  0.00    -0.237 OA
ATOM     74  O   UNL A   1      49.357  25.000  33.876  1.00  0.00    -0.744 OA
ENDBRANCH  70  71
ENDBRANCH  51  65
BRANCH  52  75
ATOM     75  C   UNL A   1      37.208  32.775  29.834  1.00  0.00    -0.014 A 
ATOM     76  C   UNL A   1      36.138  32.642  30.737  1.00  0.00     0.010 A 
ATOM     77  C   UNL A   1      37.039  33.569  28.685  1.00  0.00     0.010 A 
ATOM     78  C   UNL A   1      34.917  33.275  30.487  1.00  0.00     0.020 A 
ATOM     79  C   UNL A   1      35.827  34.224  28.445  1.00  0.00     0.020 A 
ATOM     80  C   UNL A   1      34.769  34.063  29.342  1.00  0.00     0.054 A 
BRANCH  80  81
ATOM     81  S   UNL A   1      33.193  34.917  29.063  1.00  0.00     0.124 S 
ATOM     82  O   UNL A   1      33.637  36.228  28.601  1.00  0.00    -0.237 OA
ATOM     83  O   UNL A   1      32.551  34.073  28.056  1.00  0.00    -0.237 OA
ATOM     84  O   UNL A   1      32.557  34.895  30.378  1.00  0.00    -0.744 OA
ENDBRANCH  80  81
ENDBRANCH  52  75
BRANCH  64  85
ATOM     85  C   UNL A   1      42.937  34.552  33.402  1.00  0.00    -0.014 A 
ATOM     86  C   UNL A   1      42.718  34.693  34.784  1.00  0.00     0.010 A 
ATOM     87  C   UNL A   1      43.613  35.570  32.705  1.00  0.00     0.010 A 
ATOM     88  C   UNL A   1      43.154  35.841  35.452  1.00  0.00     0.020 A 
ATOM     89  C   UNL A   1      44.072  36.707  33.374  1.00  0.00     0.020 A 
ATOM     90  C   UNL A   1      43.831  36.840  34.743  1.00  0.00     0.054 A 
BRANCH  90  91
ATOM     91  S   UNL A   1      44.444  38.290  35.644  1.00  0.00     0.124 S 
ATOM     92  O   UNL A   1      43.906  39.391  34.850  1.00  0.00    -0.237 OA
ATOM     93  O   UNL A   1      43.849  38.120  36.968  1.00  0.00    -0.237 OA
ATOM     94  O   UNL A   1      45.896  38.138  35.597  1.00  0.00    -0.744 OA
ENDBRANCH  90  91
ENDBRANCH  64  85
ENDBRANCH  38  39
ENDBRANCH  30  33
ENDBRANCH  28  29
ENDBRANCH  27  28
ENDBRANCH   1  27
TORSDOF 18
ENDMDL
MODEL 3
REMARK VINA RESULT:     -10.3      1.307      2.261
REMARK SMILES Cc1ccc(C(N)=O)c(NCc2ccc(C(=O)NCCCCNC(=O)c3ccc(-c4c5nc(c(-c6ccc(S(=O)(=O)[O-])cc6)c6ccc([nH]6)c(-c6ccc(S(=O)(=O)[O-])cc6)c6nc(c(-c7ccc(S(=O)(=O)[O-])cc7)c7ccc4[nH]7)C=C6)C=C5)cc3)o2)n1
REMARK SMILES IDX 20 1 19 2 18 3 16 4 17 5 15 7 12 8 13 9 86 10 14 11 11 12
REMARK SMILES IDX 10 13 9 15 1 16 2 17 3 18 87 19 4 20 5 21 6 22 7 23 8 24
REMARK SMILES IDX 21 27 22 28 23 29 24 30 25 32 26 33 27 34 85 35 28 36 84 37
REMARK SMILES IDX 29 38 30 39 31 40 78 41 32 42 83 43 77 44 79 45 33 46 82 47
REMARK SMILES IDX 76 48 75 49 34 51 64 52 45 53 63 54 46 55 49 56 62 57 80 58
REMARK SMILES IDX 47 59 48 60 61 62 81 63 50 64 35 65 36 66 44 67 37 68 43 69
REMARK SMILES IDX 38 70 39 71 40 72 41 73 42 74 65 75 66 76 74 77 67 78 73 79
REMARK SMILES IDX 68 80 69 81 70 82 71 83 72 84 51 85 52 86 60 87 53 88 59 89
REMARK SMILES IDX 54 90 55 91 56 92 57 93 58 94
REMARK H PARENT 18 6 10 14 7 25 7 26 23 31 79 50 49 61
REMARK Flexibility Score: inf
ROOT
ATOM      1  C   UNL A   1      33.597  26.767  24.058  1.00  0.00     0.023 C 
ENDROOT
BRANCH   1   2
ATOM      2  C   UNL A   1      32.069  26.781  24.025  1.00  0.00     0.116 C 
BRANCH   2   3
ATOM      3  N   UNL A   1      31.519  27.256  25.277  1.00  0.00    -0.349 N 
ATOM      4  C   UNL A   1      31.124  26.573  26.405  1.00  0.00     0.286 C 
ATOM      5  O   UNL A   1      30.775  27.271  27.360  1.00  0.00    -0.266 OA
ATOM      6  H   UNL A   1      31.410  28.233  25.331  1.00  0.00     0.163 HD
BRANCH   4   7
ATOM      7  C   UNL A   1      31.137  25.120  26.459  1.00  0.00     0.191 A 
ATOM      8  C   UNL A   1      32.129  23.185  26.897  1.00  0.00     0.124 A 
ATOM      9  C   UNL A   1      30.880  22.877  26.408  1.00  0.00     0.048 A 
ATOM     10  O   UNL A   1      32.292  24.536  26.926  1.00  0.00    -0.454 OA
ATOM     11  C   UNL A   1      30.231  24.113  26.172  1.00  0.00     0.056 A 
BRANCH   8  12
ATOM     12  C   UNL A   1      33.268  22.364  27.402  1.00  0.00     0.190 C 
BRANCH  12  13
ATOM     13  N   UNL A   1      33.835  21.486  26.388  1.00  0.00    -0.362 N 
ATOM     14  H   UNL A   1      33.491  20.569  26.291  1.00  0.00     0.162 HD
BRANCH  13  15
ATOM     15  C   UNL A   1      34.853  21.926  25.558  1.00  0.00     0.139 A 
ATOM     16  C   UNL A   1      38.497  22.338  25.929  1.00  0.00     0.067 C 
ATOM     17  C   UNL A   1      37.142  22.342  25.290  1.00  0.00     0.040 A 
ATOM     18  C   UNL A   1      36.975  22.723  23.969  1.00  0.00     0.024 A 
ATOM     19  N   UNL A   1      36.103  21.967  26.075  1.00  0.00    -0.236 NA
ATOM     20  C   UNL A   1      35.691  22.711  23.437  1.00  0.00     0.019 A 
ATOM     21  C   UNL A   1      34.608  22.321  24.235  1.00  0.00     0.081 A 
BRANCH  21  22
ATOM     22  C   UNL A   1      33.257  22.393  23.616  1.00  0.00     0.252 C 
ATOM     23  N   UNL A   1      32.634  21.219  23.301  1.00  0.00    -0.365 N 
ATOM     24  O   UNL A   1      32.695  23.467  23.432  1.00  0.00    -0.269 OA
ATOM     25  H   UNL A   1      33.093  20.361  23.452  1.00  0.00     0.159 HD
ATOM     26  H   UNL A   1      31.726  21.230  22.922  1.00  0.00     0.159 HD
ENDBRANCH  21  22
ENDBRANCH  13  15
ENDBRANCH  12  13
ENDBRANCH   8  12
ENDBRANCH   4   7
ENDBRANCH   2   3
ENDBRANCH   1   2
BRANCH   1  27
ATOM     27  C   UNL A   1      34.224  28.095  24.500  1.00  0.00     0.023 C 
BRANCH  27  28
ATOM     28  C   UNL A   1      34.494  28.219  25.997  1.00  0.00     0.116 C 
BRANCH  28  29
ATOM     29  N   UNL A   1      33.840  29.365  26.611  1.00  0.00    -0.352 N 
ATOM     30  C   UNL A   1      34.337  30.212  27.576  1.00  0.00     0.251 C 
ATOM     31  H   UNL A   1      32.927  29.558  26.298  1.00  0.00     0.163 HD
ATOM     32  O   UNL A   1      33.625  31.075  28.069  1.00  0.00    -0.269 OA
BRANCH  30  33
ATOM     33  C   UNL A   1      35.731  30.033  28.035  1.00  0.00     0.039 A 
ATOM     34  C   UNL A   1      35.961  29.568  29.331  1.00  0.00     0.014 A 
ATOM     35  C   UNL A   1      36.798  30.278  27.169  1.00  0.00     0.014 A 
ATOM     36  C   UNL A   1      37.265  29.277  29.738  1.00  0.00     0.010 A 
ATOM     37  C   UNL A   1      38.089  29.930  27.554  1.00  0.00     0.010 A 
ATOM     38  C   UNL A   1      38.335  29.419  28.839  1.00  0.00    -0.014 A 
BRANCH  38  39
ATOM     39  C   UNL A   1      39.720  29.039  29.208  1.00  0.00     0.031 A 
ATOM     40  C   UNL A   1      40.627  30.051  29.852  1.00  0.00     0.074 A 
ATOM     41  C   UNL A   1      40.189  27.818  28.882  1.00  0.00     0.049 A 
ATOM     42  N   UNL A   1      41.901  29.957  30.131  1.00  0.00    -0.248 NA
ATOM     43  C   UNL A   1      40.027  31.348  30.203  1.00  0.00     0.031 C 
ATOM     44  C   UNL A   1      39.418  26.757  28.228  1.00  0.00     0.029 A 
ATOM     45  N   UNL A   1      41.436  27.268  29.043  1.00  0.00    -0.354 N 
ATOM     46  C   UNL A   1      42.262  31.189  30.664  1.00  0.00     0.074 A 
ATOM     47  C   UNL A   1      41.083  32.025  30.632  1.00  0.00     0.031 C 
ATOM     48  C   UNL A   1      40.205  25.682  28.057  1.00  0.00     0.029 A 
ATOM     49  C   UNL A   1      41.544  25.989  28.548  1.00  0.00     0.049 A 
ATOM     50  H   UNL A   1      42.184  27.743  29.473  1.00  0.00     0.167 HD
ATOM     51  C   UNL A   1      43.463  31.583  31.148  1.00  0.00     0.031 A 
ATOM     52  C   UNL A   1      42.606  25.160  28.485  1.00  0.00     0.031 A 
ATOM     53  C   UNL A   1      44.630  30.742  31.194  1.00  0.00     0.049 A 
ATOM     54  C   UNL A   1      43.930  25.621  29.030  1.00  0.00     0.074 A 
ATOM     55  C   UNL A   1      45.880  31.034  31.708  1.00  0.00     0.029 A 
ATOM     56  N   UNL A   1      44.686  29.443  30.711  1.00  0.00    -0.354 N 
ATOM     57  N   UNL A   1      44.241  26.775  29.570  1.00  0.00    -0.248 NA
ATOM     58  C   UNL A   1      45.044  24.664  28.966  1.00  0.00     0.031 C 
ATOM     59  C   UNL A   1      46.706  29.924  31.502  1.00  0.00     0.029 A 
ATOM     60  C   UNL A   1      45.955  28.924  30.906  1.00  0.00     0.049 A 
ATOM     61  H   UNL A   1      43.937  28.962  30.293  1.00  0.00     0.167 HD
ATOM     62  C   UNL A   1      45.576  26.670  29.942  1.00  0.00     0.074 A 
ATOM     63  C   UNL A   1      46.013  25.340  29.570  1.00  0.00     0.031 C 
ATOM     64  C   UNL A   1      46.368  27.592  30.543  1.00  0.00     0.031 A 
BRANCH  51  65
ATOM     65  C   UNL A   1      43.575  32.993  31.664  1.00  0.00    -0.014 A 
ATOM     66  C   UNL A   1      43.362  33.286  33.023  1.00  0.00     0.010 A 
ATOM     67  C   UNL A   1      43.927  34.034  30.786  1.00  0.00     0.010 A 
ATOM     68  C   UNL A   1      43.455  34.601  33.486  1.00  0.00     0.020 A 
ATOM     69  C   UNL A   1      44.049  35.346  31.250  1.00  0.00     0.020 A 
ATOM     70  C   UNL A   1      43.793  35.624  32.594  1.00  0.00     0.054 A 
BRANCH  70  71
ATOM     71  S   UNL A   1      43.922  37.319  33.225  1.00  0.00     0.124 S 
ATOM     72  O   UNL A   1      45.201  37.281  33.931  1.00  0.00    -0.237 OA
ATOM     73  O   UNL A   1      43.904  38.120  32.002  1.00  0.00    -0.237 OA
ATOM     74  O   UNL A   1      42.744  37.463  34.076  1.00  0.00    -0.744 OA
ENDBRANCH  70  71
ENDBRANCH  51  65
BRANCH  52  75
ATOM     75  C   UNL A   1      42.454  23.802  27.895  1.00  0.00    -0.014 A 
ATOM     76  C   UNL A   1      42.766  23.576  26.543  1.00  0.00     0.010 A 
ATOM     77  C   UNL A   1      42.008  22.726  28.684  1.00  0.00     0.010 A 
ATOM     78  C   UNL A   1      42.618  22.303  25.985  1.00  0.00     0.020 A 
ATOM     79  C   UNL A   1      41.883  21.446  28.135  1.00  0.00     0.020 A 
ATOM     80  C   UNL A   1      42.178  21.245  26.785  1.00  0.00     0.054 A 
BRANCH  80  81
ATOM     81  S   UNL A   1      42.042  19.590  26.054  1.00  0.00     0.124 S 
ATOM     82  O   UNL A   1      42.937  19.692  24.906  1.00  0.00    -0.237 OA
ATOM     83  O   UNL A   1      42.501  18.727  27.141  1.00  0.00    -0.237 OA
ATOM     84  O   UNL A   1      40.621  19.475  25.737  1.00  0.00    -0.744 OA
ENDBRANCH  80  81
ENDBRANCH  52  75
BRANCH  64  85
ATOM     85  C   UNL A   1      47.773  27.184  30.891  1.00  0.00    -0.014 A 
ATOM     86  C   UNL A   1      48.059  26.486  32.078  1.00  0.00     0.010 A 
ATOM     87  C   UNL A   1      48.811  27.438  29.976  1.00  0.00     0.010 A 
ATOM     88  C   UNL A   1      49.364  26.066  32.350  1.00  0.00     0.020 A 
ATOM     89  C   UNL A   1      50.110  26.998  30.234  1.00  0.00     0.020 A 
ATOM     90  C   UNL A   1      50.381  26.322  31.425  1.00  0.00     0.054 A 
BRANCH  90  91
ATOM     91  S   UNL A   1      52.054  25.711  31.771  1.00  0.00     0.124 S 
ATOM     92  O   UNL A   1      52.720  25.902  30.486  1.00  0.00    -0.237 OA
ATOM     93  O   UNL A   1      52.501  26.591  32.849  1.00  0.00    -0.237 OA
ATOM     94  O   UNL A   1      51.839  24.319  32.161  1.00  0.00    -0.744 OA
ENDBRANCH  90  91
ENDBRANCH  64  85
ENDBRANCH  38  39
ENDBRANCH  30  33
ENDBRANCH  28  29
ENDBRANCH  27  28
ENDBRANCH   1  27
TORSDOF 18
ENDMDL
