MODEL 1
REMARK VINA RESULT:     -10.4      0.000      0.000
REMARK SMILES O=C(NCCCCNC(=O)c1cc(Br)cnc1S)c1ccc(-c2c3nc(c(-c4ccc(S(=O)(=O)[O-])cc4)c4ccc([nH]4)c(-c4ccc(S(=O)(=O)[O-])cc4)c4nc(c(-c5ccc(S(=O)(=O)[O-])cc5)c5ccc2[nH]5)C=C4)C=C3)cc1
REMARK SMILES IDX 4 1 3 2 1 3 2 4 19 6 20 7 78 8 21 9 77 10 22 11 23 12 24 13
REMARK SMILES IDX 71 14 25 15 76 16 70 17 72 18 26 19 75 20 69 21 68 22 27 24
REMARK SMILES IDX 57 25 38 26 56 27 39 28 42 29 55 30 73 31 40 32 41 33 54 35
REMARK SMILES IDX 74 36 43 37 28 38 29 39 37 40 30 41 36 42 31 43 32 44 33 45
REMARK SMILES IDX 34 46 35 47 58 48 59 49 67 50 60 51 66 52 61 53 62 54 63 55
REMARK SMILES IDX 64 56 65 57 44 58 45 59 53 60 46 61 52 62 47 63 48 64 49 65
REMARK SMILES IDX 50 66 51 67 5 68 6 69 7 70 8 71 9 72 10 74 11 75 12 76 17 77
REMARK SMILES IDX 13 78 16 79 14 80 15 81 18 82
REMARK H PARENT 3 5 72 23 42 34 8 73 18 83
REMARK Flexibility Score: inf
ROOT
ATOM      1  C   UNL A   1      34.139  28.892  25.862  1.00  0.00     0.116 C 
ENDROOT
BRANCH   1   2
ATOM      2  N   UNL A   1      33.747  30.079  26.601  1.00  0.00    -0.352 N 
ATOM      3  O   UNL A   1      33.828  31.638  28.222  1.00  0.00    -0.269 OA
ATOM      4  C   UNL A   1      34.393  30.721  27.633  1.00  0.00     0.251 C 
ATOM      5  H   UNL A   1      32.894  30.485  26.323  1.00  0.00     0.163 HD
BRANCH   4   6
ATOM      6  C   UNL A   1      35.749  30.294  28.049  1.00  0.00     0.039 A 
ATOM      7  C   UNL A   1      35.914  29.689  29.298  1.00  0.00     0.014 A 
ATOM      8  C   UNL A   1      36.857  30.491  27.221  1.00  0.00     0.014 A 
ATOM      9  C   UNL A   1      37.180  29.245  29.691  1.00  0.00     0.010 A 
ATOM     10  C   UNL A   1      38.091  29.951  27.567  1.00  0.00     0.010 A 
ATOM     11  C   UNL A   1      38.276  29.347  28.818  1.00  0.00    -0.014 A 
BRANCH  11  12
ATOM     12  C   UNL A   1      39.628  28.874  29.220  1.00  0.00     0.031 A 
ATOM     13  C   UNL A   1      40.506  29.742  30.086  1.00  0.00     0.074 A 
ATOM     14  C   UNL A   1      40.080  27.678  28.796  1.00  0.00     0.049 A 
ATOM     15  N   UNL A   1      41.711  29.505  30.536  1.00  0.00    -0.248 NA
ATOM     16  C   UNL A   1      39.973  31.060  30.474  1.00  0.00     0.031 C 
ATOM     17  C   UNL A   1      39.346  26.763  27.919  1.00  0.00     0.029 A 
ATOM     18  N   UNL A   1      41.256  27.017  29.055  1.00  0.00    -0.354 N 
ATOM     19  C   UNL A   1      42.073  30.636  31.260  1.00  0.00     0.074 A 
ATOM     20  C   UNL A   1      41.003  31.595  31.111  1.00  0.00     0.031 C 
ATOM     21  C   UNL A   1      40.065  25.641  27.757  1.00  0.00     0.029 A 
ATOM     22  C   UNL A   1      41.329  25.770  28.479  1.00  0.00     0.049 A 
ATOM     23  H   UNL A   1      41.980  27.401  29.601  1.00  0.00     0.167 HD
ATOM     24  C   UNL A   1      43.172  30.841  32.022  1.00  0.00     0.031 A 
ATOM     25  C   UNL A   1      42.293  24.829  28.530  1.00  0.00     0.031 A 
ATOM     26  C   UNL A   1      44.229  29.876  32.182  1.00  0.00     0.049 A 
ATOM     27  C   UNL A   1      43.516  25.079  29.369  1.00  0.00     0.074 A 
ATOM     28  C   UNL A   1      45.371  29.978  32.954  1.00  0.00     0.029 A 
ATOM     29  N   UNL A   1      44.269  28.632  31.570  1.00  0.00    -0.354 N 
ATOM     30  N   UNL A   1      43.817  26.136  30.088  1.00  0.00    -0.248 NA
ATOM     31  C   UNL A   1      44.518  24.006  29.424  1.00  0.00     0.031 C 
ATOM     32  C   UNL A   1      46.134  28.824  32.759  1.00  0.00     0.029 A 
ATOM     33  C   UNL A   1      45.429  27.966  31.928  1.00  0.00     0.049 A 
ATOM     34  H   UNL A   1      43.575  28.274  30.970  1.00  0.00     0.167 HD
ATOM     35  C   UNL A   1      45.041  25.854  30.685  1.00  0.00     0.074 A 
ATOM     36  C   UNL A   1      45.405  24.513  30.273  1.00  0.00     0.031 C 
ATOM     37  C   UNL A   1      45.796  26.638  31.494  1.00  0.00     0.031 A 
BRANCH  24  38
ATOM     38  C   UNL A   1      43.272  32.144  32.777  1.00  0.00    -0.014 A 
ATOM     39  C   UNL A   1      43.934  33.247  32.207  1.00  0.00     0.010 A 
ATOM     40  C   UNL A   1      42.779  32.252  34.092  1.00  0.00     0.010 A 
ATOM     41  C   UNL A   1      44.123  34.420  32.944  1.00  0.00     0.020 A 
ATOM     42  C   UNL A   1      42.932  33.436  34.818  1.00  0.00     0.020 A 
ATOM     43  C   UNL A   1      43.625  34.504  34.247  1.00  0.00     0.054 A 
BRANCH  43  44
ATOM     44  S   UNL A   1      43.893  36.029  35.193  1.00  0.00     0.124 S 
ATOM     45  O   UNL A   1      45.214  36.446  34.734  1.00  0.00    -0.237 OA
ATOM     46  O   UNL A   1      42.779  36.870  34.763  1.00  0.00    -0.237 OA
ATOM     47  O   UNL A   1      43.825  35.585  36.583  1.00  0.00    -0.744 OA
ENDBRANCH  43  44
ENDBRANCH  24  38
BRANCH  25  48
ATOM     48  C   UNL A   1      42.081  23.542  27.807  1.00  0.00    -0.014 A 
ATOM     49  C   UNL A   1      41.336  22.506  28.403  1.00  0.00     0.010 A 
ATOM     50  C   UNL A   1      42.722  23.301  26.579  1.00  0.00     0.010 A 
ATOM     51  C   UNL A   1      41.304  21.233  27.827  1.00  0.00     0.020 A 
ATOM     52  C   UNL A   1      42.663  22.037  25.982  1.00  0.00     0.020 A 
ATOM     53  C   UNL A   1      41.988  21.001  26.632  1.00  0.00     0.054 A 
BRANCH  53  54
ATOM     54  S   UNL A   1      42.025  19.315  25.965  1.00  0.00     0.124 S 
ATOM     55  O   UNL A   1      40.609  19.068  25.701  1.00  0.00    -0.237 OA
ATOM     56  O   UNL A   1      42.870  19.458  24.782  1.00  0.00    -0.237 OA
ATOM     57  O   UNL A   1      42.603  18.527  27.051  1.00  0.00    -0.744 OA
ENDBRANCH  53  54
ENDBRANCH  25  48
BRANCH  37  58
ATOM     58  C   UNL A   1      47.116  26.092  31.979  1.00  0.00    -0.014 A 
ATOM     59  C   UNL A   1      48.255  26.169  31.157  1.00  0.00     0.010 A 
ATOM     60  C   UNL A   1      47.205  25.404  33.203  1.00  0.00     0.010 A 
ATOM     61  C   UNL A   1      49.449  25.548  31.533  1.00  0.00     0.020 A 
ATOM     62  C   UNL A   1      48.408  24.813  33.601  1.00  0.00     0.020 A 
ATOM     63  C   UNL A   1      49.516  24.870  32.753  1.00  0.00     0.054 A 
BRANCH  63  64
ATOM     64  S   UNL A   1      51.071  24.065  33.225  1.00  0.00     0.124 S 
ATOM     65  O   UNL A   1      50.811  23.680  34.610  1.00  0.00    -0.237 OA
ATOM     66  O   UNL A   1      51.165  22.963  32.271  1.00  0.00    -0.237 OA
ATOM     67  O   UNL A   1      52.069  25.118  33.047  1.00  0.00    -0.744 OA
ENDBRANCH  63  64
ENDBRANCH  37  58
ENDBRANCH  11  12
ENDBRANCH   4   6
ENDBRANCH   1   2
BRANCH   1  68
ATOM     68  C   UNL A   1      33.676  27.597  26.519  1.00  0.00     0.023 C 
BRANCH  68  69
ATOM     69  C   UNL A   1      32.197  27.541  26.897  1.00  0.00     0.023 C 
BRANCH  69  70
ATOM     70  C   UNL A   1      31.360  26.530  26.119  1.00  0.00     0.116 C 
BRANCH  70  71
ATOM     71  N   UNL A   1      31.117  25.302  26.862  1.00  0.00    -0.352 N 
ATOM     72  C   UNL A   1      31.712  24.076  26.718  1.00  0.00     0.254 C 
ATOM     73  H   UNL A   1      30.430  25.361  27.566  1.00  0.00     0.163 HD
ATOM     74  O   UNL A   1      31.347  23.116  27.391  1.00  0.00    -0.269 OA
BRANCH  72  75
ATOM     75  C   UNL A   1      32.764  23.885  25.716  1.00  0.00     0.072 A 
ATOM     76  C   UNL A   1      34.088  23.936  26.171  1.00  0.00     0.034 A 
ATOM     77  C   UNL A   1      32.511  23.691  24.358  1.00  0.00     0.106 A 
ATOM     78  C   UNL A   1      35.117  23.728  25.266  1.00  0.00     0.037 A 
ATOM     79  N   UNL A   1      33.519  23.462  23.475  1.00  0.00    -0.248 NA
ATOM     80  Br  UNL A   1      36.916  23.782  25.823  1.00  0.00    -0.049 Br
ATOM     81  C   UNL A   1      34.789  23.480  23.944  1.00  0.00     0.128 A 
BRANCH  77  82
ATOM     82  S   UNL A   1      30.899  23.742  23.602  1.00  0.00    -0.123 SA
ATOM     83  H   UNL A   1      29.979  24.131  24.524  1.00  0.00     0.109 HD
ENDBRANCH  77  82
ENDBRANCH  72  75
ENDBRANCH  70  71
ENDBRANCH  69  70
ENDBRANCH  68  69
ENDBRANCH   1  68
TORSDOF 15
ENDMDL
MODEL 2
REMARK VINA RESULT:     -10.3      2.903      9.546
REMARK SMILES O=C(NCCCCNC(=O)c1cc(Br)cnc1S)c1ccc(-c2c3nc(c(-c4ccc(S(=O)(=O)[O-])cc4)c4ccc([nH]4)c(-c4ccc(S(=O)(=O)[O-])cc4)c4nc(c(-c5ccc(S(=O)(=O)[O-])cc5)c5ccc2[nH]5)C=C4)C=C3)cc1
REMARK SMILES IDX 4 1 3 2 1 3 2 4 19 6 20 7 78 8 21 9 77 10 22 11 23 12 24 13
REMARK SMILES IDX 71 14 25 15 76 16 70 17 72 18 26 19 75 20 69 21 68 22 27 24
REMARK SMILES IDX 57 25 38 26 56 27 39 28 42 29 55 30 73 31 40 32 41 33 54 35
REMARK SMILES IDX 74 36 43 37 28 38 29 39 37 40 30 41 36 42 31 43 32 44 33 45
REMARK SMILES IDX 34 46 35 47 58 48 59 49 67 50 60 51 66 52 61 53 62 54 63 55
REMARK SMILES IDX 64 56 65 57 44 58 45 59 53 60 46 61 52 62 47 63 48 64 49 65
REMARK SMILES IDX 50 66 51 67 5 68 6 69 7 70 8 71 9 72 10 74 11 75 12 76 17 77
REMARK SMILES IDX 13 78 16 79 14 80 15 81 18 82
REMARK H PARENT 3 5 72 23 42 34 8 73 18 83
REMARK Flexibility Score: inf
ROOT
ATOM      1  C   UNL A   1      36.852  23.681  25.104  1.00  0.00     0.116 C 
ENDROOT
BRANCH   1   2
ATOM      2  N   UNL A   1      37.861  22.679  25.400  1.00  0.00    -0.352 N 
ATOM      3  O   UNL A   1      39.844  21.869  26.091  1.00  0.00    -0.269 OA
ATOM      4  C   UNL A   1      39.060  22.813  26.062  1.00  0.00     0.251 C 
ATOM      5  H   UNL A   1      37.657  21.770  25.082  1.00  0.00     0.163 HD
BRANCH   4   6
ATOM      6  C   UNL A   1      39.418  24.096  26.712  1.00  0.00     0.039 A 
ATOM      7  C   UNL A   1      39.020  24.319  28.032  1.00  0.00     0.014 A 
ATOM      8  C   UNL A   1      40.136  25.079  26.027  1.00  0.00     0.014 A 
ATOM      9  C   UNL A   1      39.381  25.507  28.673  1.00  0.00     0.010 A 
ATOM     10  C   UNL A   1      40.587  26.210  26.700  1.00  0.00     0.010 A 
ATOM     11  C   UNL A   1      40.192  26.452  28.023  1.00  0.00    -0.014 A 
BRANCH  11  12
ATOM     12  C   UNL A   1      40.590  27.719  28.694  1.00  0.00     0.031 A 
ATOM     13  C   UNL A   1      41.996  27.892  29.209  1.00  0.00     0.074 A 
ATOM     14  C   UNL A   1      39.690  28.707  28.861  1.00  0.00     0.049 A 
ATOM     15  N   UNL A   1      42.528  28.918  29.821  1.00  0.00    -0.248 NA
ATOM     16  C   UNL A   1      42.918  26.755  29.040  1.00  0.00     0.031 C 
ATOM     17  C   UNL A   1      38.286  28.647  28.448  1.00  0.00     0.029 A 
ATOM     18  N   UNL A   1      39.821  29.960  29.409  1.00  0.00    -0.354 N 
ATOM     19  C   UNL A   1      43.840  28.551  30.102  1.00  0.00     0.074 A 
ATOM     20  C   UNL A   1      43.996  27.179  29.681  1.00  0.00     0.031 C 
ATOM     21  C   UNL A   1      37.702  29.827  28.708  1.00  0.00     0.029 A 
ATOM     22  C   UNL A   1      38.672  30.714  29.347  1.00  0.00     0.049 A 
ATOM     23  H   UNL A   1      40.658  30.287  29.809  1.00  0.00     0.167 HD
ATOM     24  C   UNL A   1      44.841  29.303  30.618  1.00  0.00     0.031 A 
ATOM     25  C   UNL A   1      38.423  31.979  29.744  1.00  0.00     0.031 A 
ATOM     26  C   UNL A   1      44.686  30.676  31.022  1.00  0.00     0.049 A 
ATOM     27  C   UNL A   1      39.542  32.795  30.329  1.00  0.00     0.074 A 
ATOM     28  C   UNL A   1      45.646  31.532  31.530  1.00  0.00     0.029 A 
ATOM     29  N   UNL A   1      43.502  31.396  30.954  1.00  0.00    -0.354 N 
ATOM     30  N   UNL A   1      40.790  32.446  30.541  1.00  0.00    -0.248 NA
ATOM     31  C   UNL A   1      39.230  34.179  30.710  1.00  0.00     0.031 C 
ATOM     32  C   UNL A   1      45.030  32.749  31.831  1.00  0.00     0.029 A 
ATOM     33  C   UNL A   1      43.702  32.680  31.435  1.00  0.00     0.049 A 
ATOM     34  H   UNL A   1      42.647  31.048  30.614  1.00  0.00     0.167 HD
ATOM     35  C   UNL A   1      41.414  33.569  31.075  1.00  0.00     0.074 A 
ATOM     36  C   UNL A   1      40.414  34.618  31.118  1.00  0.00     0.031 C 
ATOM     37  C   UNL A   1      42.695  33.713  31.496  1.00  0.00     0.031 A 
BRANCH  24  38
ATOM     38  C   UNL A   1      46.205  28.670  30.739  1.00  0.00    -0.014 A 
ATOM     39  C   UNL A   1      47.111  28.724  29.665  1.00  0.00     0.010 A 
ATOM     40  C   UNL A   1      46.562  27.945  31.893  1.00  0.00     0.010 A 
ATOM     41  C   UNL A   1      48.333  28.047  29.730  1.00  0.00     0.020 A 
ATOM     42  C   UNL A   1      47.798  27.299  31.978  1.00  0.00     0.020 A 
ATOM     43  C   UNL A   1      48.665  27.334  30.886  1.00  0.00     0.054 A 
BRANCH  43  44
ATOM     44  S   UNL A   1      50.248  26.451  30.948  1.00  0.00     0.124 S 
ATOM     45  O   UNL A   1      51.113  27.417  31.616  1.00  0.00    -0.237 OA
ATOM     46  O   UNL A   1      49.916  25.257  31.721  1.00  0.00    -0.237 OA
ATOM     47  O   UNL A   1      50.557  26.202  29.541  1.00  0.00    -0.744 OA
ENDBRANCH  43  44
ENDBRANCH  24  38
BRANCH  25  48
ATOM     48  C   UNL A   1      37.062  32.546  29.525  1.00  0.00    -0.014 A 
ATOM     49  C   UNL A   1      36.725  33.132  28.290  1.00  0.00     0.010 A 
ATOM     50  C   UNL A   1      36.140  32.615  30.585  1.00  0.00     0.010 A 
ATOM     51  C   UNL A   1      35.532  33.845  28.143  1.00  0.00     0.020 A 
ATOM     52  C   UNL A   1      34.929  33.298  30.431  1.00  0.00     0.020 A 
ATOM     53  C   UNL A   1      34.652  33.942  29.223  1.00  0.00     0.054 A 
BRANCH  53  54
ATOM     54  S   UNL A   1      33.165  34.966  29.042  1.00  0.00     0.124 S 
ATOM     55  O   UNL A   1      32.427  34.240  28.012  1.00  0.00    -0.237 OA
ATOM     56  O   UNL A   1      32.584  34.923  30.381  1.00  0.00    -0.237 OA
ATOM     57  O   UNL A   1      33.690  36.266  28.634  1.00  0.00    -0.744 OA
ENDBRANCH  53  54
ENDBRANCH  25  48
BRANCH  37  58
ATOM     58  C   UNL A   1      43.104  35.045  32.074  1.00  0.00    -0.014 A 
ATOM     59  C   UNL A   1      42.879  35.322  33.435  1.00  0.00     0.010 A 
ATOM     60  C   UNL A   1      43.613  36.064  31.247  1.00  0.00     0.010 A 
ATOM     61  C   UNL A   1      43.126  36.597  33.953  1.00  0.00     0.020 A 
ATOM     62  C   UNL A   1      43.897  37.329  31.769  1.00  0.00     0.020 A 
ATOM     63  C   UNL A   1      43.631  37.594  33.113  1.00  0.00     0.054 A 
BRANCH  63  64
ATOM     64  S   UNL A   1      43.942  39.243  33.801  1.00  0.00     0.124 S 
ATOM     65  O   UNL A   1      43.924  38.985  35.239  1.00  0.00    -0.237 OA
ATOM     66  O   UNL A   1      45.246  39.584  33.239  1.00  0.00    -0.237 OA
ATOM     67  O   UNL A   1      42.827  40.041  33.296  1.00  0.00    -0.744 OA
ENDBRANCH  63  64
ENDBRANCH  37  58
ENDBRANCH  11  12
ENDBRANCH   4   6
ENDBRANCH   1   2
BRANCH   1  68
ATOM     68  C   UNL A   1      35.981  23.318  23.907  1.00  0.00     0.023 C 
BRANCH  68  69
ATOM     69  C   UNL A   1      34.690  24.123  23.763  1.00  0.00     0.023 C 
BRANCH  69  70
ATOM     70  C   UNL A   1      34.424  25.139  24.869  1.00  0.00     0.116 C 
BRANCH  70  71
ATOM     71  N   UNL A   1      33.295  24.777  25.713  1.00  0.00    -0.352 N 
ATOM     72  C   UNL A   1      32.297  25.578  26.207  1.00  0.00     0.254 C 
ATOM     73  H   UNL A   1      33.240  23.827  25.963  1.00  0.00     0.163 HD
ATOM     74  O   UNL A   1      31.442  25.124  26.962  1.00  0.00    -0.269 OA
BRANCH  72  75
ATOM     75  C   UNL A   1      32.271  27.005  25.875  1.00  0.00     0.072 A 
ATOM     76  C   UNL A   1      33.057  27.853  26.666  1.00  0.00     0.034 A 
ATOM     77  C   UNL A   1      31.492  27.546  24.851  1.00  0.00     0.106 A 
ATOM     78  C   UNL A   1      33.091  29.206  26.370  1.00  0.00     0.037 A 
ATOM     79  N   UNL A   1      31.545  28.869  24.545  1.00  0.00    -0.248 NA
ATOM     80  Br  UNL A   1      34.134  30.392  27.397  1.00  0.00    -0.049 Br
ATOM     81  C   UNL A   1      32.340  29.664  25.300  1.00  0.00     0.128 A 
BRANCH  77  82
ATOM     82  S   UNL A   1      30.337  26.628  23.854  1.00  0.00    -0.123 SA
ATOM     83  H   UNL A   1      29.166  27.315  23.771  1.00  0.00     0.109 HD
ENDBRANCH  77  82
ENDBRANCH  72  75
ENDBRANCH  70  71
ENDBRANCH  69  70
ENDBRANCH  68  69
ENDBRANCH   1  68
TORSDOF 15
ENDMDL
MODEL 3
REMARK VINA RESULT:     -10.2      4.016     10.731
REMARK SMILES O=C(NCCCCNC(=O)c1cc(Br)cnc1S)c1ccc(-c2c3nc(c(-c4ccc(S(=O)(=O)[O-])cc4)c4ccc([nH]4)c(-c4ccc(S(=O)(=O)[O-])cc4)c4nc(c(-c5ccc(S(=O)(=O)[O-])cc5)c5ccc2[nH]5)C=C4)C=C3)cc1
REMARK SMILES IDX 4 1 3 2 1 3 2 4 19 6 20 7 78 8 21 9 77 10 22 11 23 12 24 13
REMARK SMILES IDX 71 14 25 15 76 16 70 17 72 18 26 19 75 20 69 21 68 22 27 24
REMARK SMILES IDX 57 25 38 26 56 27 39 28 42 29 55 30 73 31 40 32 41 33 54 35
REMARK SMILES IDX 74 36 43 37 28 38 29 39 37 40 30 41 36 42 31 43 32 44 33 45
REMARK SMILES IDX 34 46 35 47 58 48 59 49 67 50 60 51 66 52 61 53 62 54 63 55
REMARK SMILES IDX 64 56 65 57 44 58 45 59 53 60 46 61 52 62 47 63 48 64 49 65
REMARK SMILES IDX 50 66 51 67 5 68 6 69 7 70 8 71 9 72 10 74 11 75 12 76 17 77
REMARK SMILES IDX 13 78 16 79 14 80 15 81 18 82
REMARK H PARENT 3 5 72 23 42 34 8 73 18 83
REMARK Flexibility Score: inf
ROOT
ATOM      1  C   UNL A   1      41.240  21.921  26.130  1.00  0.00     0.116 C 
ENDROOT
BRANCH   1   2
ATOM      2  N   UNL A   1      39.826  22.014  25.811  1.00  0.00    -0.352 N 
ATOM      3  O   UNL A   1      37.725  22.816  25.897  1.00  0.00    -0.269 OA
ATOM      4  C   UNL A   1      38.915  22.989  26.147  1.00  0.00     0.251 C 
ATOM      5  H   UNL A   1      39.466  21.270  25.275  1.00  0.00     0.163 HD
BRANCH   4   6
ATOM      6  C   UNL A   1      39.359  24.226  26.829  1.00  0.00     0.039 A 
ATOM      7  C   UNL A   1      40.054  25.191  26.097  1.00  0.00     0.014 A 
ATOM      8  C   UNL A   1      39.101  24.438  28.186  1.00  0.00     0.014 A 
ATOM      9  C   UNL A   1      40.447  26.382  26.714  1.00  0.00     0.010 A 
ATOM     10  C   UNL A   1      39.395  25.666  28.769  1.00  0.00     0.010 A 
ATOM     11  C   UNL A   1      40.097  26.643  28.050  1.00  0.00    -0.014 A 
BRANCH  11  12
ATOM     12  C   UNL A   1      40.504  27.907  28.720  1.00  0.00     0.031 A 
ATOM     13  C   UNL A   1      41.915  28.076  29.223  1.00  0.00     0.074 A 
ATOM     14  C   UNL A   1      39.607  28.897  28.896  1.00  0.00     0.049 A 
ATOM     15  N   UNL A   1      42.455  29.100  29.833  1.00  0.00    -0.248 NA
ATOM     16  C   UNL A   1      42.832  26.937  29.045  1.00  0.00     0.031 C 
ATOM     17  C   UNL A   1      38.200  28.841  28.494  1.00  0.00     0.029 A 
ATOM     18  N   UNL A   1      39.746  30.149  29.445  1.00  0.00    -0.354 N 
ATOM     19  C   UNL A   1      43.768  28.730  30.102  1.00  0.00     0.074 A 
ATOM     20  C   UNL A   1      43.917  27.357  29.677  1.00  0.00     0.031 C 
ATOM     21  C   UNL A   1      37.621  30.022  28.762  1.00  0.00     0.029 A 
ATOM     22  C   UNL A   1      38.599  30.906  29.393  1.00  0.00     0.049 A 
ATOM     23  H   UNL A   1      40.588  30.474  29.839  1.00  0.00     0.167 HD
ATOM     24  C   UNL A   1      44.775  29.478  30.611  1.00  0.00     0.031 A 
ATOM     25  C   UNL A   1      38.356  32.171  29.795  1.00  0.00     0.031 A 
ATOM     26  C   UNL A   1      44.627  30.851  31.018  1.00  0.00     0.049 A 
ATOM     27  C   UNL A   1      39.482  32.983  30.372  1.00  0.00     0.074 A 
ATOM     28  C   UNL A   1      45.593  31.704  31.519  1.00  0.00     0.029 A 
ATOM     29  N   UNL A   1      43.444  31.574  30.961  1.00  0.00    -0.354 N 
ATOM     30  N   UNL A   1      40.731  32.631  30.572  1.00  0.00    -0.248 NA
ATOM     31  C   UNL A   1      39.176  34.367  30.758  1.00  0.00     0.031 C 
ATOM     32  C   UNL A   1      44.982  32.922  31.827  1.00  0.00     0.029 A 
ATOM     33  C   UNL A   1      43.651  32.857  31.442  1.00  0.00     0.049 A 
ATOM     34  H   UNL A   1      42.585  31.228  30.628  1.00  0.00     0.167 HD
ATOM     35  C   UNL A   1      41.362  33.751  31.103  1.00  0.00     0.074 A 
ATOM     36  C   UNL A   1      40.365  34.802  31.156  1.00  0.00     0.031 C 
ATOM     37  C   UNL A   1      42.647  33.892  31.514  1.00  0.00     0.031 A 
BRANCH  24  38
ATOM     38  C   UNL A   1      46.139  28.841  30.719  1.00  0.00    -0.014 A 
ATOM     39  C   UNL A   1      46.537  28.210  31.910  1.00  0.00     0.010 A 
ATOM     40  C   UNL A   1      47.064  28.942  29.661  1.00  0.00     0.010 A 
ATOM     41  C   UNL A   1      47.836  27.715  32.053  1.00  0.00     0.020 A 
ATOM     42  C   UNL A   1      48.351  28.414  29.785  1.00  0.00     0.020 A 
ATOM     43  C   UNL A   1      48.737  27.826  30.990  1.00  0.00     0.054 A 
BRANCH  43  44
ATOM     44  S   UNL A   1      50.423  27.191  31.198  1.00  0.00     0.124 S 
ATOM     45  O   UNL A   1      50.187  25.780  31.484  1.00  0.00    -0.237 OA
ATOM     46  O   UNL A   1      51.035  27.481  29.903  1.00  0.00    -0.237 OA
ATOM     47  O   UNL A   1      50.949  27.976  32.312  1.00  0.00    -0.744 OA
ENDBRANCH  43  44
ENDBRANCH  24  38
BRANCH  25  48
ATOM     48  C   UNL A   1      36.994  32.741  29.588  1.00  0.00    -0.014 A 
ATOM     49  C   UNL A   1      36.645  33.320  28.353  1.00  0.00     0.010 A 
ATOM     50  C   UNL A   1      36.085  32.821  30.659  1.00  0.00     0.010 A 
ATOM     51  C   UNL A   1      35.453  34.036  28.216  1.00  0.00     0.020 A 
ATOM     52  C   UNL A   1      34.875  33.508  30.515  1.00  0.00     0.020 A 
ATOM     53  C   UNL A   1      34.586  34.144  29.306  1.00  0.00     0.054 A 
BRANCH  53  54
ATOM     54  S   UNL A   1      33.101  35.172  29.136  1.00  0.00     0.124 S 
ATOM     55  O   UNL A   1      32.537  35.107  30.482  1.00  0.00    -0.237 OA
ATOM     56  O   UNL A   1      33.653  36.467  28.747  1.00  0.00    -0.237 OA
ATOM     57  O   UNL A   1      32.327  34.491  28.102  1.00  0.00    -0.744 OA
ENDBRANCH  53  54
ENDBRANCH  25  48
BRANCH  37  58
ATOM     58  C   UNL A   1      43.064  35.222  32.090  1.00  0.00    -0.014 A 
ATOM     59  C   UNL A   1      42.786  35.526  33.435  1.00  0.00     0.010 A 
ATOM     60  C   UNL A   1      43.635  36.214  31.272  1.00  0.00     0.010 A 
ATOM     61  C   UNL A   1      43.042  36.802  33.945  1.00  0.00     0.020 A 
ATOM     62  C   UNL A   1      43.929  37.480  31.788  1.00  0.00     0.020 A 
ATOM     63  C   UNL A   1      43.609  37.772  33.115  1.00  0.00     0.054 A 
BRANCH  63  64
ATOM     64  S   UNL A   1      43.932  39.424  33.792  1.00  0.00     0.124 S 
ATOM     65  O   UNL A   1      42.714  40.147  33.434  1.00  0.00    -0.237 OA
ATOM     66  O   UNL A   1      44.110  39.157  35.217  1.00  0.00    -0.237 OA
ATOM     67  O   UNL A   1      45.141  39.852  33.091  1.00  0.00    -0.744 OA
ENDBRANCH  63  64
ENDBRANCH  37  58
ENDBRANCH  11  12
ENDBRANCH   4   6
ENDBRANCH   1   2
BRANCH   1  68
ATOM     68  C   UNL A   1      41.511  21.225  27.459  1.00  0.00     0.023 C 
BRANCH  68  69
ATOM     69  C   UNL A   1      42.247  22.062  28.504  1.00  0.00     0.023 C 
BRANCH  69  70
ATOM     70  C   UNL A   1      42.683  23.449  28.044  1.00  0.00     0.116 C 
BRANCH  70  71
ATOM     71  N   UNL A   1      44.053  23.768  28.420  1.00  0.00    -0.352 N 
ATOM     72  C   UNL A   1      45.197  23.673  27.670  1.00  0.00     0.254 C 
ATOM     73  H   UNL A   1      44.174  24.097  29.340  1.00  0.00     0.163 HD
ATOM     74  O   UNL A   1      46.293  23.926  28.160  1.00  0.00    -0.269 OA
BRANCH  72  75
ATOM     75  C   UNL A   1      45.125  23.217  26.279  1.00  0.00     0.072 A 
ATOM     76  C   UNL A   1      45.207  21.836  26.062  1.00  0.00     0.034 A 
ATOM     77  C   UNL A   1      45.013  24.079  25.188  1.00  0.00     0.106 A 
ATOM     78  C   UNL A   1      45.111  21.353  24.766  1.00  0.00     0.037 A 
ATOM     79  N   UNL A   1      44.893  23.605  23.920  1.00  0.00    -0.248 NA
ATOM     80  Br  UNL A   1      45.211  19.505  24.415  1.00  0.00    -0.049 Br
ATOM     81  C   UNL A   1      44.938  22.263  23.737  1.00  0.00     0.128 A 
BRANCH  77  82
ATOM     82  S   UNL A   1      45.040  25.857  25.285  1.00  0.00    -0.123 SA
ATOM     83  H   UNL A   1      44.755  26.246  26.556  1.00  0.00     0.109 HD
ENDBRANCH  77  82
ENDBRANCH  72  75
ENDBRANCH  70  71
ENDBRANCH  69  70
ENDBRANCH  68  69
ENDBRANCH   1  68
TORSDOF 15
ENDMDL
