MODEL 1
REMARK VINA RESULT:     -12.2      0.000      0.000
REMARK SMILES C[C@H]1CN(C(=O)N2CC[NH+]([C@@H](C)C(=O)NCCCCNC(=O)c3ccc(-c4c5nc(c(-c6ccc(S(=O)(=O)[O-])cc6)c6ccc([nH]6)c(-c6ccc(S(=O)(=O)[O-])cc6)c6nc(c(-c7ccc(S(=O)(=O)[O-])cc7)c7ccc4[nH]7)C=C6)C=C5)cc3)CC2)C[C@@H]1C
REMARK SMILES IDX 18 1 17 2 16 3 15 4 13 5 14 6 11 8 12 9 10 10 1 11 2 12 3 13
REMARK SMILES IDX 86 14 4 15 85 16 87 17 5 18 6 19 7 20 8 21 84 22 9 23 83 24
REMARK SMILES IDX 19 26 20 27 21 28 22 30 23 31 24 32 82 33 25 34 81 35 26 36
REMARK SMILES IDX 27 37 28 38 75 39 29 40 80 41 74 42 76 43 30 44 79 45 73 46
REMARK SMILES IDX 72 47 31 49 61 50 42 51 60 52 43 53 46 54 59 55 77 56 44 57
REMARK SMILES IDX 45 58 58 60 78 61 47 62 32 63 33 64 41 65 34 66 40 67 35 68
REMARK SMILES IDX 36 69 37 70 38 71 39 72 62 73 63 74 71 75 64 76 70 77 65 78
REMARK SMILES IDX 66 79 67 80 68 81 69 82 48 83 49 84 57 85 50 86 56 87 51 88
REMARK SMILES IDX 52 89 53 90 54 91 55 92
REMARK H PARENT 15 7 10 25 20 29 76 48 46 59
REMARK Flexibility Score: inf
ROOT
ATOM      1  C   UNL A   1      37.512  23.303  25.433  1.00  0.00     0.023 C 
ENDROOT
BRANCH   1   2
ATOM      2  C   UNL A   1      37.797  21.813  25.306  1.00  0.00     0.023 C 
BRANCH   2   3
ATOM      3  C   UNL A   1      36.558  20.919  25.161  1.00  0.00     0.116 C 
BRANCH   3   4
ATOM      4  N   UNL A   1      35.625  21.130  26.250  1.00  0.00    -0.351 N 
ATOM      5  C   UNL A   1      34.263  21.177  26.307  1.00  0.00     0.278 C 
ATOM      6  O   UNL A   1      33.784  21.513  27.400  1.00  0.00    -0.268 OA
ATOM      7  H   UNL A   1      36.060  21.265  27.122  1.00  0.00     0.163 HD
BRANCH   5   8
ATOM      8  C   UNL A   1      33.317  20.816  25.126  1.00  0.00     0.271 C 
ATOM      9  C   UNL A   1      33.455  19.380  24.626  1.00  0.00     0.086 C 
BRANCH   8  10
ATOM     10  N   UNL A   1      33.133  21.921  24.152  1.00  0.00    -0.322 N 
ATOM     11  C   UNL A   1      33.182  28.971  22.860  1.00  0.00     0.010 C 
ATOM     12  C   UNL A   1      31.917  28.115  22.759  1.00  0.00     0.010 C 
ATOM     13  C   UNL A   1      32.165  26.712  23.307  1.00  0.00     0.125 C 
ATOM     14  C   UNL A   1      30.791  28.644  23.670  1.00  0.00     0.010 C 
ATOM     15  N   UNL A   1      31.809  26.798  24.716  1.00  0.00    -0.324 N 
ATOM     16  C   UNL A   1      31.151  28.051  25.038  1.00  0.00     0.125 C 
ATOM     17  C   UNL A   1      29.416  28.147  23.209  1.00  0.00     0.010 C 
ATOM     18  C   UNL A   1      31.888  25.766  25.617  1.00  0.00     0.320 C 
ATOM     19  O   UNL A   1      31.517  25.844  26.784  1.00  0.00    -0.248 OA
ATOM     20  N   UNL A   1      32.319  24.584  25.054  1.00  0.00    -0.313 N 
ATOM     21  C   UNL A   1      31.360  23.499  25.016  1.00  0.00     0.183 C 
ATOM     22  C   UNL A   1      33.706  24.178  25.229  1.00  0.00     0.183 C 
ATOM     23  C   UNL A   1      31.786  22.464  23.972  1.00  0.00     0.284 C 
ATOM     24  C   UNL A   1      34.103  23.029  24.272  1.00  0.00     0.284 C 
ATOM     25  H   UNL A   1      33.330  21.397  23.299  1.00  0.00     0.348 HD
ENDBRANCH   8  10
ENDBRANCH   5   8
ENDBRANCH   3   4
ENDBRANCH   2   3
ENDBRANCH   1   2
BRANCH   1  26
ATOM     26  C   UNL A   1      38.412  24.042  26.409  1.00  0.00     0.116 C 
BRANCH  26  27
ATOM     27  N   UNL A   1      39.835  23.839  26.173  1.00  0.00    -0.352 N 
ATOM     28  C   UNL A   1      40.892  24.594  26.645  1.00  0.00     0.251 C 
ATOM     29  H   UNL A   1      40.073  23.068  25.609  1.00  0.00     0.163 HD
ATOM     30  O   UNL A   1      42.034  24.352  26.305  1.00  0.00    -0.269 OA
BRANCH  28  31
ATOM     31  C   UNL A   1      40.591  25.742  27.531  1.00  0.00     0.039 A 
ATOM     32  C   UNL A   1      39.623  25.591  28.526  1.00  0.00     0.014 A 
ATOM     33  C   UNL A   1      41.343  26.915  27.442  1.00  0.00     0.014 A 
ATOM     34  C   UNL A   1      39.476  26.588  29.493  1.00  0.00     0.010 A 
ATOM     35  C   UNL A   1      41.261  27.857  28.459  1.00  0.00     0.010 A 
ATOM     36  C   UNL A   1      40.329  27.703  29.497  1.00  0.00    -0.014 A 
BRANCH  36  37
ATOM     37  C   UNL A   1      40.267  28.729  30.570  1.00  0.00     0.031 A 
ATOM     38  C   UNL A   1      41.161  28.600  31.775  1.00  0.00     0.074 A 
ATOM     39  C   UNL A   1      39.349  29.717  30.506  1.00  0.00     0.049 A 
ATOM     40  N   UNL A   1      41.187  29.326  32.862  1.00  0.00    -0.248 NA
ATOM     41  C   UNL A   1      42.123  27.484  31.777  1.00  0.00     0.031 C 
ATOM     42  C   UNL A   1      38.377  29.911  29.426  1.00  0.00     0.029 A 
ATOM     43  N   UNL A   1      39.077  30.740  31.380  1.00  0.00    -0.354 N 
ATOM     44  C   UNL A   1      42.133  28.733  33.689  1.00  0.00     0.074 A 
ATOM     45  C   UNL A   1      42.630  27.565  32.999  1.00  0.00     0.031 C 
ATOM     46  C   UNL A   1      37.633  30.998  29.692  1.00  0.00     0.029 A 
ATOM     47  C   UNL A   1      38.051  31.560  30.971  1.00  0.00     0.049 A 
ATOM     48  H   UNL A   1      39.570  30.874  32.221  1.00  0.00     0.167 HD
ATOM     49  C   UNL A   1      42.566  29.136  34.905  1.00  0.00     0.031 A 
ATOM     50  C   UNL A   1      37.507  32.642  31.562  1.00  0.00     0.031 A 
ATOM     51  C   UNL A   1      42.118  30.334  35.561  1.00  0.00     0.049 A 
ATOM     52  C   UNL A   1      38.057  33.108  32.884  1.00  0.00     0.074 A 
ATOM     53  C   UNL A   1      42.570  30.881  36.749  1.00  0.00     0.029 A 
ATOM     54  N   UNL A   1      41.129  31.175  35.079  1.00  0.00    -0.354 N 
ATOM     55  N   UNL A   1      39.014  32.579  33.609  1.00  0.00    -0.248 NA
ATOM     56  C   UNL A   1      37.466  34.325  33.459  1.00  0.00     0.031 C 
ATOM     57  C   UNL A   1      41.830  32.040  37.003  1.00  0.00     0.029 A 
ATOM     58  C   UNL A   1      40.948  32.234  35.951  1.00  0.00     0.049 A 
ATOM     59  H   UNL A   1      40.629  31.039  34.242  1.00  0.00     0.167 HD
ATOM     60  C   UNL A   1      39.158  33.416  34.710  1.00  0.00     0.074 A 
ATOM     61  C   UNL A   1      38.203  34.492  34.549  1.00  0.00     0.031 C 
ATOM     62  C   UNL A   1      40.005  33.304  35.761  1.00  0.00     0.031 A 
BRANCH  49  63
ATOM     63  C   UNL A   1      43.594  28.288  35.602  1.00  0.00    -0.014 A 
ATOM     64  C   UNL A   1      44.968  28.555  35.463  1.00  0.00     0.010 A 
ATOM     65  C   UNL A   1      43.178  27.254  36.460  1.00  0.00     0.010 A 
ATOM     66  C   UNL A   1      45.909  27.787  36.153  1.00  0.00     0.020 A 
ATOM     67  C   UNL A   1      44.115  26.501  37.171  1.00  0.00     0.020 A 
ATOM     68  C   UNL A   1      45.477  26.765  37.004  1.00  0.00     0.054 A 
BRANCH  68  69
ATOM     69  S   UNL A   1      46.718  25.824  37.932  1.00  0.00     0.124 S 
ATOM     70  O   UNL A   1      47.951  26.525  37.581  1.00  0.00    -0.237 OA
ATOM     71  O   UNL A   1      46.277  25.985  39.315  1.00  0.00    -0.237 OA
ATOM     72  O   UNL A   1      46.598  24.470  37.396  1.00  0.00    -0.744 OA
ENDBRANCH  68  69
ENDBRANCH  49  63
BRANCH  50  73
ATOM     73  C   UNL A   1      36.388  33.378  30.912  1.00  0.00    -0.014 A 
ATOM     74  C   UNL A   1      36.576  34.006  29.667  1.00  0.00     0.010 A 
ATOM     75  C   UNL A   1      35.138  33.485  31.550  1.00  0.00     0.010 A 
ATOM     76  C   UNL A   1      35.551  34.761  29.091  1.00  0.00     0.020 A 
ATOM     77  C   UNL A   1      34.102  34.218  30.963  1.00  0.00     0.020 A 
ATOM     78  C   UNL A   1      34.321  34.869  29.748  1.00  0.00     0.054 A 
BRANCH  78  79
ATOM     79  S   UNL A   1      32.996  35.844  28.982  1.00  0.00     0.124 S 
ATOM     80  O   UNL A   1      32.349  34.853  28.127  1.00  0.00    -0.237 OA
ATOM     81  O   UNL A   1      32.219  36.288  30.136  1.00  0.00    -0.237 OA
ATOM     82  O   UNL A   1      33.717  36.903  28.281  1.00  0.00    -0.744 OA
ENDBRANCH  78  79
ENDBRANCH  50  73
BRANCH  62  83
ATOM     83  C   UNL A   1      39.975  34.394  36.796  1.00  0.00    -0.014 A 
ATOM     84  C   UNL A   1      39.149  34.296  37.929  1.00  0.00     0.010 A 
ATOM     85  C   UNL A   1      40.830  35.502  36.658  1.00  0.00     0.010 A 
ATOM     86  C   UNL A   1      39.159  35.305  38.895  1.00  0.00     0.020 A 
ATOM     87  C   UNL A   1      40.861  36.500  37.634  1.00  0.00     0.020 A 
ATOM     88  C   UNL A   1      40.014  36.401  38.741  1.00  0.00     0.054 A 
BRANCH  88  89
ATOM     89  S   UNL A   1      40.047  37.676  40.031  1.00  0.00     0.124 S 
ATOM     90  O   UNL A   1      40.107  36.872  41.248  1.00  0.00    -0.237 OA
ATOM     91  O   UNL A   1      41.258  38.427  39.713  1.00  0.00    -0.237 OA
ATOM     92  O   UNL A   1      38.797  38.406  39.826  1.00  0.00    -0.744 OA
ENDBRANCH  88  89
ENDBRANCH  62  83
ENDBRANCH  36  37
ENDBRANCH  28  31
ENDBRANCH  26  27
ENDBRANCH   1  26
TORSDOF 15
ENDMDL
MODEL 2
REMARK VINA RESULT:     -12.2      1.384      2.130
REMARK SMILES C[C@H]1CN(C(=O)N2CC[NH+]([C@@H](C)C(=O)NCCCCNC(=O)c3ccc(-c4c5nc(c(-c6ccc(S(=O)(=O)[O-])cc6)c6ccc([nH]6)c(-c6ccc(S(=O)(=O)[O-])cc6)c6nc(c(-c7ccc(S(=O)(=O)[O-])cc7)c7ccc4[nH]7)C=C6)C=C5)cc3)CC2)C[C@@H]1C
REMARK SMILES IDX 18 1 17 2 16 3 15 4 13 5 14 6 11 8 12 9 10 10 1 11 2 12 3 13
REMARK SMILES IDX 86 14 4 15 85 16 87 17 5 18 6 19 7 20 8 21 84 22 9 23 83 24
REMARK SMILES IDX 19 26 20 27 21 28 22 30 23 31 24 32 82 33 25 34 81 35 26 36
REMARK SMILES IDX 27 37 28 38 75 39 29 40 80 41 74 42 76 43 30 44 79 45 73 46
REMARK SMILES IDX 72 47 31 49 61 50 42 51 60 52 43 53 46 54 59 55 77 56 44 57
REMARK SMILES IDX 45 58 58 60 78 61 47 62 32 63 33 64 41 65 34 66 40 67 35 68
REMARK SMILES IDX 36 69 37 70 38 71 39 72 62 73 63 74 71 75 64 76 70 77 65 78
REMARK SMILES IDX 66 79 67 80 68 81 69 82 48 83 49 84 57 85 50 86 56 87 51 88
REMARK SMILES IDX 52 89 53 90 54 91 55 92
REMARK H PARENT 15 7 10 25 20 29 76 48 46 59
REMARK Flexibility Score: inf
ROOT
ATOM      1  C   UNL A   1      41.084  22.402  27.679  1.00  0.00     0.023 C 
ENDROOT
BRANCH   1   2
ATOM      2  C   UNL A   1      40.138  21.971  26.568  1.00  0.00     0.023 C 
BRANCH   2   3
ATOM      3  C   UNL A   1      38.769  22.664  26.567  1.00  0.00     0.116 C 
BRANCH   3   4
ATOM      4  N   UNL A   1      38.222  22.751  25.227  1.00  0.00    -0.351 N 
ATOM      5  C   UNL A   1      37.070  22.288  24.665  1.00  0.00     0.278 C 
ATOM      6  O   UNL A   1      36.978  22.430  23.437  1.00  0.00    -0.268 OA
ATOM      7  H   UNL A   1      38.797  23.244  24.598  1.00  0.00     0.163 HD
BRANCH   5   8
ATOM      8  C   UNL A   1      35.898  21.641  25.459  1.00  0.00     0.271 C 
ATOM      9  C   UNL A   1      35.509  20.245  24.979  1.00  0.00     0.086 C 
BRANCH   8  10
ATOM     10  N   UNL A   1      34.842  22.606  25.851  1.00  0.00    -0.322 N 
ATOM     11  C   UNL A   1      28.962  26.277  24.029  1.00  0.00     0.010 C 
ATOM     12  C   UNL A   1      30.290  26.953  24.375  1.00  0.00     0.010 C 
ATOM     13  C   UNL A   1      31.410  25.922  24.497  1.00  0.00     0.125 C 
ATOM     14  C   UNL A   1      30.788  27.862  23.233  1.00  0.00     0.010 C 
ATOM     15  N   UNL A   1      31.979  25.834  23.161  1.00  0.00    -0.324 N 
ATOM     16  C   UNL A   1      31.474  26.874  22.283  1.00  0.00     0.125 C 
ATOM     17  C   UNL A   1      31.788  28.907  23.743  1.00  0.00     0.010 C 
ATOM     18  C   UNL A   1      33.014  25.011  22.793  1.00  0.00     0.320 C 
ATOM     19  O   UNL A   1      33.523  25.006  21.677  1.00  0.00    -0.248 OA
ATOM     20  N   UNL A   1      33.514  24.266  23.839  1.00  0.00    -0.313 N 
ATOM     21  C   UNL A   1      34.871  24.561  24.252  1.00  0.00     0.183 C 
ATOM     22  C   UNL A   1      33.117  22.872  23.971  1.00  0.00     0.183 C 
ATOM     23  C   UNL A   1      35.110  24.033  25.669  1.00  0.00     0.284 C 
ATOM     24  C   UNL A   1      33.487  22.288  25.356  1.00  0.00     0.284 C 
ATOM     25  H   UNL A   1      34.872  22.453  26.860  1.00  0.00     0.348 HD
ENDBRANCH   8  10
ENDBRANCH   5   8
ENDBRANCH   3   4
ENDBRANCH   2   3
ENDBRANCH   1   2
BRANCH   1  26
ATOM     26  C   UNL A   1      42.260  23.248  27.222  1.00  0.00     0.116 C 
BRANCH  26  27
ATOM     27  N   UNL A   1      41.972  24.089  26.067  1.00  0.00    -0.352 N 
ATOM     28  C   UNL A   1      41.648  25.433  26.052  1.00  0.00     0.251 C 
ATOM     29  H   UNL A   1      42.015  23.645  25.189  1.00  0.00     0.163 HD
ATOM     30  O   UNL A   1      41.357  25.994  25.013  1.00  0.00    -0.269 OA
BRANCH  28  31
ATOM     31  C   UNL A   1      41.608  26.156  27.343  1.00  0.00     0.039 A 
ATOM     32  C   UNL A   1      42.639  27.046  27.650  1.00  0.00     0.014 A 
ATOM     33  C   UNL A   1      40.500  26.033  28.185  1.00  0.00     0.014 A 
ATOM     34  C   UNL A   1      42.511  27.884  28.761  1.00  0.00     0.010 A 
ATOM     35  C   UNL A   1      40.333  26.932  29.229  1.00  0.00     0.010 A 
ATOM     36  C   UNL A   1      41.334  27.869  29.528  1.00  0.00    -0.014 A 
BRANCH  36  37
ATOM     37  C   UNL A   1      41.125  28.818  30.651  1.00  0.00     0.031 A 
ATOM     38  C   UNL A   1      41.965  28.696  31.895  1.00  0.00     0.074 A 
ATOM     39  C   UNL A   1      40.124  29.722  30.593  1.00  0.00     0.049 A 
ATOM     40  N   UNL A   1      41.870  29.355  33.020  1.00  0.00    -0.248 NA
ATOM     41  C   UNL A   1      43.026  27.674  31.887  1.00  0.00     0.031 C 
ATOM     42  C   UNL A   1      39.192  29.893  29.474  1.00  0.00     0.029 A 
ATOM     43  N   UNL A   1      39.715  30.662  31.506  1.00  0.00    -0.354 N 
ATOM     44  C   UNL A   1      42.825  28.800  33.863  1.00  0.00     0.074 A 
ATOM     45  C   UNL A   1      43.462  27.725  33.137  1.00  0.00     0.031 C 
ATOM     46  C   UNL A   1      38.339  30.892  29.759  1.00  0.00     0.029 A 
ATOM     47  C   UNL A   1      38.639  31.410  31.088  1.00  0.00     0.049 A 
ATOM     48  H   UNL A   1      40.151  30.787  32.379  1.00  0.00     0.167 HD
ATOM     49  C   UNL A   1      43.158  29.166  35.122  1.00  0.00     0.031 A 
ATOM     50  C   UNL A   1      37.968  32.401  31.708  1.00  0.00     0.031 A 
ATOM     51  C   UNL A   1      42.569  30.276  35.819  1.00  0.00     0.049 A 
ATOM     52  C   UNL A   1      38.406  32.833  33.082  1.00  0.00     0.074 A 
ATOM     53  C   UNL A   1      42.909  30.789  37.058  1.00  0.00     0.029 A 
ATOM     54  N   UNL A   1      41.532  31.053  35.331  1.00  0.00    -0.354 N 
ATOM     55  N   UNL A   1      39.371  32.349  33.828  1.00  0.00    -0.248 NA
ATOM     56  C   UNL A   1      37.678  33.955  33.691  1.00  0.00     0.031 C 
ATOM     57  C   UNL A   1      42.054  31.860  37.335  1.00  0.00     0.029 A 
ATOM     58  C   UNL A   1      41.211  32.037  36.249  1.00  0.00     0.049 A 
ATOM     59  H   UNL A   1      41.089  30.925  34.462  1.00  0.00     0.167 HD
ATOM     60  C   UNL A   1      39.383  33.127  34.980  1.00  0.00     0.074 A 
ATOM     61  C   UNL A   1      38.341  34.121  34.827  1.00  0.00     0.031 C 
ATOM     62  C   UNL A   1      40.183  33.028  36.068  1.00  0.00     0.031 A 
BRANCH  49  63
ATOM     63  C   UNL A   1      44.225  28.373  35.826  1.00  0.00    -0.014 A 
ATOM     64  C   UNL A   1      45.580  28.733  35.727  1.00  0.00     0.010 A 
ATOM     65  C   UNL A   1      43.859  27.294  36.652  1.00  0.00     0.010 A 
ATOM     66  C   UNL A   1      46.555  28.015  36.423  1.00  0.00     0.020 A 
ATOM     67  C   UNL A   1      44.829  26.588  37.369  1.00  0.00     0.020 A 
ATOM     68  C   UNL A   1      46.172  26.947  37.241  1.00  0.00     0.054 A 
BRANCH  68  69
ATOM     69  S   UNL A   1      47.453  26.070  38.179  1.00  0.00     0.124 S 
ATOM     70  O   UNL A   1      48.044  25.214  37.153  1.00  0.00    -0.237 OA
ATOM     71  O   UNL A   1      48.304  27.156  38.657  1.00  0.00    -0.237 OA
ATOM     72  O   UNL A   1      46.701  25.369  39.218  1.00  0.00    -0.744 OA
ENDBRANCH  68  69
ENDBRANCH  49  63
BRANCH  50  73
ATOM     73  C   UNL A   1      36.819  33.072  31.040  1.00  0.00    -0.014 A 
ATOM     74  C   UNL A   1      35.504  32.846  31.487  1.00  0.00     0.010 A 
ATOM     75  C   UNL A   1      37.030  33.912  29.932  1.00  0.00     0.010 A 
ATOM     76  C   UNL A   1      34.418  33.415  30.814  1.00  0.00     0.020 A 
ATOM     77  C   UNL A   1      35.948  34.503  29.273  1.00  0.00     0.020 A 
ATOM     78  C   UNL A   1      34.648  34.234  29.705  1.00  0.00     0.054 A 
BRANCH  78  79
ATOM     79  S   UNL A   1      33.229  34.973  28.848  1.00  0.00     0.124 S 
ATOM     80  O   UNL A   1      32.743  33.854  28.048  1.00  0.00    -0.237 OA
ATOM     81  O   UNL A   1      32.366  35.382  29.954  1.00  0.00    -0.237 OA
ATOM     82  O   UNL A   1      33.824  36.074  28.094  1.00  0.00    -0.744 OA
ENDBRANCH  78  79
ENDBRANCH  50  73
BRANCH  62  83
ATOM     83  C   UNL A   1      40.001  34.046  37.159  1.00  0.00    -0.014 A 
ATOM     84  C   UNL A   1      40.644  35.294  37.102  1.00  0.00     0.010 A 
ATOM     85  C   UNL A   1      39.125  33.768  38.224  1.00  0.00     0.010 A 
ATOM     86  C   UNL A   1      40.435  36.239  38.110  1.00  0.00     0.020 A 
ATOM     87  C   UNL A   1      38.895  34.719  39.220  1.00  0.00     0.020 A 
ATOM     88  C   UNL A   1      39.563  35.945  39.163  1.00  0.00     0.054 A 
BRANCH  88  89
ATOM     89  S   UNL A   1      39.269  37.204  40.436  1.00  0.00     0.124 S 
ATOM     90  O   UNL A   1      40.600  37.779  40.604  1.00  0.00    -0.237 OA
ATOM     91  O   UNL A   1      38.282  38.076  39.805  1.00  0.00    -0.237 OA
ATOM     92  O   UNL A   1      38.773  36.433  41.574  1.00  0.00    -0.744 OA
ENDBRANCH  88  89
ENDBRANCH  62  83
ENDBRANCH  36  37
ENDBRANCH  28  31
ENDBRANCH  26  27
ENDBRANCH   1  26
TORSDOF 15
ENDMDL
MODEL 3
REMARK VINA RESULT:     -11.9      6.128      8.066
REMARK SMILES C[C@H]1CN(C(=O)N2CC[NH+]([C@@H](C)C(=O)NCCCCNC(=O)c3ccc(-c4c5nc(c(-c6ccc(S(=O)(=O)[O-])cc6)c6ccc([nH]6)c(-c6ccc(S(=O)(=O)[O-])cc6)c6nc(c(-c7ccc(S(=O)(=O)[O-])cc7)c7ccc4[nH]7)C=C6)C=C5)cc3)CC2)C[C@@H]1C
REMARK SMILES IDX 18 1 17 2 16 3 15 4 13 5 14 6 11 8 12 9 10 10 1 11 2 12 3 13
REMARK SMILES IDX 86 14 4 15 85 16 87 17 5 18 6 19 7 20 8 21 84 22 9 23 83 24
REMARK SMILES IDX 19 26 20 27 21 28 22 30 23 31 24 32 82 33 25 34 81 35 26 36
REMARK SMILES IDX 27 37 28 38 75 39 29 40 80 41 74 42 76 43 30 44 79 45 73 46
REMARK SMILES IDX 72 47 31 49 61 50 42 51 60 52 43 53 46 54 59 55 77 56 44 57
REMARK SMILES IDX 45 58 58 60 78 61 47 62 32 63 33 64 41 65 34 66 40 67 35 68
REMARK SMILES IDX 36 69 37 70 38 71 39 72 62 73 63 74 71 75 64 76 70 77 65 78
REMARK SMILES IDX 66 79 67 80 68 81 69 82 48 83 49 84 57 85 50 86 56 87 51 88
REMARK SMILES IDX 52 89 53 90 54 91 55 92
REMARK H PARENT 15 7 10 25 20 29 76 48 46 59
REMARK Flexibility Score: inf
ROOT
ATOM      1  C   UNL A   1      38.420  19.578  25.004  1.00  0.00     0.023 C 
ENDROOT
BRANCH   1   2
ATOM      2  C   UNL A   1      37.466  20.692  24.601  1.00  0.00     0.023 C 
BRANCH   2   3
ATOM      3  C   UNL A   1      36.115  20.696  25.330  1.00  0.00     0.116 C 
BRANCH   3   4
ATOM      4  N   UNL A   1      35.335  19.519  25.001  1.00  0.00    -0.351 N 
ATOM      5  C   UNL A   1      34.017  19.334  24.704  1.00  0.00     0.278 C 
ATOM      6  O   UNL A   1      33.651  18.155  24.600  1.00  0.00    -0.268 OA
ATOM      7  H   UNL A   1      35.862  18.687  24.988  1.00  0.00     0.163 HD
BRANCH   5   8
ATOM      8  C   UNL A   1      32.995  20.484  24.472  1.00  0.00     0.271 C 
ATOM      9  C   UNL A   1      32.321  20.459  23.101  1.00  0.00     0.086 C 
BRANCH   8  10
ATOM     10  N   UNL A   1      33.412  21.779  25.064  1.00  0.00    -0.322 N 
ATOM     11  C   UNL A   1      31.515  28.200  27.622  1.00  0.00     0.010 C 
ATOM     12  C   UNL A   1      32.369  28.025  26.365  1.00  0.00     0.010 C 
ATOM     13  C   UNL A   1      32.418  26.559  25.940  1.00  0.00     0.125 C 
ATOM     14  C   UNL A   1      31.738  28.715  25.139  1.00  0.00     0.010 C 
ATOM     15  N   UNL A   1      31.303  26.406  25.017  1.00  0.00    -0.324 N 
ATOM     16  C   UNL A   1      30.715  27.682  24.654  1.00  0.00     0.125 C 
ATOM     17  C   UNL A   1      32.783  28.994  24.052  1.00  0.00     0.010 C 
ATOM     18  C   UNL A   1      30.950  25.237  24.389  1.00  0.00     0.320 C 
ATOM     19  O   UNL A   1      30.049  25.149  23.561  1.00  0.00    -0.248 OA
ATOM     20  N   UNL A   1      31.787  24.185  24.689  1.00  0.00    -0.313 N 
ATOM     21  C   UNL A   1      32.587  23.664  23.599  1.00  0.00     0.183 C 
ATOM     22  C   UNL A   1      31.362  23.198  25.670  1.00  0.00     0.183 C 
ATOM     23  C   UNL A   1      33.771  22.869  24.156  1.00  0.00     0.284 C 
ATOM     24  C   UNL A   1      32.529  22.293  26.132  1.00  0.00     0.284 C 
ATOM     25  H   UNL A   1      34.292  21.472  25.479  1.00  0.00     0.348 HD
ENDBRANCH   8  10
ENDBRANCH   5   8
ENDBRANCH   3   4
ENDBRANCH   2   3
ENDBRANCH   1   2
BRANCH   1  26
ATOM     26  C   UNL A   1      39.419  19.954  26.085  1.00  0.00     0.116 C 
BRANCH  26  27
ATOM     27  N   UNL A   1      40.668  19.206  26.023  1.00  0.00    -0.352 N 
ATOM     28  C   UNL A   1      41.956  19.687  26.170  1.00  0.00     0.251 C 
ATOM     29  H   UNL A   1      40.584  18.239  25.858  1.00  0.00     0.163 HD
ATOM     30  O   UNL A   1      42.916  18.956  26.019  1.00  0.00    -0.269 OA
BRANCH  28  31
ATOM     31  C   UNL A   1      42.135  21.128  26.459  1.00  0.00     0.039 A 
ATOM     32  C   UNL A   1      42.398  21.525  27.771  1.00  0.00     0.014 A 
ATOM     33  C   UNL A   1      42.152  22.057  25.416  1.00  0.00     0.014 A 
ATOM     34  C   UNL A   1      42.772  22.848  28.023  1.00  0.00     0.010 A 
ATOM     35  C   UNL A   1      42.617  23.343  25.657  1.00  0.00     0.010 A 
ATOM     36  C   UNL A   1      42.934  23.752  26.961  1.00  0.00    -0.014 A 
BRANCH  36  37
ATOM     37  C   UNL A   1      43.430  25.135  27.184  1.00  0.00     0.031 A 
ATOM     38  C   UNL A   1      44.873  25.463  26.907  1.00  0.00     0.074 A 
ATOM     39  C   UNL A   1      42.612  26.066  27.720  1.00  0.00     0.049 A 
ATOM     40  N   UNL A   1      45.523  26.574  27.134  1.00  0.00    -0.248 NA
ATOM     41  C   UNL A   1      45.705  24.387  26.339  1.00  0.00     0.031 C 
ATOM     42  C   UNL A   1      41.212  25.856  28.100  1.00  0.00     0.029 A 
ATOM     43  N   UNL A   1      42.848  27.378  28.050  1.00  0.00    -0.354 N 
ATOM     44  C   UNL A   1      46.841  26.319  26.776  1.00  0.00     0.074 A 
ATOM     45  C   UNL A   1      46.910  24.938  26.357  1.00  0.00     0.031 C 
ATOM     46  C   UNL A   1      40.710  27.003  28.588  1.00  0.00     0.029 A 
ATOM     47  C   UNL A   1      41.755  28.019  28.587  1.00  0.00     0.049 A 
ATOM     48  H   UNL A   1      43.718  27.818  27.916  1.00  0.00     0.167 HD
ATOM     49  C   UNL A   1      47.898  27.165  26.776  1.00  0.00     0.031 A 
ATOM     50  C   UNL A   1      41.613  29.284  29.030  1.00  0.00     0.031 A 
ATOM     51  C   UNL A   1      47.814  28.554  27.131  1.00  0.00     0.049 A 
ATOM     52  C   UNL A   1      42.788  30.223  28.953  1.00  0.00     0.074 A 
ATOM     53  C   UNL A   1      48.805  29.517  27.066  1.00  0.00     0.029 A 
ATOM     54  N   UNL A   1      46.672  29.182  27.600  1.00  0.00    -0.354 N 
ATOM     55  N   UNL A   1      44.007  29.982  28.530  1.00  0.00    -0.248 NA
ATOM     56  C   UNL A   1      42.565  31.606  29.396  1.00  0.00     0.031 C 
ATOM     57  C   UNL A   1      48.271  30.724  27.528  1.00  0.00     0.029 A 
ATOM     58  C   UNL A   1      46.936  30.519  27.840  1.00  0.00     0.049 A 
ATOM     59  H   UNL A   1      45.803  28.743  27.743  1.00  0.00     0.167 HD
ATOM     60  C   UNL A   1      44.685  31.192  28.628  1.00  0.00     0.074 A 
ATOM     61  C   UNL A   1      43.740  32.164  29.137  1.00  0.00     0.031 C 
ATOM     62  C   UNL A   1      45.975  31.473  28.327  1.00  0.00     0.031 A 
BRANCH  49  63
ATOM     63  C   UNL A   1      49.235  26.619  26.359  1.00  0.00    -0.014 A 
ATOM     64  C   UNL A   1      49.690  26.748  25.034  1.00  0.00     0.010 A 
ATOM     65  C   UNL A   1      50.077  26.029  27.320  1.00  0.00     0.010 A 
ATOM     66  C   UNL A   1      50.954  26.277  24.673  1.00  0.00     0.020 A 
ATOM     67  C   UNL A   1      51.351  25.579  26.967  1.00  0.00     0.020 A 
ATOM     68  C   UNL A   1      51.777  25.696  25.642  1.00  0.00     0.054 A 
BRANCH  68  69
ATOM     69  S   UNL A   1      53.436  25.147  25.157  1.00  0.00     0.124 S 
ATOM     70  O   UNL A   1      54.283  25.887  26.089  1.00  0.00    -0.237 OA
ATOM     71  O   UNL A   1      53.375  23.704  25.374  1.00  0.00    -0.237 OA
ATOM     72  O   UNL A   1      53.542  25.559  23.758  1.00  0.00    -0.744 OA
ENDBRANCH  68  69
ENDBRANCH  49  63
BRANCH  50  73
ATOM     73  C   UNL A   1      40.310  29.755  29.574  1.00  0.00    -0.014 A 
ATOM     74  C   UNL A   1      39.269  30.129  28.705  1.00  0.00     0.010 A 
ATOM     75  C   UNL A   1      40.114  29.864  30.962  1.00  0.00     0.010 A 
ATOM     76  C   UNL A   1      38.071  30.643  29.211  1.00  0.00     0.020 A 
ATOM     77  C   UNL A   1      38.907  30.353  31.473  1.00  0.00     0.020 A 
ATOM     78  C   UNL A   1      37.902  30.759  30.594  1.00  0.00     0.054 A 
BRANCH  78  79
ATOM     79  S   UNL A   1      36.338  31.418  31.237  1.00  0.00     0.124 S 
ATOM     80  O   UNL A   1      35.903  30.346  32.127  1.00  0.00    -0.237 OA
ATOM     81  O   UNL A   1      36.758  32.654  31.893  1.00  0.00    -0.237 OA
ATOM     82  O   UNL A   1      35.529  31.604  30.035  1.00  0.00    -0.744 OA
ENDBRANCH  78  79
ENDBRANCH  50  73
BRANCH  62  83
ATOM     83  C   UNL A   1      46.432  32.896  28.491  1.00  0.00    -0.014 A 
ATOM     84  C   UNL A   1      47.131  33.306  29.639  1.00  0.00     0.010 A 
ATOM     85  C   UNL A   1      46.207  33.817  27.453  1.00  0.00     0.010 A 
ATOM     86  C   UNL A   1      47.575  34.625  29.757  1.00  0.00     0.020 A 
ATOM     87  C   UNL A   1      46.671  35.130  27.557  1.00  0.00     0.020 A 
ATOM     88  C   UNL A   1      47.341  35.529  28.716  1.00  0.00     0.054 A 
BRANCH  88  89
ATOM     89  S   UNL A   1      47.968  37.224  28.870  1.00  0.00     0.124 S 
ATOM     90  O   UNL A   1      49.406  37.005  28.984  1.00  0.00    -0.237 OA
ATOM     91  O   UNL A   1      47.523  37.847  27.626  1.00  0.00    -0.237 OA
ATOM     92  O   UNL A   1      47.314  37.725  30.078  1.00  0.00    -0.744 OA
ENDBRANCH  88  89
ENDBRANCH  62  83
ENDBRANCH  36  37
ENDBRANCH  28  31
ENDBRANCH  26  27
ENDBRANCH   1  26
TORSDOF 15
ENDMDL
