MODEL 1
REMARK VINA RESULT:     -11.8      0.000      0.000
REMARK SMILES O=C(NCCCCNC(=O)[C@H]1CC[C@H](CNC(=O)c2ccccc2O)O1)c1ccc(-c2c3nc(c(-c4ccc(S(=O)(=O)[O-])cc4)c4ccc([nH]4)c(-c4ccc(S(=O)(=O)[O-])cc4)c4nc(c(-c5ccc(S(=O)(=O)[O-])cc5)c5ccc2[nH]5)C=C4)C=C3)cc1
REMARK SMILES IDX 6 1 5 2 4 3 3 4 1 5 2 6 27 8 28 9 86 10 29 11 85 12 30 13
REMARK SMILES IDX 31 14 32 15 79 16 33 17 84 18 78 19 80 20 34 21 83 22 77 23
REMARK SMILES IDX 76 24 35 26 65 27 46 28 64 29 47 30 50 31 63 32 81 33 48 34
REMARK SMILES IDX 49 35 62 37 82 38 51 39 36 40 37 41 45 42 38 43 44 44 39 45
REMARK SMILES IDX 40 46 41 47 42 48 43 49 66 50 67 51 75 52 68 53 74 54 69 55
REMARK SMILES IDX 70 56 71 57 72 58 73 59 52 60 53 61 61 62 54 63 60 64 55 65
REMARK SMILES IDX 56 66 57 67 58 68 59 69 7 70 8 71 9 72 10 74 11 75 12 76
REMARK SMILES IDX 26 77 13 78 14 79 15 80 16 81 17 82 18 84 19 85 20 86 24 87
REMARK SMILES IDX 21 88 23 89 22 90 25 91
REMARK H PARENT 3 7 80 25 50 36 8 73 16 83 25 92
REMARK Flexibility Score: inf
ROOT
ATOM      1  C   UNL A   1      33.196  30.477  27.227  1.00  0.00     0.023 C 
ENDROOT
BRANCH   1   2
ATOM      2  C   UNL A   1      34.501  31.186  27.606  1.00  0.00     0.023 C 
BRANCH   2   3
ATOM      3  C   UNL A   1      35.592  30.283  28.176  1.00  0.00     0.116 C 
BRANCH   3   4
ATOM      4  N   UNL A   1      35.560  30.215  29.627  1.00  0.00    -0.352 N 
ATOM      5  O   UNL A   1      36.273  29.652  31.687  1.00  0.00    -0.269 OA
ATOM      6  C   UNL A   1      36.535  29.789  30.494  1.00  0.00     0.251 C 
ATOM      7  H   UNL A   1      34.723  30.517  30.047  1.00  0.00     0.163 HD
BRANCH   6   8
ATOM      8  C   UNL A   1      37.887  29.472  29.987  1.00  0.00     0.039 A 
ATOM      9  C   UNL A   1      38.892  29.026  30.851  1.00  0.00     0.014 A 
ATOM     10  C   UNL A   1      38.144  29.614  28.622  1.00  0.00     0.014 A 
ATOM     11  C   UNL A   1      40.184  28.830  30.368  1.00  0.00     0.010 A 
ATOM     12  C   UNL A   1      39.423  29.355  28.128  1.00  0.00     0.010 A 
ATOM     13  C   UNL A   1      40.459  28.984  29.002  1.00  0.00    -0.014 A 
BRANCH  13  14
ATOM     14  C   UNL A   1      41.818  28.706  28.472  1.00  0.00     0.031 A 
ATOM     15  C   UNL A   1      42.194  27.328  28.007  1.00  0.00     0.074 A 
ATOM     16  C   UNL A   1      42.728  29.697  28.458  1.00  0.00     0.049 A 
ATOM     17  N   UNL A   1      43.356  26.885  27.602  1.00  0.00    -0.248 NA
ATOM     18  C   UNL A   1      41.127  26.315  28.005  1.00  0.00     0.031 C 
ATOM     19  C   UNL A   1      42.480  31.075  28.887  1.00  0.00     0.029 A 
ATOM     20  N   UNL A   1      44.049  29.695  28.087  1.00  0.00    -0.354 N 
ATOM     21  C   UNL A   1      43.172  25.535  27.325  1.00  0.00     0.074 A 
ATOM     22  C   UNL A   1      41.789  25.230  27.625  1.00  0.00     0.031 C 
ATOM     23  C   UNL A   1      43.610  31.785  28.755  1.00  0.00     0.029 A 
ATOM     24  C   UNL A   1      44.675  30.902  28.291  1.00  0.00     0.049 A 
ATOM     25  H   UNL A   1      44.504  28.907  27.712  1.00  0.00     0.167 HD
ATOM     26  C   UNL A   1      44.075  24.634  26.865  1.00  0.00     0.031 A 
ATOM     27  C   UNL A   1      45.967  31.254  28.160  1.00  0.00     0.031 A 
ATOM     28  C   UNL A   1      45.453  24.947  26.585  1.00  0.00     0.049 A 
ATOM     29  C   UNL A   1      46.961  30.235  27.689  1.00  0.00     0.074 A 
ATOM     30  C   UNL A   1      46.438  24.115  26.081  1.00  0.00     0.029 A 
ATOM     31  N   UNL A   1      46.045  26.183  26.801  1.00  0.00    -0.354 N 
ATOM     32  N   UNL A   1      46.762  28.975  27.386  1.00  0.00    -0.248 NA
ATOM     33  C   UNL A   1      48.352  30.682  27.532  1.00  0.00     0.031 C 
ATOM     34  C   UNL A   1      47.639  24.833  26.047  1.00  0.00     0.029 A 
ATOM     35  C   UNL A   1      47.388  26.130  26.468  1.00  0.00     0.049 A 
ATOM     36  H   UNL A   1      45.579  26.981  27.140  1.00  0.00     0.167 HD
ATOM     37  C   UNL A   1      47.996  28.482  26.981  1.00  0.00     0.074 A 
ATOM     38  C   UNL A   1      48.936  29.582  27.073  1.00  0.00     0.031 C 
ATOM     39  C   UNL A   1      48.315  27.233  26.562  1.00  0.00     0.031 A 
BRANCH  26  40
ATOM     40  C   UNL A   1      43.607  23.212  26.690  1.00  0.00    -0.014 A 
ATOM     41  C   UNL A   1      43.030  22.492  27.751  1.00  0.00     0.010 A 
ATOM     42  C   UNL A   1      43.747  22.586  25.438  1.00  0.00     0.010 A 
ATOM     43  C   UNL A   1      42.665  21.153  27.582  1.00  0.00     0.020 A 
ATOM     44  C   UNL A   1      43.355  21.257  25.256  1.00  0.00     0.020 A 
ATOM     45  C   UNL A   1      42.844  20.540  26.338  1.00  0.00     0.054 A 
BRANCH  45  46
ATOM     46  S   UNL A   1      42.398  18.791  26.154  1.00  0.00     0.124 S 
ATOM     47  O   UNL A   1      41.005  18.882  25.722  1.00  0.00    -0.237 OA
ATOM     48  O   UNL A   1      43.339  18.324  25.138  1.00  0.00    -0.237 OA
ATOM     49  O   UNL A   1      42.602  18.237  27.489  1.00  0.00    -0.744 OA
ENDBRANCH  45  46
ENDBRANCH  26  40
BRANCH  27  50
ATOM     50  C   UNL A   1      46.369  32.643  28.511  1.00  0.00    -0.014 A 
ATOM     51  C   UNL A   1      46.781  32.961  29.814  1.00  0.00     0.010 A 
ATOM     52  C   UNL A   1      46.437  33.628  27.507  1.00  0.00     0.010 A 
ATOM     53  C   UNL A   1      47.269  34.239  30.107  1.00  0.00     0.020 A 
ATOM     54  C   UNL A   1      46.947  34.898  27.790  1.00  0.00     0.020 A 
ATOM     55  C   UNL A   1      47.361  35.195  29.090  1.00  0.00     0.054 A 
BRANCH  55  56
ATOM     56  S   UNL A   1      48.102  36.807  29.469  1.00  0.00     0.124 S 
ATOM     57  O   UNL A   1      49.449  36.430  29.886  1.00  0.00    -0.237 OA
ATOM     58  O   UNL A   1      48.006  37.506  28.190  1.00  0.00    -0.237 OA
ATOM     59  O   UNL A   1      47.244  37.337  30.526  1.00  0.00    -0.744 OA
ENDBRANCH  55  56
ENDBRANCH  27  50
BRANCH  39  60
ATOM     60  C   UNL A   1      49.733  26.980  26.128  1.00  0.00    -0.014 A 
ATOM     61  C   UNL A   1      50.669  26.391  26.996  1.00  0.00     0.010 A 
ATOM     62  C   UNL A   1      50.100  27.239  24.793  1.00  0.00     0.010 A 
ATOM     63  C   UNL A   1      51.949  26.066  26.536  1.00  0.00     0.020 A 
ATOM     64  C   UNL A   1      51.369  26.895  24.325  1.00  0.00     0.020 A 
ATOM     65  C   UNL A   1      52.288  26.313  25.200  1.00  0.00     0.054 A 
BRANCH  65  66
ATOM     66  S   UNL A   1      53.921  25.795  24.604  1.00  0.00     0.124 S 
ATOM     67  O   UNL A   1      53.916  24.366  24.904  1.00  0.00    -0.237 OA
ATOM     68  O   UNL A   1      53.868  26.139  23.185  1.00  0.00    -0.237 OA
ATOM     69  O   UNL A   1      54.850  26.595  25.398  1.00  0.00    -0.744 OA
ENDBRANCH  65  66
ENDBRANCH  39  60
ENDBRANCH  13  14
ENDBRANCH   6   8
ENDBRANCH   3   4
ENDBRANCH   2   3
ENDBRANCH   1   2
BRANCH   1  70
ATOM     70  C   UNL A   1      33.235  29.744  25.886  1.00  0.00     0.116 C 
BRANCH  70  71
ATOM     71  N   UNL A   1      31.998  29.909  25.147  1.00  0.00    -0.354 N 
ATOM     72  C   UNL A   1      31.256  29.000  24.452  1.00  0.00     0.249 C 
ATOM     73  H   UNL A   1      31.636  30.825  25.146  1.00  0.00     0.163 HD
ATOM     74  O   UNL A   1      30.246  29.405  23.871  1.00  0.00    -0.272 OA
BRANCH  72  75
ATOM     75  C   UNL A   1      31.659  27.517  24.443  1.00  0.00     0.207 C 
ATOM     76  C   UNL A   1      31.123  26.826  25.690  1.00  0.00     0.045 C 
ATOM     77  O   UNL A   1      31.099  26.844  23.305  1.00  0.00    -0.363 OA
ATOM     78  C   UNL A   1      29.863  26.155  25.191  1.00  0.00     0.037 C 
ATOM     79  C   UNL A   1      30.214  25.803  23.758  1.00  0.00     0.138 C 
BRANCH  79  80
ATOM     80  C   UNL A   1      30.954  24.465  23.607  1.00  0.00     0.148 C 
BRANCH  80  81
ATOM     81  N   UNL A   1      31.873  24.433  22.482  1.00  0.00    -0.349 N 
ATOM     82  C   UNL A   1      32.724  23.427  22.098  1.00  0.00     0.255 C 
ATOM     83  H   UNL A   1      31.888  25.242  21.920  1.00  0.00     0.163 HD
ATOM     84  O   UNL A   1      33.491  23.601  21.152  1.00  0.00    -0.269 OA
BRANCH  82  85
ATOM     85  C   UNL A   1      32.790  22.161  22.860  1.00  0.00     0.081 A 
ATOM     86  C   UNL A   1      33.602  22.149  24.002  1.00  0.00     0.018 A 
ATOM     87  C   UNL A   1      32.117  20.996  22.473  1.00  0.00     0.128 A 
ATOM     88  C   UNL A   1      33.700  20.993  24.778  1.00  0.00     0.001 A 
ATOM     89  C   UNL A   1      32.210  19.844  23.257  1.00  0.00     0.047 A 
ATOM     90  C   UNL A   1      32.997  19.847  24.410  1.00  0.00     0.004 A 
BRANCH  87  91
ATOM     91  O   UNL A   1      31.363  20.973  21.332  1.00  0.00    -0.507 OA
ATOM     92  H   UNL A   1      31.605  20.411  20.623  1.00  0.00     0.293 HD
ENDBRANCH  87  91
ENDBRANCH  82  85
ENDBRANCH  80  81
ENDBRANCH  79  80
ENDBRANCH  72  75
ENDBRANCH  70  71
ENDBRANCH   1  70
TORSDOF 18
ENDMDL
MODEL 2
REMARK VINA RESULT:     -11.7      2.317      8.791
REMARK SMILES O=C(NCCCCNC(=O)[C@H]1CC[C@H](CNC(=O)c2ccccc2O)O1)c1ccc(-c2c3nc(c(-c4ccc(S(=O)(=O)[O-])cc4)c4ccc([nH]4)c(-c4ccc(S(=O)(=O)[O-])cc4)c4nc(c(-c5ccc(S(=O)(=O)[O-])cc5)c5ccc2[nH]5)C=C4)C=C3)cc1
REMARK SMILES IDX 6 1 5 2 4 3 3 4 1 5 2 6 27 8 28 9 86 10 29 11 85 12 30 13
REMARK SMILES IDX 31 14 32 15 79 16 33 17 84 18 78 19 80 20 34 21 83 22 77 23
REMARK SMILES IDX 76 24 35 26 65 27 46 28 64 29 47 30 50 31 63 32 81 33 48 34
REMARK SMILES IDX 49 35 62 37 82 38 51 39 36 40 37 41 45 42 38 43 44 44 39 45
REMARK SMILES IDX 40 46 41 47 42 48 43 49 66 50 67 51 75 52 68 53 74 54 69 55
REMARK SMILES IDX 70 56 71 57 72 58 73 59 52 60 53 61 61 62 54 63 60 64 55 65
REMARK SMILES IDX 56 66 57 67 58 68 59 69 7 70 8 71 9 72 10 74 11 75 12 76
REMARK SMILES IDX 26 77 13 78 14 79 15 80 16 81 17 82 18 84 19 85 20 86 24 87
REMARK SMILES IDX 21 88 23 89 22 90 25 91
REMARK H PARENT 3 7 80 25 50 36 8 73 16 83 25 92
REMARK Flexibility Score: inf
ROOT
ATOM      1  C   UNL A   1      37.343  20.974  24.628  1.00  0.00     0.023 C 
ENDROOT
BRANCH   1   2
ATOM      2  C   UNL A   1      38.253  19.834  25.099  1.00  0.00     0.023 C 
BRANCH   2   3
ATOM      3  C   UNL A   1      39.468  20.265  25.916  1.00  0.00     0.116 C 
BRANCH   3   4
ATOM      4  N   UNL A   1      40.499  19.241  25.968  1.00  0.00    -0.352 N 
ATOM      5  O   UNL A   1      42.591  18.412  25.978  1.00  0.00    -0.269 OA
ATOM      6  C   UNL A   1      41.855  19.386  26.117  1.00  0.00     0.251 C 
ATOM      7  H   UNL A   1      40.178  18.314  25.884  1.00  0.00     0.163 HD
BRANCH   6   8
ATOM      8  C   UNL A   1      42.426  20.715  26.418  1.00  0.00     0.039 A 
ATOM      9  C   UNL A   1      42.583  21.147  27.739  1.00  0.00     0.014 A 
ATOM     10  C   UNL A   1      42.821  21.534  25.358  1.00  0.00     0.014 A 
ATOM     11  C   UNL A   1      43.031  22.441  27.996  1.00  0.00     0.010 A 
ATOM     12  C   UNL A   1      43.329  22.807  25.620  1.00  0.00     0.010 A 
ATOM     13  C   UNL A   1      43.416  23.279  26.941  1.00  0.00    -0.014 A 
BRANCH  13  14
ATOM     14  C   UNL A   1      43.960  24.633  27.215  1.00  0.00     0.031 A 
ATOM     15  C   UNL A   1      43.055  25.753  27.642  1.00  0.00     0.074 A 
ATOM     16  C   UNL A   1      45.274  24.858  27.032  1.00  0.00     0.049 A 
ATOM     17  N   UNL A   1      43.341  27.015  27.834  1.00  0.00    -0.248 NA
ATOM     18  C   UNL A   1      41.642  25.413  27.871  1.00  0.00     0.031 C 
ATOM     19  C   UNL A   1      46.252  23.848  26.618  1.00  0.00     0.029 A 
ATOM     20  N   UNL A   1      46.012  26.008  27.150  1.00  0.00    -0.354 N 
ATOM     21  C   UNL A   1      42.142  27.628  28.179  1.00  0.00     0.074 A 
ATOM     22  C   UNL A   1      41.123  26.601  28.151  1.00  0.00     0.031 C 
ATOM     23  C   UNL A   1      47.459  24.423  26.517  1.00  0.00     0.029 A 
ATOM     24  C   UNL A   1      47.331  25.849  26.799  1.00  0.00     0.049 A 
ATOM     25  H   UNL A   1      45.633  26.864  27.456  1.00  0.00     0.167 HD
ATOM     26  C   UNL A   1      41.914  28.929  28.487  1.00  0.00     0.031 A 
ATOM     27  C   UNL A   1      48.323  26.751  26.676  1.00  0.00     0.031 A 
ATOM     28  C   UNL A   1      42.936  29.944  28.496  1.00  0.00     0.049 A 
ATOM     29  C   UNL A   1      48.044  28.193  26.983  1.00  0.00     0.074 A 
ATOM     30  C   UNL A   1      42.815  31.282  28.831  1.00  0.00     0.029 A 
ATOM     31  N   UNL A   1      44.261  29.740  28.140  1.00  0.00    -0.354 N 
ATOM     32  N   UNL A   1      46.916  28.748  27.353  1.00  0.00    -0.248 NA
ATOM     33  C   UNL A   1      49.170  29.129  26.865  1.00  0.00     0.031 C 
ATOM     34  C   UNL A   1      44.053  31.898  28.621  1.00  0.00     0.029 A 
ATOM     35  C   UNL A   1      44.962  30.931  28.218  1.00  0.00     0.049 A 
ATOM     36  H   UNL A   1      44.646  28.875  27.871  1.00  0.00     0.167 HD
ATOM     37  C   UNL A   1      47.198  30.097  27.534  1.00  0.00     0.074 A 
ATOM     38  C   UNL A   1      48.607  30.272  27.238  1.00  0.00     0.031 C 
ATOM     39  C   UNL A   1      46.366  31.094  27.922  1.00  0.00     0.031 A 
BRANCH  26  40
ATOM     40  C   UNL A   1      40.493  29.331  28.786  1.00  0.00    -0.014 A 
ATOM     41  C   UNL A   1      40.080  29.659  30.090  1.00  0.00     0.010 A 
ATOM     42  C   UNL A   1      39.553  29.382  27.740  1.00  0.00     0.010 A 
ATOM     43  C   UNL A   1      38.741  29.964  30.353  1.00  0.00     0.020 A 
ATOM     44  C   UNL A   1      38.220  29.716  27.994  1.00  0.00     0.020 A 
ATOM     45  C   UNL A   1      37.816  29.976  29.304  1.00  0.00     0.054 A 
BRANCH  45  46
ATOM     46  S   UNL A   1      36.079  30.338  29.676  1.00  0.00     0.124 S 
ATOM     47  O   UNL A   1      35.915  29.706  30.983  1.00  0.00    -0.237 OA
ATOM     48  O   UNL A   1      36.046  31.799  29.679  1.00  0.00    -0.237 OA
ATOM     49  O   UNL A   1      35.349  29.704  28.582  1.00  0.00    -0.744 OA
ENDBRANCH  45  46
ENDBRANCH  26  40
BRANCH  27  50
ATOM     50  C   UNL A   1      49.660  26.288  26.218  1.00  0.00    -0.014 A 
ATOM     51  C   UNL A   1      50.111  26.576  24.921  1.00  0.00     0.010 A 
ATOM     52  C   UNL A   1      50.526  25.642  27.121  1.00  0.00     0.010 A 
ATOM     53  C   UNL A   1      51.413  26.240  24.537  1.00  0.00     0.020 A 
ATOM     54  C   UNL A   1      51.836  25.328  26.749  1.00  0.00     0.020 A 
ATOM     55  C   UNL A   1      52.272  25.630  25.458  1.00  0.00     0.054 A 
BRANCH  55  56
ATOM     56  S   UNL A   1      53.989  25.308  24.972  1.00  0.00     0.124 S 
ATOM     57  O   UNL A   1      54.036  23.849  24.972  1.00  0.00    -0.237 OA
ATOM     58  O   UNL A   1      54.070  25.945  23.660  1.00  0.00    -0.237 OA
ATOM     59  O   UNL A   1      54.769  25.960  26.022  1.00  0.00    -0.744 OA
ENDBRANCH  55  56
ENDBRANCH  27  50
BRANCH  39  60
ATOM     60  C   UNL A   1      46.950  32.469  28.091  1.00  0.00    -0.014 A 
ATOM     61  C   UNL A   1      47.557  32.862  29.297  1.00  0.00     0.010 A 
ATOM     62  C   UNL A   1      46.985  33.342  26.987  1.00  0.00     0.010 A 
ATOM     63  C   UNL A   1      48.189  34.105  29.395  1.00  0.00     0.020 A 
ATOM     64  C   UNL A   1      47.636  34.575  27.075  1.00  0.00     0.020 A 
ATOM     65  C   UNL A   1      48.231  34.950  28.280  1.00  0.00     0.054 A 
BRANCH  65  66
ATOM     66  S   UNL A   1      49.140  36.516  28.405  1.00  0.00     0.124 S 
ATOM     67  O   UNL A   1      49.796  36.385  29.702  1.00  0.00    -0.237 OA
ATOM     68  O   UNL A   1      50.025  36.465  27.244  1.00  0.00    -0.237 OA
ATOM     69  O   UNL A   1      48.091  37.531  28.336  1.00  0.00    -0.744 OA
ENDBRANCH  65  66
ENDBRANCH  39  60
ENDBRANCH  13  14
ENDBRANCH   6   8
ENDBRANCH   3   4
ENDBRANCH   2   3
ENDBRANCH   1   2
BRANCH   1  70
ATOM     70  C   UNL A   1      36.204  21.318  25.586  1.00  0.00     0.116 C 
BRANCH  70  71
ATOM     71  N   UNL A   1      35.023  20.515  25.327  1.00  0.00    -0.354 N 
ATOM     72  C   UNL A   1      33.883  20.816  24.643  1.00  0.00     0.249 C 
ATOM     73  H   UNL A   1      35.050  19.607  25.706  1.00  0.00     0.163 HD
ATOM     74  O   UNL A   1      32.997  19.959  24.595  1.00  0.00    -0.272 OA
BRANCH  72  75
ATOM     75  C   UNL A   1      33.744  22.168  23.925  1.00  0.00     0.207 C 
ATOM     76  C   UNL A   1      32.399  22.243  23.213  1.00  0.00     0.045 C 
ATOM     77  O   UNL A   1      33.793  23.252  24.866  1.00  0.00    -0.363 OA
ATOM     78  C   UNL A   1      31.547  23.032  24.180  1.00  0.00     0.037 C 
ATOM     79  C   UNL A   1      32.550  23.976  24.820  1.00  0.00     0.138 C 
BRANCH  79  80
ATOM     80  C   UNL A   1      32.791  25.265  24.021  1.00  0.00     0.148 C 
BRANCH  80  81
ATOM     81  N   UNL A   1      31.580  25.833  23.453  1.00  0.00    -0.349 N 
ATOM     82  C   UNL A   1      30.864  26.925  23.876  1.00  0.00     0.255 C 
ATOM     83  H   UNL A   1      31.225  25.373  22.658  1.00  0.00     0.163 HD
ATOM     84  O   UNL A   1      29.813  27.223  23.313  1.00  0.00    -0.269 OA
BRANCH  82  85
ATOM     85  C   UNL A   1      31.299  27.701  25.057  1.00  0.00     0.081 A 
ATOM     86  C   UNL A   1      31.941  28.922  24.814  1.00  0.00     0.018 A 
ATOM     87  C   UNL A   1      31.128  27.257  26.374  1.00  0.00     0.128 A 
ATOM     88  C   UNL A   1      32.366  29.715  25.880  1.00  0.00     0.001 A 
ATOM     89  C   UNL A   1      31.546  28.057  27.440  1.00  0.00     0.047 A 
ATOM     90  C   UNL A   1      32.159  29.286  27.191  1.00  0.00     0.004 A 
BRANCH  87  91
ATOM     91  O   UNL A   1      30.553  26.043  26.631  1.00  0.00    -0.507 OA
ATOM     92  H   UNL A   1      30.468  25.411  25.945  1.00  0.00     0.293 HD
ENDBRANCH  87  91
ENDBRANCH  82  85
ENDBRANCH  80  81
ENDBRANCH  79  80
ENDBRANCH  72  75
ENDBRANCH  70  71
ENDBRANCH   1  70
TORSDOF 18
ENDMDL
MODEL 3
REMARK VINA RESULT:     -11.7      2.580      8.568
REMARK SMILES O=C(NCCCCNC(=O)[C@H]1CC[C@H](CNC(=O)c2ccccc2O)O1)c1ccc(-c2c3nc(c(-c4ccc(S(=O)(=O)[O-])cc4)c4ccc([nH]4)c(-c4ccc(S(=O)(=O)[O-])cc4)c4nc(c(-c5ccc(S(=O)(=O)[O-])cc5)c5ccc2[nH]5)C=C4)C=C3)cc1
REMARK SMILES IDX 6 1 5 2 4 3 3 4 1 5 2 6 27 8 28 9 86 10 29 11 85 12 30 13
REMARK SMILES IDX 31 14 32 15 79 16 33 17 84 18 78 19 80 20 34 21 83 22 77 23
REMARK SMILES IDX 76 24 35 26 65 27 46 28 64 29 47 30 50 31 63 32 81 33 48 34
REMARK SMILES IDX 49 35 62 37 82 38 51 39 36 40 37 41 45 42 38 43 44 44 39 45
REMARK SMILES IDX 40 46 41 47 42 48 43 49 66 50 67 51 75 52 68 53 74 54 69 55
REMARK SMILES IDX 70 56 71 57 72 58 73 59 52 60 53 61 61 62 54 63 60 64 55 65
REMARK SMILES IDX 56 66 57 67 58 68 59 69 7 70 8 71 9 72 10 74 11 75 12 76
REMARK SMILES IDX 26 77 13 78 14 79 15 80 16 81 17 82 18 84 19 85 20 86 24 87
REMARK SMILES IDX 21 88 23 89 22 90 25 91
REMARK H PARENT 3 7 80 25 50 36 8 73 16 83 25 92
REMARK Flexibility Score: inf
ROOT
ATOM      1  C   UNL A   1      38.933  22.640  26.246  1.00  0.00     0.023 C 
ENDROOT
BRANCH   1   2
ATOM      2  C   UNL A   1      39.266  21.247  25.700  1.00  0.00     0.023 C 
BRANCH   2   3
ATOM      3  C   UNL A   1      39.758  20.240  26.736  1.00  0.00     0.116 C 
BRANCH   3   4
ATOM      4  N   UNL A   1      40.830  19.398  26.233  1.00  0.00    -0.352 N 
ATOM      5  O   UNL A   1      42.838  18.924  25.332  1.00  0.00    -0.269 OA
ATOM      6  C   UNL A   1      42.114  19.744  25.893  1.00  0.00     0.251 C 
ATOM      7  H   UNL A   1      40.603  18.447  26.119  1.00  0.00     0.163 HD
BRANCH   6   8
ATOM      8  C   UNL A   1      42.612  21.105  26.180  1.00  0.00     0.039 A 
ATOM      9  C   UNL A   1      42.826  21.530  27.495  1.00  0.00     0.014 A 
ATOM     10  C   UNL A   1      42.881  21.963  25.111  1.00  0.00     0.014 A 
ATOM     11  C   UNL A   1      43.200  22.848  27.745  1.00  0.00     0.010 A 
ATOM     12  C   UNL A   1      43.317  23.264  25.361  1.00  0.00     0.010 A 
ATOM     13  C   UNL A   1      43.458  23.725  26.681  1.00  0.00    -0.014 A 
BRANCH  13  14
ATOM     14  C   UNL A   1      43.926  25.108  26.943  1.00  0.00     0.031 A 
ATOM     15  C   UNL A   1      45.368  25.481  26.752  1.00  0.00     0.074 A 
ATOM     16  C   UNL A   1      43.047  26.019  27.402  1.00  0.00     0.049 A 
ATOM     17  N   UNL A   1      45.969  26.612  27.019  1.00  0.00    -0.248 NA
ATOM     18  C   UNL A   1      46.253  24.443  26.199  1.00  0.00     0.031 C 
ATOM     19  C   UNL A   1      41.621  25.774  27.628  1.00  0.00     0.029 A 
ATOM     20  N   UNL A   1      43.225  27.326  27.777  1.00  0.00    -0.354 N 
ATOM     21  C   UNL A   1      47.306  26.417  26.695  1.00  0.00     0.074 A 
ATOM     22  C   UNL A   1      47.431  25.053  26.229  1.00  0.00     0.031 C 
ATOM     23  C   UNL A   1      41.054  26.892  28.102  1.00  0.00     0.029 A 
ATOM     24  C   UNL A   1      42.084  27.913  28.270  1.00  0.00     0.049 A 
ATOM     25  H   UNL A   1      44.086  27.798  27.700  1.00  0.00     0.167 HD
ATOM     26  C   UNL A   1      48.335  27.296  26.783  1.00  0.00     0.031 A 
ATOM     27  C   UNL A   1      41.889  29.120  28.833  1.00  0.00     0.031 A 
ATOM     28  C   UNL A   1      48.201  28.647  27.263  1.00  0.00     0.049 A 
ATOM     29  C   UNL A   1      43.046  30.066  28.959  1.00  0.00     0.074 A 
ATOM     30  C   UNL A   1      49.174  29.628  27.355  1.00  0.00     0.029 A 
ATOM     31  N   UNL A   1      47.026  29.203  27.749  1.00  0.00    -0.354 N 
ATOM     32  N   UNL A   1      44.296  29.883  28.605  1.00  0.00    -0.248 NA
ATOM     33  C   UNL A   1      42.771  31.382  29.550  1.00  0.00     0.031 C 
ATOM     34  C   UNL A   1      48.600  30.757  27.949  1.00  0.00     0.029 A 
ATOM     35  C   UNL A   1      47.254  30.503  28.169  1.00  0.00     0.049 A 
ATOM     36  H   UNL A   1      46.158  28.742  27.788  1.00  0.00     0.167 HD
ATOM     37  C   UNL A   1      44.953  31.068  28.909  1.00  0.00     0.074 A 
ATOM     38  C   UNL A   1      43.961  31.963  29.472  1.00  0.00     0.031 C 
ATOM     39  C   UNL A   1      46.258  31.386  28.727  1.00  0.00     0.031 A 
BRANCH  26  40
ATOM     40  C   UNL A   1      49.705  26.799  26.398  1.00  0.00    -0.014 A 
ATOM     41  C   UNL A   1      50.247  27.048  25.124  1.00  0.00     0.010 A 
ATOM     42  C   UNL A   1      50.465  26.070  27.331  1.00  0.00     0.010 A 
ATOM     43  C   UNL A   1      51.492  26.520  24.768  1.00  0.00     0.020 A 
ATOM     44  C   UNL A   1      51.723  25.565  26.990  1.00  0.00     0.020 A 
ATOM     45  C   UNL A   1      52.215  25.769  25.700  1.00  0.00     0.054 A 
BRANCH  45  46
ATOM     46  S   UNL A   1      53.810  25.062  25.203  1.00  0.00     0.124 S 
ATOM     47  O   UNL A   1      54.706  25.599  26.224  1.00  0.00    -0.237 OA
ATOM     48  O   UNL A   1      53.563  23.623  25.281  1.00  0.00    -0.237 OA
ATOM     49  O   UNL A   1      54.017  25.583  23.855  1.00  0.00    -0.744 OA
ENDBRANCH  45  46
ENDBRANCH  26  40
BRANCH  27  50
ATOM     50  C   UNL A   1      40.532  29.466  29.333  1.00  0.00    -0.014 A 
ATOM     51  C   UNL A   1      40.242  29.423  30.706  1.00  0.00     0.010 A 
ATOM     52  C   UNL A   1      39.553  29.939  28.438  1.00  0.00     0.010 A 
ATOM     53  C   UNL A   1      39.002  29.862  31.179  1.00  0.00     0.020 A 
ATOM     54  C   UNL A   1      38.322  30.402  28.909  1.00  0.00     0.020 A 
ATOM     55  C   UNL A   1      38.054  30.361  30.278  1.00  0.00     0.054 A 
BRANCH  55  56
ATOM     56  S   UNL A   1      36.498  31.030  30.928  1.00  0.00     0.124 S 
ATOM     57  O   UNL A   1      36.917  32.329  31.443  1.00  0.00    -0.237 OA
ATOM     58  O   UNL A   1      35.649  31.063  29.739  1.00  0.00    -0.237 OA
ATOM     59  O   UNL A   1      36.101  30.051  31.938  1.00  0.00    -0.744 OA
ENDBRANCH  55  56
ENDBRANCH  27  50
BRANCH  39  60
ATOM     60  C   UNL A   1      46.701  32.774  29.101  1.00  0.00    -0.014 A 
ATOM     61  C   UNL A   1      47.155  33.072  30.398  1.00  0.00     0.010 A 
ATOM     62  C   UNL A   1      46.763  33.768  28.105  1.00  0.00     0.010 A 
ATOM     63  C   UNL A   1      47.663  34.341  30.691  1.00  0.00     0.020 A 
ATOM     64  C   UNL A   1      47.291  35.028  28.390  1.00  0.00     0.020 A 
ATOM     65  C   UNL A   1      47.735  35.309  29.683  1.00  0.00     0.054 A 
BRANCH  65  66
ATOM     66  S   UNL A   1      48.487  36.915  30.066  1.00  0.00     0.124 S 
ATOM     67  O   UNL A   1      49.774  36.522  30.631  1.00  0.00    -0.237 OA
ATOM     68  O   UNL A   1      48.545  37.562  28.757  1.00  0.00    -0.237 OA
ATOM     69  O   UNL A   1      47.550  37.519  31.011  1.00  0.00    -0.744 OA
ENDBRANCH  65  66
ENDBRANCH  39  60
ENDBRANCH  13  14
ENDBRANCH   6   8
ENDBRANCH   3   4
ENDBRANCH   2   3
ENDBRANCH   1   2
BRANCH   1  70
ATOM     70  C   UNL A   1      37.574  23.187  25.810  1.00  0.00     0.116 C 
BRANCH  70  71
ATOM     71  N   UNL A   1      37.410  23.134  24.370  1.00  0.00    -0.354 N 
ATOM     72  C   UNL A   1      36.280  23.045  23.612  1.00  0.00     0.249 C 
ATOM     73  H   UNL A   1      38.250  23.169  23.857  1.00  0.00     0.163 HD
ATOM     74  O   UNL A   1      36.412  22.979  22.387  1.00  0.00    -0.272 OA
BRANCH  72  75
ATOM     75  C   UNL A   1      34.896  23.071  24.279  1.00  0.00     0.207 C 
ATOM     76  C   UNL A   1      33.887  23.741  23.356  1.00  0.00     0.045 C 
ATOM     77  O   UNL A   1      34.427  21.738  24.532  1.00  0.00    -0.363 OA
ATOM     78  C   UNL A   1      33.194  22.568  22.702  1.00  0.00     0.037 C 
ATOM     79  C   UNL A   1      33.211  21.515  23.795  1.00  0.00     0.138 C 
BRANCH  79  80
ATOM     80  C   UNL A   1      32.040  21.621  24.783  1.00  0.00     0.148 C 
BRANCH  80  81
ATOM     81  N   UNL A   1      32.457  21.670  26.174  1.00  0.00    -0.349 N 
ATOM     82  C   UNL A   1      32.366  22.714  27.061  1.00  0.00     0.255 C 
ATOM     83  H   UNL A   1      32.857  20.843  26.529  1.00  0.00     0.163 HD
ATOM     84  O   UNL A   1      32.839  22.601  28.190  1.00  0.00    -0.269 OA
BRANCH  82  85
ATOM     85  C   UNL A   1      31.780  24.007  26.648  1.00  0.00     0.081 A 
ATOM     86  C   UNL A   1      32.666  25.077  26.465  1.00  0.00     0.018 A 
ATOM     87  C   UNL A   1      30.406  24.206  26.471  1.00  0.00     0.128 A 
ATOM     88  C   UNL A   1      32.185  26.323  26.061  1.00  0.00     0.001 A 
ATOM     89  C   UNL A   1      29.928  25.451  26.058  1.00  0.00     0.047 A 
ATOM     90  C   UNL A   1      30.819  26.506  25.849  1.00  0.00     0.004 A 
BRANCH  87  91
ATOM     91  O   UNL A   1      29.520  23.188  26.698  1.00  0.00    -0.507 OA
ATOM     92  H   UNL A   1      29.460  22.477  26.091  1.00  0.00     0.293 HD
ENDBRANCH  87  91
ENDBRANCH  82  85
ENDBRANCH  80  81
ENDBRANCH  79  80
ENDBRANCH  72  75
ENDBRANCH  70  71
ENDBRANCH   1  70
TORSDOF 18
ENDMDL
