MODEL 1
REMARK VINA RESULT:     -12.6      0.000      0.000
REMARK SMILES COc1ccc([C@@H]2Nc3c(C(=O)NCCCCNC(=O)c4ccc(-c5c6nc(c(-c7ccc(S(=O)(=O)[O-])cc7)c7ccc([nH]7)c(-c7ccc(S(=O)(=O)[O-])cc7)c7nc(c(-c8ccc(S(=O)(=O)[O-])cc8)c8ccc5[nH]8)C=C7)C=C6)cc4)cccc3[C@@H]3[C@H]4CC[C@H](C4)[C@H]32)cc1[N+](=O)[O-]
REMARK SMILES IDX 16 1 15 2 14 3 13 4 11 5 12 6 10 8 7 9 8 10 91 11 9 12 85 14
REMARK SMILES IDX 89 15 84 16 86 17 88 18 90 19 81 20 83 21 87 22 82 23 6 24
REMARK SMILES IDX 3 25 4 26 93 27 5 28 92 29 2 30 1 31 94 32 95 33 96 34 17 35
REMARK SMILES IDX 18 36 19 37 20 39 21 40 22 41 80 42 23 43 79 44 24 45 25 46
REMARK SMILES IDX 26 47 73 48 27 49 78 50 72 51 74 52 28 53 77 54 71 55 70 56
REMARK SMILES IDX 29 58 59 59 40 60 58 61 41 62 44 63 57 64 75 65 42 66 43 67
REMARK SMILES IDX 56 69 76 70 45 71 30 72 31 73 39 74 32 75 38 76 33 77 34 78
REMARK SMILES IDX 35 79 36 80 37 81 60 82 61 83 69 84 62 85 68 86 63 87 64 88
REMARK SMILES IDX 65 89 66 90 67 91 46 92 47 93 55 94 48 95 54 96 49 97 50 98
REMARK SMILES IDX 51 99 52 100 53 101
REMARK H PARENT 13 7 8 13 18 38 74 57 44 68
REMARK Flexibility Score: inf
ROOT
ATOM      1  C   UNL A   1      42.807  22.592  28.571  1.00  0.00     0.023 C 
ENDROOT
BRANCH   1   2
ATOM      2  C   UNL A   1      42.067  21.687  27.593  1.00  0.00     0.023 C 
BRANCH   2   3
ATOM      3  C   UNL A   1      40.551  21.816  27.536  1.00  0.00     0.116 C 
BRANCH   3   4
ATOM      4  N   UNL A   1      40.043  23.076  27.032  1.00  0.00    -0.352 N 
ATOM      5  C   UNL A   1      38.875  23.333  26.350  1.00  0.00     0.253 C 
ATOM      6  O   UNL A   1      38.564  24.502  26.131  1.00  0.00    -0.269 OA
ATOM      7  H   UNL A   1      40.614  23.860  27.203  1.00  0.00     0.163 HD
BRANCH   5   8
ATOM      8  C   UNL A   1      38.057  22.241  25.757  1.00  0.00     0.063 A 
ATOM      9  C   UNL A   1      34.421  23.416  25.532  1.00  0.00     0.114 C 
ATOM     10  N   UNL A   1      35.890  23.444  25.662  1.00  0.00    -0.377 N 
ATOM     11  C   UNL A   1      34.104  22.307  24.539  1.00  0.00     0.027 C 
ATOM     12  C   UNL A   1      36.668  22.273  25.540  1.00  0.00     0.051 A 
ATOM     13  H   UNL A   1      36.338  24.302  25.837  1.00  0.00     0.161 HD
ATOM     14  C   UNL A   1      34.535  21.017  25.254  1.00  0.00     0.030 C 
ATOM     15  C   UNL A   1      32.737  21.933  23.962  1.00  0.00    -0.005 C 
ATOM     16  C   UNL A   1      36.034  21.031  25.205  1.00  0.00    -0.020 A 
ATOM     17  C   UNL A   1      33.575  19.968  24.655  1.00  0.00    -0.003 C 
ATOM     18  C   UNL A   1      31.734  21.492  25.033  1.00  0.00     0.004 C 
ATOM     19  C   UNL A   1      33.134  20.583  23.325  1.00  0.00     0.008 C 
ATOM     20  C   UNL A   1      38.791  21.080  25.434  1.00  0.00     0.016 A 
ATOM     21  C   UNL A   1      36.772  19.879  24.925  1.00  0.00     0.006 A 
ATOM     22  C   UNL A   1      32.248  20.099  25.446  1.00  0.00     0.004 C 
ATOM     23  C   UNL A   1      38.157  19.918  24.997  1.00  0.00     0.001 A 
BRANCH   9  24
ATOM     24  C   UNL A   1      33.836  24.752  25.126  1.00  0.00    -0.018 A 
ATOM     25  C   UNL A   1      33.048  27.348  24.320  1.00  0.00     0.196 A 
ATOM     26  C   UNL A   1      33.006  26.972  25.668  1.00  0.00     0.054 A 
ATOM     27  C   UNL A   1      33.485  26.424  23.371  1.00  0.00     0.311 A 
ATOM     28  C   UNL A   1      33.387  25.687  26.067  1.00  0.00     0.010 A 
ATOM     29  C   UNL A   1      33.856  25.125  23.767  1.00  0.00     0.095 A 
BRANCH  25  30
ATOM     30  O   UNL A   1      32.753  28.656  24.053  1.00  0.00    -0.490 OA
ATOM     31  C   UNL A   1      31.354  28.849  23.834  1.00  0.00     0.278 C 
ENDBRANCH  25  30
BRANCH  27  32
ATOM     32  N   UNL A   1      33.650  26.777  21.961  1.00  0.00     0.066 N 
ATOM     33  O   UNL A   1      33.240  25.961  21.123  1.00  0.00    -0.258 OA
ATOM     34  O   UNL A   1      34.235  27.832  21.679  1.00  0.00    -0.258 OA
ENDBRANCH  27  32
ENDBRANCH   9  24
ENDBRANCH   5   8
ENDBRANCH   3   4
ENDBRANCH   2   3
ENDBRANCH   1   2
BRANCH   1  35
ATOM     35  C   UNL A   1      43.689  23.681  27.975  1.00  0.00     0.116 C 
BRANCH  35  36
ATOM     36  N   UNL A   1      43.299  24.105  26.639  1.00  0.00    -0.352 N 
ATOM     37  C   UNL A   1      42.619  25.229  26.235  1.00  0.00     0.251 C 
ATOM     38  H   UNL A   1      43.561  23.492  25.914  1.00  0.00     0.163 HD
ATOM     39  O   UNL A   1      42.356  25.388  25.045  1.00  0.00    -0.269 OA
BRANCH  37  40
ATOM     40  C   UNL A   1      42.165  26.220  27.233  1.00  0.00     0.039 A 
ATOM     41  C   UNL A   1      41.107  25.885  28.081  1.00  0.00     0.014 A 
ATOM     42  C   UNL A   1      42.807  27.453  27.369  1.00  0.00     0.014 A 
ATOM     43  C   UNL A   1      40.757  26.746  29.124  1.00  0.00     0.010 A 
ATOM     44  C   UNL A   1      42.522  28.262  28.464  1.00  0.00     0.010 A 
ATOM     45  C   UNL A   1      41.496  27.918  29.357  1.00  0.00    -0.014 A 
BRANCH  45  46
ATOM     46  C   UNL A   1      41.216  28.784  30.533  1.00  0.00     0.031 A 
ATOM     47  C   UNL A   1      42.035  28.649  31.789  1.00  0.00     0.074 A 
ATOM     48  C   UNL A   1      40.183  29.651  30.494  1.00  0.00     0.049 A 
ATOM     49  N   UNL A   1      41.918  29.292  32.923  1.00  0.00    -0.248 NA
ATOM     50  C   UNL A   1      43.107  27.638  31.783  1.00  0.00     0.031 C 
ATOM     51  C   UNL A   1      39.271  29.836  29.361  1.00  0.00     0.029 A 
ATOM     52  N   UNL A   1      39.722  30.540  31.433  1.00  0.00    -0.354 N 
ATOM     53  C   UNL A   1      42.884  28.753  33.766  1.00  0.00     0.074 A 
ATOM     54  C   UNL A   1      43.539  27.693  33.034  1.00  0.00     0.031 C 
ATOM     55  C   UNL A   1      38.390  30.805  29.657  1.00  0.00     0.029 A 
ATOM     56  C   UNL A   1      38.645  31.285  31.010  1.00  0.00     0.049 A 
ATOM     57  H   UNL A   1      40.126  30.636  32.326  1.00  0.00     0.167 HD
ATOM     58  C   UNL A   1      43.217  29.125  35.025  1.00  0.00     0.031 A 
ATOM     59  C   UNL A   1      37.944  32.248  31.638  1.00  0.00     0.031 A 
ATOM     60  C   UNL A   1      42.577  30.193  35.747  1.00  0.00     0.049 A 
ATOM     61  C   UNL A   1      38.345  32.658  33.029  1.00  0.00     0.074 A 
ATOM     62  C   UNL A   1      42.880  30.684  37.005  1.00  0.00     0.029 A 
ATOM     63  N   UNL A   1      41.509  30.939  35.272  1.00  0.00    -0.354 N 
ATOM     64  N   UNL A   1      39.308  32.182  33.782  1.00  0.00    -0.248 NA
ATOM     65  C   UNL A   1      37.578  33.747  33.646  1.00  0.00     0.031 C 
ATOM     66  C   UNL A   1      41.964  31.697  37.310  1.00  0.00     0.029 A 
ATOM     67  C   UNL A   1      41.130  31.877  36.218  1.00  0.00     0.049 A 
ATOM     68  H   UNL A   1      41.083  30.820  34.392  1.00  0.00     0.167 HD
ATOM     69  C   UNL A   1      39.282  32.937  34.949  1.00  0.00     0.074 A 
ATOM     70  C   UNL A   1      38.219  33.910  34.795  1.00  0.00     0.031 C 
ATOM     71  C   UNL A   1      40.070  32.838  36.049  1.00  0.00     0.031 A 
BRANCH  58  72
ATOM     72  C   UNL A   1      44.332  28.368  35.701  1.00  0.00    -0.014 A 
ATOM     73  C   UNL A   1      45.670  28.785  35.577  1.00  0.00     0.010 A 
ATOM     74  C   UNL A   1      44.037  27.248  36.499  1.00  0.00     0.010 A 
ATOM     75  C   UNL A   1      46.695  28.071  36.201  1.00  0.00     0.020 A 
ATOM     76  C   UNL A   1      45.057  26.549  37.150  1.00  0.00     0.020 A 
ATOM     77  C   UNL A   1      46.382  26.955  36.981  1.00  0.00     0.054 A 
BRANCH  77  78
ATOM     78  S   UNL A   1      47.733  26.062  37.800  1.00  0.00     0.124 S 
ATOM     79  O   UNL A   1      48.205  27.051  38.766  1.00  0.00    -0.237 OA
ATOM     80  O   UNL A   1      47.051  24.904  38.371  1.00  0.00    -0.237 OA
ATOM     81  O   UNL A   1      48.661  25.762  36.713  1.00  0.00    -0.744 OA
ENDBRANCH  77  78
ENDBRANCH  58  72
BRANCH  59  82
ATOM     82  C   UNL A   1      36.809  32.920  30.943  1.00  0.00    -0.014 A 
ATOM     83  C   UNL A   1      35.481  32.636  31.310  1.00  0.00     0.010 A 
ATOM     84  C   UNL A   1      37.050  33.848  29.914  1.00  0.00     0.010 A 
ATOM     85  C   UNL A   1      34.415  33.249  30.643  1.00  0.00     0.020 A 
ATOM     86  C   UNL A   1      35.988  34.484  29.266  1.00  0.00     0.020 A 
ATOM     87  C   UNL A   1      34.675  34.170  29.626  1.00  0.00     0.054 A 
BRANCH  87  88
ATOM     88  S   UNL A   1      33.278  34.988  28.806  1.00  0.00     0.124 S 
ATOM     89  O   UNL A   1      32.485  35.445  29.944  1.00  0.00    -0.237 OA
ATOM     90  O   UNL A   1      33.936  36.036  28.031  1.00  0.00    -0.237 OA
ATOM     91  O   UNL A   1      32.676  33.919  28.011  1.00  0.00    -0.744 OA
ENDBRANCH  87  88
ENDBRANCH  59  82
BRANCH  71  92
ATOM     92  C   UNL A   1      39.842  33.835  37.154  1.00  0.00    -0.014 A 
ATOM     93  C   UNL A   1      39.030  33.531  38.260  1.00  0.00     0.010 A 
ATOM     94  C   UNL A   1      40.478  35.088  37.094  1.00  0.00     0.010 A 
ATOM     95  C   UNL A   1      38.822  34.480  39.265  1.00  0.00     0.020 A 
ATOM     96  C   UNL A   1      40.298  36.029  38.112  1.00  0.00     0.020 A 
ATOM     97  C   UNL A   1      39.453  35.725  39.182  1.00  0.00     0.054 A 
BRANCH  97  98
ATOM     98  S   UNL A   1      39.184  36.934  40.506  1.00  0.00     0.124 S 
ATOM     99  O   UNL A   1      40.551  37.322  40.844  1.00  0.00    -0.237 OA
ATOM    100  O   UNL A   1      38.385  37.963  39.845  1.00  0.00    -0.237 OA
ATOM    101  O   UNL A   1      38.480  36.171  41.534  1.00  0.00    -0.744 OA
ENDBRANCH  97  98
ENDBRANCH  71  92
ENDBRANCH  45  46
ENDBRANCH  37  40
ENDBRANCH  35  36
ENDBRANCH   1  35
TORSDOF 17
ENDMDL
MODEL 2
REMARK VINA RESULT:     -12.3      5.187      7.603
REMARK SMILES COc1ccc([C@@H]2Nc3c(C(=O)NCCCCNC(=O)c4ccc(-c5c6nc(c(-c7ccc(S(=O)(=O)[O-])cc7)c7ccc([nH]7)c(-c7ccc(S(=O)(=O)[O-])cc7)c7nc(c(-c8ccc(S(=O)(=O)[O-])cc8)c8ccc5[nH]8)C=C7)C=C6)cc4)cccc3[C@@H]3[C@H]4CC[C@H](C4)[C@H]32)cc1[N+](=O)[O-]
REMARK SMILES IDX 16 1 15 2 14 3 13 4 11 5 12 6 10 8 7 9 8 10 91 11 9 12 85 14
REMARK SMILES IDX 89 15 84 16 86 17 88 18 90 19 81 20 83 21 87 22 82 23 6 24
REMARK SMILES IDX 3 25 4 26 93 27 5 28 92 29 2 30 1 31 94 32 95 33 96 34 17 35
REMARK SMILES IDX 18 36 19 37 20 39 21 40 22 41 80 42 23 43 79 44 24 45 25 46
REMARK SMILES IDX 26 47 73 48 27 49 78 50 72 51 74 52 28 53 77 54 71 55 70 56
REMARK SMILES IDX 29 58 59 59 40 60 58 61 41 62 44 63 57 64 75 65 42 66 43 67
REMARK SMILES IDX 56 69 76 70 45 71 30 72 31 73 39 74 32 75 38 76 33 77 34 78
REMARK SMILES IDX 35 79 36 80 37 81 60 82 61 83 69 84 62 85 68 86 63 87 64 88
REMARK SMILES IDX 65 89 66 90 67 91 46 92 47 93 55 94 48 95 54 96 49 97 50 98
REMARK SMILES IDX 51 99 52 100 53 101
REMARK H PARENT 13 7 8 13 18 38 74 57 44 68
REMARK Flexibility Score: inf
ROOT
ATOM      1  C   UNL A   1      36.232  22.685  24.878  1.00  0.00     0.023 C 
ENDROOT
BRANCH   1   2
ATOM      2  C   UNL A   1      34.921  22.500  25.635  1.00  0.00     0.023 C 
BRANCH   2   3
ATOM      3  C   UNL A   1      34.413  23.684  26.446  1.00  0.00     0.116 C 
BRANCH   3   4
ATOM      4  N   UNL A   1      33.227  23.441  27.241  1.00  0.00    -0.352 N 
ATOM      5  C   UNL A   1      31.904  23.477  26.863  1.00  0.00     0.253 C 
ATOM      6  O   UNL A   1      31.050  23.102  27.665  1.00  0.00    -0.269 OA
ATOM      7  H   UNL A   1      33.391  23.218  28.186  1.00  0.00     0.163 HD
BRANCH   5   8
ATOM      8  C   UNL A   1      31.473  24.079  25.574  1.00  0.00     0.063 A 
ATOM      9  C   UNL A   1      31.427  27.888  25.951  1.00  0.00     0.114 C 
ATOM     10  N   UNL A   1      31.723  26.465  26.202  1.00  0.00    -0.377 N 
ATOM     11  C   UNL A   1      31.414  28.057  24.438  1.00  0.00     0.027 C 
ATOM     12  C   UNL A   1      31.299  25.451  25.318  1.00  0.00     0.051 A 
ATOM     13  H   UNL A   1      32.229  26.218  27.009  1.00  0.00     0.161 HD
ATOM     14  C   UNL A   1      30.201  27.237  23.971  1.00  0.00     0.030 C 
ATOM     15  C   UNL A   1      31.268  29.357  23.645  1.00  0.00    -0.005 C 
ATOM     16  C   UNL A   1      30.630  25.806  24.100  1.00  0.00    -0.020 A 
ATOM     17  C   UNL A   1      29.764  27.986  22.694  1.00  0.00    -0.003 C 
ATOM     18  C   UNL A   1      29.939  30.074  23.907  1.00  0.00     0.004 C 
ATOM     19  C   UNL A   1      31.024  28.735  22.253  1.00  0.00     0.008 C 
ATOM     20  C   UNL A   1      31.195  23.136  24.561  1.00  0.00     0.016 A 
ATOM     21  C   UNL A   1      30.326  24.855  23.122  1.00  0.00     0.006 A 
ATOM     22  C   UNL A   1      28.910  29.189  23.174  1.00  0.00     0.004 C 
ATOM     23  C   UNL A   1      30.651  23.524  23.337  1.00  0.00     0.001 A 
BRANCH   9  24
ATOM     24  C   UNL A   1      32.396  28.827  26.637  1.00  0.00    -0.018 A 
ATOM     25  C   UNL A   1      34.256  30.716  27.626  1.00  0.00     0.196 A 
ATOM     26  C   UNL A   1      34.622  29.377  27.448  1.00  0.00     0.054 A 
ATOM     27  C   UNL A   1      32.956  31.114  27.311  1.00  0.00     0.311 A 
ATOM     28  C   UNL A   1      33.702  28.440  26.966  1.00  0.00     0.010 A 
ATOM     29  C   UNL A   1      32.024  30.170  26.839  1.00  0.00     0.095 A 
BRANCH  25  30
ATOM     30  O   UNL A   1      35.258  31.566  28.003  1.00  0.00    -0.490 OA
ATOM     31  C   UNL A   1      36.531  30.918  28.003  1.00  0.00     0.278 C 
ENDBRANCH  25  30
BRANCH  27  32
ATOM     32  N   UNL A   1      32.534  32.513  27.377  1.00  0.00     0.066 N 
ATOM     33  O   UNL A   1      33.218  33.275  28.075  1.00  0.00    -0.258 OA
ATOM     34  O   UNL A   1      31.497  32.847  26.788  1.00  0.00    -0.258 OA
ENDBRANCH  27  32
ENDBRANCH   9  24
ENDBRANCH   5   8
ENDBRANCH   3   4
ENDBRANCH   2   3
ENDBRANCH   1   2
BRANCH   1  35
ATOM     35  C   UNL A   1      37.418  23.222  25.670  1.00  0.00     0.116 C 
BRANCH  35  36
ATOM     36  N   UNL A   1      38.467  22.245  25.916  1.00  0.00    -0.352 N 
ATOM     37  C   UNL A   1      39.706  22.407  26.490  1.00  0.00     0.251 C 
ATOM     38  H   UNL A   1      38.258  21.327  25.627  1.00  0.00     0.163 HD
ATOM     39  O   UNL A   1      40.468  21.448  26.578  1.00  0.00    -0.269 OA
BRANCH  37  40
ATOM     40  C   UNL A   1      40.138  23.742  26.955  1.00  0.00     0.039 A 
ATOM     41  C   UNL A   1      40.685  23.864  28.235  1.00  0.00     0.014 A 
ATOM     42  C   UNL A   1      40.051  24.859  26.122  1.00  0.00     0.014 A 
ATOM     43  C   UNL A   1      41.231  25.084  28.640  1.00  0.00     0.010 A 
ATOM     44  C   UNL A   1      40.681  26.044  26.489  1.00  0.00     0.010 A 
ATOM     45  C   UNL A   1      41.281  26.172  27.751  1.00  0.00    -0.014 A 
BRANCH  45  46
ATOM     46  C   UNL A   1      41.965  27.438  28.121  1.00  0.00     0.031 A 
ATOM     47  C   UNL A   1      43.447  27.595  27.902  1.00  0.00     0.074 A 
ATOM     48  C   UNL A   1      41.265  28.428  28.714  1.00  0.00     0.049 A 
ATOM     49  N   UNL A   1      44.221  28.610  28.190  1.00  0.00    -0.248 NA
ATOM     50  C   UNL A   1      44.159  26.451  27.308  1.00  0.00     0.031 C 
ATOM     51  C   UNL A   1      39.837  28.380  29.041  1.00  0.00     0.029 A 
ATOM     52  N   UNL A   1      41.659  29.669  29.149  1.00  0.00    -0.354 N 
ATOM     53  C   UNL A   1      45.507  28.221  27.831  1.00  0.00     0.074 A 
ATOM     54  C   UNL A   1      45.418  26.857  27.359  1.00  0.00     0.031 C 
ATOM     55  C   UNL A   1      39.470  29.551  29.586  1.00  0.00     0.029 A 
ATOM     56  C   UNL A   1      40.638  30.419  29.684  1.00  0.00     0.049 A 
ATOM     57  H   UNL A   1      42.587  29.992  29.083  1.00  0.00     0.167 HD
ATOM     58  C   UNL A   1      46.654  28.941  27.865  1.00  0.00     0.031 A 
ATOM     59  C   UNL A   1      40.638  31.667  30.193  1.00  0.00     0.031 A 
ATOM     60  C   UNL A   1      46.737  30.304  28.318  1.00  0.00     0.049 A 
ATOM     61  C   UNL A   1      41.920  32.453  30.201  1.00  0.00     0.074 A 
ATOM     62  C   UNL A   1      47.841  31.138  28.337  1.00  0.00     0.029 A 
ATOM     63  N   UNL A   1      45.674  31.034  28.827  1.00  0.00    -0.354 N 
ATOM     64  N   UNL A   1      43.112  32.090  29.792  1.00  0.00    -0.248 NA
ATOM     65  C   UNL A   1      41.852  33.826  30.721  1.00  0.00     0.031 C 
ATOM     66  C   UNL A   1      47.456  32.359  28.900  1.00  0.00     0.029 A 
ATOM     67  C   UNL A   1      46.099  32.305  29.177  1.00  0.00     0.049 A 
ATOM     68  H   UNL A   1      44.754  30.700  28.925  1.00  0.00     0.167 HD
ATOM     69  C   UNL A   1      43.929  33.200  29.975  1.00  0.00     0.074 A 
ATOM     70  C   UNL A   1      43.091  34.251  30.517  1.00  0.00     0.031 C 
ATOM     71  C   UNL A   1      45.253  33.340  29.715  1.00  0.00     0.031 A 
BRANCH  58  72
ATOM     72  C   UNL A   1      47.913  28.262  27.391  1.00  0.00    -0.014 A 
ATOM     73  C   UNL A   1      48.760  27.593  28.294  1.00  0.00     0.010 A 
ATOM     74  C   UNL A   1      48.238  28.260  26.023  1.00  0.00     0.010 A 
ATOM     75  C   UNL A   1      49.929  26.976  27.845  1.00  0.00     0.020 A 
ATOM     76  C   UNL A   1      49.391  27.617  25.565  1.00  0.00     0.020 A 
ATOM     77  C   UNL A   1      50.239  26.994  26.483  1.00  0.00     0.054 A 
BRANCH  77  78
ATOM     78  S   UNL A   1      51.751  26.161  25.925  1.00  0.00     0.124 S 
ATOM     79  O   UNL A   1      51.658  26.310  24.474  1.00  0.00    -0.237 OA
ATOM     80  O   UNL A   1      52.803  26.942  26.569  1.00  0.00    -0.237 OA
ATOM     81  O   UNL A   1      51.600  24.796  26.421  1.00  0.00    -0.744 OA
ENDBRANCH  77  78
ENDBRANCH  58  72
BRANCH  59  82
ATOM     82  C   UNL A   1      39.373  32.264  30.706  1.00  0.00    -0.014 A 
ATOM     83  C   UNL A   1      38.597  33.104  29.886  1.00  0.00     0.010 A 
ATOM     84  C   UNL A   1      38.935  31.996  32.015  1.00  0.00     0.010 A 
ATOM     85  C   UNL A   1      37.421  33.682  30.374  1.00  0.00     0.020 A 
ATOM     86  C   UNL A   1      37.746  32.549  32.496  1.00  0.00     0.020 A 
ATOM     87  C   UNL A   1      37.002  33.401  31.676  1.00  0.00     0.054 A 
BRANCH  87  88
ATOM     88  S   UNL A   1      35.450  34.125  32.273  1.00  0.00     0.124 S 
ATOM     89  O   UNL A   1      35.924  35.288  33.017  1.00  0.00    -0.237 OA
ATOM     90  O   UNL A   1      34.738  34.415  31.031  1.00  0.00    -0.237 OA
ATOM     91  O   UNL A   1      34.864  33.058  33.083  1.00  0.00    -0.744 OA
ENDBRANCH  87  88
ENDBRANCH  59  82
BRANCH  71  92
ATOM     92  C   UNL A   1      45.868  34.690  29.970  1.00  0.00    -0.014 A 
ATOM     93  C   UNL A   1      46.449  35.009  31.210  1.00  0.00     0.010 A 
ATOM     94  C   UNL A   1      45.890  35.645  28.937  1.00  0.00     0.010 A 
ATOM     95  C   UNL A   1      47.000  36.276  31.426  1.00  0.00     0.020 A 
ATOM     96  C   UNL A   1      46.466  36.901  29.139  1.00  0.00     0.020 A 
ATOM     97  C   UNL A   1      47.000  37.215  30.391  1.00  0.00     0.054 A 
BRANCH  97  98
ATOM     98  S   UNL A   1      47.737  38.846  30.688  1.00  0.00     0.124 S 
ATOM     99  O   UNL A   1      48.719  38.934  29.610  1.00  0.00    -0.237 OA
ATOM    100  O   UNL A   1      46.591  39.743  30.568  1.00  0.00    -0.237 OA
ATOM    101  O   UNL A   1      48.295  38.733  32.033  1.00  0.00    -0.744 OA
ENDBRANCH  97  98
ENDBRANCH  71  92
ENDBRANCH  45  46
ENDBRANCH  37  40
ENDBRANCH  35  36
ENDBRANCH   1  35
TORSDOF 17
ENDMDL
MODEL 3
REMARK VINA RESULT:     -11.9      2.281      8.454
REMARK SMILES COc1ccc([C@@H]2Nc3c(C(=O)NCCCCNC(=O)c4ccc(-c5c6nc(c(-c7ccc(S(=O)(=O)[O-])cc7)c7ccc([nH]7)c(-c7ccc(S(=O)(=O)[O-])cc7)c7nc(c(-c8ccc(S(=O)(=O)[O-])cc8)c8ccc5[nH]8)C=C7)C=C6)cc4)cccc3[C@@H]3[C@H]4CC[C@H](C4)[C@H]32)cc1[N+](=O)[O-]
REMARK SMILES IDX 16 1 15 2 14 3 13 4 11 5 12 6 10 8 7 9 8 10 91 11 9 12 85 14
REMARK SMILES IDX 89 15 84 16 86 17 88 18 90 19 81 20 83 21 87 22 82 23 6 24
REMARK SMILES IDX 3 25 4 26 93 27 5 28 92 29 2 30 1 31 94 32 95 33 96 34 17 35
REMARK SMILES IDX 18 36 19 37 20 39 21 40 22 41 80 42 23 43 79 44 24 45 25 46
REMARK SMILES IDX 26 47 73 48 27 49 78 50 72 51 74 52 28 53 77 54 71 55 70 56
REMARK SMILES IDX 29 58 59 59 40 60 58 61 41 62 44 63 57 64 75 65 42 66 43 67
REMARK SMILES IDX 56 69 76 70 45 71 30 72 31 73 39 74 32 75 38 76 33 77 34 78
REMARK SMILES IDX 35 79 36 80 37 81 60 82 61 83 69 84 62 85 68 86 63 87 64 88
REMARK SMILES IDX 65 89 66 90 67 91 46 92 47 93 55 94 48 95 54 96 49 97 50 98
REMARK SMILES IDX 51 99 52 100 53 101
REMARK H PARENT 13 7 8 13 18 38 74 57 44 68
REMARK Flexibility Score: inf
ROOT
ATOM      1  C   UNL A   1      33.060  30.295  26.518  1.00  0.00     0.023 C 
ENDROOT
BRANCH   1   2
ATOM      2  C   UNL A   1      32.738  28.870  26.957  1.00  0.00     0.023 C 
BRANCH   2   3
ATOM      3  C   UNL A   1      33.739  27.785  26.583  1.00  0.00     0.116 C 
BRANCH   3   4
ATOM      4  N   UNL A   1      34.140  27.749  25.191  1.00  0.00    -0.352 N 
ATOM      5  C   UNL A   1      33.683  26.940  24.175  1.00  0.00     0.253 C 
ATOM      6  O   UNL A   1      34.058  27.166  23.026  1.00  0.00    -0.269 OA
ATOM      7  H   UNL A   1      34.837  28.395  24.935  1.00  0.00     0.163 HD
BRANCH   5   8
ATOM      8  C   UNL A   1      32.863  25.729  24.445  1.00  0.00     0.063 A 
ATOM      9  C   UNL A   1      35.184  22.691  24.632  1.00  0.00     0.114 C 
ATOM     10  N   UNL A   1      34.714  24.089  24.630  1.00  0.00    -0.377 N 
ATOM     11  C   UNL A   1      34.098  21.881  25.329  1.00  0.00     0.027 C 
ATOM     12  C   UNL A   1      33.343  24.412  24.553  1.00  0.00     0.051 A 
ATOM     13  H   UNL A   1      35.376  24.815  24.684  1.00  0.00     0.161 HD
ATOM     14  C   UNL A   1      32.889  21.967  24.384  1.00  0.00     0.030 C 
ATOM     15  C   UNL A   1      34.133  20.397  25.698  1.00  0.00    -0.005 C 
ATOM     16  C   UNL A   1      32.365  23.362  24.554  1.00  0.00    -0.020 A 
ATOM     17  C   UNL A   1      32.157  20.637  24.658  1.00  0.00    -0.003 C 
ATOM     18  C   UNL A   1      34.274  19.478  24.479  1.00  0.00     0.004 C 
ATOM     19  C   UNL A   1      32.640  20.227  26.051  1.00  0.00     0.008 C 
ATOM     20  C   UNL A   1      31.480  25.983  24.563  1.00  0.00     0.016 A 
ATOM     21  C   UNL A   1      30.997  23.629  24.632  1.00  0.00     0.006 A 
ATOM     22  C   UNL A   1      32.887  19.562  23.812  1.00  0.00     0.004 C 
ATOM     23  C   UNL A   1      30.557  24.944  24.681  1.00  0.00     0.001 A 
BRANCH   9  24
ATOM     24  C   UNL A   1      36.544  22.522  25.275  1.00  0.00    -0.018 A 
ATOM     25  C   UNL A   1      39.202  22.397  26.237  1.00  0.00     0.196 A 
ATOM     26  C   UNL A   1      38.632  21.310  25.564  1.00  0.00     0.054 A 
ATOM     27  C   UNL A   1      38.441  23.550  26.432  1.00  0.00     0.311 A 
ATOM     28  C   UNL A   1      37.315  21.367  25.094  1.00  0.00     0.010 A 
ATOM     29  C   UNL A   1      37.112  23.605  25.973  1.00  0.00     0.095 A 
BRANCH  25  30
ATOM     30  O   UNL A   1      40.524  22.274  26.563  1.00  0.00    -0.490 OA
ATOM     31  C   UNL A   1      41.026  20.971  26.257  1.00  0.00     0.278 C 
ENDBRANCH  25  30
BRANCH  27  32
ATOM     32  N   UNL A   1      39.003  24.758  27.037  1.00  0.00     0.066 N 
ATOM     33  O   UNL A   1      39.635  25.521  26.291  1.00  0.00    -0.258 OA
ATOM     34  O   UNL A   1      38.871  24.926  28.257  1.00  0.00    -0.258 OA
ENDBRANCH  27  32
ENDBRANCH   9  24
ENDBRANCH   5   8
ENDBRANCH   3   4
ENDBRANCH   2   3
ENDBRANCH   1   2
BRANCH   1  35
ATOM     35  C   UNL A   1      33.782  31.182  27.523  1.00  0.00     0.116 C 
BRANCH  35  36
ATOM     36  N   UNL A   1      33.193  32.501  27.692  1.00  0.00    -0.352 N 
ATOM     37  C   UNL A   1      33.586  33.546  28.495  1.00  0.00     0.251 C 
ATOM     38  H   UNL A   1      32.389  32.672  27.149  1.00  0.00     0.163 HD
ATOM     39  O   UNL A   1      32.924  34.581  28.517  1.00  0.00    -0.269 OA
BRANCH  37  40
ATOM     40  C   UNL A   1      34.773  33.407  29.364  1.00  0.00     0.039 A 
ATOM     41  C   UNL A   1      34.713  32.532  30.452  1.00  0.00     0.014 A 
ATOM     42  C   UNL A   1      35.956  34.094  29.084  1.00  0.00     0.014 A 
ATOM     43  C   UNL A   1      35.865  32.278  31.199  1.00  0.00     0.010 A 
ATOM     44  C   UNL A   1      37.123  33.766  29.767  1.00  0.00     0.010 A 
ATOM     45  C   UNL A   1      37.094  32.852  30.831  1.00  0.00    -0.014 A 
BRANCH  45  46
ATOM     46  C   UNL A   1      38.352  32.498  31.538  1.00  0.00     0.031 A 
ATOM     47  C   UNL A   1      39.328  31.532  30.919  1.00  0.00     0.074 A 
ATOM     48  C   UNL A   1      38.591  32.997  32.769  1.00  0.00     0.049 A 
ATOM     49  N   UNL A   1      40.458  31.081  31.398  1.00  0.00    -0.248 NA
ATOM     50  C   UNL A   1      38.974  30.978  29.601  1.00  0.00     0.031 C 
ATOM     51  C   UNL A   1      37.698  33.893  33.510  1.00  0.00     0.029 A 
ATOM     52  N   UNL A   1      39.655  32.821  33.618  1.00  0.00    -0.354 N 
ATOM     53  C   UNL A   1      40.939  30.180  30.454  1.00  0.00     0.074 A 
ATOM     54  C   UNL A   1      39.950  30.105  29.401  1.00  0.00     0.031 C 
ATOM     55  C   UNL A   1      38.270  34.218  34.680  1.00  0.00     0.029 A 
ATOM     56  C   UNL A   1      39.549  33.528  34.794  1.00  0.00     0.049 A 
ATOM     57  H   UNL A   1      40.423  32.244  33.404  1.00  0.00     0.167 HD
ATOM     58  C   UNL A   1      42.108  29.497  30.447  1.00  0.00     0.031 A 
ATOM     59  C   UNL A   1      40.389  33.614  35.844  1.00  0.00     0.031 A 
ATOM     60  C   UNL A   1      43.100  29.586  31.486  1.00  0.00     0.049 A 
ATOM     61  C   UNL A   1      41.691  32.863  35.804  1.00  0.00     0.074 A 
ATOM     62  C   UNL A   1      44.342  28.979  31.544  1.00  0.00     0.029 A 
ATOM     63  N   UNL A   1      42.965  30.333  32.646  1.00  0.00    -0.354 N 
ATOM     64  N   UNL A   1      42.157  32.070  34.868  1.00  0.00    -0.248 NA
ATOM     65  C   UNL A   1      42.589  33.033  36.954  1.00  0.00     0.031 C 
ATOM     66  C   UNL A   1      44.940  29.323  32.761  1.00  0.00     0.029 A 
ATOM     67  C   UNL A   1      44.095  30.191  33.433  1.00  0.00     0.049 A 
ATOM     68  H   UNL A   1      42.182  30.884  32.875  1.00  0.00     0.167 HD
ATOM     69  C   UNL A   1      43.417  31.673  35.302  1.00  0.00     0.074 A 
ATOM     70  C   UNL A   1      43.645  32.325  36.576  1.00  0.00     0.031 C 
ATOM     71  C   UNL A   1      44.307  30.847  34.699  1.00  0.00     0.031 A 
BRANCH  58  72
ATOM     72  C   UNL A   1      42.379  28.595  29.270  1.00  0.00    -0.014 A 
ATOM     73  C   UNL A   1      42.941  29.100  28.084  1.00  0.00     0.010 A 
ATOM     74  C   UNL A   1      42.102  27.219  29.362  1.00  0.00     0.010 A 
ATOM     75  C   UNL A   1      43.179  28.256  26.997  1.00  0.00     0.020 A 
ATOM     76  C   UNL A   1      42.368  26.365  28.288  1.00  0.00     0.020 A 
ATOM     77  C   UNL A   1      42.888  26.894  27.105  1.00  0.00     0.054 A 
BRANCH  77  78
ATOM     78  S   UNL A   1      43.232  25.817  25.686  1.00  0.00     0.124 S 
ATOM     79  O   UNL A   1      42.385  26.406  24.651  1.00  0.00    -0.237 OA
ATOM     80  O   UNL A   1      44.669  25.989  25.494  1.00  0.00    -0.237 OA
ATOM     81  O   UNL A   1      42.821  24.493  26.146  1.00  0.00    -0.744 OA
ENDBRANCH  77  78
ENDBRANCH  58  72
BRANCH  59  82
ATOM     82  C   UNL A   1      40.040  34.474  37.010  1.00  0.00    -0.014 A 
ATOM     83  C   UNL A   1      39.280  33.956  38.075  1.00  0.00     0.010 A 
ATOM     84  C   UNL A   1      40.467  35.812  37.065  1.00  0.00     0.010 A 
ATOM     85  C   UNL A   1      38.933  34.768  39.160  1.00  0.00     0.020 A 
ATOM     86  C   UNL A   1      40.147  36.618  38.161  1.00  0.00     0.020 A 
ATOM     87  C   UNL A   1      39.370  36.095  39.196  1.00  0.00     0.054 A 
BRANCH  87  88
ATOM     88  S   UNL A   1      38.948  37.117  40.634  1.00  0.00     0.124 S 
ATOM     89  O   UNL A   1      38.256  38.242  40.013  1.00  0.00    -0.237 OA
ATOM     90  O   UNL A   1      38.113  36.219  41.427  1.00  0.00    -0.237 OA
ATOM     91  O   UNL A   1      40.249  37.429  41.224  1.00  0.00    -0.744 OA
ENDBRANCH  87  88
ENDBRANCH  59  82
BRANCH  71  92
ATOM     92  C   UNL A   1      45.630  30.636  35.387  1.00  0.00    -0.014 A 
ATOM     93  C   UNL A   1      45.836  29.558  36.265  1.00  0.00     0.010 A 
ATOM     94  C   UNL A   1      46.693  31.520  35.125  1.00  0.00     0.010 A 
ATOM     95  C   UNL A   1      47.069  29.393  36.903  1.00  0.00     0.020 A 
ATOM     96  C   UNL A   1      47.935  31.342  35.738  1.00  0.00     0.020 A 
ATOM     97  C   UNL A   1      48.109  30.290  36.639  1.00  0.00     0.054 A 
BRANCH  97  98
ATOM     98  S   UNL A   1      49.706  30.047  37.465  1.00  0.00     0.124 S 
ATOM     99  O   UNL A   1      49.349  30.222  38.870  1.00  0.00    -0.237 OA
ATOM    100  O   UNL A   1      50.066  28.686  37.073  1.00  0.00    -0.237 OA
ATOM    101  O   UNL A   1      50.551  31.096  36.899  1.00  0.00    -0.744 OA
ENDBRANCH  97  98
ENDBRANCH  71  92
ENDBRANCH  45  46
ENDBRANCH  37  40
ENDBRANCH  35  36
ENDBRANCH   1  35
TORSDOF 17
ENDMDL
