MODEL 1
REMARK VINA RESULT:     -12.0      0.000      0.000
REMARK SMILES C[C@H]1CCC[C@H](C)N1C(=O)[C@H]1[C@@H](C(=O)NCCCCNC(=O)c2ccc(-c3c4nc(c(-c5ccc(S(=O)(=O)[O-])cc5)c5ccc([nH]5)c(-c5ccc(S(=O)(=O)[O-])cc5)c5nc(c(-c6ccc(S(=O)(=O)[O-])cc6)c6ccc3[nH]6)C=C5)C=C4)cc2)[C@H]2CC[C@@H]1O2
REMARK SMILES IDX 18 1 17 2 16 3 15 4 13 5 14 6 12 8 11 9 86 10 83 11 85 12
REMARK SMILES IDX 87 13 84 14 9 15 1 16 2 17 3 18 8 19 4 20 6 21 5 22 7 23
REMARK SMILES IDX 10 24 19 25 20 26 21 27 22 29 23 30 24 31 82 32 25 33 81 34
REMARK SMILES IDX 26 35 27 36 28 37 75 38 29 39 80 40 74 41 76 42 30 43 79 44
REMARK SMILES IDX 73 45 72 46 31 48 61 49 42 50 60 51 43 52 46 53 59 54 77 55
REMARK SMILES IDX 44 56 45 57 58 59 78 60 47 61 32 62 33 63 41 64 34 65 40 66
REMARK SMILES IDX 35 67 36 68 37 69 38 70 39 71 62 72 63 73 71 74 64 75 70 76
REMARK SMILES IDX 65 77 66 78 67 79 68 80 69 81 48 82 49 83 57 84 50 85 56 86
REMARK SMILES IDX 51 87 52 88 53 89 54 90 55 91
REMARK H PARENT 15 7 20 28 76 47 46 58
REMARK Flexibility Score: inf
ROOT
ATOM      1  C   UNL A   1      33.880  29.612  27.160  1.00  0.00     0.023 C 
ENDROOT
BRANCH   1   2
ATOM      2  C   UNL A   1      32.881  28.541  27.601  1.00  0.00     0.023 C 
BRANCH   2   3
ATOM      3  C   UNL A   1      31.690  28.355  26.667  1.00  0.00     0.116 C 
BRANCH   3   4
ATOM      4  N   UNL A   1      31.118  27.030  26.776  1.00  0.00    -0.356 N 
ATOM      5  C   UNL A   1      30.894  26.029  25.904  1.00  0.00     0.226 C 
ATOM      6  O   UNL A   1      30.521  24.964  26.414  1.00  0.00    -0.275 OA
ATOM      7  H   UNL A   1      30.828  26.813  27.692  1.00  0.00     0.163 HD
BRANCH   5   8
ATOM      8  C   UNL A   1      31.062  26.084  24.400  1.00  0.00     0.122 C 
ATOM      9  C   UNL A   1      32.383  25.709  23.716  1.00  0.00     0.122 C 
ATOM     10  C   UNL A   1      32.472  26.816  22.642  1.00  0.00     0.132 C 
ATOM     11  C   UNL A   1      30.579  27.306  23.616  1.00  0.00     0.132 C 
ATOM     12  C   UNL A   1      32.702  28.246  23.129  1.00  0.00     0.035 C 
ATOM     13  O   UNL A   1      31.055  26.927  22.283  1.00  0.00    -0.373 OA
ATOM     14  C   UNL A   1      31.362  28.597  23.771  1.00  0.00     0.035 C 
BRANCH   9  15
ATOM     15  C   UNL A   1      33.609  25.474  24.582  1.00  0.00     0.229 C 
ATOM     16  C   UNL A   1      33.520  23.213  22.335  1.00  0.00     0.031 C 
ATOM     17  C   UNL A   1      34.307  23.120  23.639  1.00  0.00     0.082 C 
ATOM     18  C   UNL A   1      35.784  22.881  23.224  1.00  0.00     0.025 C 
ATOM     19  N   UNL A   1      34.231  24.222  24.650  1.00  0.00    -0.337 N 
ATOM     20  C   UNL A   1      36.743  22.720  24.397  1.00  0.00     0.004 C 
ATOM     21  C   UNL A   1      35.116  24.005  25.830  1.00  0.00     0.082 C 
ATOM     22  C   UNL A   1      36.575  23.864  25.386  1.00  0.00     0.025 C 
ATOM     23  C   UNL A   1      34.677  22.807  26.686  1.00  0.00     0.031 C 
ATOM     24  O   UNL A   1      34.021  26.417  25.268  1.00  0.00    -0.274 OA
ENDBRANCH   9  15
ENDBRANCH   5   8
ENDBRANCH   3   4
ENDBRANCH   2   3
ENDBRANCH   1   2
BRANCH   1  25
ATOM     25  C   UNL A   1      35.240  29.559  27.845  1.00  0.00     0.116 C 
BRANCH  25  26
ATOM     26  N   UNL A   1      35.349  30.472  28.972  1.00  0.00    -0.352 N 
ATOM     27  C   UNL A   1      36.446  30.708  29.771  1.00  0.00     0.251 C 
ATOM     28  H   UNL A   1      34.538  30.987  29.189  1.00  0.00     0.163 HD
ATOM     29  O   UNL A   1      36.365  31.426  30.755  1.00  0.00    -0.269 OA
BRANCH  27  30
ATOM     30  C   UNL A   1      37.715  30.039  29.425  1.00  0.00     0.039 A 
ATOM     31  C   UNL A   1      38.124  30.007  28.091  1.00  0.00     0.014 A 
ATOM     32  C   UNL A   1      38.534  29.532  30.438  1.00  0.00     0.014 A 
ATOM     33  C   UNL A   1      39.399  29.529  27.776  1.00  0.00     0.010 A 
ATOM     34  C   UNL A   1      39.826  29.121  30.128  1.00  0.00     0.010 A 
ATOM     35  C   UNL A   1      40.273  29.120  28.796  1.00  0.00    -0.014 A 
BRANCH  35  36
ATOM     36  C   UNL A   1      41.659  28.673  28.507  1.00  0.00     0.031 A 
ATOM     37  C   UNL A   1      42.766  29.692  28.460  1.00  0.00     0.074 A 
ATOM     38  C   UNL A   1      41.906  27.386  28.193  1.00  0.00     0.049 A 
ATOM     39  N   UNL A   1      44.006  29.544  28.073  1.00  0.00    -0.248 NA
ATOM     40  C   UNL A   1      42.424  31.064  28.874  1.00  0.00     0.031 C 
ATOM     41  C   UNL A   1      40.915  26.306  28.175  1.00  0.00     0.029 A 
ATOM     42  N   UNL A   1      43.071  26.768  27.807  1.00  0.00    -0.354 N 
ATOM     43  C   UNL A   1      44.579  30.808  28.159  1.00  0.00     0.074 A 
ATOM     44  C   UNL A   1      43.546  31.715  28.605  1.00  0.00     0.031 C 
ATOM     45  C   UNL A   1      41.515  25.161  27.809  1.00  0.00     0.029 A 
ATOM     46  C   UNL A   1      42.921  25.429  27.522  1.00  0.00     0.049 A 
ATOM     47  H   UNL A   1      43.932  27.239  27.740  1.00  0.00     0.167 HD
ATOM     48  C   UNL A   1      45.855  31.176  27.898  1.00  0.00     0.031 A 
ATOM     49  C   UNL A   1      43.811  24.527  27.063  1.00  0.00     0.031 A 
ATOM     50  C   UNL A   1      46.889  30.262  27.498  1.00  0.00     0.049 A 
ATOM     51  C   UNL A   1      45.228  24.963  26.794  1.00  0.00     0.074 A 
ATOM     52  C   UNL A   1      48.230  30.528  27.280  1.00  0.00     0.029 A 
ATOM     53  N   UNL A   1      46.705  28.909  27.267  1.00  0.00    -0.354 N 
ATOM     54  N   UNL A   1      45.764  26.151  26.935  1.00  0.00    -0.248 NA
ATOM     55  C   UNL A   1      46.163  23.935  26.311  1.00  0.00     0.031 C 
ATOM     56  C   UNL A   1      48.849  29.343  26.877  1.00  0.00     0.029 A 
ATOM     57  C   UNL A   1      47.905  28.329  26.895  1.00  0.00     0.049 A 
ATOM     58  H   UNL A   1      45.849  28.432  27.353  1.00  0.00     0.167 HD
ATOM     59  C   UNL A   1      47.105  26.002  26.601  1.00  0.00     0.074 A 
ATOM     60  C   UNL A   1      47.301  24.612  26.251  1.00  0.00     0.031 C 
ATOM     61  C   UNL A   1      48.089  26.934  26.588  1.00  0.00     0.031 A 
BRANCH  48  62
ATOM     62  C   UNL A   1      46.212  32.630  28.038  1.00  0.00    -0.014 A 
ATOM     63  C   UNL A   1      46.699  33.144  29.253  1.00  0.00     0.010 A 
ATOM     64  C   UNL A   1      46.130  33.475  26.916  1.00  0.00     0.010 A 
ATOM     65  C   UNL A   1      47.076  34.486  29.348  1.00  0.00     0.020 A 
ATOM     66  C   UNL A   1      46.531  34.810  27.002  1.00  0.00     0.020 A 
ATOM     67  C   UNL A   1      46.992  35.310  28.222  1.00  0.00     0.054 A 
BRANCH  67  68
ATOM     68  S   UNL A   1      47.541  37.033  28.363  1.00  0.00     0.124 S 
ATOM     69  O   UNL A   1      46.436  37.752  27.736  1.00  0.00    -0.237 OA
ATOM     70  O   UNL A   1      47.670  37.212  29.806  1.00  0.00    -0.237 OA
ATOM     71  O   UNL A   1      48.799  37.057  27.620  1.00  0.00    -0.744 OA
ENDBRANCH  67  68
ENDBRANCH  48  62
BRANCH  49  72
ATOM     72  C   UNL A   1      43.402  23.114  26.825  1.00  0.00    -0.014 A 
ATOM     73  C   UNL A   1      43.010  22.295  27.899  1.00  0.00     0.010 A 
ATOM     74  C   UNL A   1      43.437  22.569  25.529  1.00  0.00     0.010 A 
ATOM     75  C   UNL A   1      42.701  20.948  27.689  1.00  0.00     0.020 A 
ATOM     76  C   UNL A   1      43.100  21.230  25.310  1.00  0.00     0.020 A 
ATOM     77  C   UNL A   1      42.754  20.422  26.396  1.00  0.00     0.054 A 
BRANCH  77  78
ATOM     78  S   UNL A   1      42.342  18.673  26.143  1.00  0.00     0.124 S 
ATOM     79  O   UNL A   1      40.946  18.749  25.723  1.00  0.00    -0.237 OA
ATOM     80  O   UNL A   1      43.295  18.268  25.112  1.00  0.00    -0.237 OA
ATOM     81  O   UNL A   1      42.570  18.077  27.458  1.00  0.00    -0.744 OA
ENDBRANCH  77  78
ENDBRANCH  49  72
BRANCH  61  82
ATOM     82  C   UNL A   1      49.485  26.483  26.261  1.00  0.00    -0.014 A 
ATOM     83  C   UNL A   1      50.011  26.615  24.964  1.00  0.00     0.010 A 
ATOM     84  C   UNL A   1      50.313  26.014  27.297  1.00  0.00     0.010 A 
ATOM     85  C   UNL A   1      51.344  26.276  24.709  1.00  0.00     0.020 A 
ATOM     86  C   UNL A   1      51.651  25.698  27.051  1.00  0.00     0.020 A 
ATOM     87  C   UNL A   1      52.155  25.825  25.756  1.00  0.00     0.054 A 
BRANCH  87  88
ATOM     88  S   UNL A   1      53.903  25.473  25.417  1.00  0.00     0.124 S 
ATOM     89  O   UNL A   1      54.569  26.143  26.531  1.00  0.00    -0.237 OA
ATOM     90  O   UNL A   1      53.947  24.013  25.445  1.00  0.00    -0.237 OA
ATOM     91  O   UNL A   1      54.129  26.073  24.104  1.00  0.00    -0.744 OA
ENDBRANCH  87  88
ENDBRANCH  61  82
ENDBRANCH  35  36
ENDBRANCH  27  30
ENDBRANCH  25  26
ENDBRANCH   1  25
TORSDOF 15
ENDMDL
MODEL 2
REMARK VINA RESULT:     -12.0      2.755      3.339
REMARK SMILES C[C@H]1CCC[C@H](C)N1C(=O)[C@H]1[C@@H](C(=O)NCCCCNC(=O)c2ccc(-c3c4nc(c(-c5ccc(S(=O)(=O)[O-])cc5)c5ccc([nH]5)c(-c5ccc(S(=O)(=O)[O-])cc5)c5nc(c(-c6ccc(S(=O)(=O)[O-])cc6)c6ccc3[nH]6)C=C5)C=C4)cc2)[C@H]2CC[C@@H]1O2
REMARK SMILES IDX 18 1 17 2 16 3 15 4 13 5 14 6 12 8 11 9 86 10 83 11 85 12
REMARK SMILES IDX 87 13 84 14 9 15 1 16 2 17 3 18 8 19 4 20 6 21 5 22 7 23
REMARK SMILES IDX 10 24 19 25 20 26 21 27 22 29 23 30 24 31 82 32 25 33 81 34
REMARK SMILES IDX 26 35 27 36 28 37 75 38 29 39 80 40 74 41 76 42 30 43 79 44
REMARK SMILES IDX 73 45 72 46 31 48 61 49 42 50 60 51 43 52 46 53 59 54 77 55
REMARK SMILES IDX 44 56 45 57 58 59 78 60 47 61 32 62 33 63 41 64 34 65 40 66
REMARK SMILES IDX 35 67 36 68 37 69 38 70 39 71 62 72 63 73 71 74 64 75 70 76
REMARK SMILES IDX 65 77 66 78 67 79 68 80 69 81 48 82 49 83 57 84 50 85 56 86
REMARK SMILES IDX 51 87 52 88 53 89 54 90 55 91
REMARK H PARENT 15 7 20 28 76 47 46 58
REMARK Flexibility Score: inf
ROOT
ATOM      1  C   UNL A   1      33.618  27.884  26.799  1.00  0.00     0.023 C 
ENDROOT
BRANCH   1   2
ATOM      2  C   UNL A   1      32.110  27.813  27.044  1.00  0.00     0.023 C 
BRANCH   2   3
ATOM      3  C   UNL A   1      31.268  27.599  25.790  1.00  0.00     0.116 C 
BRANCH   3   4
ATOM      4  N   UNL A   1      30.717  26.262  25.730  1.00  0.00    -0.356 N 
ATOM      5  C   UNL A   1      30.736  25.280  24.810  1.00  0.00     0.226 C 
ATOM      6  O   UNL A   1      30.274  24.196  25.192  1.00  0.00    -0.275 OA
ATOM      7  H   UNL A   1      30.218  26.017  26.542  1.00  0.00     0.163 HD
BRANCH   5   8
ATOM      8  C   UNL A   1      31.264  25.375  23.393  1.00  0.00     0.122 C 
ATOM      9  C   UNL A   1      32.699  24.969  23.034  1.00  0.00     0.122 C 
ATOM     10  C   UNL A   1      33.080  26.105  22.058  1.00  0.00     0.132 C 
ATOM     11  C   UNL A   1      31.023  26.640  22.566  1.00  0.00     0.132 C 
ATOM     12  C   UNL A   1      33.230  27.508  22.643  1.00  0.00     0.035 C 
ATOM     13  O   UNL A   1      31.795  26.284  21.373  1.00  0.00    -0.373 OA
ATOM     14  C   UNL A   1      31.786  27.893  22.957  1.00  0.00     0.035 C 
BRANCH   9  15
ATOM     15  C   UNL A   1      33.671  24.658  24.158  1.00  0.00     0.229 C 
ATOM     16  C   UNL A   1      32.531  21.903  23.027  1.00  0.00     0.031 C 
ATOM     17  C   UNL A   1      33.182  22.084  24.395  1.00  0.00     0.082 C 
ATOM     18  C   UNL A   1      34.374  21.090  24.430  1.00  0.00     0.025 C 
ATOM     19  N   UNL A   1      33.633  23.439  24.846  1.00  0.00    -0.337 N 
ATOM     20  C   UNL A   1      35.145  21.086  25.744  1.00  0.00     0.004 C 
ATOM     21  C   UNL A   1      34.311  23.426  26.173  1.00  0.00     0.082 C 
ATOM     22  C   UNL A   1      35.534  22.503  26.140  1.00  0.00     0.025 C 
ATOM     23  C   UNL A   1      33.361  23.048  27.320  1.00  0.00     0.031 C 
ATOM     24  O   UNL A   1      34.477  25.536  24.484  1.00  0.00    -0.274 OA
ENDBRANCH   9  15
ENDBRANCH   5   8
ENDBRANCH   3   4
ENDBRANCH   2   3
ENDBRANCH   1   2
BRANCH   1  25
ATOM     25  C   UNL A   1      34.119  29.182  26.178  1.00  0.00     0.116 C 
BRANCH  25  26
ATOM     26  N   UNL A   1      33.891  30.345  27.022  1.00  0.00    -0.352 N 
ATOM     27  C   UNL A   1      34.689  30.826  28.036  1.00  0.00     0.251 C 
ATOM     28  H   UNL A   1      33.065  30.850  26.846  1.00  0.00     0.163 HD
ATOM     29  O   UNL A   1      34.321  31.756  28.739  1.00  0.00    -0.269 OA
BRANCH  27  30
ATOM     30  C   UNL A   1      35.987  30.166  28.275  1.00  0.00     0.039 A 
ATOM     31  C   UNL A   1      36.944  30.164  27.258  1.00  0.00     0.014 A 
ATOM     32  C   UNL A   1      36.279  29.638  29.535  1.00  0.00     0.014 A 
ATOM     33  C   UNL A   1      38.232  29.694  27.530  1.00  0.00     0.010 A 
ATOM     34  C   UNL A   1      37.579  29.235  29.820  1.00  0.00     0.010 A 
ATOM     35  C   UNL A   1      38.569  29.263  28.823  1.00  0.00    -0.014 A 
BRANCH  35  36
ATOM     36  C   UNL A   1      39.944  28.823  29.168  1.00  0.00     0.031 A 
ATOM     37  C   UNL A   1      40.895  29.806  29.797  1.00  0.00     0.074 A 
ATOM     38  C   UNL A   1      40.367  27.588  28.832  1.00  0.00     0.049 A 
ATOM     39  N   UNL A   1      42.175  29.681  30.029  1.00  0.00    -0.248 NA
ATOM     40  C   UNL A   1      40.338  31.113  30.186  1.00  0.00     0.031 C 
ATOM     41  C   UNL A   1      39.552  26.551  28.194  1.00  0.00     0.029 A 
ATOM     42  N   UNL A   1      41.602  27.000  28.963  1.00  0.00    -0.354 N 
ATOM     43  C   UNL A   1      42.583  30.902  30.554  1.00  0.00     0.074 A 
ATOM     44  C   UNL A   1      41.423  31.765  30.578  1.00  0.00     0.031 C 
ATOM     45  C   UNL A   1      40.304  25.454  28.000  1.00  0.00     0.029 A 
ATOM     46  C   UNL A   1      41.665  25.722  28.457  1.00  0.00     0.049 A 
ATOM     47  H   UNL A   1      42.370  27.451  29.380  1.00  0.00     0.167 HD
ATOM     48  C   UNL A   1      43.812  31.268  30.986  1.00  0.00     0.031 A 
ATOM     49  C   UNL A   1      42.704  24.870  28.354  1.00  0.00     0.031 A 
ATOM     50  C   UNL A   1      44.952  30.393  31.001  1.00  0.00     0.049 A 
ATOM     51  C   UNL A   1      44.058  25.300  28.855  1.00  0.00     0.074 A 
ATOM     52  C   UNL A   1      46.223  30.650  31.486  1.00  0.00     0.029 A 
ATOM     53  N   UNL A   1      44.959  29.093  30.523  1.00  0.00    -0.354 N 
ATOM     54  N   UNL A   1      44.410  26.440  29.399  1.00  0.00    -0.248 NA
ATOM     55  C   UNL A   1      45.155  24.327  28.736  1.00  0.00     0.031 C 
ATOM     56  C   UNL A   1      47.010  29.518  31.263  1.00  0.00     0.029 A 
ATOM     57  C   UNL A   1      46.216  28.539  30.689  1.00  0.00     0.049 A 
ATOM     58  H   UNL A   1      44.186  28.633  30.124  1.00  0.00     0.167 HD
ATOM     59  C   UNL A   1      45.755  26.303  29.726  1.00  0.00     0.074 A 
ATOM     60  C   UNL A   1      46.155  24.973  29.320  1.00  0.00     0.031 C 
ATOM     61  C   UNL A   1      46.585  27.199  30.313  1.00  0.00     0.031 A 
BRANCH  48  62
ATOM     62  C   UNL A   1      43.995  32.676  31.481  1.00  0.00    -0.014 A 
ATOM     63  C   UNL A   1      43.851  32.990  32.844  1.00  0.00     0.010 A 
ATOM     64  C   UNL A   1      44.392  33.681  30.581  1.00  0.00     0.010 A 
ATOM     65  C   UNL A   1      44.078  34.293  33.293  1.00  0.00     0.020 A 
ATOM     66  C   UNL A   1      44.645  34.979  31.032  1.00  0.00     0.020 A 
ATOM     67  C   UNL A   1      44.476  35.279  32.385  1.00  0.00     0.054 A 
BRANCH  67  68
ATOM     68  S   UNL A   1      44.817  36.948  33.008  1.00  0.00     0.124 S 
ATOM     69  O   UNL A   1      45.809  37.428  32.051  1.00  0.00    -0.237 OA
ATOM     70  O   UNL A   1      43.509  37.592  32.934  1.00  0.00    -0.237 OA
ATOM     71  O   UNL A   1      45.319  36.717  34.361  1.00  0.00    -0.744 OA
ENDBRANCH  67  68
ENDBRANCH  48  62
BRANCH  49  72
ATOM     72  C   UNL A   1      42.519  23.519  27.754  1.00  0.00    -0.014 A 
ATOM     73  C   UNL A   1      42.218  22.413  28.569  1.00  0.00     0.010 A 
ATOM     74  C   UNL A   1      42.681  23.324  26.371  1.00  0.00     0.010 A 
ATOM     75  C   UNL A   1      42.121  21.131  28.018  1.00  0.00     0.020 A 
ATOM     76  C   UNL A   1      42.556  22.048  25.812  1.00  0.00     0.020 A 
ATOM     77  C   UNL A   1      42.297  20.956  26.644  1.00  0.00     0.054 A 
BRANCH  77  78
ATOM     78  S   UNL A   1      42.161  19.286  25.948  1.00  0.00     0.124 S 
ATOM     79  O   UNL A   1      42.638  18.459  27.052  1.00  0.00    -0.237 OA
ATOM     80  O   UNL A   1      40.735  19.182  25.647  1.00  0.00    -0.237 OA
ATOM     81  O   UNL A   1      43.034  19.334  24.777  1.00  0.00    -0.744 OA
ENDBRANCH  77  78
ENDBRANCH  49  72
BRANCH  61  82
ATOM     82  C   UNL A   1      47.988  26.760  30.629  1.00  0.00    -0.014 A 
ATOM     83  C   UNL A   1      49.055  27.042  29.760  1.00  0.00     0.010 A 
ATOM     84  C   UNL A   1      48.250  26.146  31.867  1.00  0.00     0.010 A 
ATOM     85  C   UNL A   1      50.364  26.708  30.122  1.00  0.00     0.020 A 
ATOM     86  C   UNL A   1      49.558  25.832  32.243  1.00  0.00     0.020 A 
ATOM     87  C   UNL A   1      50.606  26.110  31.364  1.00  0.00     0.054 A 
BRANCH  87  88
ATOM     88  S   UNL A   1      52.320  25.763  31.847  1.00  0.00     0.124 S 
ATOM     89  O   UNL A   1      53.049  26.064  30.618  1.00  0.00    -0.237 OA
ATOM     90  O   UNL A   1      52.537  26.695  32.951  1.00  0.00    -0.237 OA
ATOM     91  O   UNL A   1      52.295  24.352  32.227  1.00  0.00    -0.744 OA
ENDBRANCH  87  88
ENDBRANCH  61  82
ENDBRANCH  35  36
ENDBRANCH  27  30
ENDBRANCH  25  26
ENDBRANCH   1  25
TORSDOF 15
ENDMDL
MODEL 3
REMARK VINA RESULT:     -11.8      2.179      8.305
REMARK SMILES C[C@H]1CCC[C@H](C)N1C(=O)[C@H]1[C@@H](C(=O)NCCCCNC(=O)c2ccc(-c3c4nc(c(-c5ccc(S(=O)(=O)[O-])cc5)c5ccc([nH]5)c(-c5ccc(S(=O)(=O)[O-])cc5)c5nc(c(-c6ccc(S(=O)(=O)[O-])cc6)c6ccc3[nH]6)C=C5)C=C4)cc2)[C@H]2CC[C@@H]1O2
REMARK SMILES IDX 18 1 17 2 16 3 15 4 13 5 14 6 12 8 11 9 86 10 83 11 85 12
REMARK SMILES IDX 87 13 84 14 9 15 1 16 2 17 3 18 8 19 4 20 6 21 5 22 7 23
REMARK SMILES IDX 10 24 19 25 20 26 21 27 22 29 23 30 24 31 82 32 25 33 81 34
REMARK SMILES IDX 26 35 27 36 28 37 75 38 29 39 80 40 74 41 76 42 30 43 79 44
REMARK SMILES IDX 73 45 72 46 31 48 61 49 42 50 60 51 43 52 46 53 59 54 77 55
REMARK SMILES IDX 44 56 45 57 58 59 78 60 47 61 32 62 33 63 41 64 34 65 40 66
REMARK SMILES IDX 35 67 36 68 37 69 38 70 39 71 62 72 63 73 71 74 64 75 70 76
REMARK SMILES IDX 65 77 66 78 67 79 68 80 69 81 48 82 49 83 57 84 50 85 56 86
REMARK SMILES IDX 51 87 52 88 53 89 54 90 55 91
REMARK H PARENT 15 7 20 28 76 47 46 58
REMARK Flexibility Score: inf
ROOT
ATOM      1  C   UNL A   1      37.806  21.367  25.259  1.00  0.00     0.023 C 
ENDROOT
BRANCH   1   2
ATOM      2  C   UNL A   1      37.392  22.710  24.656  1.00  0.00     0.023 C 
BRANCH   2   3
ATOM      3  C   UNL A   1      35.926  23.076  24.859  1.00  0.00     0.116 C 
BRANCH   3   4
ATOM      4  N   UNL A   1      35.266  23.382  23.607  1.00  0.00    -0.356 N 
ATOM      5  C   UNL A   1      34.058  23.095  23.087  1.00  0.00     0.226 C 
ATOM      6  O   UNL A   1      33.792  23.678  22.028  1.00  0.00    -0.275 OA
ATOM      7  H   UNL A   1      35.826  23.921  23.001  1.00  0.00     0.163 HD
BRANCH   5   8
ATOM      8  C   UNL A   1      33.021  22.158  23.671  1.00  0.00     0.122 C 
ATOM      9  C   UNL A   1      32.181  22.538  24.896  1.00  0.00     0.122 C 
ATOM     10  C   UNL A   1      32.194  21.203  25.676  1.00  0.00     0.132 C 
ATOM     11  C   UNL A   1      33.361  20.684  23.903  1.00  0.00     0.132 C 
ATOM     12  C   UNL A   1      33.529  20.753  26.268  1.00  0.00     0.035 C 
ATOM     13  O   UNL A   1      32.118  20.261  24.554  1.00  0.00    -0.373 OA
ATOM     14  C   UNL A   1      34.324  20.351  25.028  1.00  0.00     0.035 C 
BRANCH   9  15
ATOM     15  C   UNL A   1      32.542  23.799  25.663  1.00  0.00     0.229 C 
ATOM     16  C   UNL A   1      30.364  24.553  23.459  1.00  0.00     0.031 C 
ATOM     17  C   UNL A   1      31.296  25.548  24.144  1.00  0.00     0.082 C 
ATOM     18  C   UNL A   1      30.373  26.603  24.809  1.00  0.00     0.025 C 
ATOM     19  N   UNL A   1      32.321  25.073  25.126  1.00  0.00    -0.337 N 
ATOM     20  C   UNL A   1      31.118  27.722  25.525  1.00  0.00     0.004 C 
ATOM     21  C   UNL A   1      33.098  26.179  25.753  1.00  0.00     0.082 C 
ATOM     22  C   UNL A   1      32.158  27.149  26.477  1.00  0.00     0.025 C 
ATOM     23  C   UNL A   1      33.993  26.919  24.747  1.00  0.00     0.031 C 
ATOM     24  O   UNL A   1      33.082  23.668  26.767  1.00  0.00    -0.274 OA
ENDBRANCH   9  15
ENDBRANCH   5   8
ENDBRANCH   3   4
ENDBRANCH   2   3
ENDBRANCH   1   2
BRANCH   1  25
ATOM     25  C   UNL A   1      39.081  21.390  26.093  1.00  0.00     0.116 C 
BRANCH  25  26
ATOM     26  N   UNL A   1      39.815  20.135  26.051  1.00  0.00    -0.352 N 
ATOM     27  C   UNL A   1      41.175  19.943  26.155  1.00  0.00     0.251 C 
ATOM     28  H   UNL A   1      39.273  19.322  25.933  1.00  0.00     0.163 HD
ATOM     29  O   UNL A   1      41.669  18.838  25.994  1.00  0.00    -0.269 OA
BRANCH  27  30
ATOM     30  C   UNL A   1      42.025  21.118  26.433  1.00  0.00     0.039 A 
ATOM     31  C   UNL A   1      42.386  21.959  25.379  1.00  0.00     0.014 A 
ATOM     32  C   UNL A   1      42.377  21.427  27.749  1.00  0.00     0.014 A 
ATOM     33  C   UNL A   1      43.043  23.160  25.655  1.00  0.00     0.010 A 
ATOM     34  C   UNL A   1      42.971  22.653  28.025  1.00  0.00     0.010 A 
ATOM     35  C   UNL A   1      43.305  23.535  26.982  1.00  0.00    -0.014 A 
BRANCH  35  36
ATOM     36  C   UNL A   1      43.938  24.834  27.320  1.00  0.00     0.031 A 
ATOM     37  C   UNL A   1      43.078  25.964  27.820  1.00  0.00     0.074 A 
ATOM     38  C   UNL A   1      45.251  25.032  27.086  1.00  0.00     0.049 A 
ATOM     39  N   UNL A   1      43.396  27.216  28.019  1.00  0.00    -0.248 NA
ATOM     40  C   UNL A   1      41.668  25.649  28.104  1.00  0.00     0.031 C 
ATOM     41  C   UNL A   1      46.187  24.026  26.576  1.00  0.00     0.029 A 
ATOM     42  N   UNL A   1      46.025  26.158  27.229  1.00  0.00    -0.354 N 
ATOM     43  C   UNL A   1      42.220  27.844  28.412  1.00  0.00     0.074 A 
ATOM     44  C   UNL A   1      41.176  26.845  28.396  1.00  0.00     0.031 C 
ATOM     45  C   UNL A   1      47.408  24.577  26.460  1.00  0.00     0.029 A 
ATOM     46  C   UNL A   1      47.334  25.984  26.842  1.00  0.00     0.049 A 
ATOM     47  H   UNL A   1      45.675  27.009  27.575  1.00  0.00     0.167 HD
ATOM     48  C   UNL A   1      42.031  29.137  28.765  1.00  0.00     0.031 A 
ATOM     49  C   UNL A   1      48.354  26.863  26.784  1.00  0.00     0.031 A 
ATOM     50  C   UNL A   1      43.080  30.117  28.823  1.00  0.00     0.049 A 
ATOM     51  C   UNL A   1      48.117  28.293  27.196  1.00  0.00     0.074 A 
ATOM     52  C   UNL A   1      43.000  31.435  29.238  1.00  0.00     0.029 A 
ATOM     53  N   UNL A   1      44.400  29.886  28.469  1.00  0.00    -0.354 N 
ATOM     54  N   UNL A   1      47.010  28.854  27.618  1.00  0.00    -0.248 NA
ATOM     55  C   UNL A   1      49.267  29.207  27.130  1.00  0.00     0.031 C 
ATOM     56  C   UNL A   1      44.263  32.013  29.095  1.00  0.00     0.029 A 
ATOM     57  C   UNL A   1      45.140  31.042  28.642  1.00  0.00     0.049 A 
ATOM     58  H   UNL A   1      44.756  29.029  28.141  1.00  0.00     0.167 HD
ATOM     59  C   UNL A   1      47.342  30.173  27.909  1.00  0.00     0.074 A 
ATOM     60  C   UNL A   1      48.751  30.328  27.616  1.00  0.00     0.031 C 
ATOM     61  C   UNL A   1      46.551  31.166  28.382  1.00  0.00     0.031 A 
BRANCH  48  62
ATOM     62  C   UNL A   1      40.636  29.573  29.120  1.00  0.00    -0.014 A 
ATOM     63  C   UNL A   1      39.631  29.657  28.141  1.00  0.00     0.010 A 
ATOM     64  C   UNL A   1      40.311  29.827  30.465  1.00  0.00     0.010 A 
ATOM     65  C   UNL A   1      38.328  30.012  28.499  1.00  0.00     0.020 A 
ATOM     66  C   UNL A   1      39.003  30.156  30.829  1.00  0.00     0.020 A 
ATOM     67  C   UNL A   1      38.021  30.257  29.841  1.00  0.00     0.054 A 
BRANCH  67  68
ATOM     68  S   UNL A   1      36.309  30.660  30.282  1.00  0.00     0.124 S 
ATOM     69  O   UNL A   1      35.995  29.616  31.252  1.00  0.00    -0.237 OA
ATOM     70  O   UNL A   1      36.427  32.010  30.828  1.00  0.00    -0.237 OA
ATOM     71  O   UNL A   1      35.592  30.565  29.012  1.00  0.00    -0.744 OA
ENDBRANCH  67  68
ENDBRANCH  48  62
BRANCH  49  72
ATOM     72  C   UNL A   1      49.702  26.429  26.320  1.00  0.00    -0.014 A 
ATOM     73  C   UNL A   1      50.601  25.820  27.213  1.00  0.00     0.010 A 
ATOM     74  C   UNL A   1      50.108  26.657  24.992  1.00  0.00     0.010 A 
ATOM     75  C   UNL A   1      51.894  25.483  26.800  1.00  0.00     0.020 A 
ATOM     76  C   UNL A   1      51.390  26.295  24.568  1.00  0.00     0.020 A 
ATOM     77  C   UNL A   1      52.282  25.729  25.481  1.00  0.00     0.054 A 
BRANCH  77  78
ATOM     78  S   UNL A   1      53.962  25.278  24.963  1.00  0.00     0.124 S 
ATOM     79  O   UNL A   1      54.060  25.927  23.659  1.00  0.00    -0.237 OA
ATOM     80  O   UNL A   1      54.787  25.854  26.022  1.00  0.00    -0.237 OA
ATOM     81  O   UNL A   1      53.928  23.817  24.936  1.00  0.00    -0.744 OA
ENDBRANCH  77  78
ENDBRANCH  49  72
BRANCH  61  82
ATOM     82  C   UNL A   1      47.190  32.492  28.688  1.00  0.00    -0.014 A 
ATOM     83  C   UNL A   1      47.799  32.741  29.930  1.00  0.00     0.010 A 
ATOM     84  C   UNL A   1      47.270  33.464  27.674  1.00  0.00     0.010 A 
ATOM     85  C   UNL A   1      48.470  33.947  30.155  1.00  0.00     0.020 A 
ATOM     86  C   UNL A   1      47.960  34.659  27.887  1.00  0.00     0.020 A 
ATOM     87  C   UNL A   1      48.550  34.895  29.129  1.00  0.00     0.054 A 
BRANCH  87  88
ATOM     88  S   UNL A   1      49.498  36.415  29.417  1.00  0.00     0.124 S 
ATOM     89  O   UNL A   1      50.342  36.476  28.226  1.00  0.00    -0.237 OA
ATOM     90  O   UNL A   1      48.455  37.434  29.501  1.00  0.00    -0.237 OA
ATOM     91  O   UNL A   1      50.206  36.151  30.668  1.00  0.00    -0.744 OA
ENDBRANCH  87  88
ENDBRANCH  61  82
ENDBRANCH  35  36
ENDBRANCH  27  30
ENDBRANCH  25  26
ENDBRANCH   1  25
TORSDOF 15
ENDMDL
