MODEL 1
REMARK VINA RESULT:     -14.0      0.000      0.000
REMARK SMILES O=C(NCCCCNC(=O)c1ccn(-c2cc(-c3ccncc3)nc(-c3ccccc3F)n2)n1)c1ccc(-c2c3nc(c(-c4ccc(S(=O)(=O)[O-])cc4)c4ccc([nH]4)c(-c4ccc(S(=O)(=O)[O-])cc4)c4nc(c(-c5ccc(S(=O)(=O)[O-])cc5)c5ccc2[nH]5)C=C4)C=C3)cc1
REMARK SMILES IDX 5 1 4 2 3 3 1 4 2 5 35 7 36 8 94 9 37 10 93 11 38 12 39 13
REMARK SMILES IDX 40 14 87 15 41 16 92 17 86 18 88 19 42 20 91 21 85 22 84 23
REMARK SMILES IDX 43 25 73 26 54 27 72 28 55 29 58 30 71 31 89 32 56 33 57 34
REMARK SMILES IDX 70 36 90 37 59 38 44 39 45 40 53 41 46 42 52 43 47 44 48 45
REMARK SMILES IDX 49 46 50 47 51 48 74 49 75 50 83 51 76 52 82 53 77 54 78 55
REMARK SMILES IDX 79 56 80 57 81 58 60 59 61 60 69 61 62 62 68 63 63 64 64 65
REMARK SMILES IDX 65 66 66 67 67 68 6 69 7 70 8 71 9 72 10 74 11 75 12 76
REMARK SMILES IDX 34 77 13 78 14 79 15 80 16 81 33 82 17 83 25 84 24 85 18 86
REMARK SMILES IDX 19 87 23 88 20 89 22 90 21 91 26 92 27 93 31 94 28 95 30 96
REMARK SMILES IDX 32 97 29 98
REMARK H PARENT 3 6 88 24 58 35 8 73
REMARK Flexibility Score: inf
ROOT
ATOM      1  C   UNL A   1      32.991  29.643  25.040  1.00  0.00     0.023 C 
ENDROOT
BRANCH   1   2
ATOM      2  C   UNL A   1      32.813  29.667  26.557  1.00  0.00     0.116 C 
BRANCH   2   3
ATOM      3  N   UNL A   1      32.958  30.970  27.170  1.00  0.00    -0.352 N 
ATOM      4  O   UNL A   1      33.794  32.854  27.957  1.00  0.00    -0.269 OA
ATOM      5  C   UNL A   1      34.013  31.670  27.688  1.00  0.00     0.251 C 
ATOM      6  H   UNL A   1      32.108  31.462  27.227  1.00  0.00     0.163 HD
BRANCH   5   7
ATOM      7  C   UNL A   1      35.347  31.093  28.012  1.00  0.00     0.039 A 
ATOM      8  C   UNL A   1      35.672  29.736  28.018  1.00  0.00     0.014 A 
ATOM      9  C   UNL A   1      36.346  32.024  28.354  1.00  0.00     0.014 A 
ATOM     10  C   UNL A   1      36.931  29.313  28.440  1.00  0.00     0.010 A 
ATOM     11  C   UNL A   1      37.608  31.610  28.764  1.00  0.00     0.010 A 
ATOM     12  C   UNL A   1      37.891  30.249  28.833  1.00  0.00    -0.014 A 
BRANCH  12  13
ATOM     13  C   UNL A   1      39.251  29.782  29.096  1.00  0.00     0.031 A 
ATOM     14  C   UNL A   1      39.611  29.770  30.541  1.00  0.00     0.074 A 
ATOM     15  C   UNL A   1      40.066  29.237  28.171  1.00  0.00     0.049 A 
ATOM     16  N   UNL A   1      40.506  30.479  31.150  1.00  0.00    -0.248 NA
ATOM     17  C   UNL A   1      38.773  28.962  31.444  1.00  0.00     0.031 C 
ATOM     18  C   UNL A   1      39.738  28.907  26.782  1.00  0.00     0.029 A 
ATOM     19  N   UNL A   1      41.334  28.748  28.312  1.00  0.00    -0.354 N 
ATOM     20  C   UNL A   1      40.501  30.035  32.470  1.00  0.00     0.074 A 
ATOM     21  C   UNL A   1      39.299  29.257  32.631  1.00  0.00     0.031 C 
ATOM     22  C   UNL A   1      40.682  28.075  26.287  1.00  0.00     0.029 A 
ATOM     23  C   UNL A   1      41.740  27.914  27.272  1.00  0.00     0.049 A 
ATOM     24  H   UNL A   1      41.909  28.965  29.080  1.00  0.00     0.167 HD
ATOM     25  C   UNL A   1      41.613  30.101  33.254  1.00  0.00     0.031 A 
ATOM     26  C   UNL A   1      42.828  27.100  27.248  1.00  0.00     0.031 A 
ATOM     27  C   UNL A   1      42.594  31.013  32.722  1.00  0.00     0.049 A 
ATOM     28  C   UNL A   1      43.772  27.583  28.284  1.00  0.00     0.074 A 
ATOM     29  C   UNL A   1      42.603  32.349  32.377  1.00  0.00     0.029 A 
ATOM     30  N   UNL A   1      43.699  30.461  32.122  1.00  0.00    -0.354 N 
ATOM     31  N   UNL A   1      44.408  28.716  28.207  1.00  0.00    -0.248 NA
ATOM     32  C   UNL A   1      43.700  26.995  29.612  1.00  0.00     0.031 C 
ATOM     33  C   UNL A   1      43.427  32.426  31.217  1.00  0.00     0.029 A 
ATOM     34  C   UNL A   1      43.925  31.147  30.961  1.00  0.00     0.049 A 
ATOM     35  H   UNL A   1      44.232  29.707  32.465  1.00  0.00     0.167 HD
ATOM     36  C   UNL A   1      44.426  29.197  29.507  1.00  0.00     0.074 A 
ATOM     37  C   UNL A   1      44.074  28.050  30.340  1.00  0.00     0.031 C 
ATOM     38  C   UNL A   1      44.452  30.540  29.757  1.00  0.00     0.031 A 
BRANCH  25  39
ATOM     39  C   UNL A   1      41.992  29.009  34.235  1.00  0.00    -0.014 A 
ATOM     40  C   UNL A   1      42.420  27.763  33.734  1.00  0.00     0.010 A 
ATOM     41  C   UNL A   1      41.653  29.060  35.604  1.00  0.00     0.010 A 
ATOM     42  C   UNL A   1      42.415  26.614  34.537  1.00  0.00     0.020 A 
ATOM     43  C   UNL A   1      41.693  27.933  36.426  1.00  0.00     0.020 A 
ATOM     44  C   UNL A   1      42.035  26.707  35.875  1.00  0.00     0.054 A 
BRANCH  44  45
ATOM     45  S   UNL A   1      41.923  25.206  36.877  1.00  0.00     0.124 S 
ATOM     46  O   UNL A   1      41.553  24.209  35.878  1.00  0.00    -0.237 OA
ATOM     47  O   UNL A   1      43.275  25.095  37.417  1.00  0.00    -0.237 OA
ATOM     48  O   UNL A   1      40.890  25.527  37.859  1.00  0.00    -0.744 OA
ENDBRANCH  44  45
ENDBRANCH  25  39
BRANCH  26  49
ATOM     49  C   UNL A   1      42.985  25.771  26.599  1.00  0.00    -0.014 A 
ATOM     50  C   UNL A   1      43.631  25.640  25.353  1.00  0.00     0.010 A 
ATOM     51  C   UNL A   1      42.759  24.594  27.341  1.00  0.00     0.010 A 
ATOM     52  C   UNL A   1      44.095  24.391  24.902  1.00  0.00     0.020 A 
ATOM     53  C   UNL A   1      43.208  23.346  26.894  1.00  0.00     0.020 A 
ATOM     54  C   UNL A   1      43.899  23.253  25.689  1.00  0.00     0.054 A 
BRANCH  54  55
ATOM     55  S   UNL A   1      44.664  21.677  25.198  1.00  0.00     0.124 S 
ATOM     56  O   UNL A   1      43.782  20.694  25.822  1.00  0.00    -0.237 OA
ATOM     57  O   UNL A   1      44.613  21.737  23.740  1.00  0.00    -0.237 OA
ATOM     58  O   UNL A   1      46.007  21.754  25.770  1.00  0.00    -0.744 OA
ENDBRANCH  54  55
ENDBRANCH  26  49
BRANCH  38  59
ATOM     59  C   UNL A   1      44.831  31.479  28.639  1.00  0.00    -0.014 A 
ATOM     60  C   UNL A   1      43.966  31.860  27.595  1.00  0.00     0.010 A 
ATOM     61  C   UNL A   1      46.089  32.102  28.727  1.00  0.00     0.010 A 
ATOM     62  C   UNL A   1      44.367  32.813  26.646  1.00  0.00     0.020 A 
ATOM     63  C   UNL A   1      46.486  33.066  27.801  1.00  0.00     0.020 A 
ATOM     64  C   UNL A   1      45.628  33.409  26.756  1.00  0.00     0.054 A 
BRANCH  64  65
ATOM     65  S   UNL A   1      46.132  34.664  25.547  1.00  0.00     0.124 S 
ATOM     66  O   UNL A   1      45.282  34.360  24.400  1.00  0.00    -0.237 OA
ATOM     67  O   UNL A   1      45.835  35.917  26.238  1.00  0.00    -0.237 OA
ATOM     68  O   UNL A   1      47.558  34.402  25.347  1.00  0.00    -0.744 OA
ENDBRANCH  64  65
ENDBRANCH  38  59
ENDBRANCH  12  13
ENDBRANCH   5   7
ENDBRANCH   2   3
ENDBRANCH   1   2
BRANCH   1  69
ATOM     69  C   UNL A   1      32.890  28.260  24.388  1.00  0.00     0.023 C 
BRANCH  69  70
ATOM     70  C   UNL A   1      31.486  27.826  23.980  1.00  0.00     0.116 C 
BRANCH  70  71
ATOM     71  N   UNL A   1      31.423  27.443  22.582  1.00  0.00    -0.351 N 
ATOM     72  C   UNL A   1      31.623  26.201  22.026  1.00  0.00     0.271 C 
ATOM     73  H   UNL A   1      31.209  28.166  21.951  1.00  0.00     0.163 HD
ATOM     74  O   UNL A   1      31.667  26.096  20.804  1.00  0.00    -0.267 OA
BRANCH  72  75
ATOM     75  C   UNL A   1      31.701  25.041  22.919  1.00  0.00     0.150 A 
ATOM     76  C   UNL A   1      30.609  24.312  23.456  1.00  0.00     0.056 A 
ATOM     77  N   UNL A   1      32.875  24.505  23.299  1.00  0.00    -0.161 NA
ATOM     78  C   UNL A   1      31.175  23.221  24.063  1.00  0.00     0.118 A 
ATOM     79  N   UNL A   1      32.537  23.346  23.912  1.00  0.00    -0.222 N 
BRANCH  79  80
ATOM     80  C   UNL A   1      33.505  22.382  24.303  1.00  0.00     0.158 A 
ATOM     81  C   UNL A   1      33.156  21.049  24.326  1.00  0.00     0.078 A 
ATOM     82  N   UNL A   1      34.739  22.831  24.625  1.00  0.00    -0.209 NA
ATOM     83  C   UNL A   1      34.168  20.169  24.650  1.00  0.00     0.077 A 
ATOM     84  C   UNL A   1      35.624  21.903  25.019  1.00  0.00     0.165 A 
ATOM     85  N   UNL A   1      35.395  20.580  25.042  1.00  0.00    -0.228 NA
BRANCH  83  86
ATOM     86  C   UNL A   1      33.994  18.720  24.517  1.00  0.00     0.003 A 
ATOM     87  C   UNL A   1      35.095  17.858  24.611  1.00  0.00     0.030 A 
ATOM     88  C   UNL A   1      32.733  18.154  24.306  1.00  0.00     0.030 A 
ATOM     89  C   UNL A   1      34.894  16.494  24.485  1.00  0.00     0.111 A 
ATOM     90  C   UNL A   1      32.634  16.776  24.183  1.00  0.00     0.111 A 
ATOM     91  N   UNL A   1      33.686  15.934  24.270  1.00  0.00    -0.265 NA
ENDBRANCH  83  86
BRANCH  84  92
ATOM     92  C   UNL A   1      36.883  22.401  25.557  1.00  0.00     0.055 A 
ATOM     93  C   UNL A   1      36.979  23.710  26.066  1.00  0.00     0.015 A 
ATOM     94  C   UNL A   1      38.039  21.617  25.549  1.00  0.00     0.134 A 
ATOM     95  C   UNL A   1      38.191  24.209  26.552  1.00  0.00     0.001 A 
ATOM     96  C   UNL A   1      39.254  22.111  26.026  1.00  0.00     0.040 A 
ATOM     97  F   UNL A   1      38.014  20.374  25.046  1.00  0.00    -0.206 F 
ATOM     98  C   UNL A   1      39.331  23.409  26.528  1.00  0.00     0.003 A 
ENDBRANCH  84  92
ENDBRANCH  79  80
ENDBRANCH  72  75
ENDBRANCH  70  71
ENDBRANCH  69  70
ENDBRANCH   1  69
TORSDOF 17
ENDMDL
MODEL 2
REMARK VINA RESULT:     -14.0      2.993      9.808
REMARK SMILES O=C(NCCCCNC(=O)c1ccn(-c2cc(-c3ccncc3)nc(-c3ccccc3F)n2)n1)c1ccc(-c2c3nc(c(-c4ccc(S(=O)(=O)[O-])cc4)c4ccc([nH]4)c(-c4ccc(S(=O)(=O)[O-])cc4)c4nc(c(-c5ccc(S(=O)(=O)[O-])cc5)c5ccc2[nH]5)C=C4)C=C3)cc1
REMARK SMILES IDX 5 1 4 2 3 3 1 4 2 5 35 7 36 8 94 9 37 10 93 11 38 12 39 13
REMARK SMILES IDX 40 14 87 15 41 16 92 17 86 18 88 19 42 20 91 21 85 22 84 23
REMARK SMILES IDX 43 25 73 26 54 27 72 28 55 29 58 30 71 31 89 32 56 33 57 34
REMARK SMILES IDX 70 36 90 37 59 38 44 39 45 40 53 41 46 42 52 43 47 44 48 45
REMARK SMILES IDX 49 46 50 47 51 48 74 49 75 50 83 51 76 52 82 53 77 54 78 55
REMARK SMILES IDX 79 56 80 57 81 58 60 59 61 60 69 61 62 62 68 63 63 64 64 65
REMARK SMILES IDX 65 66 66 67 67 68 6 69 7 70 8 71 9 72 10 74 11 75 12 76
REMARK SMILES IDX 34 77 13 78 14 79 15 80 16 81 33 82 17 83 25 84 24 85 18 86
REMARK SMILES IDX 19 87 23 88 20 89 22 90 21 91 26 92 27 93 31 94 28 95 30 96
REMARK SMILES IDX 32 97 29 98
REMARK H PARENT 3 6 88 24 58 35 8 73
REMARK Flexibility Score: inf
ROOT
ATOM      1  C   UNL A   1      37.036  22.732  24.032  1.00  0.00     0.023 C 
ENDROOT
BRANCH   1   2
ATOM      2  C   UNL A   1      37.061  21.828  25.263  1.00  0.00     0.116 C 
BRANCH   2   3
ATOM      3  N   UNL A   1      38.328  21.178  25.520  1.00  0.00    -0.352 N 
ATOM      4  O   UNL A   1      40.267  20.600  26.402  1.00  0.00    -0.269 OA
ATOM      5  C   UNL A   1      39.436  21.500  26.256  1.00  0.00     0.251 C 
ATOM      6  H   UNL A   1      38.412  20.310  25.063  1.00  0.00     0.163 HD
BRANCH   5   7
ATOM      7  C   UNL A   1      39.731  22.850  26.812  1.00  0.00     0.039 A 
ATOM      8  C   UNL A   1      38.952  23.994  26.639  1.00  0.00     0.014 A 
ATOM      9  C   UNL A   1      40.919  22.953  27.560  1.00  0.00     0.014 A 
ATOM     10  C   UNL A   1      39.389  25.226  27.124  1.00  0.00     0.010 A 
ATOM     11  C   UNL A   1      41.355  24.176  28.057  1.00  0.00     0.010 A 
ATOM     12  C   UNL A   1      40.601  25.319  27.813  1.00  0.00    -0.014 A 
BRANCH  12  13
ATOM     13  C   UNL A   1      40.938  26.587  28.458  1.00  0.00     0.031 A 
ATOM     14  C   UNL A   1      42.144  27.247  27.887  1.00  0.00     0.074 A 
ATOM     15  C   UNL A   1      40.158  27.218  29.359  1.00  0.00     0.049 A 
ATOM     16  N   UNL A   1      43.280  27.477  28.462  1.00  0.00    -0.248 NA
ATOM     17  C   UNL A   1      42.126  27.569  26.449  1.00  0.00     0.031 C 
ATOM     18  C   UNL A   1      38.810  26.841  29.786  1.00  0.00     0.029 A 
ATOM     19  N   UNL A   1      40.362  28.408  29.999  1.00  0.00    -0.354 N 
ATOM     20  C   UNL A   1      44.036  28.183  27.529  1.00  0.00     0.074 A 
ATOM     21  C   UNL A   1      43.360  28.037  26.266  1.00  0.00     0.031 C 
ATOM     22  C   UNL A   1      38.235  27.887  30.422  1.00  0.00     0.029 A 
ATOM     23  C   UNL A   1      39.210  28.957  30.557  1.00  0.00     0.049 A 
ATOM     24  H   UNL A   1      41.245  28.840  30.060  1.00  0.00     0.167 HD
ATOM     25  C   UNL A   1      45.003  29.066  27.909  1.00  0.00     0.031 A 
ATOM     26  C   UNL A   1      39.048  30.219  31.034  1.00  0.00     0.031 A 
ATOM     27  C   UNL A   1      45.406  28.867  29.277  1.00  0.00     0.049 A 
ATOM     28  C   UNL A   1      40.397  30.769  31.312  1.00  0.00     0.074 A 
ATOM     29  C   UNL A   1      45.908  27.808  30.007  1.00  0.00     0.029 A 
ATOM     30  N   UNL A   1      44.958  29.782  30.199  1.00  0.00    -0.354 N 
ATOM     31  N   UNL A   1      41.173  30.330  32.260  1.00  0.00    -0.248 NA
ATOM     32  C   UNL A   1      41.057  31.539  30.270  1.00  0.00     0.031 C 
ATOM     33  C   UNL A   1      45.306  27.928  31.293  1.00  0.00     0.029 A 
ATOM     34  C   UNL A   1      44.527  29.087  31.296  1.00  0.00     0.049 A 
ATOM     35  H   UNL A   1      44.948  30.760  30.090  1.00  0.00     0.167 HD
ATOM     36  C   UNL A   1      42.449  30.378  31.719  1.00  0.00     0.074 A 
ATOM     37  C   UNL A   1      42.327  31.228  30.538  1.00  0.00     0.031 C 
ATOM     38  C   UNL A   1      43.414  29.501  32.124  1.00  0.00     0.031 A 
BRANCH  25  39
ATOM     39  C   UNL A   1      45.242  30.379  27.191  1.00  0.00    -0.014 A 
ATOM     40  C   UNL A   1      46.569  30.815  26.994  1.00  0.00     0.010 A 
ATOM     41  C   UNL A   1      44.223  31.332  26.980  1.00  0.00     0.010 A 
ATOM     42  C   UNL A   1      46.859  32.154  26.699  1.00  0.00     0.020 A 
ATOM     43  C   UNL A   1      44.499  32.656  26.636  1.00  0.00     0.020 A 
ATOM     44  C   UNL A   1      45.819  33.069  26.538  1.00  0.00     0.054 A 
BRANCH  44  45
ATOM     45  S   UNL A   1      46.201  34.815  26.267  1.00  0.00     0.124 S 
ATOM     46  O   UNL A   1      46.950  35.146  27.475  1.00  0.00    -0.237 OA
ATOM     47  O   UNL A   1      46.974  34.773  25.030  1.00  0.00    -0.237 OA
ATOM     48  O   UNL A   1      44.884  35.438  26.152  1.00  0.00    -0.744 OA
ENDBRANCH  44  45
ENDBRANCH  25  39
BRANCH  26  49
ATOM     49  C   UNL A   1      37.839  31.085  30.995  1.00  0.00    -0.014 A 
ATOM     50  C   UNL A   1      36.730  30.825  31.825  1.00  0.00     0.010 A 
ATOM     51  C   UNL A   1      37.891  32.337  30.351  1.00  0.00     0.010 A 
ATOM     52  C   UNL A   1      35.750  31.807  32.057  1.00  0.00     0.020 A 
ATOM     53  C   UNL A   1      36.913  33.316  30.569  1.00  0.00     0.020 A 
ATOM     54  C   UNL A   1      35.860  33.057  31.442  1.00  0.00     0.054 A 
BRANCH  54  55
ATOM     55  S   UNL A   1      34.702  34.386  31.890  1.00  0.00     0.124 S 
ATOM     56  O   UNL A   1      35.530  35.255  32.722  1.00  0.00    -0.237 OA
ATOM     57  O   UNL A   1      34.322  34.931  30.589  1.00  0.00    -0.237 OA
ATOM     58  O   UNL A   1      33.633  33.685  32.599  1.00  0.00    -0.744 OA
ENDBRANCH  54  55
ENDBRANCH  26  49
BRANCH  38  59
ATOM     59  C   UNL A   1      43.207  28.732  33.405  1.00  0.00    -0.014 A 
ATOM     60  C   UNL A   1      43.491  29.237  34.689  1.00  0.00     0.010 A 
ATOM     61  C   UNL A   1      42.573  27.480  33.303  1.00  0.00     0.010 A 
ATOM     62  C   UNL A   1      43.179  28.490  35.836  1.00  0.00     0.020 A 
ATOM     63  C   UNL A   1      42.241  26.742  34.439  1.00  0.00     0.020 A 
ATOM     64  C   UNL A   1      42.557  27.245  35.702  1.00  0.00     0.054 A 
BRANCH  64  65
ATOM     65  S   UNL A   1      42.126  26.296  37.186  1.00  0.00     0.124 S 
ATOM     66  O   UNL A   1      40.787  26.785  37.499  1.00  0.00    -0.237 OA
ATOM     67  O   UNL A   1      42.200  24.913  36.719  1.00  0.00    -0.237 OA
ATOM     68  O   UNL A   1      43.162  26.669  38.150  1.00  0.00    -0.744 OA
ENDBRANCH  64  65
ENDBRANCH  38  59
ENDBRANCH  12  13
ENDBRANCH   5   7
ENDBRANCH   2   3
ENDBRANCH   1   2
BRANCH   1  69
ATOM     69  C   UNL A   1      35.669  23.329  23.682  1.00  0.00     0.023 C 
BRANCH  69  70
ATOM     70  C   UNL A   1      34.478  22.717  24.412  1.00  0.00     0.116 C 
BRANCH  70  71
ATOM     71  N   UNL A   1      33.473  22.226  23.489  1.00  0.00    -0.351 N 
ATOM     72  C   UNL A   1      32.133  22.533  23.441  1.00  0.00     0.271 C 
ATOM     73  H   UNL A   1      33.792  21.591  22.808  1.00  0.00     0.163 HD
ATOM     74  O   UNL A   1      31.407  21.910  22.673  1.00  0.00    -0.267 OA
BRANCH  72  75
ATOM     75  C   UNL A   1      31.643  23.648  24.257  1.00  0.00     0.150 A 
ATOM     76  C   UNL A   1      31.168  23.576  25.591  1.00  0.00     0.056 A 
ATOM     77  N   UNL A   1      31.637  24.917  23.809  1.00  0.00    -0.161 NA
ATOM     78  C   UNL A   1      31.009  24.880  25.983  1.00  0.00     0.118 A 
ATOM     79  N   UNL A   1      31.342  25.661  24.901  1.00  0.00    -0.222 N 
BRANCH  79  80
ATOM     80  C   UNL A   1      31.415  27.080  24.896  1.00  0.00     0.158 A 
ATOM     81  C   UNL A   1      30.643  27.790  24.002  1.00  0.00     0.078 A 
ATOM     82  N   UNL A   1      32.240  27.667  25.791  1.00  0.00    -0.209 NA
ATOM     83  C   UNL A   1      30.716  29.165  24.104  1.00  0.00     0.077 A 
ATOM     84  C   UNL A   1      32.312  29.005  25.744  1.00  0.00     0.165 A 
ATOM     85  N   UNL A   1      31.577  29.789  24.938  1.00  0.00    -0.228 NA
BRANCH  83  86
ATOM     86  C   UNL A   1      29.805  30.038  23.360  1.00  0.00     0.003 A 
ATOM     87  C   UNL A   1      29.540  29.802  22.004  1.00  0.00     0.030 A 
ATOM     88  C   UNL A   1      29.164  31.118  23.974  1.00  0.00     0.030 A 
ATOM     89  C   UNL A   1      28.671  30.643  21.331  1.00  0.00     0.111 A 
ATOM     90  C   UNL A   1      28.318  31.910  23.215  1.00  0.00     0.111 A 
ATOM     91  N   UNL A   1      28.055  31.695  21.908  1.00  0.00    -0.265 NA
ENDBRANCH  83  86
BRANCH  84  92
ATOM     92  C   UNL A   1      33.345  29.624  26.564  1.00  0.00     0.055 A 
ATOM     93  C   UNL A   1      34.565  28.962  26.803  1.00  0.00     0.015 A 
ATOM     94  C   UNL A   1      33.148  30.867  27.169  1.00  0.00     0.134 A 
ATOM     95  C   UNL A   1      35.549  29.533  27.617  1.00  0.00     0.001 A 
ATOM     96  C   UNL A   1      34.122  31.439  27.989  1.00  0.00     0.040 A 
ATOM     97  F   UNL A   1      31.992  31.528  27.004  1.00  0.00    -0.206 F 
ATOM     98  C   UNL A   1      35.325  30.771  28.213  1.00  0.00     0.003 A 
ENDBRANCH  84  92
ENDBRANCH  79  80
ENDBRANCH  72  75
ENDBRANCH  70  71
ENDBRANCH  69  70
ENDBRANCH   1  69
TORSDOF 17
ENDMDL
MODEL 3
REMARK VINA RESULT:     -13.7      3.050     10.040
REMARK SMILES O=C(NCCCCNC(=O)c1ccn(-c2cc(-c3ccncc3)nc(-c3ccccc3F)n2)n1)c1ccc(-c2c3nc(c(-c4ccc(S(=O)(=O)[O-])cc4)c4ccc([nH]4)c(-c4ccc(S(=O)(=O)[O-])cc4)c4nc(c(-c5ccc(S(=O)(=O)[O-])cc5)c5ccc2[nH]5)C=C4)C=C3)cc1
REMARK SMILES IDX 5 1 4 2 3 3 1 4 2 5 35 7 36 8 94 9 37 10 93 11 38 12 39 13
REMARK SMILES IDX 40 14 87 15 41 16 92 17 86 18 88 19 42 20 91 21 85 22 84 23
REMARK SMILES IDX 43 25 73 26 54 27 72 28 55 29 58 30 71 31 89 32 56 33 57 34
REMARK SMILES IDX 70 36 90 37 59 38 44 39 45 40 53 41 46 42 52 43 47 44 48 45
REMARK SMILES IDX 49 46 50 47 51 48 74 49 75 50 83 51 76 52 82 53 77 54 78 55
REMARK SMILES IDX 79 56 80 57 81 58 60 59 61 60 69 61 62 62 68 63 63 64 64 65
REMARK SMILES IDX 65 66 66 67 67 68 6 69 7 70 8 71 9 72 10 74 11 75 12 76
REMARK SMILES IDX 34 77 13 78 14 79 15 80 16 81 33 82 17 83 25 84 24 85 18 86
REMARK SMILES IDX 19 87 23 88 20 89 22 90 21 91 26 92 27 93 31 94 28 95 30 96
REMARK SMILES IDX 32 97 29 98
REMARK H PARENT 3 6 88 24 58 35 8 73
REMARK Flexibility Score: inf
ROOT
ATOM      1  C   UNL A   1      35.688  21.768  24.366  1.00  0.00     0.023 C 
ENDROOT
BRANCH   1   2
ATOM      2  C   UNL A   1      36.530  22.017  25.616  1.00  0.00     0.116 C 
BRANCH   2   3
ATOM      3  N   UNL A   1      37.836  21.395  25.608  1.00  0.00    -0.352 N 
ATOM      4  O   UNL A   1      39.912  20.832  26.101  1.00  0.00    -0.269 OA
ATOM      5  C   UNL A   1      39.049  21.712  26.157  1.00  0.00     0.251 C 
ATOM      6  H   UNL A   1      37.858  20.556  25.094  1.00  0.00     0.163 HD
BRANCH   5   7
ATOM      7  C   UNL A   1      39.408  23.038  26.731  1.00  0.00     0.039 A 
ATOM      8  C   UNL A   1      38.725  24.236  26.514  1.00  0.00     0.014 A 
ATOM      9  C   UNL A   1      40.554  23.057  27.549  1.00  0.00     0.014 A 
ATOM     10  C   UNL A   1      39.221  25.434  27.025  1.00  0.00     0.010 A 
ATOM     11  C   UNL A   1      41.047  24.247  28.072  1.00  0.00     0.010 A 
ATOM     12  C   UNL A   1      40.394  25.441  27.785  1.00  0.00    -0.014 A 
BRANCH  12  13
ATOM     13  C   UNL A   1      40.783  26.684  28.451  1.00  0.00     0.031 A 
ATOM     14  C   UNL A   1      41.999  27.317  27.872  1.00  0.00     0.074 A 
ATOM     15  C   UNL A   1      40.040  27.319  29.379  1.00  0.00     0.049 A 
ATOM     16  N   UNL A   1      43.151  27.498  28.431  1.00  0.00    -0.248 NA
ATOM     17  C   UNL A   1      41.966  27.671  26.442  1.00  0.00     0.031 C 
ATOM     18  C   UNL A   1      38.688  26.976  29.824  1.00  0.00     0.029 A 
ATOM     19  N   UNL A   1      40.294  28.488  30.041  1.00  0.00    -0.354 N 
ATOM     20  C   UNL A   1      43.913  28.200  27.499  1.00  0.00     0.074 A 
ATOM     21  C   UNL A   1      43.210  28.104  26.246  1.00  0.00     0.031 C 
ATOM     22  C   UNL A   1      38.159  28.025  30.492  1.00  0.00     0.029 A 
ATOM     23  C   UNL A   1      39.170  29.061  30.632  1.00  0.00     0.049 A 
ATOM     24  H   UNL A   1      41.190  28.889  30.095  1.00  0.00     0.167 HD
ATOM     25  C   UNL A   1      44.915  29.043  27.879  1.00  0.00     0.031 A 
ATOM     26  C   UNL A   1      39.058  30.316  31.139  1.00  0.00     0.031 A 
ATOM     27  C   UNL A   1      45.336  28.802  29.236  1.00  0.00     0.049 A 
ATOM     28  C   UNL A   1      40.428  30.817  31.403  1.00  0.00     0.074 A 
ATOM     29  C   UNL A   1      45.816  27.711  29.933  1.00  0.00     0.029 A 
ATOM     30  N   UNL A   1      44.934  29.710  30.185  1.00  0.00    -0.354 N 
ATOM     31  N   UNL A   1      41.206  30.333  32.327  1.00  0.00    -0.248 NA
ATOM     32  C   UNL A   1      41.093  31.588  30.366  1.00  0.00     0.031 C 
ATOM     33  C   UNL A   1      45.242  27.822  31.233  1.00  0.00     0.029 A 
ATOM     34  C   UNL A   1      44.501  29.005  31.274  1.00  0.00     0.049 A 
ATOM     35  H   UNL A   1      44.954  30.690  30.097  1.00  0.00     0.167 HD
ATOM     36  C   UNL A   1      42.473  30.351  31.764  1.00  0.00     0.074 A 
ATOM     37  C   UNL A   1      42.358  31.231  30.604  1.00  0.00     0.031 C 
ATOM     38  C   UNL A   1      43.417  29.436  32.131  1.00  0.00     0.031 A 
BRANCH  25  39
ATOM     39  C   UNL A   1      45.184  30.364  27.185  1.00  0.00    -0.014 A 
ATOM     40  C   UNL A   1      46.518  30.733  26.919  1.00  0.00     0.010 A 
ATOM     41  C   UNL A   1      44.209  31.376  27.065  1.00  0.00     0.010 A 
ATOM     42  C   UNL A   1      46.865  32.063  26.645  1.00  0.00     0.020 A 
ATOM     43  C   UNL A   1      44.537  32.694  26.742  1.00  0.00     0.020 A 
ATOM     44  C   UNL A   1      45.869  33.037  26.575  1.00  0.00     0.054 A 
BRANCH  44  45
ATOM     45  S   UNL A   1      46.331  34.768  26.330  1.00  0.00     0.124 S 
ATOM     46  O   UNL A   1      47.199  35.009  27.477  1.00  0.00    -0.237 OA
ATOM     47  O   UNL A   1      46.992  34.730  25.029  1.00  0.00    -0.237 OA
ATOM     48  O   UNL A   1      45.049  35.470  26.352  1.00  0.00    -0.744 OA
ENDBRANCH  44  45
ENDBRANCH  25  39
BRANCH  26  49
ATOM     49  C   UNL A   1      37.876  31.221  31.141  1.00  0.00    -0.014 A 
ATOM     50  C   UNL A   1      36.716  30.903  31.876  1.00  0.00     0.010 A 
ATOM     51  C   UNL A   1      37.997  32.538  30.654  1.00  0.00     0.010 A 
ATOM     52  C   UNL A   1      35.752  31.883  32.172  1.00  0.00     0.020 A 
ATOM     53  C   UNL A   1      37.036  33.516  30.936  1.00  0.00     0.020 A 
ATOM     54  C   UNL A   1      35.931  33.192  31.717  1.00  0.00     0.054 A 
BRANCH  54  55
ATOM     55  S   UNL A   1      34.786  34.498  32.259  1.00  0.00     0.124 S 
ATOM     56  O   UNL A   1      35.647  35.349  33.075  1.00  0.00    -0.237 OA
ATOM     57  O   UNL A   1      34.339  35.076  30.995  1.00  0.00    -0.237 OA
ATOM     58  O   UNL A   1      33.758  33.768  32.999  1.00  0.00    -0.744 OA
ENDBRANCH  54  55
ENDBRANCH  26  49
BRANCH  38  59
ATOM     59  C   UNL A   1      43.208  28.646  33.400  1.00  0.00    -0.014 A 
ATOM     60  C   UNL A   1      42.553  27.400  33.461  1.00  0.00     0.010 A 
ATOM     61  C   UNL A   1      43.819  29.138  34.567  1.00  0.00     0.010 A 
ATOM     62  C   UNL A   1      42.483  26.687  34.668  1.00  0.00     0.020 A 
ATOM     63  C   UNL A   1      43.773  28.425  35.764  1.00  0.00     0.020 A 
ATOM     64  C   UNL A   1      43.094  27.207  35.814  1.00  0.00     0.054 A 
BRANCH  64  65
ATOM     65  S   UNL A   1      43.031  26.269  37.364  1.00  0.00     0.124 S 
ATOM     66  O   UNL A   1      41.621  26.355  37.731  1.00  0.00    -0.237 OA
ATOM     67  O   UNL A   1      43.499  24.945  36.961  1.00  0.00    -0.237 OA
ATOM     68  O   UNL A   1      43.945  26.994  38.247  1.00  0.00    -0.744 OA
ENDBRANCH  64  65
ENDBRANCH  38  59
ENDBRANCH  12  13
ENDBRANCH   5   7
ENDBRANCH   2   3
ENDBRANCH   1   2
BRANCH   1  69
ATOM     69  C   UNL A   1      34.191  21.547  24.614  1.00  0.00     0.023 C 
BRANCH  69  70
ATOM     70  C   UNL A   1      33.668  22.039  25.960  1.00  0.00     0.116 C 
BRANCH  70  71
ATOM     71  N   UNL A   1      32.285  21.657  26.173  1.00  0.00    -0.351 N 
ATOM     72  C   UNL A   1      31.146  22.371  25.880  1.00  0.00     0.271 C 
ATOM     73  H   UNL A   1      32.144  20.772  26.580  1.00  0.00     0.163 HD
ATOM     74  O   UNL A   1      30.061  21.943  26.262  1.00  0.00    -0.267 OA
BRANCH  72  75
ATOM     75  C   UNL A   1      31.271  23.576  25.055  1.00  0.00     0.150 A 
ATOM     76  C   UNL A   1      31.022  23.678  23.662  1.00  0.00     0.056 A 
ATOM     77  N   UNL A   1      31.611  24.769  25.575  1.00  0.00    -0.161 NA
ATOM     78  C   UNL A   1      31.086  25.020  23.388  1.00  0.00     0.118 A 
ATOM     79  N   UNL A   1      31.398  25.651  24.569  1.00  0.00    -0.222 N 
BRANCH  79  80
ATOM     80  C   UNL A   1      31.465  27.057  24.764  1.00  0.00     0.158 A 
ATOM     81  C   UNL A   1      32.303  27.562  25.735  1.00  0.00     0.078 A 
ATOM     82  N   UNL A   1      30.701  27.836  23.966  1.00  0.00    -0.209 NA
ATOM     83  C   UNL A   1      32.366  28.939  25.818  1.00  0.00     0.077 A 
ATOM     84  C   UNL A   1      30.762  29.157  24.192  1.00  0.00     0.165 A 
ATOM     85  N   UNL A   1      31.570  29.750  25.086  1.00  0.00    -0.228 NA
BRANCH  83  86
ATOM     86  C   UNL A   1      33.358  29.611  26.660  1.00  0.00     0.003 A 
ATOM     87  C   UNL A   1      33.116  30.897  27.159  1.00  0.00     0.030 A 
ATOM     88  C   UNL A   1      34.564  28.991  27.001  1.00  0.00     0.030 A 
ATOM     89  C   UNL A   1      34.074  31.502  27.956  1.00  0.00     0.111 A 
ATOM     90  C   UNL A   1      35.465  29.681  27.797  1.00  0.00     0.111 A 
ATOM     91  N   UNL A   1      35.246  30.921  28.284  1.00  0.00    -0.265 NA
ENDBRANCH  83  86
BRANCH  84  92
ATOM     92  C   UNL A   1      29.795  29.977  23.475  1.00  0.00     0.055 A 
ATOM     93  C   UNL A   1      29.227  29.529  22.267  1.00  0.00     0.015 A 
ATOM     94  C   UNL A   1      29.430  31.244  23.938  1.00  0.00     0.134 A 
ATOM     95  C   UNL A   1      28.325  30.324  21.554  1.00  0.00     0.001 A 
ATOM     96  C   UNL A   1      28.535  32.046  23.227  1.00  0.00     0.040 A 
ATOM     97  F   UNL A   1      29.964  31.736  25.066  1.00  0.00    -0.206 F 
ATOM     98  C   UNL A   1      27.982  31.586  22.034  1.00  0.00     0.003 A 
ENDBRANCH  84  92
ENDBRANCH  79  80
ENDBRANCH  72  75
ENDBRANCH  70  71
ENDBRANCH  69  70
ENDBRANCH   1  69
TORSDOF 17
ENDMDL
