MODEL 1
REMARK VINA RESULT:     -10.8      0.000      0.000
REMARK SMILES CSCc1ccc(C(=O)N[C@H]2C=C[C@@H](C(=O)NCCCCNC(=O)c3ccc(-c4c5nc(c(-c6ccc(S(=O)(=O)[O-])cc6)c6ccc([nH]6)c(-c6ccc(S(=O)(=O)[O-])cc6)c6nc(c(-c7ccc(S(=O)(=O)[O-])cc7)c7ccc4[nH]7)C=C6)C=C5)cc3)C2)o1
REMARK SMILES IDX 19 1 18 2 17 3 15 4 16 5 14 7 11 8 12 9 85 10 13 11 10 12
REMARK SMILES IDX 8 13 9 14 7 16 4 17 5 18 86 19 6 20 3 21 2 22 1 23 20 24
REMARK SMILES IDX 21 25 22 26 23 27 24 29 25 30 26 31 84 32 27 33 83 34 28 35
REMARK SMILES IDX 29 36 30 37 77 38 31 39 82 40 76 41 78 42 32 43 81 44 75 45
REMARK SMILES IDX 74 46 33 48 63 49 44 50 62 51 45 52 48 53 61 54 79 55 46 56
REMARK SMILES IDX 47 57 60 59 80 60 49 61 34 62 35 63 43 64 36 65 42 66 37 67
REMARK SMILES IDX 38 68 39 69 40 70 41 71 64 72 65 73 73 74 66 75 72 76 67 77
REMARK SMILES IDX 68 78 69 79 70 80 71 81 50 82 51 83 59 84 52 85 58 86 53 87
REMARK SMILES IDX 54 88 55 89 56 90 57 91
REMARK H PARENT 17 6 10 15 22 28 78 47 48 58
REMARK Flexibility Score: inf
ROOT
ATOM      1  C   UNL A   1      31.757  28.982  25.639  1.00  0.00     0.023 C 
ENDROOT
BRANCH   1   2
ATOM      2  C   UNL A   1      32.392  28.901  24.253  1.00  0.00     0.116 C 
BRANCH   2   3
ATOM      3  N   UNL A   1      31.467  29.333  23.221  1.00  0.00    -0.356 N 
ATOM      4  C   UNL A   1      30.567  28.629  22.479  1.00  0.00     0.227 C 
ATOM      5  O   UNL A   1      29.896  29.252  21.650  1.00  0.00    -0.274 OA
ATOM      6  H   UNL A   1      31.494  30.296  23.025  1.00  0.00     0.163 HD
BRANCH   4   7
ATOM      7  C   UNL A   1      30.333  27.133  22.680  1.00  0.00     0.103 C 
ATOM      8  C   UNL A   1      31.168  25.313  24.087  1.00  0.00     0.106 C 
ATOM      9  C   UNL A   1      29.929  25.937  24.649  1.00  0.00    -0.006 C 
ATOM     10  C   UNL A   1      31.578  26.286  22.971  1.00  0.00     0.047 C 
ATOM     11  C   UNL A   1      29.440  26.892  23.856  1.00  0.00    -0.016 C 
BRANCH   8  12
ATOM     12  N   UNL A   1      32.149  25.152  25.129  1.00  0.00    -0.343 N 
ATOM     13  C   UNL A   1      32.983  24.083  25.398  1.00  0.00     0.287 C 
ATOM     14  O   UNL A   1      33.786  24.254  26.318  1.00  0.00    -0.266 OA
ATOM     15  H   UNL A   1      32.238  25.917  25.743  1.00  0.00     0.164 HD
BRANCH  13  16
ATOM     16  C   UNL A   1      32.878  22.831  24.655  1.00  0.00     0.191 A 
ATOM     17  C   UNL A   1      33.157  20.639  24.436  1.00  0.00     0.114 A 
ATOM     18  C   UNL A   1      32.421  21.046  23.350  1.00  0.00     0.047 A 
ATOM     19  O   UNL A   1      33.414  21.705  25.246  1.00  0.00    -0.455 OA
ATOM     20  C   UNL A   1      32.329  22.447  23.444  1.00  0.00     0.056 A 
BRANCH  17  21
ATOM     21  C   UNL A   1      33.671  19.314  24.853  1.00  0.00     0.144 C 
BRANCH  21  22
ATOM     22  S   UNL A   1      32.518  17.949  24.460  1.00  0.00    -0.157 SA
ATOM     23  C   UNL A   1      33.125  16.657  25.579  1.00  0.00     0.085 C 
ENDBRANCH  21  22
ENDBRANCH  17  21
ENDBRANCH  13  16
ENDBRANCH   8  12
ENDBRANCH   4   7
ENDBRANCH   2   3
ENDBRANCH   1   2
BRANCH   1  24
ATOM     24  C   UNL A   1      32.390  28.052  26.671  1.00  0.00     0.023 C 
BRANCH  24  25
ATOM     25  C   UNL A   1      33.673  28.577  27.300  1.00  0.00     0.116 C 
BRANCH  25  26
ATOM     26  N   UNL A   1      33.595  29.983  27.667  1.00  0.00    -0.352 N 
ATOM     27  C   UNL A   1      34.563  30.763  28.253  1.00  0.00     0.251 C 
ATOM     28  H   UNL A   1      32.741  30.433  27.471  1.00  0.00     0.163 HD
ATOM     29  O   UNL A   1      34.304  31.905  28.616  1.00  0.00    -0.269 OA
BRANCH  27  30
ATOM     30  C   UNL A   1      35.906  30.191  28.476  1.00  0.00     0.039 A 
ATOM     31  C   UNL A   1      36.833  30.222  27.434  1.00  0.00     0.014 A 
ATOM     32  C   UNL A   1      36.259  29.678  29.727  1.00  0.00     0.014 A 
ATOM     33  C   UNL A   1      38.140  29.793  27.668  1.00  0.00     0.010 A 
ATOM     34  C   UNL A   1      37.580  29.328  29.979  1.00  0.00     0.010 A 
ATOM     35  C   UNL A   1      38.533  29.375  28.951  1.00  0.00    -0.014 A 
BRANCH  35  36
ATOM     36  C   UNL A   1      39.936  28.980  29.227  1.00  0.00     0.031 A 
ATOM     37  C   UNL A   1      40.879  29.954  29.882  1.00  0.00     0.074 A 
ATOM     38  C   UNL A   1      40.375  27.764  28.844  1.00  0.00     0.049 A 
ATOM     39  N   UNL A   1      42.138  29.793  30.199  1.00  0.00    -0.248 NA
ATOM     40  C   UNL A   1      40.348  31.290  30.197  1.00  0.00     0.031 C 
ATOM     41  C   UNL A   1      39.575  26.756  28.144  1.00  0.00     0.029 A 
ATOM     42  N   UNL A   1      41.602  27.170  28.990  1.00  0.00    -0.354 N 
ATOM     43  C   UNL A   1      42.551  31.007  30.733  1.00  0.00     0.074 A 
ATOM     44  C   UNL A   1      41.427  31.913  30.645  1.00  0.00     0.031 C 
ATOM     45  C   UNL A   1      40.320  25.655  27.956  1.00  0.00     0.029 A 
ATOM     46  C   UNL A   1      41.657  25.889  28.492  1.00  0.00     0.049 A 
ATOM     47  H   UNL A   1      42.371  27.618  29.410  1.00  0.00     0.167 HD
ATOM     48  C   UNL A   1      43.750  31.334  31.271  1.00  0.00     0.031 A 
ATOM     49  C   UNL A   1      42.669  24.998  28.476  1.00  0.00     0.031 A 
ATOM     50  C   UNL A   1      44.859  30.425  31.374  1.00  0.00     0.049 A 
ATOM     51  C   UNL A   1      43.982  25.373  29.107  1.00  0.00     0.074 A 
ATOM     52  C   UNL A   1      46.096  30.638  31.956  1.00  0.00     0.029 A 
ATOM     53  N   UNL A   1      44.865  29.128  30.885  1.00  0.00    -0.354 N 
ATOM     54  N   UNL A   1      44.329  26.503  29.675  1.00  0.00    -0.248 NA
ATOM     55  C   UNL A   1      45.031  24.346  29.111  1.00  0.00     0.031 C 
ATOM     56  C   UNL A   1      46.865  29.483  31.782  1.00  0.00     0.029 A 
ATOM     57  C   UNL A   1      46.088  28.533  31.139  1.00  0.00     0.049 A 
ATOM     58  H   UNL A   1      44.110  28.694  30.424  1.00  0.00     0.167 HD
ATOM     59  C   UNL A   1      45.627  26.311  30.135  1.00  0.00     0.074 A 
ATOM     60  C   UNL A   1      45.997  24.954  29.787  1.00  0.00     0.031 C 
ATOM     61  C   UNL A   1      46.438  27.179  30.789  1.00  0.00     0.031 A 
BRANCH  48  62
ATOM     62  C   UNL A   1      43.916  32.737  31.794  1.00  0.00    -0.014 A 
ATOM     63  C   UNL A   1      43.623  33.053  33.133  1.00  0.00     0.010 A 
ATOM     64  C   UNL A   1      44.400  33.748  30.944  1.00  0.00     0.010 A 
ATOM     65  C   UNL A   1      43.765  34.361  33.601  1.00  0.00     0.020 A 
ATOM     66  C   UNL A   1      44.572  35.053  31.416  1.00  0.00     0.020 A 
ATOM     67  C   UNL A   1      44.235  35.355  32.736  1.00  0.00     0.054 A 
BRANCH  67  68
ATOM     68  S   UNL A   1      44.426  37.042  33.374  1.00  0.00     0.124 S 
ATOM     69  O   UNL A   1      43.837  37.838  32.300  1.00  0.00    -0.237 OA
ATOM     70  O   UNL A   1      43.663  37.003  34.619  1.00  0.00    -0.237 OA
ATOM     71  O   UNL A   1      45.870  37.189  33.537  1.00  0.00    -0.744 OA
ENDBRANCH  67  68
ENDBRANCH  48  62
BRANCH  49  72
ATOM     72  C   UNL A   1      42.462  23.651  27.880  1.00  0.00    -0.014 A 
ATOM     73  C   UNL A   1      42.957  23.356  26.597  1.00  0.00     0.010 A 
ATOM     74  C   UNL A   1      41.786  22.649  28.600  1.00  0.00     0.010 A 
ATOM     75  C   UNL A   1      42.761  22.090  26.036  1.00  0.00     0.020 A 
ATOM     76  C   UNL A   1      41.612  21.375  28.052  1.00  0.00     0.020 A 
ATOM     77  C   UNL A   1      42.090  21.107  26.769  1.00  0.00     0.054 A 
BRANCH  77  78
ATOM     78  S   UNL A   1      41.894  19.455  26.043  1.00  0.00     0.124 S 
ATOM     79  O   UNL A   1      40.455  19.398  25.804  1.00  0.00    -0.237 OA
ATOM     80  O   UNL A   1      42.733  19.532  24.850  1.00  0.00    -0.237 OA
ATOM     81  O   UNL A   1      42.393  18.563  27.087  1.00  0.00    -0.744 OA
ENDBRANCH  77  78
ENDBRANCH  49  72
BRANCH  61  82
ATOM     82  C   UNL A   1      47.792  26.675  31.212  1.00  0.00    -0.014 A 
ATOM     83  C   UNL A   1      47.985  26.060  32.462  1.00  0.00     0.010 A 
ATOM     84  C   UNL A   1      48.876  26.776  30.321  1.00  0.00     0.010 A 
ATOM     85  C   UNL A   1      49.248  25.588  32.828  1.00  0.00     0.020 A 
ATOM     86  C   UNL A   1      50.133  26.280  30.673  1.00  0.00     0.020 A 
ATOM     87  C   UNL A   1      50.315  25.704  31.931  1.00  0.00     0.054 A 
BRANCH  87  88
ATOM     88  S   UNL A   1      51.937  25.052  32.413  1.00  0.00     0.124 S 
ATOM     89  O   UNL A   1      52.816  25.665  31.421  1.00  0.00    -0.237 OA
ATOM     90  O   UNL A   1      52.091  25.547  33.779  1.00  0.00    -0.237 OA
ATOM     91  O   UNL A   1      51.778  23.605  32.296  1.00  0.00    -0.744 OA
ENDBRANCH  87  88
ENDBRANCH  61  82
ENDBRANCH  35  36
ENDBRANCH  27  30
ENDBRANCH  25  26
ENDBRANCH  24  25
ENDBRANCH   1  24
TORSDOF 18
ENDMDL
MODEL 2
REMARK VINA RESULT:     -10.5      3.264      3.943
REMARK SMILES CSCc1ccc(C(=O)N[C@H]2C=C[C@@H](C(=O)NCCCCNC(=O)c3ccc(-c4c5nc(c(-c6ccc(S(=O)(=O)[O-])cc6)c6ccc([nH]6)c(-c6ccc(S(=O)(=O)[O-])cc6)c6nc(c(-c7ccc(S(=O)(=O)[O-])cc7)c7ccc4[nH]7)C=C6)C=C5)cc3)C2)o1
REMARK SMILES IDX 19 1 18 2 17 3 15 4 16 5 14 7 11 8 12 9 85 10 13 11 10 12
REMARK SMILES IDX 8 13 9 14 7 16 4 17 5 18 86 19 6 20 3 21 2 22 1 23 20 24
REMARK SMILES IDX 21 25 22 26 23 27 24 29 25 30 26 31 84 32 27 33 83 34 28 35
REMARK SMILES IDX 29 36 30 37 77 38 31 39 82 40 76 41 78 42 32 43 81 44 75 45
REMARK SMILES IDX 74 46 33 48 63 49 44 50 62 51 45 52 48 53 61 54 79 55 46 56
REMARK SMILES IDX 47 57 60 59 80 60 49 61 34 62 35 63 43 64 36 65 42 66 37 67
REMARK SMILES IDX 38 68 39 69 40 70 41 71 64 72 65 73 73 74 66 75 72 76 67 77
REMARK SMILES IDX 68 78 69 79 70 80 71 81 50 82 51 83 59 84 52 85 58 86 53 87
REMARK SMILES IDX 54 88 55 89 56 90 57 91
REMARK H PARENT 17 6 10 15 22 28 78 47 48 58
REMARK Flexibility Score: inf
ROOT
ATOM      1  C   UNL A   1      34.047  29.428  27.165  1.00  0.00     0.023 C 
ENDROOT
BRANCH   1   2
ATOM      2  C   UNL A   1      33.728  29.318  25.676  1.00  0.00     0.116 C 
BRANCH   2   3
ATOM      3  N   UNL A   1      32.417  29.863  25.373  1.00  0.00    -0.356 N 
ATOM      4  C   UNL A   1      31.369  29.335  24.683  1.00  0.00     0.227 C 
ATOM      5  O   UNL A   1      30.353  30.026  24.566  1.00  0.00    -0.274 OA
ATOM      6  H   UNL A   1      32.259  30.767  25.728  1.00  0.00     0.163 HD
BRANCH   4   7
ATOM      7  C   UNL A   1      31.397  27.919  24.109  1.00  0.00     0.103 C 
ATOM      8  C   UNL A   1      30.656  25.669  24.725  1.00  0.00     0.106 C 
ATOM      9  C   UNL A   1      29.659  26.375  23.860  1.00  0.00    -0.006 C 
ATOM     10  C   UNL A   1      31.636  26.786  25.115  1.00  0.00     0.047 C 
ATOM     11  C   UNL A   1      30.084  27.580  23.477  1.00  0.00    -0.016 C 
BRANCH   8  12
ATOM     12  N   UNL A   1      29.984  25.049  25.837  1.00  0.00    -0.343 N 
ATOM     13  C   UNL A   1      30.282  23.876  26.505  1.00  0.00     0.287 C 
ATOM     14  O   UNL A   1      29.573  23.625  27.482  1.00  0.00    -0.266 OA
ATOM     15  H   UNL A   1      29.194  25.532  26.173  1.00  0.00     0.164 HD
BRANCH  13  16
ATOM     16  C   UNL A   1      31.345  22.988  26.044  1.00  0.00     0.191 A 
ATOM     17  C   UNL A   1      33.454  22.297  25.995  1.00  0.00     0.114 A 
ATOM     18  C   UNL A   1      32.725  21.360  25.305  1.00  0.00     0.047 A 
ATOM     19  O   UNL A   1      32.626  23.270  26.471  1.00  0.00    -0.455 OA
ATOM     20  C   UNL A   1      31.407  21.851  25.257  1.00  0.00     0.056 A 
BRANCH  17  21
ATOM     21  C   UNL A   1      34.899  22.409  26.302  1.00  0.00     0.144 C 
BRANCH  21  22
ATOM     22  S   UNL A   1      35.924  21.242  25.333  1.00  0.00    -0.157 SA
ATOM     23  C   UNL A   1      37.445  22.209  25.133  1.00  0.00     0.085 C 
ENDBRANCH  21  22
ENDBRANCH  17  21
ENDBRANCH  13  16
ENDBRANCH   8  12
ENDBRANCH   4   7
ENDBRANCH   2   3
ENDBRANCH   1   2
BRANCH   1  24
ATOM     24  C   UNL A   1      34.344  30.848  27.637  1.00  0.00     0.023 C 
BRANCH  24  25
ATOM     25  C   UNL A   1      35.673  31.014  28.362  1.00  0.00     0.116 C 
BRANCH  25  26
ATOM     26  N   UNL A   1      35.569  30.810  29.799  1.00  0.00    -0.352 N 
ATOM     27  C   UNL A   1      36.537  30.364  30.665  1.00  0.00     0.251 C 
ATOM     28  H   UNL A   1      34.694  31.017  30.200  1.00  0.00     0.163 HD
ATOM     29  O   UNL A   1      36.260  30.126  31.836  1.00  0.00    -0.269 OA
BRANCH  27  30
ATOM     30  C   UNL A   1      37.905  30.138  30.157  1.00  0.00     0.039 A 
ATOM     31  C   UNL A   1      38.935  29.910  31.071  1.00  0.00     0.014 A 
ATOM     32  C   UNL A   1      38.153  30.098  28.782  1.00  0.00     0.014 A 
ATOM     33  C   UNL A   1      40.206  29.580  30.600  1.00  0.00     0.010 A 
ATOM     34  C   UNL A   1      39.397  29.689  28.318  1.00  0.00     0.010 A 
ATOM     35  C   UNL A   1      40.439  29.433  29.222  1.00  0.00    -0.014 A 
BRANCH  35  36
ATOM     36  C   UNL A   1      41.770  29.016  28.714  1.00  0.00     0.031 A 
ATOM     37  C   UNL A   1      42.884  30.021  28.604  1.00  0.00     0.074 A 
ATOM     38  C   UNL A   1      41.959  27.745  28.306  1.00  0.00     0.049 A 
ATOM     39  N   UNL A   1      44.110  29.847  28.180  1.00  0.00    -0.248 NA
ATOM     40  C   UNL A   1      42.576  31.408  28.992  1.00  0.00     0.031 C 
ATOM     41  C   UNL A   1      40.938  26.694  28.304  1.00  0.00     0.029 A 
ATOM     42  N   UNL A   1      43.077  27.121  27.814  1.00  0.00    -0.354 N 
ATOM     43  C   UNL A   1      44.710  31.099  28.237  1.00  0.00     0.074 A 
ATOM     44  C   UNL A   1      43.700  32.034  28.679  1.00  0.00     0.031 C 
ATOM     45  C   UNL A   1      41.487  25.547  27.871  1.00  0.00     0.029 A 
ATOM     46  C   UNL A   1      42.887  25.788  27.535  1.00  0.00     0.049 A 
ATOM     47  H   UNL A   1      43.934  27.584  27.674  1.00  0.00     0.167 HD
ATOM     48  C   UNL A   1      45.994  31.437  27.968  1.00  0.00     0.031 A 
ATOM     49  C   UNL A   1      43.746  24.860  27.068  1.00  0.00     0.031 A 
ATOM     50  C   UNL A   1      47.000  30.502  27.546  1.00  0.00     0.049 A 
ATOM     51  C   UNL A   1      45.174  25.253  26.805  1.00  0.00     0.074 A 
ATOM     52  C   UNL A   1      48.343  30.731  27.307  1.00  0.00     0.029 A 
ATOM     53  N   UNL A   1      46.775  29.155  27.303  1.00  0.00    -0.354 N 
ATOM     54  N   UNL A   1      45.742  26.428  26.937  1.00  0.00    -0.248 NA
ATOM     55  C   UNL A   1      46.079  24.191  26.351  1.00  0.00     0.031 C 
ATOM     56  C   UNL A   1      48.922  29.532  26.878  1.00  0.00     0.029 A 
ATOM     57  C   UNL A   1      47.950  28.544  26.903  1.00  0.00     0.049 A 
ATOM     58  H   UNL A   1      45.906  28.701  27.400  1.00  0.00     0.167 HD
ATOM     59  C   UNL A   1      47.080  26.239  26.613  1.00  0.00     0.074 A 
ATOM     60  C   UNL A   1      47.237  24.835  26.290  1.00  0.00     0.031 C 
ATOM     61  C   UNL A   1      48.089  27.145  26.588  1.00  0.00     0.031 A 
BRANCH  48  62
ATOM     62  C   UNL A   1      46.377  32.885  28.130  1.00  0.00    -0.014 A 
ATOM     63  C   UNL A   1      46.863  33.376  29.355  1.00  0.00     0.010 A 
ATOM     64  C   UNL A   1      46.278  33.762  27.034  1.00  0.00     0.010 A 
ATOM     65  C   UNL A   1      47.198  34.724  29.496  1.00  0.00     0.020 A 
ATOM     66  C   UNL A   1      46.641  35.106  27.163  1.00  0.00     0.020 A 
ATOM     67  C   UNL A   1      47.081  35.583  28.399  1.00  0.00     0.054 A 
BRANCH  67  68
ATOM     68  S   UNL A   1      47.540  37.325  28.605  1.00  0.00     0.124 S 
ATOM     69  O   UNL A   1      47.508  37.809  27.227  1.00  0.00    -0.237 OA
ATOM     70  O   UNL A   1      46.483  37.835  29.475  1.00  0.00    -0.237 OA
ATOM     71  O   UNL A   1      48.867  37.263  29.212  1.00  0.00    -0.744 OA
ENDBRANCH  67  68
ENDBRANCH  48  62
BRANCH  49  72
ATOM     72  C   UNL A   1      43.285  23.461  26.862  1.00  0.00    -0.014 A 
ATOM     73  C   UNL A   1      42.975  22.995  25.572  1.00  0.00     0.010 A 
ATOM     74  C   UNL A   1      43.175  22.579  27.953  1.00  0.00     0.010 A 
ATOM     75  C   UNL A   1      42.541  21.680  25.379  1.00  0.00     0.020 A 
ATOM     76  C   UNL A   1      42.767  21.256  27.759  1.00  0.00     0.020 A 
ATOM     77  C   UNL A   1      42.441  20.818  26.475  1.00  0.00     0.054 A 
BRANCH  77  78
ATOM     78  S   UNL A   1      41.928  19.100  26.194  1.00  0.00     0.124 S 
ATOM     79  O   UNL A   1      42.832  18.684  25.126  1.00  0.00    -0.237 OA
ATOM     80  O   UNL A   1      42.159  18.483  27.497  1.00  0.00    -0.237 OA
ATOM     81  O   UNL A   1      40.522  19.224  25.814  1.00  0.00    -0.744 OA
ENDBRANCH  77  78
ENDBRANCH  49  72
BRANCH  61  82
ATOM     82  C   UNL A   1      49.464  26.639  26.243  1.00  0.00    -0.014 A 
ATOM     83  C   UNL A   1      49.985  26.767  24.944  1.00  0.00     0.010 A 
ATOM     84  C   UNL A   1      50.264  26.071  27.251  1.00  0.00     0.010 A 
ATOM     85  C   UNL A   1      51.270  26.303  24.650  1.00  0.00     0.020 A 
ATOM     86  C   UNL A   1      51.559  25.631  26.968  1.00  0.00     0.020 A 
ATOM     87  C   UNL A   1      52.047  25.734  25.665  1.00  0.00     0.054 A 
BRANCH  87  88
ATOM     88  S   UNL A   1      53.725  25.170  25.269  1.00  0.00     0.124 S 
ATOM     89  O   UNL A   1      53.563  23.719  25.264  1.00  0.00    -0.237 OA
ATOM     90  O   UNL A   1      53.971  25.779  23.964  1.00  0.00    -0.237 OA
ATOM     91  O   UNL A   1      54.536  25.703  26.361  1.00  0.00    -0.744 OA
ENDBRANCH  87  88
ENDBRANCH  61  82
ENDBRANCH  35  36
ENDBRANCH  27  30
ENDBRANCH  25  26
ENDBRANCH  24  25
ENDBRANCH   1  24
TORSDOF 18
ENDMDL
MODEL 3
REMARK VINA RESULT:     -10.5      4.063      5.241
REMARK SMILES CSCc1ccc(C(=O)N[C@H]2C=C[C@@H](C(=O)NCCCCNC(=O)c3ccc(-c4c5nc(c(-c6ccc(S(=O)(=O)[O-])cc6)c6ccc([nH]6)c(-c6ccc(S(=O)(=O)[O-])cc6)c6nc(c(-c7ccc(S(=O)(=O)[O-])cc7)c7ccc4[nH]7)C=C6)C=C5)cc3)C2)o1
REMARK SMILES IDX 19 1 18 2 17 3 15 4 16 5 14 7 11 8 12 9 85 10 13 11 10 12
REMARK SMILES IDX 8 13 9 14 7 16 4 17 5 18 86 19 6 20 3 21 2 22 1 23 20 24
REMARK SMILES IDX 21 25 22 26 23 27 24 29 25 30 26 31 84 32 27 33 83 34 28 35
REMARK SMILES IDX 29 36 30 37 77 38 31 39 82 40 76 41 78 42 32 43 81 44 75 45
REMARK SMILES IDX 74 46 33 48 63 49 44 50 62 51 45 52 48 53 61 54 79 55 46 56
REMARK SMILES IDX 47 57 60 59 80 60 49 61 34 62 35 63 43 64 36 65 42 66 37 67
REMARK SMILES IDX 38 68 39 69 40 70 41 71 64 72 65 73 73 74 66 75 72 76 67 77
REMARK SMILES IDX 68 78 69 79 70 80 71 81 50 82 51 83 59 84 52 85 58 86 53 87
REMARK SMILES IDX 54 88 55 89 56 90 57 91
REMARK H PARENT 17 6 10 15 22 28 78 47 48 58
REMARK Flexibility Score: inf
ROOT
ATOM      1  C   UNL A   1      32.882  29.645  26.322  1.00  0.00     0.023 C 
ENDROOT
BRANCH   1   2
ATOM      2  C   UNL A   1      32.514  29.391  24.862  1.00  0.00     0.116 C 
BRANCH   2   3
ATOM      3  N   UNL A   1      31.257  30.029  24.514  1.00  0.00    -0.356 N 
ATOM      4  C   UNL A   1      30.180  29.561  23.824  1.00  0.00     0.227 C 
ATOM      5  O   UNL A   1      29.226  30.326  23.661  1.00  0.00    -0.274 OA
ATOM      6  H   UNL A   1      31.168  30.956  24.830  1.00  0.00     0.163 HD
BRANCH   4   7
ATOM      7  C   UNL A   1      30.102  28.125  23.305  1.00  0.00     0.103 C 
ATOM      8  C   UNL A   1      29.958  25.852  24.200  1.00  0.00     0.106 C 
ATOM      9  C   UNL A   1      28.611  26.414  23.869  1.00  0.00    -0.006 C 
ATOM     10  C   UNL A   1      30.884  27.074  24.103  1.00  0.00     0.047 C 
ATOM     11  C   UNL A   1      28.690  27.632  23.329  1.00  0.00    -0.016 C 
BRANCH   8  12
ATOM     12  N   UNL A   1      29.922  25.231  25.498  1.00  0.00    -0.343 N 
ATOM     13  C   UNL A   1      30.711  24.220  26.015  1.00  0.00     0.287 C 
ATOM     14  O   UNL A   1      30.504  23.937  27.198  1.00  0.00    -0.266 OA
ATOM     15  H   UNL A   1      29.231  25.576  26.109  1.00  0.00     0.164 HD
BRANCH  13  16
ATOM     16  C   UNL A   1      31.691  23.523  25.189  1.00  0.00     0.191 A 
ATOM     17  C   UNL A   1      33.769  22.961  24.644  1.00  0.00     0.114 A 
ATOM     18  C   UNL A   1      32.943  22.192  23.861  1.00  0.00     0.047 A 
ATOM     19  O   UNL A   1      33.023  23.748  25.470  1.00  0.00    -0.455 OA
ATOM     20  C   UNL A   1      31.632  22.619  24.141  1.00  0.00     0.056 A 
BRANCH  17  21
ATOM     21  C   UNL A   1      35.244  23.059  24.743  1.00  0.00     0.144 C 
BRANCH  21  22
ATOM     22  S   UNL A   1      35.983  21.690  25.707  1.00  0.00    -0.157 SA
ATOM     23  C   UNL A   1      37.747  21.963  25.387  1.00  0.00     0.085 C 
ENDBRANCH  21  22
ENDBRANCH  17  21
ENDBRANCH  13  16
ENDBRANCH   8  12
ENDBRANCH   4   7
ENDBRANCH   2   3
ENDBRANCH   1   2
BRANCH   1  24
ATOM     24  C   UNL A   1      32.383  30.979  26.869  1.00  0.00     0.023 C 
BRANCH  24  25
ATOM     25  C   UNL A   1      33.450  31.832  27.541  1.00  0.00     0.116 C 
BRANCH  25  26
ATOM     26  N   UNL A   1      33.005  33.189  27.820  1.00  0.00    -0.352 N 
ATOM     27  C   UNL A   1      33.492  34.067  28.758  1.00  0.00     0.251 C 
ATOM     28  H   UNL A   1      32.261  33.520  27.266  1.00  0.00     0.163 HD
ATOM     29  O   UNL A   1      32.928  35.138  28.956  1.00  0.00    -0.269 OA
BRANCH  27  30
ATOM     30  C   UNL A   1      34.678  33.685  29.549  1.00  0.00     0.039 A 
ATOM     31  C   UNL A   1      34.524  32.786  30.605  1.00  0.00     0.014 A 
ATOM     32  C   UNL A   1      35.943  34.172  29.210  1.00  0.00     0.014 A 
ATOM     33  C   UNL A   1      35.653  32.327  31.284  1.00  0.00     0.010 A 
ATOM     34  C   UNL A   1      37.072  33.652  29.833  1.00  0.00     0.010 A 
ATOM     35  C   UNL A   1      36.938  32.730  30.881  1.00  0.00    -0.014 A 
BRANCH  35  36
ATOM     36  C   UNL A   1      38.149  32.196  31.552  1.00  0.00     0.031 A 
ATOM     37  C   UNL A   1      38.559  32.723  32.901  1.00  0.00     0.074 A 
ATOM     38  C   UNL A   1      38.906  31.273  30.926  1.00  0.00     0.049 A 
ATOM     39  N   UNL A   1      39.585  32.385  33.639  1.00  0.00    -0.248 NA
ATOM     40  C   UNL A   1      37.727  33.789  33.484  1.00  0.00     0.031 C 
ATOM     41  C   UNL A   1      38.648  30.729  29.590  1.00  0.00     0.029 A 
ATOM     42  N   UNL A   1      40.047  30.628  31.330  1.00  0.00    -0.354 N 
ATOM     43  C   UNL A   1      39.529  33.203  34.761  1.00  0.00     0.074 A 
ATOM     44  C   UNL A   1      38.404  34.094  34.580  1.00  0.00     0.031 C 
ATOM     45  C   UNL A   1      39.580  29.806  29.302  1.00  0.00     0.029 A 
ATOM     46  C   UNL A   1      40.518  29.715  30.417  1.00  0.00     0.049 A 
ATOM     47  H   UNL A   1      40.487  30.803  32.193  1.00  0.00     0.167 HD
ATOM     48  C   UNL A   1      40.326  33.198  35.855  1.00  0.00     0.031 A 
ATOM     49  C   UNL A   1      41.582  28.890  30.472  1.00  0.00     0.031 A 
ATOM     50  C   UNL A   1      41.433  32.299  36.040  1.00  0.00     0.049 A 
ATOM     51  C   UNL A   1      42.436  28.881  31.710  1.00  0.00     0.074 A 
ATOM     52  C   UNL A   1      42.266  32.172  37.137  1.00  0.00     0.029 A 
ATOM     53  N   UNL A   1      41.859  31.369  35.104  1.00  0.00    -0.354 N 
ATOM     54  N   UNL A   1      42.322  29.612  32.794  1.00  0.00    -0.248 NA
ATOM     55  C   UNL A   1      43.549  27.924  31.740  1.00  0.00     0.031 C 
ATOM     56  C   UNL A   1      43.223  31.194  36.848  1.00  0.00     0.029 A 
ATOM     57  C   UNL A   1      42.952  30.675  35.592  1.00  0.00     0.049 A 
ATOM     58  H   UNL A   1      41.446  31.226  34.221  1.00  0.00     0.167 HD
ATOM     59  C   UNL A   1      43.328  29.179  33.649  1.00  0.00     0.074 A 
ATOM     60  C   UNL A   1      44.034  28.116  32.960  1.00  0.00     0.031 C 
ATOM     61  C   UNL A   1      43.640  29.618  34.894  1.00  0.00     0.031 A 
BRANCH  48  62
ATOM     62  C   UNL A   1      40.022  34.200  36.939  1.00  0.00    -0.014 A 
ATOM     63  C   UNL A   1      39.284  33.834  38.080  1.00  0.00     0.010 A 
ATOM     64  C   UNL A   1      40.506  35.517  36.831  1.00  0.00     0.010 A 
ATOM     65  C   UNL A   1      38.994  34.776  39.069  1.00  0.00     0.020 A 
ATOM     66  C   UNL A   1      40.243  36.455  37.833  1.00  0.00     0.020 A 
ATOM     67  C   UNL A   1      39.472  36.084  38.937  1.00  0.00     0.054 A 
BRANCH  67  68
ATOM     68  S   UNL A   1      39.096  37.282  40.244  1.00  0.00     0.124 S 
ATOM     69  O   UNL A   1      40.431  37.634  40.723  1.00  0.00    -0.237 OA
ATOM     70  O   UNL A   1      38.389  38.337  39.521  1.00  0.00    -0.237 OA
ATOM     71  O   UNL A   1      38.279  36.522  41.186  1.00  0.00    -0.744 OA
ENDBRANCH  67  68
ENDBRANCH  48  62
BRANCH  49  72
ATOM     72  C   UNL A   1      41.871  27.974  29.336  1.00  0.00    -0.014 A 
ATOM     73  C   UNL A   1      42.948  28.230  28.469  1.00  0.00     0.010 A 
ATOM     74  C   UNL A   1      41.082  26.828  29.126  1.00  0.00     0.010 A 
ATOM     75  C   UNL A   1      43.218  27.370  27.400  1.00  0.00     0.020 A 
ATOM     76  C   UNL A   1      41.366  25.952  28.074  1.00  0.00     0.020 A 
ATOM     77  C   UNL A   1      42.425  26.235  27.211  1.00  0.00     0.054 A 
BRANCH  77  78
ATOM     78  S   UNL A   1      42.826  25.103  25.850  1.00  0.00     0.124 S 
ATOM     79  O   UNL A   1      42.212  25.773  24.708  1.00  0.00    -0.237 OA
ATOM     80  O   UNL A   1      44.287  25.092  25.868  1.00  0.00    -0.237 OA
ATOM     81  O   UNL A   1      42.198  23.848  26.255  1.00  0.00    -0.744 OA
ENDBRANCH  77  78
ENDBRANCH  49  72
BRANCH  61  82
ATOM     82  C   UNL A   1      44.764  28.922  35.612  1.00  0.00    -0.014 A 
ATOM     83  C   UNL A   1      46.089  29.380  35.514  1.00  0.00     0.010 A 
ATOM     84  C   UNL A   1      44.477  27.819  36.438  1.00  0.00     0.010 A 
ATOM     85  C   UNL A   1      47.115  28.725  36.201  1.00  0.00     0.020 A 
ATOM     86  C   UNL A   1      45.495  27.179  37.148  1.00  0.00     0.020 A 
ATOM     87  C   UNL A   1      46.811  27.626  37.012  1.00  0.00     0.054 A 
BRANCH  87  88
ATOM     88  S   UNL A   1      48.152  26.813  37.922  1.00  0.00     0.124 S 
ATOM     89  O   UNL A   1      47.611  26.764  39.278  1.00  0.00    -0.237 OA
ATOM     90  O   UNL A   1      48.267  25.524  37.245  1.00  0.00    -0.237 OA
ATOM     91  O   UNL A   1      49.290  27.710  37.737  1.00  0.00    -0.744 OA
ENDBRANCH  87  88
ENDBRANCH  61  82
ENDBRANCH  35  36
ENDBRANCH  27  30
ENDBRANCH  25  26
ENDBRANCH  24  25
ENDBRANCH   1  24
TORSDOF 18
ENDMDL
