MODEL 1
REMARK VINA RESULT:     -12.6      0.000      0.000
REMARK SMILES Cc1cccc(C[C@H](C(=O)NCCCCNC(=O)c2ccc(-c3c4nc(c(-c5ccc(S(=O)(=O)[O-])cc5)c5ccc([nH]5)c(-c5ccc(S(=O)(=O)[O-])cc5)c5nc(c(-c6ccc(S(=O)(=O)[O-])cc6)c6ccc3[nH]6)C=C5)C=C4)cc2)[C@@H]2CCCC[C@@H]2O)c1
REMARK SMILES IDX 14 1 13 2 12 3 11 4 9 5 10 6 8 8 7 9 6 10 1 11 2 12 3 13
REMARK SMILES IDX 86 14 4 15 5 16 79 17 80 18 84 19 81 20 83 21 82 22 85 23
REMARK SMILES IDX 15 25 16 26 17 27 18 29 19 30 20 31 78 32 21 33 77 34 22 35
REMARK SMILES IDX 23 36 24 37 71 38 25 39 76 40 70 41 72 42 26 43 75 44 69 45
REMARK SMILES IDX 68 46 27 48 57 49 38 50 56 51 39 52 42 53 55 54 73 55 40 56
REMARK SMILES IDX 41 57 54 59 74 60 43 61 28 62 29 63 37 64 30 65 36 66 31 67
REMARK SMILES IDX 32 68 33 69 34 70 35 71 58 72 59 73 67 74 60 75 66 76 61 77
REMARK SMILES IDX 62 78 63 79 64 80 65 81 44 82 45 83 53 84 46 85 52 86 47 87
REMARK SMILES IDX 48 88 49 89 50 90 51 91
REMARK H PARENT 11 7 85 24 16 28 72 47 42 58
REMARK Flexibility Score: inf
ROOT
ATOM      1  C   UNL A   1      33.051  31.110  27.279  1.00  0.00     0.023 C 
ENDROOT
BRANCH   1   2
ATOM      2  C   UNL A   1      32.103  30.733  26.124  1.00  0.00     0.023 C 
BRANCH   2   3
ATOM      3  C   UNL A   1      32.341  29.336  25.492  1.00  0.00     0.116 C 
BRANCH   3   4
ATOM      4  N   UNL A   1      33.067  29.312  24.218  1.00  0.00    -0.356 N 
ATOM      5  C   UNL A   1      33.674  28.313  23.495  1.00  0.00     0.223 C 
ATOM      6  O   UNL A   1      34.514  28.686  22.665  1.00  0.00    -0.275 OA
ATOM      7  H   UNL A   1      33.133  30.196  23.790  1.00  0.00     0.163 HD
BRANCH   5   8
ATOM      8  C   UNL A   1      33.366  26.794  23.668  1.00  0.00     0.088 C 
BRANCH   8   9
ATOM      9  C   UNL A   1      33.369  26.317  25.104  1.00  0.00     0.049 C 
BRANCH   9  10
ATOM     10  C   UNL A   1      34.171  25.099  25.456  1.00  0.00    -0.047 A 
ATOM     11  C   UNL A   1      33.131  22.199  27.551  1.00  0.00     0.044 C 
ATOM     12  C   UNL A   1      33.869  23.004  26.547  1.00  0.00    -0.051 A 
ATOM     13  C   UNL A   1      34.695  22.416  25.598  1.00  0.00     0.003 A 
ATOM     14  C   UNL A   1      33.642  24.361  26.504  1.00  0.00     0.007 A 
ATOM     15  C   UNL A   1      35.398  23.175  24.680  1.00  0.00     0.001 A 
ATOM     16  C   UNL A   1      35.173  24.539  24.648  1.00  0.00     0.004 A 
ENDBRANCH   9  10
ENDBRANCH   8   9
BRANCH   8  17
ATOM     17  C   UNL A   1      32.063  26.295  22.887  1.00  0.00     0.030 C 
ATOM     18  C   UNL A   1      30.997  25.431  23.622  1.00  0.00     0.007 C 
ATOM     19  C   UNL A   1      32.441  25.522  21.607  1.00  0.00     0.118 C 
ATOM     20  C   UNL A   1      31.314  23.943  23.832  1.00  0.00     0.001 C 
ATOM     21  C   UNL A   1      33.043  24.157  21.936  1.00  0.00     0.032 C 
ATOM     22  C   UNL A   1      32.054  23.265  22.680  1.00  0.00     0.003 C 
BRANCH  19  23
ATOM     23  O   UNL A   1      33.359  26.272  20.817  1.00  0.00    -0.393 OA
ATOM     24  H   UNL A   1      33.854  26.880  21.388  1.00  0.00     0.210 HD
ENDBRANCH  19  23
ENDBRANCH   8  17
ENDBRANCH   5   8
ENDBRANCH   3   4
ENDBRANCH   2   3
ENDBRANCH   1   2
BRANCH   1  25
ATOM     25  C   UNL A   1      34.188  30.124  27.594  1.00  0.00     0.116 C 
BRANCH  25  26
ATOM     26  N   UNL A   1      35.476  30.279  26.940  1.00  0.00    -0.352 N 
ATOM     27  C   UNL A   1      36.547  30.751  27.733  1.00  0.00     0.251 C 
ATOM     28  H   UNL A   1      35.598  30.065  25.986  1.00  0.00     0.163 HD
ATOM     29  O   UNL A   1      36.561  31.782  28.335  1.00  0.00    -0.269 OA
BRANCH  27  30
ATOM     30  C   UNL A   1      37.480  29.652  28.115  1.00  0.00     0.039 A 
ATOM     31  C   UNL A   1      37.355  28.832  29.236  1.00  0.00     0.014 A 
ATOM     32  C   UNL A   1      38.597  29.553  27.283  1.00  0.00     0.014 A 
ATOM     33  C   UNL A   1      38.436  28.007  29.597  1.00  0.00     0.010 A 
ATOM     34  C   UNL A   1      39.680  28.798  27.683  1.00  0.00     0.010 A 
ATOM     35  C   UNL A   1      39.626  28.058  28.868  1.00  0.00    -0.014 A 
BRANCH  35  36
ATOM     36  C   UNL A   1      40.897  27.434  29.239  1.00  0.00     0.031 A 
ATOM     37  C   UNL A   1      41.194  26.063  28.766  1.00  0.00     0.074 A 
ATOM     38  C   UNL A   1      41.890  28.182  29.773  1.00  0.00     0.049 A 
ATOM     39  N   UNL A   1      42.118  25.309  29.257  1.00  0.00    -0.248 NA
ATOM     40  C   UNL A   1      40.457  25.429  27.674  1.00  0.00     0.031 C 
ATOM     41  C   UNL A   1      43.322  27.882  29.837  1.00  0.00     0.029 A 
ATOM     42  N   UNL A   1      41.774  29.362  30.516  1.00  0.00    -0.354 N 
ATOM     43  C   UNL A   1      42.309  24.277  28.367  1.00  0.00     0.074 A 
ATOM     44  C   UNL A   1      41.201  24.343  27.447  1.00  0.00     0.031 C 
ATOM     45  C   UNL A   1      43.885  28.639  30.795  1.00  0.00     0.029 A 
ATOM     46  C   UNL A   1      42.794  29.319  31.484  1.00  0.00     0.049 A 
ATOM     47  H   UNL A   1      41.111  30.078  30.389  1.00  0.00     0.167 HD
ATOM     48  C   UNL A   1      43.473  23.573  28.381  1.00  0.00     0.031 A 
ATOM     49  C   UNL A   1      42.522  29.203  32.818  1.00  0.00     0.031 A 
ATOM     50  C   UNL A   1      44.390  24.060  29.408  1.00  0.00     0.049 A 
ATOM     51  C   UNL A   1      43.177  27.972  33.396  1.00  0.00     0.074 A 
ATOM     52  C   UNL A   1      45.517  24.863  29.352  1.00  0.00     0.029 A 
ATOM     53  N   UNL A   1      44.015  23.999  30.749  1.00  0.00    -0.354 N 
ATOM     54  N   UNL A   1      43.389  26.877  32.715  1.00  0.00    -0.248 NA
ATOM     55  C   UNL A   1      43.722  27.913  34.747  1.00  0.00     0.031 C 
ATOM     56  C   UNL A   1      45.782  25.339  30.660  1.00  0.00     0.029 A 
ATOM     57  C   UNL A   1      44.830  24.808  31.514  1.00  0.00     0.049 A 
ATOM     58  H   UNL A   1      43.273  23.455  31.100  1.00  0.00     0.167 HD
ATOM     59  C   UNL A   1      44.164  26.030  33.463  1.00  0.00     0.074 A 
ATOM     60  C   UNL A   1      44.308  26.702  34.742  1.00  0.00     0.031 C 
ATOM     61  C   UNL A   1      44.688  24.874  32.962  1.00  0.00     0.031 A 
BRANCH  48  62
ATOM     62  C   UNL A   1      43.873  22.666  27.242  1.00  0.00    -0.014 A 
ATOM     63  C   UNL A   1      42.997  21.652  26.809  1.00  0.00     0.010 A 
ATOM     64  C   UNL A   1      45.113  22.751  26.578  1.00  0.00     0.010 A 
ATOM     65  C   UNL A   1      43.362  20.723  25.824  1.00  0.00     0.020 A 
ATOM     66  C   UNL A   1      45.508  21.806  25.615  1.00  0.00     0.020 A 
ATOM     67  C   UNL A   1      44.627  20.794  25.245  1.00  0.00     0.054 A 
BRANCH  67  68
ATOM     68  S   UNL A   1      45.088  19.556  24.005  1.00  0.00     0.124 S 
ATOM     69  O   UNL A   1      44.404  18.358  24.485  1.00  0.00    -0.237 OA
ATOM     70  O   UNL A   1      44.554  20.134  22.775  1.00  0.00    -0.237 OA
ATOM     71  O   UNL A   1      46.546  19.508  24.088  1.00  0.00    -0.744 OA
ENDBRANCH  67  68
ENDBRANCH  48  62
BRANCH  49  72
ATOM     72  C   UNL A   1      41.213  29.780  33.257  1.00  0.00    -0.014 A 
ATOM     73  C   UNL A   1      41.069  31.182  33.336  1.00  0.00     0.010 A 
ATOM     74  C   UNL A   1      40.046  29.000  33.207  1.00  0.00     0.010 A 
ATOM     75  C   UNL A   1      39.807  31.792  33.197  1.00  0.00     0.020 A 
ATOM     76  C   UNL A   1      38.784  29.605  33.061  1.00  0.00     0.020 A 
ATOM     77  C   UNL A   1      38.683  30.994  32.973  1.00  0.00     0.054 A 
BRANCH  77  78
ATOM     78  S   UNL A   1      37.126  31.767  32.409  1.00  0.00     0.124 S 
ATOM     79  O   UNL A   1      37.585  32.694  31.378  1.00  0.00    -0.237 OA
ATOM     80  O   UNL A   1      36.355  30.625  31.922  1.00  0.00    -0.237 OA
ATOM     81  O   UNL A   1      36.594  32.385  33.621  1.00  0.00    -0.744 OA
ENDBRANCH  77  78
ENDBRANCH  49  72
BRANCH  61  82
ATOM     82  C   UNL A   1      45.252  23.734  33.775  1.00  0.00    -0.014 A 
ATOM     83  C   UNL A   1      46.541  23.730  34.326  1.00  0.00     0.010 A 
ATOM     84  C   UNL A   1      44.394  22.670  34.150  1.00  0.00     0.010 A 
ATOM     85  C   UNL A   1      46.969  22.698  35.171  1.00  0.00     0.020 A 
ATOM     86  C   UNL A   1      44.792  21.662  35.030  1.00  0.00     0.020 A 
ATOM     87  C   UNL A   1      46.089  21.675  35.523  1.00  0.00     0.054 A 
BRANCH  87  88
ATOM     88  S   UNL A   1      46.628  20.416  36.703  1.00  0.00     0.124 S 
ATOM     89  O   UNL A   1      46.118  19.193  36.090  1.00  0.00    -0.237 OA
ATOM     90  O   UNL A   1      48.082  20.564  36.691  1.00  0.00    -0.237 OA
ATOM     91  O   UNL A   1      45.980  20.811  37.950  1.00  0.00    -0.744 OA
ENDBRANCH  87  88
ENDBRANCH  61  82
ENDBRANCH  35  36
ENDBRANCH  27  30
ENDBRANCH  25  26
ENDBRANCH   1  25
TORSDOF 18
ENDMDL
MODEL 2
REMARK VINA RESULT:     -12.5      1.237      1.722
REMARK SMILES Cc1cccc(C[C@H](C(=O)NCCCCNC(=O)c2ccc(-c3c4nc(c(-c5ccc(S(=O)(=O)[O-])cc5)c5ccc([nH]5)c(-c5ccc(S(=O)(=O)[O-])cc5)c5nc(c(-c6ccc(S(=O)(=O)[O-])cc6)c6ccc3[nH]6)C=C5)C=C4)cc2)[C@@H]2CCCC[C@@H]2O)c1
REMARK SMILES IDX 14 1 13 2 12 3 11 4 9 5 10 6 8 8 7 9 6 10 1 11 2 12 3 13
REMARK SMILES IDX 86 14 4 15 5 16 79 17 80 18 84 19 81 20 83 21 82 22 85 23
REMARK SMILES IDX 15 25 16 26 17 27 18 29 19 30 20 31 78 32 21 33 77 34 22 35
REMARK SMILES IDX 23 36 24 37 71 38 25 39 76 40 70 41 72 42 26 43 75 44 69 45
REMARK SMILES IDX 68 46 27 48 57 49 38 50 56 51 39 52 42 53 55 54 73 55 40 56
REMARK SMILES IDX 41 57 54 59 74 60 43 61 28 62 29 63 37 64 30 65 36 66 31 67
REMARK SMILES IDX 32 68 33 69 34 70 35 71 58 72 59 73 67 74 60 75 66 76 61 77
REMARK SMILES IDX 62 78 63 79 64 80 65 81 44 82 45 83 53 84 46 85 52 86 47 87
REMARK SMILES IDX 48 88 49 89 50 90 51 91
REMARK H PARENT 11 7 85 24 16 28 72 47 42 58
REMARK Flexibility Score: inf
ROOT
ATOM      1  C   UNL A   1      33.249  29.230  26.911  1.00  0.00     0.023 C 
ENDROOT
BRANCH   1   2
ATOM      2  C   UNL A   1      33.565  28.747  25.482  1.00  0.00     0.023 C 
BRANCH   2   3
ATOM      3  C   UNL A   1      32.578  29.220  24.382  1.00  0.00     0.116 C 
BRANCH   3   4
ATOM      4  N   UNL A   1      31.216  28.680  24.452  1.00  0.00    -0.356 N 
ATOM      5  C   UNL A   1      30.678  27.439  24.205  1.00  0.00     0.223 C 
ATOM      6  O   UNL A   1      29.458  27.417  23.992  1.00  0.00    -0.275 OA
ATOM      7  H   UNL A   1      30.547  29.344  24.737  1.00  0.00     0.163 HD
BRANCH   5   8
ATOM      8  C   UNL A   1      31.500  26.116  24.179  1.00  0.00     0.088 C 
BRANCH   8   9
ATOM      9  C   UNL A   1      31.616  25.427  25.522  1.00  0.00     0.049 C 
BRANCH   9  10
ATOM     10  C   UNL A   1      32.968  24.964  25.979  1.00  0.00    -0.047 A 
ATOM     11  C   UNL A   1      33.867  21.693  27.520  1.00  0.00     0.044 C 
ATOM     12  C   UNL A   1      34.005  22.983  26.800  1.00  0.00    -0.051 A 
ATOM     13  C   UNL A   1      35.135  23.293  26.055  1.00  0.00     0.003 A 
ATOM     14  C   UNL A   1      32.931  23.846  26.798  1.00  0.00     0.007 A 
ATOM     15  C   UNL A   1      35.264  24.507  25.407  1.00  0.00     0.001 A 
ATOM     16  C   UNL A   1      34.188  25.375  25.417  1.00  0.00     0.004 A 
ENDBRANCH   9  10
ENDBRANCH   8   9
BRANCH   8  17
ATOM     17  C   UNL A   1      31.062  25.092  23.031  1.00  0.00     0.030 C 
ATOM     18  C   UNL A   1      31.025  23.563  23.323  1.00  0.00     0.007 C 
ATOM     19  C   UNL A   1      31.922  25.272  21.764  1.00  0.00     0.118 C 
ATOM     20  C   UNL A   1      32.365  22.812  23.336  1.00  0.00     0.001 C 
ATOM     21  C   UNL A   1      33.348  24.768  21.982  1.00  0.00     0.032 C 
ATOM     22  C   UNL A   1      33.382  23.276  22.295  1.00  0.00     0.003 C 
BRANCH  19  23
ATOM     23  O   UNL A   1      31.953  26.638  21.365  1.00  0.00    -0.393 OA
ATOM     24  H   UNL A   1      32.741  26.798  20.823  1.00  0.00     0.210 HD
ENDBRANCH  19  23
ENDBRANCH   8  17
ENDBRANCH   5   8
ENDBRANCH   3   4
ENDBRANCH   2   3
ENDBRANCH   1   2
BRANCH   1  25
ATOM     25  C   UNL A   1      34.217  30.254  27.527  1.00  0.00     0.116 C 
BRANCH  25  26
ATOM     26  N   UNL A   1      35.524  30.460  26.924  1.00  0.00    -0.352 N 
ATOM     27  C   UNL A   1      36.563  30.894  27.778  1.00  0.00     0.251 C 
ATOM     28  H   UNL A   1      35.678  30.304  25.964  1.00  0.00     0.163 HD
ATOM     29  O   UNL A   1      36.547  31.888  28.440  1.00  0.00    -0.269 OA
BRANCH  27  30
ATOM     30  C   UNL A   1      37.497  29.784  28.125  1.00  0.00     0.039 A 
ATOM     31  C   UNL A   1      37.379  28.937  29.226  1.00  0.00     0.014 A 
ATOM     32  C   UNL A   1      38.606  29.702  27.281  1.00  0.00     0.014 A 
ATOM     33  C   UNL A   1      38.461  28.101  29.558  1.00  0.00     0.010 A 
ATOM     34  C   UNL A   1      39.690  28.935  27.653  1.00  0.00     0.010 A 
ATOM     35  C   UNL A   1      39.644  28.167  28.820  1.00  0.00    -0.014 A 
BRANCH  35  36
ATOM     36  C   UNL A   1      40.916  27.530  29.165  1.00  0.00     0.031 A 
ATOM     37  C   UNL A   1      41.159  26.128  28.754  1.00  0.00     0.074 A 
ATOM     38  C   UNL A   1      41.952  28.279  29.610  1.00  0.00     0.049 A 
ATOM     39  N   UNL A   1      42.086  25.378  29.241  1.00  0.00    -0.248 NA
ATOM     40  C   UNL A   1      40.355  25.457  27.733  1.00  0.00     0.031 C 
ATOM     41  C   UNL A   1      43.377  27.946  29.623  1.00  0.00     0.029 A 
ATOM     42  N   UNL A   1      41.899  29.500  30.294  1.00  0.00    -0.354 N 
ATOM     43  C   UNL A   1      42.211  24.295  28.401  1.00  0.00     0.074 A 
ATOM     44  C   UNL A   1      41.061  24.342  27.531  1.00  0.00     0.031 C 
ATOM     45  C   UNL A   1      44.004  28.738  30.512  1.00  0.00     0.029 A 
ATOM     46  C   UNL A   1      42.963  29.482  31.214  1.00  0.00     0.049 A 
ATOM     47  H   UNL A   1      41.248  30.225  30.158  1.00  0.00     0.167 HD
ATOM     48  C   UNL A   1      43.357  23.563  28.398  1.00  0.00     0.031 A 
ATOM     49  C   UNL A   1      42.752  29.443  32.563  1.00  0.00     0.031 A 
ATOM     50  C   UNL A   1      44.333  24.080  29.354  1.00  0.00     0.049 A 
ATOM     51  C   UNL A   1      43.405  28.228  33.176  1.00  0.00     0.074 A 
ATOM     52  C   UNL A   1      45.475  24.849  29.201  1.00  0.00     0.029 A 
ATOM     53  N   UNL A   1      44.021  24.100  30.712  1.00  0.00    -0.354 N 
ATOM     54  N   UNL A   1      43.558  27.094  32.546  1.00  0.00    -0.248 NA
ATOM     55  C   UNL A   1      44.013  28.227  34.502  1.00  0.00     0.031 C 
ATOM     56  C   UNL A   1      45.813  25.387  30.468  1.00  0.00     0.029 A 
ATOM     57  C   UNL A   1      44.891  24.927  31.393  1.00  0.00     0.049 A 
ATOM     58  H   UNL A   1      43.285  23.595  31.126  1.00  0.00     0.167 HD
ATOM     59  C   UNL A   1      44.349  26.267  33.301  1.00  0.00     0.074 A 
ATOM     60  C   UNL A   1      44.570  27.003  34.535  1.00  0.00     0.031 C 
ATOM     61  C   UNL A   1      44.821  25.073  32.840  1.00  0.00     0.031 A 
BRANCH  48  62
ATOM     62  C   UNL A   1      43.681  22.587  27.292  1.00  0.00    -0.014 A 
ATOM     63  C   UNL A   1      42.791  21.534  27.000  1.00  0.00     0.010 A 
ATOM     64  C   UNL A   1      44.862  22.643  26.525  1.00  0.00     0.010 A 
ATOM     65  C   UNL A   1      43.093  20.546  26.052  1.00  0.00     0.020 A 
ATOM     66  C   UNL A   1      45.194  21.641  25.598  1.00  0.00     0.020 A 
ATOM     67  C   UNL A   1      44.305  20.594  25.369  1.00  0.00     0.054 A 
BRANCH  67  68
ATOM     68  S   UNL A   1      44.687  19.282  24.179  1.00  0.00     0.124 S 
ATOM     69  O   UNL A   1      44.468  19.946  22.896  1.00  0.00    -0.237 OA
ATOM     70  O   UNL A   1      46.077  18.969  24.496  1.00  0.00    -0.237 OA
ATOM     71  O   UNL A   1      43.723  18.232  24.500  1.00  0.00    -0.744 OA
ENDBRANCH  67  68
ENDBRANCH  48  62
BRANCH  49  72
ATOM     72  C   UNL A   1      41.480  30.077  33.031  1.00  0.00    -0.014 A 
ATOM     73  C   UNL A   1      40.380  29.255  33.357  1.00  0.00     0.010 A 
ATOM     74  C   UNL A   1      41.486  31.394  33.519  1.00  0.00     0.010 A 
ATOM     75  C   UNL A   1      39.403  29.681  34.280  1.00  0.00     0.020 A 
ATOM     76  C   UNL A   1      40.517  31.820  34.446  1.00  0.00     0.020 A 
ATOM     77  C   UNL A   1      39.532  30.933  34.883  1.00  0.00     0.054 A 
BRANCH  77  78
ATOM     78  S   UNL A   1      38.514  31.339  36.345  1.00  0.00     0.124 S 
ATOM     79  O   UNL A   1      39.443  32.097  37.179  1.00  0.00    -0.237 OA
ATOM     80  O   UNL A   1      37.417  32.115  35.770  1.00  0.00    -0.237 OA
ATOM     81  O   UNL A   1      38.125  30.031  36.863  1.00  0.00    -0.744 OA
ENDBRANCH  77  78
ENDBRANCH  49  72
BRANCH  61  82
ATOM     82  C   UNL A   1      45.396  23.963  33.687  1.00  0.00    -0.014 A 
ATOM     83  C   UNL A   1      46.687  23.987  34.234  1.00  0.00     0.010 A 
ATOM     84  C   UNL A   1      44.547  22.905  34.098  1.00  0.00     0.010 A 
ATOM     85  C   UNL A   1      47.126  22.985  35.109  1.00  0.00     0.020 A 
ATOM     86  C   UNL A   1      44.956  21.929  35.007  1.00  0.00     0.020 A 
ATOM     87  C   UNL A   1      46.255  21.966  35.496  1.00  0.00     0.054 A 
BRANCH  87  88
ATOM     88  S   UNL A   1      46.807  20.749  36.713  1.00  0.00     0.124 S 
ATOM     89  O   UNL A   1      48.219  21.090  36.857  1.00  0.00    -0.237 OA
ATOM     90  O   UNL A   1      45.968  21.050  37.871  1.00  0.00    -0.237 OA
ATOM     91  O   UNL A   1      46.531  19.468  36.070  1.00  0.00    -0.744 OA
ENDBRANCH  87  88
ENDBRANCH  61  82
ENDBRANCH  35  36
ENDBRANCH  27  30
ENDBRANCH  25  26
ENDBRANCH   1  25
TORSDOF 18
ENDMDL
MODEL 3
REMARK VINA RESULT:     -12.3      4.903     11.281
REMARK SMILES Cc1cccc(C[C@H](C(=O)NCCCCNC(=O)c2ccc(-c3c4nc(c(-c5ccc(S(=O)(=O)[O-])cc5)c5ccc([nH]5)c(-c5ccc(S(=O)(=O)[O-])cc5)c5nc(c(-c6ccc(S(=O)(=O)[O-])cc6)c6ccc3[nH]6)C=C5)C=C4)cc2)[C@@H]2CCCC[C@@H]2O)c1
REMARK SMILES IDX 14 1 13 2 12 3 11 4 9 5 10 6 8 8 7 9 6 10 1 11 2 12 3 13
REMARK SMILES IDX 86 14 4 15 5 16 79 17 80 18 84 19 81 20 83 21 82 22 85 23
REMARK SMILES IDX 15 25 16 26 17 27 18 29 19 30 20 31 78 32 21 33 77 34 22 35
REMARK SMILES IDX 23 36 24 37 71 38 25 39 76 40 70 41 72 42 26 43 75 44 69 45
REMARK SMILES IDX 68 46 27 48 57 49 38 50 56 51 39 52 42 53 55 54 73 55 40 56
REMARK SMILES IDX 41 57 54 59 74 60 43 61 28 62 29 63 37 64 30 65 36 66 31 67
REMARK SMILES IDX 32 68 33 69 34 70 35 71 58 72 59 73 67 74 60 75 66 76 61 77
REMARK SMILES IDX 62 78 63 79 64 80 65 81 44 82 45 83 53 84 46 85 52 86 47 87
REMARK SMILES IDX 48 88 49 89 50 90 51 91
REMARK H PARENT 11 7 85 24 16 28 72 47 42 58
REMARK Flexibility Score: inf
ROOT
ATOM      1  C   UNL A   1      37.835  21.717  25.381  1.00  0.00     0.023 C 
ENDROOT
BRANCH   1   2
ATOM      2  C   UNL A   1      36.576  21.560  24.506  1.00  0.00     0.023 C 
BRANCH   2   3
ATOM      3  C   UNL A   1      35.421  20.736  25.137  1.00  0.00     0.116 C 
BRANCH   3   4
ATOM      4  N   UNL A   1      34.914  21.209  26.430  1.00  0.00    -0.356 N 
ATOM      5  C   UNL A   1      34.276  22.358  26.831  1.00  0.00     0.223 C 
ATOM      6  O   UNL A   1      34.326  22.603  28.044  1.00  0.00    -0.275 OA
ATOM      7  H   UNL A   1      35.061  20.568  27.163  1.00  0.00     0.163 HD
BRANCH   5   8
ATOM      8  C   UNL A   1      33.525  23.327  25.867  1.00  0.00     0.088 C 
BRANCH   8   9
ATOM      9  C   UNL A   1      34.296  24.582  25.520  1.00  0.00     0.049 C 
BRANCH   9  10
ATOM     10  C   UNL A   1      33.612  25.909  25.665  1.00  0.00    -0.047 A 
ATOM     11  C   UNL A   1      33.461  28.689  23.189  1.00  0.00     0.044 C 
ATOM     12  C   UNL A   1      33.107  27.823  24.340  1.00  0.00    -0.051 A 
ATOM     13  C   UNL A   1      31.873  27.905  24.969  1.00  0.00     0.003 A 
ATOM     14  C   UNL A   1      34.002  26.848  24.721  1.00  0.00     0.007 A 
ATOM     15  C   UNL A   1      31.560  27.110  26.056  1.00  0.00     0.001 A 
ATOM     16  C   UNL A   1      32.465  26.139  26.442  1.00  0.00     0.004 A 
ENDBRANCH   9  10
ENDBRANCH   8   9
BRANCH   8  17
ATOM     17  C   UNL A   1      32.931  22.623  24.560  1.00  0.00     0.030 C 
ATOM     18  C   UNL A   1      33.137  23.275  23.162  1.00  0.00     0.007 C 
ATOM     19  C   UNL A   1      31.417  22.368  24.702  1.00  0.00     0.118 C 
ATOM     20  C   UNL A   1      32.242  24.470  22.799  1.00  0.00     0.001 C 
ATOM     21  C   UNL A   1      30.623  23.672  24.636  1.00  0.00     0.032 C 
ATOM     22  C   UNL A   1      30.799  24.377  23.294  1.00  0.00     0.003 C 
BRANCH  19  23
ATOM     23  O   UNL A   1      31.130  21.695  25.923  1.00  0.00    -0.393 OA
ATOM     24  H   UNL A   1      30.442  22.180  26.405  1.00  0.00     0.210 HD
ENDBRANCH  19  23
ENDBRANCH   8  17
ENDBRANCH   5   8
ENDBRANCH   3   4
ENDBRANCH   2   3
ENDBRANCH   1   2
BRANCH   1  25
ATOM     25  C   UNL A   1      38.256  23.151  25.741  1.00  0.00     0.116 C 
BRANCH  25  26
ATOM     26  N   UNL A   1      38.352  23.543  27.138  1.00  0.00    -0.352 N 
ATOM     27  C   UNL A   1      39.594  24.052  27.578  1.00  0.00     0.251 C 
ATOM     28  H   UNL A   1      37.585  23.457  27.750  1.00  0.00     0.163 HD
ATOM     29  O   UNL A   1      40.640  23.480  27.512  1.00  0.00    -0.269 OA
BRANCH  27  30
ATOM     30  C   UNL A   1      39.565  25.536  27.724  1.00  0.00     0.039 A 
ATOM     31  C   UNL A   1      40.097  26.453  26.817  1.00  0.00     0.014 A 
ATOM     32  C   UNL A   1      39.023  25.968  28.936  1.00  0.00     0.014 A 
ATOM     33  C   UNL A   1      40.212  27.801  27.204  1.00  0.00     0.010 A 
ATOM     34  C   UNL A   1      39.205  27.275  29.337  1.00  0.00     0.010 A 
ATOM     35  C   UNL A   1      39.845  28.189  28.494  1.00  0.00    -0.014 A 
BRANCH  35  36
ATOM     36  C   UNL A   1      40.102  29.491  29.113  1.00  0.00     0.031 A 
ATOM     37  C   UNL A   1      39.042  30.524  29.093  1.00  0.00     0.074 A 
ATOM     38  C   UNL A   1      41.177  29.659  29.918  1.00  0.00     0.049 A 
ATOM     39  N   UNL A   1      39.242  31.775  29.329  1.00  0.00    -0.248 NA
ATOM     40  C   UNL A   1      37.643  30.211  28.802  1.00  0.00     0.031 C 
ATOM     41  C   UNL A   1      41.405  30.693  30.929  1.00  0.00     0.029 A 
ATOM     42  N   UNL A   1      42.393  28.966  29.886  1.00  0.00    -0.354 N 
ATOM     43  C   UNL A   1      38.008  32.346  29.545  1.00  0.00     0.074 A 
ATOM     44  C   UNL A   1      37.043  31.360  29.122  1.00  0.00     0.031 C 
ATOM     45  C   UNL A   1      42.723  30.769  31.188  1.00  0.00     0.029 A 
ATOM     46  C   UNL A   1      43.389  29.901  30.223  1.00  0.00     0.049 A 
ATOM     47  H   UNL A   1      42.526  28.015  29.670  1.00  0.00     0.167 HD
ATOM     48  C   UNL A   1      37.910  33.521  30.222  1.00  0.00     0.031 A 
ATOM     49  C   UNL A   1      44.329  30.314  29.321  1.00  0.00     0.031 A 
ATOM     50  C   UNL A   1      39.219  34.020  30.635  1.00  0.00     0.049 A 
ATOM     51  C   UNL A   1      44.272  31.811  29.132  1.00  0.00     0.074 A 
ATOM     52  C   UNL A   1      39.882  34.010  31.850  1.00  0.00     0.029 A 
ATOM     53  N   UNL A   1      40.171  34.337  29.668  1.00  0.00    -0.354 N 
ATOM     54  N   UNL A   1      43.176  32.513  29.241  1.00  0.00    -0.248 NA
ATOM     55  C   UNL A   1      45.453  32.634  28.898  1.00  0.00     0.031 C 
ATOM     56  C   UNL A   1      41.255  34.259  31.602  1.00  0.00     0.029 A 
ATOM     57  C   UNL A   1      41.422  34.443  30.240  1.00  0.00     0.049 A 
ATOM     58  H   UNL A   1      39.977  34.467  28.711  1.00  0.00     0.167 HD
ATOM     59  C   UNL A   1      43.495  33.845  29.202  1.00  0.00     0.074 A 
ATOM     60  C   UNL A   1      44.924  33.870  28.941  1.00  0.00     0.031 C 
ATOM     61  C   UNL A   1      42.585  34.830  29.453  1.00  0.00     0.031 A 
BRANCH  48  62
ATOM     62  C   UNL A   1      36.595  34.022  30.769  1.00  0.00    -0.014 A 
ATOM     63  C   UNL A   1      35.528  34.299  29.892  1.00  0.00     0.010 A 
ATOM     64  C   UNL A   1      36.363  34.264  32.138  1.00  0.00     0.010 A 
ATOM     65  C   UNL A   1      34.323  34.859  30.339  1.00  0.00     0.020 A 
ATOM     66  C   UNL A   1      35.175  34.858  32.596  1.00  0.00     0.020 A 
ATOM     67  C   UNL A   1      34.160  35.155  31.690  1.00  0.00     0.054 A 
BRANCH  67  68
ATOM     68  S   UNL A   1      32.609  35.915  32.235  1.00  0.00     0.124 S 
ATOM     69  O   UNL A   1      32.091  36.497  30.999  1.00  0.00    -0.237 OA
ATOM     70  O   UNL A   1      31.864  34.771  32.751  1.00  0.00    -0.237 OA
ATOM     71  O   UNL A   1      33.033  36.886  33.241  1.00  0.00    -0.744 OA
ENDBRANCH  67  68
ENDBRANCH  48  62
BRANCH  49  72
ATOM     72  C   UNL A   1      44.686  29.315  28.265  1.00  0.00    -0.014 A 
ATOM     73  C   UNL A   1      45.216  28.065  28.650  1.00  0.00     0.010 A 
ATOM     74  C   UNL A   1      44.149  29.434  26.973  1.00  0.00     0.010 A 
ATOM     75  C   UNL A   1      45.062  26.928  27.832  1.00  0.00     0.020 A 
ATOM     76  C   UNL A   1      43.987  28.300  26.156  1.00  0.00     0.020 A 
ATOM     77  C   UNL A   1      44.368  27.042  26.626  1.00  0.00     0.054 A 
BRANCH  77  78
ATOM     78  S   UNL A   1      43.824  25.532  25.752  1.00  0.00     0.124 S 
ATOM     79  O   UNL A   1      42.765  26.033  24.880  1.00  0.00    -0.237 OA
ATOM     80  O   UNL A   1      45.041  25.098  25.069  1.00  0.00    -0.237 OA
ATOM     81  O   UNL A   1      43.388  24.651  26.832  1.00  0.00    -0.744 OA
ENDBRANCH  77  78
ENDBRANCH  49  72
BRANCH  61  82
ATOM     82  C   UNL A   1      42.745  36.292  29.110  1.00  0.00    -0.014 A 
ATOM     83  C   UNL A   1      43.672  37.142  29.729  1.00  0.00     0.010 A 
ATOM     84  C   UNL A   1      42.044  36.813  27.993  1.00  0.00     0.010 A 
ATOM     85  C   UNL A   1      43.859  38.458  29.288  1.00  0.00     0.020 A 
ATOM     86  C   UNL A   1      42.258  38.107  27.515  1.00  0.00     0.020 A 
ATOM     87  C   UNL A   1      43.156  38.930  28.179  1.00  0.00     0.054 A 
BRANCH  87  88
ATOM     88  S   UNL A   1      43.498  40.594  27.561  1.00  0.00     0.124 S 
ATOM     89  O   UNL A   1      42.379  40.810  26.648  1.00  0.00    -0.237 OA
ATOM     90  O   UNL A   1      43.477  41.400  28.779  1.00  0.00    -0.237 OA
ATOM     91  O   UNL A   1      44.809  40.466  26.930  1.00  0.00    -0.744 OA
ENDBRANCH  87  88
ENDBRANCH  61  82
ENDBRANCH  35  36
ENDBRANCH  27  30
ENDBRANCH  25  26
ENDBRANCH   1  25
TORSDOF 18
ENDMDL
