MODEL 1
REMARK VINA RESULT:     -10.8      0.000      0.000
REMARK SMILES CC1(C)CCSC[C@@]1(Nc1ccccc1Br)C(=O)NCCCCNC(=O)c1ccc(-c2c3nc(c(-c4ccc(S(=O)(=O)[O-])cc4)c4ccc([nH]4)c(-c4ccc(S(=O)(=O)[O-])cc4)c4nc(c(-c5ccc(S(=O)(=O)[O-])cc5)c5ccc2[nH]5)C=C4)C=C3)cc1
REMARK SMILES IDX 22 1 21 2 20 3 19 4 17 5 18 6 8 8 1 9 2 10 3 11 4 12 5 13
REMARK SMILES IDX 7 14 6 15 9 16 10 18 11 19 15 20 12 21 14 22 16 23 13 24
REMARK SMILES IDX 23 25 24 26 25 27 26 29 27 30 28 31 86 32 29 33 85 34 30 35
REMARK SMILES IDX 31 36 32 37 79 38 33 39 84 40 78 41 80 42 34 43 83 44 77 45
REMARK SMILES IDX 76 46 35 48 65 49 46 50 64 51 47 52 50 53 63 54 81 55 48 56
REMARK SMILES IDX 49 57 62 59 82 60 51 61 36 62 37 63 45 64 38 65 44 66 39 67
REMARK SMILES IDX 40 68 41 69 42 70 43 71 66 72 67 73 75 74 68 75 74 76 69 77
REMARK SMILES IDX 70 78 71 79 72 80 73 81 52 82 53 83 61 84 54 85 60 86 55 87
REMARK SMILES IDX 56 88 57 89 58 90 59 91
REMARK H PARENT 19 7 9 17 24 28 80 47 50 58
REMARK Flexibility Score: inf
ROOT
ATOM      1  C   UNL A   1      34.399  28.644  26.072  1.00  0.00     0.023 C 
ENDROOT
BRANCH   1   2
ATOM      2  C   UNL A   1      33.531  28.579  24.822  1.00  0.00     0.023 C 
BRANCH   2   3
ATOM      3  C   UNL A   1      33.841  27.423  23.869  1.00  0.00     0.116 C 
BRANCH   3   4
ATOM      4  N   UNL A   1      32.637  26.857  23.286  1.00  0.00    -0.354 N 
ATOM      5  C   UNL A   1      32.107  25.605  23.272  1.00  0.00     0.247 C 
ATOM      6  O   UNL A   1      31.582  25.317  22.187  1.00  0.00    -0.272 OA
ATOM      7  H   UNL A   1      32.091  27.518  22.802  1.00  0.00     0.163 HD
BRANCH   5   8
ATOM      8  C   UNL A   1      32.198  24.537  24.440  1.00  0.00     0.131 C 
ATOM      9  C   UNL A   1      29.711  25.251  24.914  1.00  0.00     0.014 C 
ATOM     10  C   UNL A   1      31.094  24.955  25.546  1.00  0.00    -0.002 C 
ATOM     11  C   UNL A   1      31.482  26.256  26.308  1.00  0.00     0.014 C 
ATOM     12  C   UNL A   1      30.889  23.862  26.636  1.00  0.00     0.020 C 
ATOM     13  C   UNL A   1      30.488  22.487  26.124  1.00  0.00     0.070 C 
ATOM     14  C   UNL A   1      32.022  23.076  23.928  1.00  0.00     0.108 C 
ATOM     15  S   UNL A   1      31.844  21.759  25.187  1.00  0.00    -0.159 SA
BRANCH   8  16
ATOM     16  N   UNL A   1      33.576  24.656  25.094  1.00  0.00    -0.369 N 
ATOM     17  H   UNL A   1      33.725  25.407  25.713  1.00  0.00     0.161 HD
BRANCH  16  18
ATOM     18  C   UNL A   1      34.639  23.772  24.875  1.00  0.00     0.049 A 
ATOM     19  C   UNL A   1      35.193  23.730  23.580  1.00  0.00     0.027 A 
ATOM     20  C   UNL A   1      35.215  22.914  25.829  1.00  0.00     0.041 A 
ATOM     21  C   UNL A   1      36.314  22.954  23.267  1.00  0.00     0.002 A 
ATOM     22  C   UNL A   1      36.344  22.134  25.518  1.00  0.00     0.018 A 
ATOM     23  Br  UNL A   1      34.452  22.551  27.527  1.00  0.00    -0.049 Br
ATOM     24  C   UNL A   1      36.903  22.166  24.245  1.00  0.00     0.001 A 
ENDBRANCH  16  18
ENDBRANCH   8  16
ENDBRANCH   5   8
ENDBRANCH   3   4
ENDBRANCH   2   3
ENDBRANCH   1   2
BRANCH   1  25
ATOM     25  C   UNL A   1      33.628  28.819  27.373  1.00  0.00     0.116 C 
BRANCH  25  26
ATOM     26  N   UNL A   1      33.615  30.195  27.841  1.00  0.00    -0.352 N 
ATOM     27  C   UNL A   1      34.614  30.904  28.476  1.00  0.00     0.251 C 
ATOM     28  H   UNL A   1      32.779  30.688  27.682  1.00  0.00     0.163 HD
ATOM     29  O   UNL A   1      34.388  32.016  28.931  1.00  0.00    -0.269 OA
BRANCH  27  30
ATOM     30  C   UNL A   1      35.942  30.281  28.623  1.00  0.00     0.039 A 
ATOM     31  C   UNL A   1      36.874  30.416  27.592  1.00  0.00     0.014 A 
ATOM     32  C   UNL A   1      36.281  29.625  29.807  1.00  0.00     0.014 A 
ATOM     33  C   UNL A   1      38.181  29.963  27.783  1.00  0.00     0.010 A 
ATOM     34  C   UNL A   1      37.600  29.250  30.028  1.00  0.00     0.010 A 
ATOM     35  C   UNL A   1      38.562  29.416  29.019  1.00  0.00    -0.014 A 
BRANCH  35  36
ATOM     36  C   UNL A   1      39.962  29.010  29.294  1.00  0.00     0.031 A 
ATOM     37  C   UNL A   1      40.929  30.015  29.857  1.00  0.00     0.074 A 
ATOM     38  C   UNL A   1      40.387  27.783  28.935  1.00  0.00     0.049 A 
ATOM     39  N   UNL A   1      42.219  29.903  30.043  1.00  0.00    -0.248 NA
ATOM     40  C   UNL A   1      40.381  31.332  30.220  1.00  0.00     0.031 C 
ATOM     41  C   UNL A   1      39.559  26.741  28.325  1.00  0.00     0.029 A 
ATOM     42  N   UNL A   1      41.634  27.213  29.013  1.00  0.00    -0.354 N 
ATOM     43  C   UNL A   1      42.641  31.144  30.503  1.00  0.00     0.074 A 
ATOM     44  C   UNL A   1      41.478  32.004  30.534  1.00  0.00     0.031 C 
ATOM     45  C   UNL A   1      40.316  25.656  28.093  1.00  0.00     0.029 A 
ATOM     46  C   UNL A   1      41.689  25.937  28.502  1.00  0.00     0.049 A 
ATOM     47  H   UNL A   1      42.415  27.673  29.395  1.00  0.00     0.167 HD
ATOM     48  C   UNL A   1      43.883  31.530  30.880  1.00  0.00     0.031 A 
ATOM     49  C   UNL A   1      42.729  25.091  28.367  1.00  0.00     0.031 A 
ATOM     50  C   UNL A   1      45.027  30.661  30.883  1.00  0.00     0.049 A 
ATOM     51  C   UNL A   1      44.090  25.524  28.836  1.00  0.00     0.074 A 
ATOM     52  C   UNL A   1      46.308  30.927  31.331  1.00  0.00     0.029 A 
ATOM     53  N   UNL A   1      45.026  29.354  30.417  1.00  0.00    -0.354 N 
ATOM     54  N   UNL A   1      44.454  26.676  29.346  1.00  0.00    -0.248 NA
ATOM     55  C   UNL A   1      45.176  24.541  28.724  1.00  0.00     0.031 C 
ATOM     56  C   UNL A   1      47.094  29.792  31.101  1.00  0.00     0.029 A 
ATOM     57  C   UNL A   1      46.290  28.807  30.550  1.00  0.00     0.049 A 
ATOM     58  H   UNL A   1      44.244  28.887  30.046  1.00  0.00     0.167 HD
ATOM     59  C   UNL A   1      45.808  26.550  29.635  1.00  0.00     0.074 A 
ATOM     60  C   UNL A   1      46.195  25.206  29.253  1.00  0.00     0.031 C 
ATOM     61  C   UNL A   1      46.654  27.465  30.168  1.00  0.00     0.031 A 
BRANCH  48  62
ATOM     62  C   UNL A   1      44.060  32.960  31.313  1.00  0.00    -0.014 A 
ATOM     63  C   UNL A   1      43.951  33.331  32.666  1.00  0.00     0.010 A 
ATOM     64  C   UNL A   1      44.348  33.947  30.353  1.00  0.00     0.010 A 
ATOM     65  C   UNL A   1      44.070  34.671  33.043  1.00  0.00     0.020 A 
ATOM     66  C   UNL A   1      44.496  35.285  30.731  1.00  0.00     0.020 A 
ATOM     67  C   UNL A   1      44.334  35.641  32.071  1.00  0.00     0.054 A 
BRANCH  67  68
ATOM     68  S   UNL A   1      44.483  37.373  32.586  1.00  0.00     0.124 S 
ATOM     69  O   UNL A   1      43.272  37.554  33.383  1.00  0.00    -0.237 OA
ATOM     70  O   UNL A   1      45.735  37.380  33.338  1.00  0.00    -0.237 OA
ATOM     71  O   UNL A   1      44.515  38.107  31.324  1.00  0.00    -0.744 OA
ENDBRANCH  67  68
ENDBRANCH  48  62
BRANCH  49  72
ATOM     72  C   UNL A   1      42.510  23.745  27.775  1.00  0.00    -0.014 A 
ATOM     73  C   UNL A   1      42.703  23.532  26.400  1.00  0.00     0.010 A 
ATOM     74  C   UNL A   1      42.150  22.657  28.592  1.00  0.00     0.010 A 
ATOM     75  C   UNL A   1      42.537  22.258  25.849  1.00  0.00     0.020 A 
ATOM     76  C   UNL A   1      42.003  21.377  28.049  1.00  0.00     0.020 A 
ATOM     77  C   UNL A   1      42.192  21.187  26.679  1.00  0.00     0.054 A 
BRANCH  77  78
ATOM     78  S   UNL A   1      42.059  19.527  25.957  1.00  0.00     0.124 S 
ATOM     79  O   UNL A   1      42.539  18.683  27.046  1.00  0.00    -0.237 OA
ATOM     80  O   UNL A   1      40.633  19.424  25.657  1.00  0.00    -0.237 OA
ATOM     81  O   UNL A   1      42.929  19.596  24.785  1.00  0.00    -0.744 OA
ENDBRANCH  77  78
ENDBRANCH  49  72
BRANCH  61  82
ATOM     82  C   UNL A   1      48.078  27.043  30.403  1.00  0.00    -0.014 A 
ATOM     83  C   UNL A   1      49.091  27.381  29.490  1.00  0.00     0.010 A 
ATOM     84  C   UNL A   1      48.415  26.377  31.594  1.00  0.00     0.010 A 
ATOM     85  C   UNL A   1      50.421  27.047  29.760  1.00  0.00     0.020 A 
ATOM     86  C   UNL A   1      49.746  26.060  31.877  1.00  0.00     0.020 A 
ATOM     87  C   UNL A   1      50.740  26.391  30.955  1.00  0.00     0.054 A 
BRANCH  87  88
ATOM     88  S   UNL A   1      52.480  26.033  31.318  1.00  0.00     0.124 S 
ATOM     89  O   UNL A   1      52.393  24.727  31.965  1.00  0.00    -0.237 OA
ATOM     90  O   UNL A   1      53.095  26.038  29.992  1.00  0.00    -0.237 OA
ATOM     91  O   UNL A   1      52.886  27.135  32.188  1.00  0.00    -0.744 OA
ENDBRANCH  87  88
ENDBRANCH  61  82
ENDBRANCH  35  36
ENDBRANCH  27  30
ENDBRANCH  25  26
ENDBRANCH   1  25
TORSDOF 16
ENDMDL
MODEL 2
REMARK VINA RESULT:     -10.5      3.248      7.964
REMARK SMILES CC1(C)CCSC[C@@]1(Nc1ccccc1Br)C(=O)NCCCCNC(=O)c1ccc(-c2c3nc(c(-c4ccc(S(=O)(=O)[O-])cc4)c4ccc([nH]4)c(-c4ccc(S(=O)(=O)[O-])cc4)c4nc(c(-c5ccc(S(=O)(=O)[O-])cc5)c5ccc2[nH]5)C=C4)C=C3)cc1
REMARK SMILES IDX 22 1 21 2 20 3 19 4 17 5 18 6 8 8 1 9 2 10 3 11 4 12 5 13
REMARK SMILES IDX 7 14 6 15 9 16 10 18 11 19 15 20 12 21 14 22 16 23 13 24
REMARK SMILES IDX 23 25 24 26 25 27 26 29 27 30 28 31 86 32 29 33 85 34 30 35
REMARK SMILES IDX 31 36 32 37 79 38 33 39 84 40 78 41 80 42 34 43 83 44 77 45
REMARK SMILES IDX 76 46 35 48 65 49 46 50 64 51 47 52 50 53 63 54 81 55 48 56
REMARK SMILES IDX 49 57 62 59 82 60 51 61 36 62 37 63 45 64 38 65 44 66 39 67
REMARK SMILES IDX 40 68 41 69 42 70 43 71 66 72 67 73 75 74 68 75 74 76 69 77
REMARK SMILES IDX 70 78 71 79 72 80 73 81 52 82 53 83 61 84 54 85 60 86 55 87
REMARK SMILES IDX 56 88 57 89 58 90 59 91
REMARK H PARENT 19 7 9 17 24 28 80 47 50 58
REMARK Flexibility Score: inf
ROOT
ATOM      1  C   UNL A   1      37.921  21.267  25.048  1.00  0.00     0.023 C 
ENDROOT
BRANCH   1   2
ATOM      2  C   UNL A   1      36.550  21.525  25.660  1.00  0.00     0.023 C 
BRANCH   2   3
ATOM      3  C   UNL A   1      36.118  22.993  25.704  1.00  0.00     0.116 C 
BRANCH   3   4
ATOM      4  N   UNL A   1      35.787  23.504  24.385  1.00  0.00    -0.354 N 
ATOM      5  C   UNL A   1      34.624  23.595  23.685  1.00  0.00     0.247 C 
ATOM      6  O   UNL A   1      34.772  23.365  22.477  1.00  0.00    -0.272 OA
ATOM      7  H   UNL A   1      36.565  23.860  23.899  1.00  0.00     0.163 HD
BRANCH   5   8
ATOM      8  C   UNL A   1      33.185  23.862  24.293  1.00  0.00     0.131 C 
ATOM      9  C   UNL A   1      33.184  21.265  24.716  1.00  0.00     0.014 C 
ATOM     10  C   UNL A   1      32.366  22.471  24.191  1.00  0.00    -0.002 C 
ATOM     11  C   UNL A   1      31.999  22.106  22.722  1.00  0.00     0.014 C 
ATOM     12  C   UNL A   1      31.020  22.503  24.974  1.00  0.00     0.020 C 
ATOM     13  C   UNL A   1      31.129  22.832  26.456  1.00  0.00     0.070 C 
ATOM     14  C   UNL A   1      33.246  24.424  25.745  1.00  0.00     0.108 C 
ATOM     15  S   UNL A   1      31.670  24.536  26.671  1.00  0.00    -0.159 SA
BRANCH   8  16
ATOM     16  N   UNL A   1      32.470  24.885  23.409  1.00  0.00    -0.369 N 
ATOM     17  H   UNL A   1      32.007  24.552  22.607  1.00  0.00     0.161 HD
BRANCH  16  18
ATOM     18  C   UNL A   1      32.429  26.262  23.661  1.00  0.00     0.049 A 
ATOM     19  C   UNL A   1      33.659  26.947  23.731  1.00  0.00     0.027 A 
ATOM     20  C   UNL A   1      31.271  27.037  23.850  1.00  0.00     0.041 A 
ATOM     21  C   UNL A   1      33.738  28.334  23.887  1.00  0.00     0.002 A 
ATOM     22  C   UNL A   1      31.347  28.433  24.004  1.00  0.00     0.018 A 
ATOM     23  Br  UNL A   1      29.541  26.309  24.121  1.00  0.00    -0.049 Br
ATOM     24  C   UNL A   1      32.576  29.083  24.005  1.00  0.00     0.001 A 
ENDBRANCH  16  18
ENDBRANCH   8  16
ENDBRANCH   5   8
ENDBRANCH   3   4
ENDBRANCH   2   3
ENDBRANCH   1   2
BRANCH   1  25
ATOM     25  C   UNL A   1      39.078  21.318  26.036  1.00  0.00     0.116 C 
BRANCH  25  26
ATOM     26  N   UNL A   1      39.866  20.097  26.045  1.00  0.00    -0.352 N 
ATOM     27  C   UNL A   1      41.233  19.948  26.161  1.00  0.00     0.251 C 
ATOM     28  H   UNL A   1      39.354  19.262  25.956  1.00  0.00     0.163 HD
ATOM     29  O   UNL A   1      41.750  18.851  26.007  1.00  0.00    -0.269 OA
BRANCH  27  30
ATOM     30  C   UNL A   1      42.055  21.140  26.439  1.00  0.00     0.039 A 
ATOM     31  C   UNL A   1      42.465  21.946  25.375  1.00  0.00     0.014 A 
ATOM     32  C   UNL A   1      42.358  21.490  27.756  1.00  0.00     0.014 A 
ATOM     33  C   UNL A   1      43.111  23.155  25.640  1.00  0.00     0.010 A 
ATOM     34  C   UNL A   1      42.926  22.730  28.021  1.00  0.00     0.010 A 
ATOM     35  C   UNL A   1      43.307  23.574  26.966  1.00  0.00    -0.014 A 
BRANCH  35  36
ATOM     36  C   UNL A   1      43.904  24.893  27.287  1.00  0.00     0.031 A 
ATOM     37  C   UNL A   1      43.026  26.000  27.803  1.00  0.00     0.074 A 
ATOM     38  C   UNL A   1      45.202  25.127  27.011  1.00  0.00     0.049 A 
ATOM     39  N   UNL A   1      43.322  27.256  28.016  1.00  0.00    -0.248 NA
ATOM     40  C   UNL A   1      41.621  25.658  28.075  1.00  0.00     0.031 C 
ATOM     41  C   UNL A   1      46.142  24.152  26.452  1.00  0.00     0.029 A 
ATOM     42  N   UNL A   1      45.950  26.271  27.143  1.00  0.00    -0.354 N 
ATOM     43  C   UNL A   1      42.133  27.861  28.406  1.00  0.00     0.074 A 
ATOM     44  C   UNL A   1      41.106  26.844  28.365  1.00  0.00     0.031 C 
ATOM     45  C   UNL A   1      47.342  24.735  26.300  1.00  0.00     0.029 A 
ATOM     46  C   UNL A   1      47.249  26.132  26.712  1.00  0.00     0.049 A 
ATOM     47  H   UNL A   1      45.592  27.111  27.509  1.00  0.00     0.167 HD
ATOM     48  C   UNL A   1      41.919  29.145  28.778  1.00  0.00     0.031 A 
ATOM     49  C   UNL A   1      48.251  27.031  26.646  1.00  0.00     0.031 A 
ATOM     50  C   UNL A   1      42.951  30.142  28.853  1.00  0.00     0.049 A 
ATOM     51  C   UNL A   1      48.003  28.439  27.109  1.00  0.00     0.074 A 
ATOM     52  C   UNL A   1      42.857  31.446  29.304  1.00  0.00     0.029 A 
ATOM     53  N   UNL A   1      44.269  29.943  28.467  1.00  0.00    -0.354 N 
ATOM     54  N   UNL A   1      46.890  28.973  27.553  1.00  0.00    -0.248 NA
ATOM     55  C   UNL A   1      49.146  29.362  27.075  1.00  0.00     0.031 C 
ATOM     56  C   UNL A   1      44.110  32.049  29.156  1.00  0.00     0.029 A 
ATOM     57  C   UNL A   1      44.994  31.107  28.653  1.00  0.00     0.049 A 
ATOM     58  H   UNL A   1      44.633  29.100  28.113  1.00  0.00     0.167 HD
ATOM     59  C   UNL A   1      47.203  30.290  27.871  1.00  0.00     0.074 A 
ATOM     60  C   UNL A   1      48.612  30.468  27.578  1.00  0.00     0.031 C 
ATOM     61  C   UNL A   1      46.397  31.263  28.361  1.00  0.00     0.031 A 
BRANCH  48  62
ATOM     62  C   UNL A   1      40.508  29.537  29.125  1.00  0.00    -0.014 A 
ATOM     63  C   UNL A   1      39.532  29.707  28.127  1.00  0.00     0.010 A 
ATOM     64  C   UNL A   1      40.151  29.730  30.472  1.00  0.00     0.010 A 
ATOM     65  C   UNL A   1      38.240  30.117  28.463  1.00  0.00     0.020 A 
ATOM     66  C   UNL A   1      38.851  30.114  30.815  1.00  0.00     0.020 A 
ATOM     67  C   UNL A   1      37.911  30.327  29.806  1.00  0.00     0.054 A 
BRANCH  67  68
ATOM     68  S   UNL A   1      36.228  30.861  30.217  1.00  0.00     0.124 S 
ATOM     69  O   UNL A   1      35.501  30.531  28.994  1.00  0.00    -0.237 OA
ATOM     70  O   UNL A   1      35.903  30.039  31.380  1.00  0.00    -0.237 OA
ATOM     71  O   UNL A   1      36.375  32.288  30.490  1.00  0.00    -0.744 OA
ENDBRANCH  67  68
ENDBRANCH  48  62
BRANCH  49  72
ATOM     72  C   UNL A   1      49.583  26.611  26.134  1.00  0.00    -0.014 A 
ATOM     73  C   UNL A   1      49.975  26.933  24.824  1.00  0.00     0.010 A 
ATOM     74  C   UNL A   1      50.483  25.926  26.970  1.00  0.00     0.010 A 
ATOM     75  C   UNL A   1      51.242  26.574  24.355  1.00  0.00     0.020 A 
ATOM     76  C   UNL A   1      51.760  25.585  26.512  1.00  0.00     0.020 A 
ATOM     77  C   UNL A   1      52.129  25.905  25.205  1.00  0.00     0.054 A 
BRANCH  77  78
ATOM     78  S   UNL A   1      53.797  25.520  24.602  1.00  0.00     0.124 S 
ATOM     79  O   UNL A   1      53.724  25.952  23.210  1.00  0.00    -0.237 OA
ATOM     80  O   UNL A   1      54.645  26.330  25.473  1.00  0.00    -0.237 OA
ATOM     81  O   UNL A   1      53.908  24.077  24.808  1.00  0.00    -0.744 OA
ENDBRANCH  77  78
ENDBRANCH  49  72
BRANCH  61  82
ATOM     82  C   UNL A   1      47.016  32.603  28.643  1.00  0.00    -0.014 A 
ATOM     83  C   UNL A   1      47.071  33.597  27.652  1.00  0.00     0.010 A 
ATOM     84  C   UNL A   1      47.468  32.897  29.942  1.00  0.00     0.010 A 
ATOM     85  C   UNL A   1      47.580  34.863  27.952  1.00  0.00     0.020 A 
ATOM     86  C   UNL A   1      47.959  34.168  30.251  1.00  0.00     0.020 A 
ATOM     87  C   UNL A   1      48.018  35.141  29.252  1.00  0.00     0.054 A 
BRANCH  87  88
ATOM     88  S   UNL A   1      48.608  36.812  29.638  1.00  0.00     0.124 S 
ATOM     89  O   UNL A   1      47.380  37.478  30.063  1.00  0.00    -0.237 OA
ATOM     90  O   UNL A   1      49.591  36.573  30.692  1.00  0.00    -0.237 OA
ATOM     91  O   UNL A   1      49.166  37.282  28.371  1.00  0.00    -0.744 OA
ENDBRANCH  87  88
ENDBRANCH  61  82
ENDBRANCH  35  36
ENDBRANCH  27  30
ENDBRANCH  25  26
ENDBRANCH   1  25
TORSDOF 16
ENDMDL
MODEL 3
REMARK VINA RESULT:     -10.4      1.308      2.576
REMARK SMILES CC1(C)CCSC[C@@]1(Nc1ccccc1Br)C(=O)NCCCCNC(=O)c1ccc(-c2c3nc(c(-c4ccc(S(=O)(=O)[O-])cc4)c4ccc([nH]4)c(-c4ccc(S(=O)(=O)[O-])cc4)c4nc(c(-c5ccc(S(=O)(=O)[O-])cc5)c5ccc2[nH]5)C=C4)C=C3)cc1
REMARK SMILES IDX 22 1 21 2 20 3 19 4 17 5 18 6 8 8 1 9 2 10 3 11 4 12 5 13
REMARK SMILES IDX 7 14 6 15 9 16 10 18 11 19 15 20 12 21 14 22 16 23 13 24
REMARK SMILES IDX 23 25 24 26 25 27 26 29 27 30 28 31 86 32 29 33 85 34 30 35
REMARK SMILES IDX 31 36 32 37 79 38 33 39 84 40 78 41 80 42 34 43 83 44 77 45
REMARK SMILES IDX 76 46 35 48 65 49 46 50 64 51 47 52 50 53 63 54 81 55 48 56
REMARK SMILES IDX 49 57 62 59 82 60 51 61 36 62 37 63 45 64 38 65 44 66 39 67
REMARK SMILES IDX 40 68 41 69 42 70 43 71 66 72 67 73 75 74 68 75 74 76 69 77
REMARK SMILES IDX 70 78 71 79 72 80 73 81 52 82 53 83 61 84 54 85 60 86 55 87
REMARK SMILES IDX 56 88 57 89 58 90 59 91
REMARK H PARENT 19 7 9 17 24 28 80 47 50 58
REMARK Flexibility Score: inf
ROOT
ATOM      1  C   UNL A   1      32.663  28.252  26.116  1.00  0.00     0.023 C 
ENDROOT
BRANCH   1   2
ATOM      2  C   UNL A   1      33.458  27.811  24.894  1.00  0.00     0.023 C 
BRANCH   2   3
ATOM      3  C   UNL A   1      34.269  26.525  25.070  1.00  0.00     0.116 C 
BRANCH   3   4
ATOM      4  N   UNL A   1      34.281  25.717  23.863  1.00  0.00    -0.354 N 
ATOM      5  C   UNL A   1      33.856  24.456  23.581  1.00  0.00     0.247 C 
ATOM      6  O   UNL A   1      34.615  23.854  22.808  1.00  0.00    -0.272 OA
ATOM      7  H   UNL A   1      34.677  26.178  23.089  1.00  0.00     0.163 HD
BRANCH   5   8
ATOM      8  C   UNL A   1      32.595  23.731  24.210  1.00  0.00     0.131 C 
ATOM      9  C   UNL A   1      34.245  21.701  24.490  1.00  0.00     0.014 C 
ATOM     10  C   UNL A   1      32.830  22.140  24.036  1.00  0.00    -0.002 C 
ATOM     11  C   UNL A   1      32.719  21.684  22.551  1.00  0.00     0.014 C 
ATOM     12  C   UNL A   1      31.796  21.287  24.828  1.00  0.00     0.020 C 
ATOM     13  C   UNL A   1      31.731  21.552  26.324  1.00  0.00     0.070 C 
ATOM     14  C   UNL A   1      32.344  24.149  25.691  1.00  0.00     0.108 C 
ATOM     15  S   UNL A   1      31.087  23.206  26.630  1.00  0.00    -0.159 SA
BRANCH   8  16
ATOM     16  N   UNL A   1      31.362  24.109  23.388  1.00  0.00    -0.369 N 
ATOM     17  H   UNL A   1      30.855  23.380  22.962  1.00  0.00     0.161 HD
BRANCH  16  18
ATOM     18  C   UNL A   1      30.904  25.418  23.198  1.00  0.00     0.049 A 
ATOM     19  C   UNL A   1      29.934  25.904  24.097  1.00  0.00     0.027 A 
ATOM     20  C   UNL A   1      31.322  26.306  22.191  1.00  0.00     0.041 A 
ATOM     21  C   UNL A   1      29.469  27.223  24.061  1.00  0.00     0.002 A 
ATOM     22  C   UNL A   1      30.859  27.634  22.154  1.00  0.00     0.018 A 
ATOM     23  Br  UNL A   1      32.358  25.793  20.688  1.00  0.00    -0.049 Br
ATOM     24  C   UNL A   1      29.948  28.097  23.097  1.00  0.00     0.001 A 
ENDBRANCH  16  18
ENDBRANCH   8  16
ENDBRANCH   5   8
ENDBRANCH   3   4
ENDBRANCH   2   3
ENDBRANCH   1   2
BRANCH   1  25
ATOM     25  C   UNL A   1      33.507  28.573  27.341  1.00  0.00     0.116 C 
BRANCH  25  26
ATOM     26  N   UNL A   1      33.511  29.989  27.668  1.00  0.00    -0.352 N 
ATOM     27  C   UNL A   1      34.520  30.749  28.222  1.00  0.00     0.251 C 
ATOM     28  H   UNL A   1      32.678  30.473  27.467  1.00  0.00     0.163 HD
ATOM     29  O   UNL A   1      34.309  31.904  28.564  1.00  0.00    -0.269 OA
BRANCH  27  30
ATOM     30  C   UNL A   1      35.845  30.131  28.421  1.00  0.00     0.039 A 
ATOM     31  C   UNL A   1      36.758  30.125  27.366  1.00  0.00     0.014 A 
ATOM     32  C   UNL A   1      36.198  29.621  29.672  1.00  0.00     0.014 A 
ATOM     33  C   UNL A   1      38.063  29.681  27.589  1.00  0.00     0.010 A 
ATOM     34  C   UNL A   1      37.516  29.258  29.914  1.00  0.00     0.010 A 
ATOM     35  C   UNL A   1      38.461  29.285  28.876  1.00  0.00    -0.014 A 
BRANCH  35  36
ATOM     36  C   UNL A   1      39.861  28.898  29.175  1.00  0.00     0.031 A 
ATOM     37  C   UNL A   1      40.811  29.918  29.738  1.00  0.00     0.074 A 
ATOM     38  C   UNL A   1      40.304  27.671  28.837  1.00  0.00     0.049 A 
ATOM     39  N   UNL A   1      42.099  29.822  29.944  1.00  0.00    -0.248 NA
ATOM     40  C   UNL A   1      40.244  31.234  30.078  1.00  0.00     0.031 C 
ATOM     41  C   UNL A   1      39.495  26.613  28.227  1.00  0.00     0.029 A 
ATOM     42  N   UNL A   1      41.555  27.114  28.937  1.00  0.00    -0.354 N 
ATOM     43  C   UNL A   1      42.502  31.073  30.394  1.00  0.00     0.074 A 
ATOM     44  C   UNL A   1      41.330  31.921  30.399  1.00  0.00     0.031 C 
ATOM     45  C   UNL A   1      40.266  25.534  28.019  1.00  0.00     0.029 A 
ATOM     46  C   UNL A   1      41.630  25.833  28.443  1.00  0.00     0.049 A 
ATOM     47  H   UNL A   1      42.326  27.587  29.325  1.00  0.00     0.167 HD
ATOM     48  C   UNL A   1      43.734  31.476  30.784  1.00  0.00     0.031 A 
ATOM     49  C   UNL A   1      42.681  24.997  28.332  1.00  0.00     0.031 A 
ATOM     50  C   UNL A   1      44.887  30.619  30.813  1.00  0.00     0.049 A 
ATOM     51  C   UNL A   1      44.031  25.449  28.814  1.00  0.00     0.074 A 
ATOM     52  C   UNL A   1      46.159  30.904  31.274  1.00  0.00     0.029 A 
ATOM     53  N   UNL A   1      44.906  29.307  30.362  1.00  0.00    -0.354 N 
ATOM     54  N   UNL A   1      44.376  26.611  29.315  1.00  0.00    -0.248 NA
ATOM     55  C   UNL A   1      45.128  24.476  28.729  1.00  0.00     0.031 C 
ATOM     56  C   UNL A   1      46.960  29.775  31.069  1.00  0.00     0.029 A 
ATOM     57  C   UNL A   1      46.173  28.774  30.518  1.00  0.00     0.049 A 
ATOM     58  H   UNL A   1      44.134  28.828  29.986  1.00  0.00     0.167 HD
ATOM     59  C   UNL A   1      45.727  26.502  29.624  1.00  0.00     0.074 A 
ATOM     60  C   UNL A   1      46.133  25.158  29.263  1.00  0.00     0.031 C 
ATOM     61  C   UNL A   1      46.556  27.432  30.158  1.00  0.00     0.031 A 
BRANCH  48  62
ATOM     62  C   UNL A   1      43.891  32.913  31.202  1.00  0.00    -0.014 A 
ATOM     63  C   UNL A   1      43.666  33.314  32.531  1.00  0.00     0.010 A 
ATOM     64  C   UNL A   1      44.276  33.876  30.251  1.00  0.00     0.010 A 
ATOM     65  C   UNL A   1      43.769  34.660  32.891  1.00  0.00     0.020 A 
ATOM     66  C   UNL A   1      44.407  35.221  30.614  1.00  0.00     0.020 A 
ATOM     67  C   UNL A   1      44.131  35.606  31.927  1.00  0.00     0.054 A 
BRANCH  67  68
ATOM     68  S   UNL A   1      44.256  37.347  32.418  1.00  0.00     0.124 S 
ATOM     69  O   UNL A   1      43.826  38.034  31.203  1.00  0.00    -0.237 OA
ATOM     70  O   UNL A   1      43.332  37.432  33.546  1.00  0.00    -0.237 OA
ATOM     71  O   UNL A   1      45.667  37.509  32.761  1.00  0.00    -0.744 OA
ENDBRANCH  67  68
ENDBRANCH  48  62
BRANCH  49  72
ATOM     72  C   UNL A   1      42.483  23.641  27.753  1.00  0.00    -0.014 A 
ATOM     73  C   UNL A   1      42.776  23.395  26.401  1.00  0.00     0.010 A 
ATOM     74  C   UNL A   1      42.045  22.578  28.563  1.00  0.00     0.010 A 
ATOM     75  C   UNL A   1      42.629  22.113  25.866  1.00  0.00     0.020 A 
ATOM     76  C   UNL A   1      41.917  21.288  28.037  1.00  0.00     0.020 A 
ATOM     77  C   UNL A   1      42.205  21.065  26.690  1.00  0.00     0.054 A 
BRANCH  77  78
ATOM     78  S   UNL A   1      42.098  19.392  25.994  1.00  0.00     0.124 S 
ATOM     79  O   UNL A   1      42.934  19.504  24.804  1.00  0.00    -0.237 OA
ATOM     80  O   UNL A   1      42.637  18.565  27.071  1.00  0.00    -0.237 OA
ATOM     81  O   UNL A   1      40.668  19.219  25.745  1.00  0.00    -0.744 OA
ENDBRANCH  77  78
ENDBRANCH  49  72
BRANCH  61  82
ATOM     82  C   UNL A   1      47.981  27.028  30.416  1.00  0.00    -0.014 A 
ATOM     83  C   UNL A   1      48.983  27.262  29.461  1.00  0.00     0.010 A 
ATOM     84  C   UNL A   1      48.331  26.487  31.666  1.00  0.00     0.010 A 
ATOM     85  C   UNL A   1      50.315  26.950  29.747  1.00  0.00     0.020 A 
ATOM     86  C   UNL A   1      49.664  26.193  31.963  1.00  0.00     0.020 A 
ATOM     87  C   UNL A   1      50.647  26.420  30.999  1.00  0.00     0.054 A 
BRANCH  87  88
ATOM     88  S   UNL A   1      52.390  26.090  31.375  1.00  0.00     0.124 S 
ATOM     89  O   UNL A   1      52.710  27.167  32.307  1.00  0.00    -0.237 OA
ATOM     90  O   UNL A   1      52.348  24.749  31.954  1.00  0.00    -0.237 OA
ATOM     91  O   UNL A   1      53.047  26.177  30.072  1.00  0.00    -0.744 OA
ENDBRANCH  87  88
ENDBRANCH  61  82
ENDBRANCH  35  36
ENDBRANCH  27  30
ENDBRANCH  25  26
ENDBRANCH   1  25
TORSDOF 16
ENDMDL
