MODEL 1
REMARK VINA RESULT:     -10.9      0.000      0.000
REMARK SMILES CCN1C(=O)CC[C@H](C(=O)NCCCCNC(=O)c2ccc(-c3c4nc(c(-c5ccc(S(=O)(=O)[O-])cc5)c5ccc([nH]5)c(-c5ccc(S(=O)(=O)[O-])cc5)c5nc(c(-c6ccc(S(=O)(=O)[O-])cc6)c6ccc3[nH]6)C=C5)C=C4)cc2)[C@@H]1c1ccc(OC)cc1
REMARK SMILES IDX 14 1 13 2 12 3 11 4 9 5 10 6 8 8 3 9 4 10 79 11 5 12 6 13
REMARK SMILES IDX 7 14 2 15 1 16 80 17 81 18 87 19 82 20 86 21 83 22 84 23
REMARK SMILES IDX 85 24 15 25 16 26 17 27 18 29 19 30 20 31 78 32 21 33 77 34
REMARK SMILES IDX 22 35 23 36 24 37 71 38 25 39 76 40 70 41 72 42 26 43 75 44
REMARK SMILES IDX 69 45 68 46 27 48 57 49 38 50 56 51 39 52 42 53 55 54 73 55
REMARK SMILES IDX 40 56 41 57 54 59 74 60 43 61 28 62 29 63 37 64 30 65 36 66
REMARK SMILES IDX 31 67 32 68 33 69 34 70 35 71 58 72 59 73 67 74 60 75 66 76
REMARK SMILES IDX 61 77 62 78 63 79 64 80 65 81 44 82 45 83 53 84 46 85 52 86
REMARK SMILES IDX 47 87 48 88 49 89 50 90 51 91
REMARK H PARENT 11 7 16 28 72 47 42 58
REMARK Flexibility Score: inf
ROOT
ATOM      1  C   UNL A   1      39.270  21.419  25.785  1.00  0.00     0.023 C 
ENDROOT
BRANCH   1   2
ATOM      2  C   UNL A   1      39.056  22.873  26.202  1.00  0.00     0.023 C 
BRANCH   2   3
ATOM      3  C   UNL A   1      37.703  23.444  25.811  1.00  0.00     0.116 C 
BRANCH   3   4
ATOM      4  N   UNL A   1      37.218  22.976  24.528  1.00  0.00    -0.356 N 
ATOM      5  C   UNL A   1      36.085  23.306  23.849  1.00  0.00     0.225 C 
ATOM      6  O   UNL A   1      36.048  23.040  22.644  1.00  0.00    -0.275 OA
ATOM      7  H   UNL A   1      37.797  22.319  24.079  1.00  0.00     0.163 HD
BRANCH   5   8
ATOM      8  C   UNL A   1      34.882  23.975  24.507  1.00  0.00     0.106 C 
ATOM      9  N   UNL A   1      32.730  23.749  25.827  1.00  0.00    -0.335 N 
ATOM     10  C   UNL A   1      32.280  24.972  25.347  1.00  0.00     0.223 C 
ATOM     11  C   UNL A   1      33.958  23.061  25.339  1.00  0.00     0.128 C 
ATOM     12  O   UNL A   1      31.238  25.508  25.730  1.00  0.00    -0.275 OA
ATOM     13  C   UNL A   1      33.156  25.754  24.394  1.00  0.00     0.101 C 
ATOM     14  C   UNL A   1      34.141  24.940  23.596  1.00  0.00     0.026 C 
BRANCH   9  15
ATOM     15  C   UNL A   1      32.072  23.138  26.996  1.00  0.00     0.117 C 
ATOM     16  C   UNL A   1      32.969  22.471  28.032  1.00  0.00     0.027 C 
ENDBRANCH   9  15
BRANCH  11  17
ATOM     17  C   UNL A   1      33.646  21.687  24.741  1.00  0.00    -0.024 A 
ATOM     18  C   UNL A   1      34.259  20.509  25.194  1.00  0.00     0.010 A 
ATOM     19  C   UNL A   1      32.699  21.581  23.702  1.00  0.00     0.010 A 
ATOM     20  C   UNL A   1      33.897  19.268  24.661  1.00  0.00     0.047 A 
ATOM     21  C   UNL A   1      32.327  20.335  23.183  1.00  0.00     0.047 A 
ATOM     22  C   UNL A   1      32.907  19.173  23.683  1.00  0.00     0.118 A 
BRANCH  22  23
ATOM     23  O   UNL A   1      32.598  17.902  23.287  1.00  0.00    -0.497 OA
ATOM     24  C   UNL A   1      33.672  16.966  23.316  1.00  0.00     0.278 C 
ENDBRANCH  22  23
ENDBRANCH  11  17
ENDBRANCH   5   8
ENDBRANCH   3   4
ENDBRANCH   2   3
ENDBRANCH   1   2
BRANCH   1  25
ATOM     25  C   UNL A   1      39.946  20.524  26.822  1.00  0.00     0.116 C 
BRANCH  25  26
ATOM     26  N   UNL A   1      40.836  19.525  26.247  1.00  0.00    -0.352 N 
ATOM     27  C   UNL A   1      42.145  19.666  25.842  1.00  0.00     0.251 C 
ATOM     28  H   UNL A   1      40.449  18.627  26.133  1.00  0.00     0.163 HD
ATOM     29  O   UNL A   1      42.725  18.749  25.288  1.00  0.00    -0.269 OA
BRANCH  27  30
ATOM     30  C   UNL A   1      42.830  20.957  26.065  1.00  0.00     0.039 A 
ATOM     31  C   UNL A   1      43.153  21.747  24.959  1.00  0.00     0.014 A 
ATOM     32  C   UNL A   1      43.113  21.401  27.360  1.00  0.00     0.014 A 
ATOM     33  C   UNL A   1      43.683  23.023  25.159  1.00  0.00     0.010 A 
ATOM     34  C   UNL A   1      43.587  22.690  27.559  1.00  0.00     0.010 A 
ATOM     35  C   UNL A   1      43.863  23.517  26.460  1.00  0.00    -0.014 A 
BRANCH  35  36
ATOM     36  C   UNL A   1      44.284  24.914  26.707  1.00  0.00     0.031 A 
ATOM     37  C   UNL A   1      45.727  25.303  26.572  1.00  0.00     0.074 A 
ATOM     38  C   UNL A   1      43.372  25.800  27.154  1.00  0.00     0.049 A 
ATOM     39  N   UNL A   1      46.293  26.457  26.811  1.00  0.00    -0.248 NA
ATOM     40  C   UNL A   1      46.662  24.251  26.141  1.00  0.00     0.031 C 
ATOM     41  C   UNL A   1      41.954  25.512  27.380  1.00  0.00     0.029 A 
ATOM     42  N   UNL A   1      43.506  27.115  27.517  1.00  0.00    -0.354 N 
ATOM     43  C   UNL A   1      47.648  26.270  26.567  1.00  0.00     0.074 A 
ATOM     44  C   UNL A   1      47.826  24.879  26.212  1.00  0.00     0.031 C 
ATOM     45  C   UNL A   1      41.345  26.622  27.825  1.00  0.00     0.029 A 
ATOM     46  C   UNL A   1      42.333  27.688  27.951  1.00  0.00     0.049 A 
ATOM     47  H   UNL A   1      44.359  27.602  27.472  1.00  0.00     0.167 HD
ATOM     48  C   UNL A   1      48.649  27.182  26.618  1.00  0.00     0.031 A 
ATOM     49  C   UNL A   1      42.085  28.931  28.404  1.00  0.00     0.031 A 
ATOM     50  C   UNL A   1      48.459  28.561  26.982  1.00  0.00     0.049 A 
ATOM     51  C   UNL A   1      43.212  29.923  28.458  1.00  0.00     0.074 A 
ATOM     52  C   UNL A   1      49.392  29.582  27.006  1.00  0.00     0.029 A 
ATOM     53  N   UNL A   1      47.253  29.111  27.394  1.00  0.00    -0.354 N 
ATOM     54  N   UNL A   1      44.474  29.753  28.139  1.00  0.00    -0.248 NA
ATOM     55  C   UNL A   1      42.881  31.278  28.918  1.00  0.00     0.031 C 
ATOM     56  C   UNL A   1      48.763  30.736  27.487  1.00  0.00     0.029 A 
ATOM     57  C   UNL A   1      47.424  30.450  27.701  1.00  0.00     0.049 A 
ATOM     58  H   UNL A   1      46.401  28.621  27.457  1.00  0.00     0.167 HD
ATOM     59  C   UNL A   1      45.083  30.986  28.335  1.00  0.00     0.074 A 
ATOM     60  C   UNL A   1      44.047  31.895  28.786  1.00  0.00     0.031 C 
ATOM     61  C   UNL A   1      46.381  31.336  28.158  1.00  0.00     0.031 A 
BRANCH  48  62
ATOM     62  C   UNL A   1      50.039  26.708  26.279  1.00  0.00    -0.014 A 
ATOM     63  C   UNL A   1      50.864  26.120  27.255  1.00  0.00     0.010 A 
ATOM     64  C   UNL A   1      50.517  26.824  24.961  1.00  0.00     0.010 A 
ATOM     65  C   UNL A   1      52.157  25.701  26.931  1.00  0.00     0.020 A 
ATOM     66  C   UNL A   1      51.799  26.379  24.626  1.00  0.00     0.020 A 
ATOM     67  C   UNL A   1      52.619  25.839  25.619  1.00  0.00     0.054 A 
BRANCH  67  68
ATOM     68  S   UNL A   1      54.298  25.276  25.225  1.00  0.00     0.124 S 
ATOM     69  O   UNL A   1      54.094  23.843  25.026  1.00  0.00    -0.237 OA
ATOM     70  O   UNL A   1      54.616  26.037  24.019  1.00  0.00    -0.237 OA
ATOM     71  O   UNL A   1      55.072  25.637  26.409  1.00  0.00    -0.744 OA
ENDBRANCH  67  68
ENDBRANCH  48  62
BRANCH  49  72
ATOM     72  C   UNL A   1      40.705  29.307  28.811  1.00  0.00    -0.014 A 
ATOM     73  C   UNL A   1      39.704  29.500  27.842  1.00  0.00     0.010 A 
ATOM     74  C   UNL A   1      40.372  29.441  30.172  1.00  0.00     0.010 A 
ATOM     75  C   UNL A   1      38.402  29.833  28.225  1.00  0.00     0.020 A 
ATOM     76  C   UNL A   1      39.066  29.748  30.560  1.00  0.00     0.020 A 
ATOM     77  C   UNL A   1      38.089  29.952  29.582  1.00  0.00     0.054 A 
BRANCH  77  78
ATOM     78  S   UNL A   1      36.377  30.323  30.056  1.00  0.00     0.124 S 
ATOM     79  O   UNL A   1      35.627  29.788  28.925  1.00  0.00    -0.237 OA
ATOM     80  O   UNL A   1      36.233  29.595  31.314  1.00  0.00    -0.237 OA
ATOM     81  O   UNL A   1      36.367  31.779  30.183  1.00  0.00    -0.744 OA
ENDBRANCH  77  78
ENDBRANCH  49  72
BRANCH  61  82
ATOM     82  C   UNL A   1      46.751  32.770  28.428  1.00  0.00    -0.014 A 
ATOM     83  C   UNL A   1      46.602  33.759  27.440  1.00  0.00     0.010 A 
ATOM     84  C   UNL A   1      47.207  33.140  29.707  1.00  0.00     0.010 A 
ATOM     85  C   UNL A   1      46.933  35.088  27.717  1.00  0.00     0.020 A 
ATOM     86  C   UNL A   1      47.511  34.471  29.996  1.00  0.00     0.020 A 
ATOM     87  C   UNL A   1      47.386  35.436  28.994  1.00  0.00     0.054 A 
BRANCH  87  88
ATOM     88  S   UNL A   1      47.767  37.174  29.340  1.00  0.00     0.124 S 
ATOM     89  O   UNL A   1      48.233  37.647  28.039  1.00  0.00    -0.237 OA
ATOM     90  O   UNL A   1      46.479  37.704  29.777  1.00  0.00    -0.237 OA
ATOM     91  O   UNL A   1      48.791  37.104  30.381  1.00  0.00    -0.744 OA
ENDBRANCH  87  88
ENDBRANCH  61  82
ENDBRANCH  35  36
ENDBRANCH  27  30
ENDBRANCH  25  26
ENDBRANCH   1  25
TORSDOF 17
ENDMDL
MODEL 2
REMARK VINA RESULT:     -10.8      6.326     10.179
REMARK SMILES CCN1C(=O)CC[C@H](C(=O)NCCCCNC(=O)c2ccc(-c3c4nc(c(-c5ccc(S(=O)(=O)[O-])cc5)c5ccc([nH]5)c(-c5ccc(S(=O)(=O)[O-])cc5)c5nc(c(-c6ccc(S(=O)(=O)[O-])cc6)c6ccc3[nH]6)C=C5)C=C4)cc2)[C@@H]1c1ccc(OC)cc1
REMARK SMILES IDX 14 1 13 2 12 3 11 4 9 5 10 6 8 8 3 9 4 10 79 11 5 12 6 13
REMARK SMILES IDX 7 14 2 15 1 16 80 17 81 18 87 19 82 20 86 21 83 22 84 23
REMARK SMILES IDX 85 24 15 25 16 26 17 27 18 29 19 30 20 31 78 32 21 33 77 34
REMARK SMILES IDX 22 35 23 36 24 37 71 38 25 39 76 40 70 41 72 42 26 43 75 44
REMARK SMILES IDX 69 45 68 46 27 48 57 49 38 50 56 51 39 52 42 53 55 54 73 55
REMARK SMILES IDX 40 56 41 57 54 59 74 60 43 61 28 62 29 63 37 64 30 65 36 66
REMARK SMILES IDX 31 67 32 68 33 69 34 70 35 71 58 72 59 73 67 74 60 75 66 76
REMARK SMILES IDX 61 77 62 78 63 79 64 80 65 81 44 82 45 83 53 84 46 85 52 86
REMARK SMILES IDX 47 87 48 88 49 89 50 90 51 91
REMARK H PARENT 11 7 16 28 72 47 42 58
REMARK Flexibility Score: inf
ROOT
ATOM      1  C   UNL A   1      33.280  30.205  26.604  1.00  0.00     0.023 C 
ENDROOT
BRANCH   1   2
ATOM      2  C   UNL A   1      32.130  29.477  27.298  1.00  0.00     0.023 C 
BRANCH   2   3
ATOM      3  C   UNL A   1      32.272  27.964  27.325  1.00  0.00     0.116 C 
BRANCH   3   4
ATOM      4  N   UNL A   1      31.026  27.255  27.116  1.00  0.00    -0.356 N 
ATOM      5  C   UNL A   1      30.720  26.270  26.227  1.00  0.00     0.225 C 
ATOM      6  O   UNL A   1      29.710  25.595  26.453  1.00  0.00    -0.275 OA
ATOM      7  H   UNL A   1      30.287  27.528  27.706  1.00  0.00     0.163 HD
BRANCH   5   8
ATOM      8  C   UNL A   1      31.557  25.976  24.986  1.00  0.00     0.106 C 
ATOM      9  N   UNL A   1      32.512  26.772  22.777  1.00  0.00    -0.335 N 
ATOM     10  C   UNL A   1      32.641  25.462  22.334  1.00  0.00     0.223 C 
ATOM     11  C   UNL A   1      31.816  27.163  24.035  1.00  0.00     0.128 C 
ATOM     12  O   UNL A   1      33.181  25.158  21.269  1.00  0.00    -0.275 OA
ATOM     13  C   UNL A   1      32.212  24.333  23.244  1.00  0.00     0.101 C 
ATOM     14  C   UNL A   1      31.172  24.687  24.277  1.00  0.00     0.026 C 
BRANCH   9  15
ATOM     15  C   UNL A   1      33.223  27.854  22.072  1.00  0.00     0.117 C 
ATOM     16  C   UNL A   1      34.130  28.751  22.906  1.00  0.00     0.027 C 
ENDBRANCH   9  15
BRANCH  11  17
ATOM     17  C   UNL A   1      30.629  28.091  23.769  1.00  0.00    -0.024 A 
ATOM     18  C   UNL A   1      30.676  29.471  24.024  1.00  0.00     0.010 A 
ATOM     19  C   UNL A   1      29.437  27.559  23.238  1.00  0.00     0.010 A 
ATOM     20  C   UNL A   1      29.588  30.291  23.706  1.00  0.00     0.047 A 
ATOM     21  C   UNL A   1      28.356  28.385  22.906  1.00  0.00     0.047 A 
ATOM     22  C   UNL A   1      28.443  29.759  23.115  1.00  0.00     0.118 A 
BRANCH  22  23
ATOM     23  O   UNL A   1      27.475  30.668  22.796  1.00  0.00    -0.497 OA
ATOM     24  C   UNL A   1      27.927  31.846  22.134  1.00  0.00     0.278 C 
ENDBRANCH  22  23
ENDBRANCH  11  17
ENDBRANCH   5   8
ENDBRANCH   3   4
ENDBRANCH   2   3
ENDBRANCH   1   2
BRANCH   1  25
ATOM     25  C   UNL A   1      34.054  31.198  27.469  1.00  0.00     0.116 C 
BRANCH  25  26
ATOM     26  N   UNL A   1      33.368  32.468  27.665  1.00  0.00    -0.352 N 
ATOM     27  C   UNL A   1      33.668  33.486  28.543  1.00  0.00     0.251 C 
ATOM     28  H   UNL A   1      32.584  32.620  27.090  1.00  0.00     0.163 HD
ATOM     29  O   UNL A   1      32.932  34.451  28.650  1.00  0.00    -0.269 OA
BRANCH  27  30
ATOM     30  C   UNL A   1      34.885  33.378  29.376  1.00  0.00     0.039 A 
ATOM     31  C   UNL A   1      34.855  32.562  30.509  1.00  0.00     0.014 A 
ATOM     32  C   UNL A   1      36.059  34.048  29.015  1.00  0.00     0.014 A 
ATOM     33  C   UNL A   1      36.030  32.350  31.233  1.00  0.00     0.010 A 
ATOM     34  C   UNL A   1      37.238  33.791  29.702  1.00  0.00     0.010 A 
ATOM     35  C   UNL A   1      37.236  32.930  30.808  1.00  0.00    -0.014 A 
BRANCH  35  36
ATOM     36  C   UNL A   1      38.523  32.609  31.464  1.00  0.00     0.031 A 
ATOM     37  C   UNL A   1      39.433  31.571  30.874  1.00  0.00     0.074 A 
ATOM     38  C   UNL A   1      38.812  33.183  32.648  1.00  0.00     0.049 A 
ATOM     39  N   UNL A   1      40.564  31.110  31.340  1.00  0.00    -0.248 NA
ATOM     40  C   UNL A   1      39.002  30.949  29.612  1.00  0.00     0.031 C 
ATOM     41  C   UNL A   1      37.969  34.160  33.341  1.00  0.00     0.029 A 
ATOM     42  N   UNL A   1      39.884  33.016  33.485  1.00  0.00    -0.354 N 
ATOM     43  C   UNL A   1      40.977  30.140  30.434  1.00  0.00     0.074 A 
ATOM     44  C   UNL A   1      39.950  30.043  29.420  1.00  0.00     0.031 C 
ATOM     45  C   UNL A   1      38.565  34.519  34.490  1.00  0.00     0.029 A 
ATOM     46  C   UNL A   1      39.811  33.773  34.631  1.00  0.00     0.049 A 
ATOM     47  H   UNL A   1      40.635  32.412  33.285  1.00  0.00     0.167 HD
ATOM     48  C   UNL A   1      42.119  29.410  30.440  1.00  0.00     0.031 A 
ATOM     49  C   UNL A   1      40.651  33.853  35.680  1.00  0.00     0.031 A 
ATOM     50  C   UNL A   1      43.128  29.511  31.461  1.00  0.00     0.049 A 
ATOM     51  C   UNL A   1      41.908  33.029  35.667  1.00  0.00     0.074 A 
ATOM     52  C   UNL A   1      44.348  28.863  31.531  1.00  0.00     0.029 A 
ATOM     53  N   UNL A   1      43.030  30.304  32.595  1.00  0.00    -0.354 N 
ATOM     54  N   UNL A   1      42.326  32.180  34.758  1.00  0.00    -0.248 NA
ATOM     55  C   UNL A   1      42.813  33.183  36.814  1.00  0.00     0.031 C 
ATOM     56  C   UNL A   1      44.963  29.223  32.736  1.00  0.00     0.029 A 
ATOM     57  C   UNL A   1      44.155  30.142  33.386  1.00  0.00     0.049 A 
ATOM     58  H   UNL A   1      42.271  30.896  32.807  1.00  0.00     0.167 HD
ATOM     59  C   UNL A   1      43.556  31.717  35.210  1.00  0.00     0.074 A 
ATOM     60  C   UNL A   1      43.819  32.393  36.466  1.00  0.00     0.031 C 
ATOM     61  C   UNL A   1      44.393  30.816  34.638  1.00  0.00     0.031 A 
BRANCH  48  62
ATOM     62  C   UNL A   1      42.326  28.436  29.310  1.00  0.00    -0.014 A 
ATOM     63  C   UNL A   1      42.993  28.821  28.133  1.00  0.00     0.010 A 
ATOM     64  C   UNL A   1      41.875  27.109  29.436  1.00  0.00     0.010 A 
ATOM     65  C   UNL A   1      43.163  27.913  27.085  1.00  0.00     0.020 A 
ATOM     66  C   UNL A   1      42.070  26.189  28.402  1.00  0.00     0.020 A 
ATOM     67  C   UNL A   1      42.696  26.603  27.224  1.00  0.00     0.054 A 
BRANCH  67  68
ATOM     68  S   UNL A   1      42.940  25.442  25.851  1.00  0.00     0.124 S 
ATOM     69  O   UNL A   1      42.374  24.211  26.397  1.00  0.00    -0.237 OA
ATOM     70  O   UNL A   1      42.176  26.059  24.770  1.00  0.00    -0.237 OA
ATOM     71  O   UNL A   1      44.388  25.430  25.660  1.00  0.00    -0.744 OA
ENDBRANCH  67  68
ENDBRANCH  48  62
BRANCH  49  72
ATOM     72  C   UNL A   1      40.339  34.769  36.809  1.00  0.00    -0.014 A 
ATOM     73  C   UNL A   1      40.926  36.045  36.874  1.00  0.00     0.010 A 
ATOM     74  C   UNL A   1      39.427  34.385  37.810  1.00  0.00     0.010 A 
ATOM     75  C   UNL A   1      40.618  36.914  37.924  1.00  0.00     0.020 A 
ATOM     76  C   UNL A   1      39.096  35.261  38.847  1.00  0.00     0.020 A 
ATOM     77  C   UNL A   1      39.702  36.518  38.902  1.00  0.00     0.054 A 
BRANCH  77  78
ATOM     78  S   UNL A   1      39.271  37.689  40.220  1.00  0.00     0.124 S 
ATOM     79  O   UNL A   1      38.161  38.424  39.622  1.00  0.00    -0.237 OA
ATOM     80  O   UNL A   1      38.921  36.803  41.328  1.00  0.00    -0.237 OA
ATOM     81  O   UNL A   1      40.500  38.456  40.411  1.00  0.00    -0.744 OA
ENDBRANCH  77  78
ENDBRANCH  49  72
BRANCH  61  82
ATOM     82  C   UNL A   1      45.686  30.527  35.353  1.00  0.00    -0.014 A 
ATOM     83  C   UNL A   1      45.791  29.464  36.267  1.00  0.00     0.010 A 
ATOM     84  C   UNL A   1      46.825  31.303  35.068  1.00  0.00     0.010 A 
ATOM     85  C   UNL A   1      47.005  29.201  36.906  1.00  0.00     0.020 A 
ATOM     86  C   UNL A   1      48.047  31.024  35.682  1.00  0.00     0.020 A 
ATOM     87  C   UNL A   1      48.126  29.983  36.610  1.00  0.00     0.054 A 
BRANCH  87  88
ATOM     88  S   UNL A   1      49.700  29.593  37.420  1.00  0.00     0.124 S 
ATOM     89  O   UNL A   1      50.398  28.841  36.381  1.00  0.00    -0.237 OA
ATOM     90  O   UNL A   1      50.246  30.915  37.714  1.00  0.00    -0.237 OA
ATOM     91  O   UNL A   1      49.303  28.815  38.592  1.00  0.00    -0.744 OA
ENDBRANCH  87  88
ENDBRANCH  61  82
ENDBRANCH  35  36
ENDBRANCH  27  30
ENDBRANCH  25  26
ENDBRANCH   1  25
TORSDOF 17
ENDMDL
MODEL 3
REMARK VINA RESULT:     -10.7      4.366      5.138
REMARK SMILES CCN1C(=O)CC[C@H](C(=O)NCCCCNC(=O)c2ccc(-c3c4nc(c(-c5ccc(S(=O)(=O)[O-])cc5)c5ccc([nH]5)c(-c5ccc(S(=O)(=O)[O-])cc5)c5nc(c(-c6ccc(S(=O)(=O)[O-])cc6)c6ccc3[nH]6)C=C5)C=C4)cc2)[C@@H]1c1ccc(OC)cc1
REMARK SMILES IDX 14 1 13 2 12 3 11 4 9 5 10 6 8 8 3 9 4 10 79 11 5 12 6 13
REMARK SMILES IDX 7 14 2 15 1 16 80 17 81 18 87 19 82 20 86 21 83 22 84 23
REMARK SMILES IDX 85 24 15 25 16 26 17 27 18 29 19 30 20 31 78 32 21 33 77 34
REMARK SMILES IDX 22 35 23 36 24 37 71 38 25 39 76 40 70 41 72 42 26 43 75 44
REMARK SMILES IDX 69 45 68 46 27 48 57 49 38 50 56 51 39 52 42 53 55 54 73 55
REMARK SMILES IDX 40 56 41 57 54 59 74 60 43 61 28 62 29 63 37 64 30 65 36 66
REMARK SMILES IDX 31 67 32 68 33 69 34 70 35 71 58 72 59 73 67 74 60 75 66 76
REMARK SMILES IDX 61 77 62 78 63 79 64 80 65 81 44 82 45 83 53 84 46 85 52 86
REMARK SMILES IDX 47 87 48 88 49 89 50 90 51 91
REMARK H PARENT 11 7 16 28 72 47 42 58
REMARK Flexibility Score: inf
ROOT
ATOM      1  C   UNL A   1      39.233  21.665  25.662  1.00  0.00     0.023 C 
ENDROOT
BRANCH   1   2
ATOM      2  C   UNL A   1      38.908  22.962  26.399  1.00  0.00     0.023 C 
BRANCH   2   3
ATOM      3  C   UNL A   1      37.656  23.667  25.904  1.00  0.00     0.116 C 
BRANCH   3   4
ATOM      4  N   UNL A   1      37.129  23.125  24.667  1.00  0.00    -0.356 N 
ATOM      5  C   UNL A   1      36.008  23.463  23.973  1.00  0.00     0.225 C 
ATOM      6  O   UNL A   1      35.941  23.102  22.794  1.00  0.00    -0.275 OA
ATOM      7  H   UNL A   1      37.663  22.400  24.269  1.00  0.00     0.163 HD
BRANCH   5   8
ATOM      8  C   UNL A   1      34.854  24.253  24.583  1.00  0.00     0.106 C 
ATOM      9  N   UNL A   1      32.652  24.251  25.838  1.00  0.00    -0.335 N 
ATOM     10  C   UNL A   1      32.332  25.502  25.325  1.00  0.00     0.223 C 
ATOM     11  C   UNL A   1      33.825  23.444  25.399  1.00  0.00     0.128 C 
ATOM     12  O   UNL A   1      31.334  26.139  25.668  1.00  0.00    -0.275 OA
ATOM     13  C   UNL A   1      33.306  26.183  24.389  1.00  0.00     0.101 C 
ATOM     14  C   UNL A   1      34.234  25.266  23.634  1.00  0.00     0.026 C 
BRANCH   9  15
ATOM     15  C   UNL A   1      31.905  23.725  26.995  1.00  0.00     0.117 C 
ATOM     16  C   UNL A   1      30.549  23.088  26.717  1.00  0.00     0.027 C 
ENDBRANCH   9  15
BRANCH  11  17
ATOM     17  C   UNL A   1      33.404  22.095  24.813  1.00  0.00    -0.024 A 
ATOM     18  C   UNL A   1      32.596  21.986  23.670  1.00  0.00     0.010 A 
ATOM     19  C   UNL A   1      33.843  20.903  25.425  1.00  0.00     0.010 A 
ATOM     20  C   UNL A   1      32.288  20.732  23.132  1.00  0.00     0.047 A 
ATOM     21  C   UNL A   1      33.547  19.650  24.875  1.00  0.00     0.047 A 
ATOM     22  C   UNL A   1      32.790  19.566  23.709  1.00  0.00     0.118 A 
BRANCH  22  23
ATOM     23  O   UNL A   1      32.471  18.409  23.057  1.00  0.00    -0.497 OA
ATOM     24  C   UNL A   1      33.383  17.328  23.231  1.00  0.00     0.278 C 
ENDBRANCH  22  23
ENDBRANCH  11  17
ENDBRANCH   5   8
ENDBRANCH   3   4
ENDBRANCH   2   3
ENDBRANCH   1   2
BRANCH   1  25
ATOM     25  C   UNL A   1      39.971  20.605  26.479  1.00  0.00     0.116 C 
BRANCH  25  26
ATOM     26  N   UNL A   1      41.214  20.153  25.869  1.00  0.00    -0.352 N 
ATOM     27  C   UNL A   1      42.456  20.748  25.898  1.00  0.00     0.251 C 
ATOM     28  H   UNL A   1      41.159  19.307  25.370  1.00  0.00     0.163 HD
ATOM     29  O   UNL A   1      43.381  20.287  25.252  1.00  0.00    -0.269 OA
BRANCH  27  30
ATOM     30  C   UNL A   1      42.647  21.973  26.704  1.00  0.00     0.039 A 
ATOM     31  C   UNL A   1      43.059  23.143  26.063  1.00  0.00     0.014 A 
ATOM     32  C   UNL A   1      42.379  21.972  28.077  1.00  0.00     0.014 A 
ATOM     33  C   UNL A   1      43.120  24.336  26.785  1.00  0.00     0.010 A 
ATOM     34  C   UNL A   1      42.385  23.169  28.780  1.00  0.00     0.010 A 
ATOM     35  C   UNL A   1      42.743  24.363  28.137  1.00  0.00    -0.014 A 
BRANCH  35  36
ATOM     36  C   UNL A   1      42.656  25.633  28.892  1.00  0.00     0.031 A 
ATOM     37  C   UNL A   1      43.748  26.021  29.847  1.00  0.00     0.074 A 
ATOM     38  C   UNL A   1      41.538  26.378  28.788  1.00  0.00     0.049 A 
ATOM     39  N   UNL A   1      43.814  27.057  30.641  1.00  0.00    -0.248 NA
ATOM     40  C   UNL A   1      44.901  25.111  29.942  1.00  0.00     0.031 C 
ATOM     41  C   UNL A   1      40.389  26.062  27.935  1.00  0.00     0.029 A 
ATOM     42  N   UNL A   1      41.177  27.541  29.415  1.00  0.00    -0.354 N 
ATOM     43  C   UNL A   1      45.010  26.921  31.336  1.00  0.00     0.074 A 
ATOM     44  C   UNL A   1      45.611  25.677  30.907  1.00  0.00     0.031 C 
ATOM     45  C   UNL A   1      39.458  27.019  28.080  1.00  0.00     0.029 A 
ATOM     46  C   UNL A   1      39.927  27.994  29.059  1.00  0.00     0.049 A 
ATOM     47  H   UNL A   1      41.756  28.009  30.058  1.00  0.00     0.167 HD
ATOM     48  C   UNL A   1      45.564  27.768  32.237  1.00  0.00     0.031 A 
ATOM     49  C   UNL A   1      39.236  29.070  29.478  1.00  0.00     0.031 A 
ATOM     50  C   UNL A   1      44.950  28.999  32.662  1.00  0.00     0.049 A 
ATOM     51  C   UNL A   1      39.868  29.992  30.484  1.00  0.00     0.074 A 
ATOM     52  C   UNL A   1      45.452  29.959  33.522  1.00  0.00     0.029 A 
ATOM     53  N   UNL A   1      43.695  29.435  32.263  1.00  0.00    -0.354 N 
ATOM     54  N   UNL A   1      41.040  29.895  31.066  1.00  0.00    -0.248 NA
ATOM     55  C   UNL A   1      39.092  31.175  30.877  1.00  0.00     0.031 C 
ATOM     56  C   UNL A   1      44.476  30.949  33.687  1.00  0.00     0.029 A 
ATOM     57  C   UNL A   1      43.393  30.637  32.881  1.00  0.00     0.049 A 
ATOM     58  H   UNL A   1      43.105  28.960  31.633  1.00  0.00     0.167 HD
ATOM     59  C   UNL A   1      41.153  31.017  31.877  1.00  0.00     0.074 A 
ATOM     60  C   UNL A   1      39.937  31.786  31.696  1.00  0.00     0.031 C 
ATOM     61  C   UNL A   1      42.171  31.381  32.696  1.00  0.00     0.031 A 
BRANCH  48  62
ATOM     62  C   UNL A   1      46.896  27.382  32.827  1.00  0.00    -0.014 A 
ATOM     63  C   UNL A   1      46.975  26.583  33.982  1.00  0.00     0.010 A 
ATOM     64  C   UNL A   1      48.086  27.799  32.203  1.00  0.00     0.010 A 
ATOM     65  C   UNL A   1      48.216  26.248  34.529  1.00  0.00     0.020 A 
ATOM     66  C   UNL A   1      49.330  27.441  32.729  1.00  0.00     0.020 A 
ATOM     67  C   UNL A   1      49.387  26.683  33.901  1.00  0.00     0.054 A 
BRANCH  67  68
ATOM     68  S   UNL A   1      50.985  26.224  34.627  1.00  0.00     0.124 S 
ATOM     69  O   UNL A   1      50.802  24.795  34.872  1.00  0.00    -0.237 OA
ATOM     70  O   UNL A   1      51.928  26.562  33.564  1.00  0.00    -0.237 OA
ATOM     71  O   UNL A   1      51.074  27.054  35.825  1.00  0.00    -0.744 OA
ENDBRANCH  67  68
ENDBRANCH  48  62
BRANCH  49  72
ATOM     72  C   UNL A   1      37.884  29.343  28.923  1.00  0.00    -0.014 A 
ATOM     73  C   UNL A   1      37.726  29.679  27.567  1.00  0.00     0.010 A 
ATOM     74  C   UNL A   1      36.741  29.235  29.738  1.00  0.00     0.010 A 
ATOM     75  C   UNL A   1      36.454  29.916  27.039  1.00  0.00     0.020 A 
ATOM     76  C   UNL A   1      35.466  29.445  29.207  1.00  0.00     0.020 A 
ATOM     77  C   UNL A   1      35.331  29.793  27.862  1.00  0.00     0.054 A 
BRANCH  77  78
ATOM     78  S   UNL A   1      33.686  30.044  27.138  1.00  0.00     0.124 S 
ATOM     79  O   UNL A   1      33.411  31.434  27.481  1.00  0.00    -0.237 OA
ATOM     80  O   UNL A   1      33.921  29.775  25.721  1.00  0.00    -0.237 OA
ATOM     81  O   UNL A   1      32.857  29.053  27.822  1.00  0.00    -0.744 OA
ENDBRANCH  77  78
ENDBRANCH  49  72
BRANCH  61  82
ATOM     82  C   UNL A   1      42.025  32.682  33.441  1.00  0.00    -0.014 A 
ATOM     83  C   UNL A   1      42.469  33.893  32.884  1.00  0.00     0.010 A 
ATOM     84  C   UNL A   1      41.388  32.694  34.695  1.00  0.00     0.010 A 
ATOM     85  C   UNL A   1      42.307  35.092  33.584  1.00  0.00     0.020 A 
ATOM     86  C   UNL A   1      41.197  33.893  35.384  1.00  0.00     0.020 A 
ATOM     87  C   UNL A   1      41.672  35.084  34.830  1.00  0.00     0.054 A 
BRANCH  87  88
ATOM     88  S   UNL A   1      41.435  36.659  35.697  1.00  0.00     0.124 S 
ATOM     89  O   UNL A   1      42.150  36.426  36.949  1.00  0.00    -0.237 OA
ATOM     90  O   UNL A   1      42.053  37.621  34.789  1.00  0.00    -0.237 OA
ATOM     91  O   UNL A   1      39.983  36.771  35.820  1.00  0.00    -0.744 OA
ENDBRANCH  87  88
ENDBRANCH  61  82
ENDBRANCH  35  36
ENDBRANCH  27  30
ENDBRANCH  25  26
ENDBRANCH   1  25
TORSDOF 17
ENDMDL
