MODEL 1
REMARK VINA RESULT:      -8.9      0.000      0.000
REMARK SMILES C/C=C/C=C/C(=O)N[C@@H](C)CC(=O)NCCCCNC(=O)c1ccc(-c2c3nc(c(-c4ccc(S(=O)(=O)[O-])cc4)c4ccc([nH]4)c(-c4ccc(S(=O)(=O)[O-])cc4)c4nc(c(-c5ccc(S(=O)(=O)[O-])cc5)c5ccc2[nH]5)C=C4)C=C3)cc1
REMARK SMILES IDX 16 1 15 2 14 3 12 4 13 5 11 7 9 8 10 9 8 10 6 11 7 12 5 14
REMARK SMILES IDX 4 15 3 16 1 17 2 18 17 19 18 20 19 21 20 22 21 24 22 25
REMARK SMILES IDX 23 26 81 27 24 28 80 29 25 30 26 31 27 32 74 33 28 34 79 35
REMARK SMILES IDX 73 36 75 37 29 38 78 39 72 40 71 41 30 43 60 44 41 45 59 46
REMARK SMILES IDX 42 47 45 48 58 49 76 50 43 51 44 52 57 54 77 55 46 56 31 57
REMARK SMILES IDX 32 58 40 59 33 60 39 61 34 62 35 63 36 64 37 65 38 66 61 67
REMARK SMILES IDX 62 68 70 69 63 70 69 71 64 72 65 73 66 74 67 75 68 76 47 77
REMARK SMILES IDX 48 78 56 79 49 80 55 81 50 82 51 83 52 84 53 85 54 86
REMARK H PARENT 14 6 8 13 19 23 75 42 45 53
REMARK Flexibility Score: inf
ROOT
ATOM      1  C   UNL A   1      42.304  20.128  26.501  1.00  0.00     0.023 C 
ENDROOT
BRANCH   1   2
ATOM      2  C   UNL A   1      43.117  21.409  26.356  1.00  0.00     0.116 C 
BRANCH   2   3
ATOM      3  N   UNL A   1      43.429  21.666  24.963  1.00  0.00    -0.356 N 
ATOM      4  C   UNL A   1      44.502  22.315  24.436  1.00  0.00     0.222 C 
ATOM      5  O   UNL A   1      44.515  22.568  23.230  1.00  0.00    -0.275 OA
ATOM      6  H   UNL A   1      42.776  21.323  24.310  1.00  0.00     0.163 HD
BRANCH   4   7
ATOM      7  C   UNL A   1      45.670  22.702  25.318  1.00  0.00     0.124 C 
BRANCH   7   8
ATOM      8  C   UNL A   1      45.552  24.142  25.826  1.00  0.00     0.088 C 
ATOM      9  C   UNL A   1      45.293  24.137  27.334  1.00  0.00     0.031 C 
BRANCH   8  10
ATOM     10  N   UNL A   1      44.447  24.879  25.207  1.00  0.00    -0.350 N 
ATOM     11  C   UNL A   1      44.025  26.168  25.339  1.00  0.00     0.244 C 
ATOM     12  O   UNL A   1      43.016  26.530  24.736  1.00  0.00    -0.270 OA
ATOM     13  H   UNL A   1      43.909  24.344  24.580  1.00  0.00     0.164 HD
BRANCH  11  14
ATOM     14  C   UNL A   1      44.840  27.171  26.057  1.00  0.00     0.071 C 
ATOM     15  C   UNL A   1      44.431  28.408  26.360  1.00  0.00     0.005 C 
BRANCH  15  16
ATOM     16  C   UNL A   1      45.251  29.338  27.101  1.00  0.00    -0.004 C 
ATOM     17  C   UNL A   1      45.640  31.561  28.178  1.00  0.00     0.035 C 
ATOM     18  C   UNL A   1      44.837  30.580  27.390  1.00  0.00    -0.030 C 
ENDBRANCH  15  16
ENDBRANCH  11  14
ENDBRANCH   8  10
ENDBRANCH   7   8
ENDBRANCH   4   7
ENDBRANCH   2   3
ENDBRANCH   1   2
BRANCH   1  19
ATOM     19  C   UNL A   1      40.818  20.263  26.200  1.00  0.00     0.023 C 
BRANCH  19  20
ATOM     20  C   UNL A   1      40.139  21.455  26.852  1.00  0.00     0.116 C 
BRANCH  20  21
ATOM     21  N   UNL A   1      38.912  21.872  26.189  1.00  0.00    -0.352 N 
ATOM     22  C   UNL A   1      38.346  23.129  26.151  1.00  0.00     0.251 C 
ATOM     23  H   UNL A   1      38.425  21.167  25.705  1.00  0.00     0.163 HD
ATOM     24  O   UNL A   1      37.270  23.314  25.607  1.00  0.00    -0.269 OA
BRANCH  22  25
ATOM     25  C   UNL A   1      39.051  24.235  26.831  1.00  0.00     0.039 A 
ATOM     26  C   UNL A   1      39.853  25.091  26.073  1.00  0.00     0.014 A 
ATOM     27  C   UNL A   1      38.834  24.479  28.189  1.00  0.00     0.014 A 
ATOM     28  C   UNL A   1      40.369  26.246  26.662  1.00  0.00     0.010 A 
ATOM     29  C   UNL A   1      39.267  25.675  28.744  1.00  0.00     0.010 A 
ATOM     30  C   UNL A   1      40.039  26.571  27.988  1.00  0.00    -0.014 A 
BRANCH  30  31
ATOM     31  C   UNL A   1      40.488  27.840  28.613  1.00  0.00     0.031 A 
ATOM     32  C   UNL A   1      41.869  27.935  29.201  1.00  0.00     0.074 A 
ATOM     33  C   UNL A   1      39.623  28.865  28.745  1.00  0.00     0.049 A 
ATOM     34  N   UNL A   1      42.412  28.913  29.878  1.00  0.00    -0.248 NA
ATOM     35  C   UNL A   1      42.738  26.757  29.046  1.00  0.00     0.031 C 
ATOM     36  C   UNL A   1      38.231  28.869  28.287  1.00  0.00     0.029 A 
ATOM     37  N   UNL A   1      39.783  30.099  29.324  1.00  0.00    -0.354 N 
ATOM     38  C   UNL A   1      43.665  28.452  30.264  1.00  0.00     0.074 A 
ATOM     39  C   UNL A   1      43.782  27.092  29.787  1.00  0.00     0.031 C 
ATOM     40  C   UNL A   1      37.674  30.055  28.582  1.00  0.00     0.029 A 
ATOM     41  C   UNL A   1      38.654  30.880  29.279  1.00  0.00     0.049 A 
ATOM     42  H   UNL A   1      40.628  30.396  29.732  1.00  0.00     0.167 HD
ATOM     43  C   UNL A   1      44.639  29.108  30.938  1.00  0.00     0.031 A 
ATOM     44  C   UNL A   1      38.428  32.123  29.750  1.00  0.00     0.031 A 
ATOM     45  C   UNL A   1      44.534  30.473  31.373  1.00  0.00     0.049 A 
ATOM     46  C   UNL A   1      39.544  32.859  30.438  1.00  0.00     0.074 A 
ATOM     47  C   UNL A   1      45.498  31.262  31.973  1.00  0.00     0.029 A 
ATOM     48  N   UNL A   1      43.394  31.254  31.250  1.00  0.00    -0.354 N 
ATOM     49  N   UNL A   1      40.756  32.439  30.713  1.00  0.00    -0.248 NA
ATOM     50  C   UNL A   1      39.269  34.238  30.862  1.00  0.00     0.031 C 
ATOM     51  C   UNL A   1      44.928  32.510  32.249  1.00  0.00     0.029 A 
ATOM     52  C   UNL A   1      43.623  32.511  31.781  1.00  0.00     0.049 A 
ATOM     53  H   UNL A   1      42.547  30.958  30.844  1.00  0.00     0.167 HD
ATOM     54  C   UNL A   1      41.395  33.509  31.331  1.00  0.00     0.074 A 
ATOM     55  C   UNL A   1      40.439  34.598  31.373  1.00  0.00     0.031 C 
ATOM     56  C   UNL A   1      42.658  33.580  31.818  1.00  0.00     0.031 A 
BRANCH  43  57
ATOM     57  C   UNL A   1      45.897  28.341  31.248  1.00  0.00    -0.014 A 
ATOM     58  C   UNL A   1      46.021  27.590  32.431  1.00  0.00     0.010 A 
ATOM     59  C   UNL A   1      46.974  28.377  30.344  1.00  0.00     0.010 A 
ATOM     60  C   UNL A   1      47.222  26.944  32.737  1.00  0.00     0.020 A 
ATOM     61  C   UNL A   1      48.166  27.706  30.631  1.00  0.00     0.020 A 
ATOM     62  C   UNL A   1      48.291  27.016  31.839  1.00  0.00     0.054 A 
BRANCH  62  63
ATOM     63  S   UNL A   1      49.843  26.179  32.262  1.00  0.00     0.124 S 
ATOM     64  O   UNL A   1      49.697  25.991  33.704  1.00  0.00    -0.237 OA
ATOM     65  O   UNL A   1      49.782  24.959  31.462  1.00  0.00    -0.237 OA
ATOM     66  O   UNL A   1      50.872  27.135  31.859  1.00  0.00    -0.744 OA
ENDBRANCH  62  63
ENDBRANCH  43  57
BRANCH  44  67
ATOM     67  C   UNL A   1      37.094  32.750  29.556  1.00  0.00    -0.014 A 
ATOM     68  C   UNL A   1      36.249  32.979  30.655  1.00  0.00     0.010 A 
ATOM     69  C   UNL A   1      36.686  33.173  28.277  1.00  0.00     0.010 A 
ATOM     70  C   UNL A   1      35.019  33.620  30.481  1.00  0.00     0.020 A 
ATOM     71  C   UNL A   1      35.466  33.833  28.103  1.00  0.00     0.020 A 
ATOM     72  C   UNL A   1      34.637  34.049  29.206  1.00  0.00     0.054 A 
BRANCH  72  73
ATOM     73  S   UNL A   1      33.077  34.957  29.017  1.00  0.00     0.124 S 
ATOM     74  O   UNL A   1      33.540  36.268  28.574  1.00  0.00    -0.237 OA
ATOM     75  O   UNL A   1      32.367  34.165  28.016  1.00  0.00    -0.237 OA
ATOM     76  O   UNL A   1      32.495  34.917  30.357  1.00  0.00    -0.744 OA
ENDBRANCH  72  73
ENDBRANCH  44  67
BRANCH  56  77
ATOM     77  C   UNL A   1      43.091  34.886  32.425  1.00  0.00    -0.014 A 
ATOM     78  C   UNL A   1      43.694  35.885  31.641  1.00  0.00     0.010 A 
ATOM     79  C   UNL A   1      42.829  35.142  33.784  1.00  0.00     0.010 A 
ATOM     80  C   UNL A   1      44.047  37.110  32.212  1.00  0.00     0.020 A 
ATOM     81  C   UNL A   1      43.159  36.374  34.351  1.00  0.00     0.020 A 
ATOM     82  C   UNL A   1      43.777  37.347  33.562  1.00  0.00     0.054 A 
BRANCH  82  83
ATOM     83  S   UNL A   1      44.194  38.966  34.268  1.00  0.00     0.124 S 
ATOM     84  O   UNL A   1      44.246  38.669  35.697  1.00  0.00    -0.237 OA
ATOM     85  O   UNL A   1      45.480  39.268  33.642  1.00  0.00    -0.237 OA
ATOM     86  O   UNL A   1      43.088  39.822  33.847  1.00  0.00    -0.744 OA
ENDBRANCH  82  83
ENDBRANCH  56  77
ENDBRANCH  30  31
ENDBRANCH  22  25
ENDBRANCH  20  21
ENDBRANCH  19  20
ENDBRANCH   1  19
TORSDOF 18
ENDMDL
MODEL 2
REMARK VINA RESULT:      -8.7      3.569      6.294
REMARK SMILES C/C=C/C=C/C(=O)N[C@@H](C)CC(=O)NCCCCNC(=O)c1ccc(-c2c3nc(c(-c4ccc(S(=O)(=O)[O-])cc4)c4ccc([nH]4)c(-c4ccc(S(=O)(=O)[O-])cc4)c4nc(c(-c5ccc(S(=O)(=O)[O-])cc5)c5ccc2[nH]5)C=C4)C=C3)cc1
REMARK SMILES IDX 16 1 15 2 14 3 12 4 13 5 11 7 9 8 10 9 8 10 6 11 7 12 5 14
REMARK SMILES IDX 4 15 3 16 1 17 2 18 17 19 18 20 19 21 20 22 21 24 22 25
REMARK SMILES IDX 23 26 81 27 24 28 80 29 25 30 26 31 27 32 74 33 28 34 79 35
REMARK SMILES IDX 73 36 75 37 29 38 78 39 72 40 71 41 30 43 60 44 41 45 59 46
REMARK SMILES IDX 42 47 45 48 58 49 76 50 43 51 44 52 57 54 77 55 46 56 31 57
REMARK SMILES IDX 32 58 40 59 33 60 39 61 34 62 35 63 36 64 37 65 38 66 61 67
REMARK SMILES IDX 62 68 70 69 63 70 69 71 64 72 65 73 66 74 67 75 68 76 47 77
REMARK SMILES IDX 48 78 56 79 49 80 55 81 50 82 51 83 52 84 53 85 54 86
REMARK H PARENT 14 6 8 13 19 23 75 42 45 53
REMARK Flexibility Score: inf
ROOT
ATOM      1  C   UNL A   1      35.190  22.276  23.843  1.00  0.00     0.023 C 
ENDROOT
BRANCH   1   2
ATOM      2  C   UNL A   1      33.877  22.968  23.496  1.00  0.00     0.116 C 
BRANCH   2   3
ATOM      3  N   UNL A   1      33.313  23.617  24.664  1.00  0.00    -0.356 N 
ATOM      4  C   UNL A   1      33.322  24.937  24.993  1.00  0.00     0.222 C 
ATOM      5  O   UNL A   1      32.923  25.278  26.108  1.00  0.00    -0.275 OA
ATOM      6  H   UNL A   1      32.862  23.021  25.306  1.00  0.00     0.163 HD
BRANCH   4   7
ATOM      7  C   UNL A   1      33.798  25.970  23.994  1.00  0.00     0.124 C 
BRANCH   7   8
ATOM      8  C   UNL A   1      32.716  27.007  23.683  1.00  0.00     0.088 C 
ATOM      9  C   UNL A   1      32.897  28.230  24.585  1.00  0.00     0.031 C 
BRANCH   8  10
ATOM     10  N   UNL A   1      31.358  26.505  23.914  1.00  0.00    -0.350 N 
ATOM     11  C   UNL A   1      30.134  27.015  23.604  1.00  0.00     0.244 C 
ATOM     12  O   UNL A   1      29.126  26.410  23.966  1.00  0.00    -0.270 OA
ATOM     13  H   UNL A   1      31.324  25.639  24.381  1.00  0.00     0.164 HD
BRANCH  11  14
ATOM     14  C   UNL A   1      29.995  28.185  22.710  1.00  0.00     0.071 C 
ATOM     15  C   UNL A   1      29.316  29.297  23.012  1.00  0.00     0.005 C 
BRANCH  15  16
ATOM     16  C   UNL A   1      29.244  30.431  22.120  1.00  0.00    -0.004 C 
ATOM     17  C   UNL A   1      28.037  31.855  20.456  1.00  0.00     0.035 C 
ATOM     18  C   UNL A   1      28.163  30.679  21.367  1.00  0.00    -0.030 C 
ENDBRANCH  15  16
ENDBRANCH  11  14
ENDBRANCH   8  10
ENDBRANCH   7   8
ENDBRANCH   4   7
ENDBRANCH   2   3
ENDBRANCH   1   2
BRANCH   1  19
ATOM     19  C   UNL A   1      36.425  23.164  23.800  1.00  0.00     0.023 C 
BRANCH  19  20
ATOM     20  C   UNL A   1      37.042  23.467  25.153  1.00  0.00     0.116 C 
BRANCH  20  21
ATOM     21  N   UNL A   1      38.126  22.569  25.524  1.00  0.00    -0.352 N 
ATOM     22  C   UNL A   1      39.250  22.850  26.272  1.00  0.00     0.251 C 
ATOM     23  H   UNL A   1      38.046  21.644  25.200  1.00  0.00     0.163 HD
ATOM     24  O   UNL A   1      40.113  22.005  26.445  1.00  0.00    -0.269 OA
BRANCH  22  25
ATOM     25  C   UNL A   1      39.407  24.216  26.814  1.00  0.00     0.039 A 
ATOM     26  C   UNL A   1      38.983  24.476  28.119  1.00  0.00     0.014 A 
ATOM     27  C   UNL A   1      40.063  25.198  26.069  1.00  0.00     0.014 A 
ATOM     28  C   UNL A   1      39.297  25.701  28.709  1.00  0.00     0.010 A 
ATOM     29  C   UNL A   1      40.457  26.375  26.690  1.00  0.00     0.010 A 
ATOM     30  C   UNL A   1      40.078  26.640  28.015  1.00  0.00    -0.014 A 
BRANCH  30  31
ATOM     31  C   UNL A   1      40.514  27.910  28.648  1.00  0.00     0.031 A 
ATOM     32  C   UNL A   1      41.890  28.011  29.248  1.00  0.00     0.074 A 
ATOM     33  C   UNL A   1      39.643  28.930  28.775  1.00  0.00     0.049 A 
ATOM     34  N   UNL A   1      42.422  28.990  29.931  1.00  0.00    -0.248 NA
ATOM     35  C   UNL A   1      42.767  26.837  29.097  1.00  0.00     0.031 C 
ATOM     36  C   UNL A   1      38.255  28.928  28.304  1.00  0.00     0.029 A 
ATOM     37  N   UNL A   1      39.792  30.164  29.358  1.00  0.00    -0.354 N 
ATOM     38  C   UNL A   1      43.674  28.535  30.327  1.00  0.00     0.074 A 
ATOM     39  C   UNL A   1      43.802  27.176  29.849  1.00  0.00     0.031 C 
ATOM     40  C   UNL A   1      37.689  30.110  28.597  1.00  0.00     0.029 A 
ATOM     41  C   UNL A   1      38.658  30.939  29.305  1.00  0.00     0.049 A 
ATOM     42  H   UNL A   1      40.632  30.464  29.774  1.00  0.00     0.167 HD
ATOM     43  C   UNL A   1      44.639  29.194  31.012  1.00  0.00     0.031 A 
ATOM     44  C   UNL A   1      38.422  32.179  29.777  1.00  0.00     0.031 A 
ATOM     45  C   UNL A   1      44.523  30.558  31.449  1.00  0.00     0.049 A 
ATOM     46  C   UNL A   1      39.528  32.919  30.476  1.00  0.00     0.074 A 
ATOM     47  C   UNL A   1      45.477  31.351  32.059  1.00  0.00     0.029 A 
ATOM     48  N   UNL A   1      43.379  31.333  31.318  1.00  0.00    -0.354 N 
ATOM     49  N   UNL A   1      40.740  32.506  30.761  1.00  0.00    -0.248 NA
ATOM     50  C   UNL A   1      39.242  34.296  30.902  1.00  0.00     0.031 C 
ATOM     51  C   UNL A   1      44.898  32.595  32.333  1.00  0.00     0.029 A 
ATOM     52  C   UNL A   1      43.598  32.590  31.853  1.00  0.00     0.049 A 
ATOM     53  H   UNL A   1      42.538  31.033  30.904  1.00  0.00     0.167 HD
ATOM     54  C   UNL A   1      41.368  33.577  31.387  1.00  0.00     0.074 A 
ATOM     55  C   UNL A   1      40.406  34.661  31.423  1.00  0.00     0.031 C 
ATOM     56  C   UNL A   1      42.626  33.654  31.885  1.00  0.00     0.031 A 
BRANCH  43  57
ATOM     57  C   UNL A   1      45.898  28.433  31.330  1.00  0.00    -0.014 A 
ATOM     58  C   UNL A   1      46.024  27.698  32.524  1.00  0.00     0.010 A 
ATOM     59  C   UNL A   1      46.974  28.458  30.426  1.00  0.00     0.010 A 
ATOM     60  C   UNL A   1      47.226  27.058  32.836  1.00  0.00     0.020 A 
ATOM     61  C   UNL A   1      48.167  27.794  30.720  1.00  0.00     0.020 A 
ATOM     62  C   UNL A   1      48.294  27.119  31.937  1.00  0.00     0.054 A 
BRANCH  62  63
ATOM     63  S   UNL A   1      49.848  26.290  32.370  1.00  0.00     0.124 S 
ATOM     64  O   UNL A   1      50.518  26.215  31.074  1.00  0.00    -0.237 OA
ATOM     65  O   UNL A   1      50.447  27.209  33.334  1.00  0.00    -0.237 OA
ATOM     66  O   UNL A   1      49.413  25.009  32.922  1.00  0.00    -0.744 OA
ENDBRANCH  62  63
ENDBRANCH  43  57
BRANCH  44  67
ATOM     67  C   UNL A   1      37.087  32.800  29.573  1.00  0.00    -0.014 A 
ATOM     68  C   UNL A   1      36.118  32.754  30.590  1.00  0.00     0.010 A 
ATOM     69  C   UNL A   1      36.797  33.489  28.380  1.00  0.00     0.010 A 
ATOM     70  C   UNL A   1      34.883  33.386  30.420  1.00  0.00     0.020 A 
ATOM     71  C   UNL A   1      35.570  34.140  28.216  1.00  0.00     0.020 A 
ATOM     72  C   UNL A   1      34.619  34.081  29.236  1.00  0.00     0.054 A 
BRANCH  72  73
ATOM     73  S   UNL A   1      33.044  34.969  29.073  1.00  0.00     0.124 S 
ATOM     74  O   UNL A   1      32.343  34.164  28.078  1.00  0.00    -0.237 OA
ATOM     75  O   UNL A   1      32.505  34.910  30.429  1.00  0.00    -0.237 OA
ATOM     76  O   UNL A   1      33.449  36.301  28.631  1.00  0.00    -0.744 OA
ENDBRANCH  72  73
ENDBRANCH  44  67
BRANCH  56  77
ATOM     77  C   UNL A   1      43.047  34.960  32.500  1.00  0.00    -0.014 A 
ATOM     78  C   UNL A   1      43.654  35.963  31.723  1.00  0.00     0.010 A 
ATOM     79  C   UNL A   1      42.769  35.212  33.855  1.00  0.00     0.010 A 
ATOM     80  C   UNL A   1      43.996  37.189  32.300  1.00  0.00     0.020 A 
ATOM     81  C   UNL A   1      43.089  36.445  34.428  1.00  0.00     0.020 A 
ATOM     82  C   UNL A   1      43.710  37.422  33.648  1.00  0.00     0.054 A 
BRANCH  82  83
ATOM     83  S   UNL A   1      44.113  39.041  34.361  1.00  0.00     0.124 S 
ATOM     84  O   UNL A   1      45.414  39.322  33.760  1.00  0.00    -0.237 OA
ATOM     85  O   UNL A   1      43.012  39.882  33.896  1.00  0.00    -0.237 OA
ATOM     86  O   UNL A   1      44.131  38.790  35.800  1.00  0.00    -0.744 OA
ENDBRANCH  82  83
ENDBRANCH  56  77
ENDBRANCH  30  31
ENDBRANCH  22  25
ENDBRANCH  20  21
ENDBRANCH  19  20
ENDBRANCH   1  19
TORSDOF 18
ENDMDL
MODEL 3
REMARK VINA RESULT:      -8.7      3.931     11.026
REMARK SMILES C/C=C/C=C/C(=O)N[C@@H](C)CC(=O)NCCCCNC(=O)c1ccc(-c2c3nc(c(-c4ccc(S(=O)(=O)[O-])cc4)c4ccc([nH]4)c(-c4ccc(S(=O)(=O)[O-])cc4)c4nc(c(-c5ccc(S(=O)(=O)[O-])cc5)c5ccc2[nH]5)C=C4)C=C3)cc1
REMARK SMILES IDX 16 1 15 2 14 3 12 4 13 5 11 7 9 8 10 9 8 10 6 11 7 12 5 14
REMARK SMILES IDX 4 15 3 16 1 17 2 18 17 19 18 20 19 21 20 22 21 24 22 25
REMARK SMILES IDX 23 26 81 27 24 28 80 29 25 30 26 31 27 32 74 33 28 34 79 35
REMARK SMILES IDX 73 36 75 37 29 38 78 39 72 40 71 41 30 43 60 44 41 45 59 46
REMARK SMILES IDX 42 47 45 48 58 49 76 50 43 51 44 52 57 54 77 55 46 56 31 57
REMARK SMILES IDX 32 58 40 59 33 60 39 61 34 62 35 63 36 64 37 65 38 66 61 67
REMARK SMILES IDX 62 68 70 69 63 70 69 71 64 72 65 73 66 74 67 75 68 76 47 77
REMARK SMILES IDX 48 78 56 79 49 80 55 81 50 82 51 83 52 84 53 85 54 86
REMARK H PARENT 14 6 8 13 19 23 75 42 45 53
REMARK Flexibility Score: inf
ROOT
ATOM      1  C   UNL A   1      33.447  27.161  24.992  1.00  0.00     0.023 C 
ENDROOT
BRANCH   1   2
ATOM      2  C   UNL A   1      32.557  26.766  23.819  1.00  0.00     0.116 C 
BRANCH   2   3
ATOM      3  N   UNL A   1      33.229  25.806  22.964  1.00  0.00    -0.356 N 
ATOM      4  C   UNL A   1      32.879  24.521  22.687  1.00  0.00     0.222 C 
ATOM      5  O   UNL A   1      33.662  23.811  22.053  1.00  0.00    -0.275 OA
ATOM      6  H   UNL A   1      34.049  26.129  22.523  1.00  0.00     0.163 HD
BRANCH   4   7
ATOM      7  C   UNL A   1      31.538  23.981  23.134  1.00  0.00     0.124 C 
BRANCH   7   8
ATOM      8  C   UNL A   1      31.663  23.089  24.373  1.00  0.00     0.088 C 
ATOM      9  C   UNL A   1      31.052  23.800  25.583  1.00  0.00     0.031 C 
BRANCH   8  10
ATOM     10  N   UNL A   1      33.054  22.779  24.717  1.00  0.00    -0.350 N 
ATOM     11  C   UNL A   1      33.640  21.654  25.211  1.00  0.00     0.244 C 
ATOM     12  O   UNL A   1      34.842  21.672  25.470  1.00  0.00    -0.270 OA
ATOM     13  H   UNL A   1      33.680  23.523  24.564  1.00  0.00     0.164 HD
BRANCH  11  14
ATOM     14  C   UNL A   1      32.901  20.376  25.288  1.00  0.00     0.071 C 
ATOM     15  C   UNL A   1      33.387  19.191  24.901  1.00  0.00     0.005 C 
BRANCH  15  16
ATOM     16  C   UNL A   1      32.638  17.962  25.035  1.00  0.00    -0.004 C 
ATOM     17  C   UNL A   1      32.450  15.555  25.687  1.00  0.00     0.035 C 
ATOM     18  C   UNL A   1      33.194  16.837  25.504  1.00  0.00    -0.030 C 
ENDBRANCH  15  16
ENDBRANCH  11  14
ENDBRANCH   8  10
ENDBRANCH   7   8
ENDBRANCH   4   7
ENDBRANCH   2   3
ENDBRANCH   1   2
BRANCH   1  19
ATOM     19  C   UNL A   1      33.167  28.533  25.588  1.00  0.00     0.023 C 
BRANCH  19  20
ATOM     20  C   UNL A   1      33.525  28.678  27.056  1.00  0.00     0.116 C 
BRANCH  20  21
ATOM     21  N   UNL A   1      33.476  30.048  27.544  1.00  0.00    -0.352 N 
ATOM     22  C   UNL A   1      34.466  30.762  28.185  1.00  0.00     0.251 C 
ATOM     23  H   UNL A   1      32.628  30.526  27.397  1.00  0.00     0.163 HD
ATOM     24  O   UNL A   1      34.255  31.890  28.599  1.00  0.00    -0.269 OA
BRANCH  22  25
ATOM     25  C   UNL A   1      35.773  30.108  28.403  1.00  0.00     0.039 A 
ATOM     26  C   UNL A   1      36.722  30.141  27.379  1.00  0.00     0.014 A 
ATOM     27  C   UNL A   1      36.087  29.559  29.648  1.00  0.00     0.014 A 
ATOM     28  C   UNL A   1      38.021  29.698  27.636  1.00  0.00     0.010 A 
ATOM     29  C   UNL A   1      37.400  29.210  29.928  1.00  0.00     0.010 A 
ATOM     30  C   UNL A   1      38.381  29.275  28.926  1.00  0.00    -0.014 A 
BRANCH  30  31
ATOM     31  C   UNL A   1      39.776  28.893  29.259  1.00  0.00     0.031 A 
ATOM     32  C   UNL A   1      40.694  29.899  29.898  1.00  0.00     0.074 A 
ATOM     33  C   UNL A   1      40.245  27.683  28.893  1.00  0.00     0.049 A 
ATOM     34  N   UNL A   1      41.968  29.796  30.173  1.00  0.00    -0.248 NA
ATOM     35  C   UNL A   1      40.111  31.209  30.232  1.00  0.00     0.031 C 
ATOM     36  C   UNL A   1      39.478  26.647  28.198  1.00  0.00     0.029 A 
ATOM     37  N   UNL A   1      41.492  27.128  29.041  1.00  0.00    -0.354 N 
ATOM     38  C   UNL A   1      42.346  31.037  30.668  1.00  0.00     0.074 A 
ATOM     39  C   UNL A   1      41.180  31.891  30.613  1.00  0.00     0.031 C 
ATOM     40  C   UNL A   1      40.263  25.576  28.000  1.00  0.00     0.029 A 
ATOM     41  C   UNL A   1      41.596  25.860  28.521  1.00  0.00     0.049 A 
ATOM     42  H   UNL A   1      42.240  27.594  29.479  1.00  0.00     0.167 HD
ATOM     43  C   UNL A   1      43.552  31.429  31.146  1.00  0.00     0.031 A 
ATOM     44  C   UNL A   1      42.648  25.019  28.466  1.00  0.00     0.031 A 
ATOM     45  C   UNL A   1      44.697  30.565  31.238  1.00  0.00     0.049 A 
ATOM     46  C   UNL A   1      43.960  25.448  29.061  1.00  0.00     0.074 A 
ATOM     47  C   UNL A   1      45.933  30.830  31.797  1.00  0.00     0.029 A 
ATOM     48  N   UNL A   1      44.743  29.263  30.759  1.00  0.00    -0.354 N 
ATOM     49  N   UNL A   1      44.275  26.596  29.611  1.00  0.00    -0.248 NA
ATOM     50  C   UNL A   1      45.051  24.464  29.043  1.00  0.00     0.031 C 
ATOM     51  C   UNL A   1      46.741  29.702  31.622  1.00  0.00     0.029 A 
ATOM     52  C   UNL A   1      45.993  28.719  30.993  1.00  0.00     0.049 A 
ATOM     53  H   UNL A   1      43.996  28.797  30.319  1.00  0.00     0.167 HD
ATOM     54  C   UNL A   1      45.598  26.470  30.020  1.00  0.00     0.074 A 
ATOM     55  C   UNL A   1      46.016  25.127  29.667  1.00  0.00     0.031 C 
ATOM     56  C   UNL A   1      46.392  27.383  30.631  1.00  0.00     0.031 A 
BRANCH  43  57
ATOM     57  C   UNL A   1      43.682  32.859  31.594  1.00  0.00    -0.014 A 
ATOM     58  C   UNL A   1      44.035  33.878  30.691  1.00  0.00     0.010 A 
ATOM     59  C   UNL A   1      43.456  33.189  32.942  1.00  0.00     0.010 A 
ATOM     60  C   UNL A   1      44.222  35.189  31.139  1.00  0.00     0.020 A 
ATOM     61  C   UNL A   1      43.612  34.504  33.390  1.00  0.00     0.020 A 
ATOM     62  C   UNL A   1      44.020  35.490  32.489  1.00  0.00     0.054 A 
BRANCH  62  63
ATOM     63  S   UNL A   1      44.282  37.195  33.050  1.00  0.00     0.124 S 
ATOM     64  O   UNL A   1      44.651  37.866  31.806  1.00  0.00    -0.237 OA
ATOM     65  O   UNL A   1      42.977  37.560  33.595  1.00  0.00    -0.237 OA
ATOM     66  O   UNL A   1      45.354  37.074  34.035  1.00  0.00    -0.744 OA
ENDBRANCH  62  63
ENDBRANCH  43  57
BRANCH  44  67
ATOM     67  C   UNL A   1      42.483  23.678  27.845  1.00  0.00    -0.014 A 
ATOM     68  C   UNL A   1      42.783  23.481  26.487  1.00  0.00     0.010 A 
ATOM     69  C   UNL A   1      42.078  22.578  28.625  1.00  0.00     0.010 A 
ATOM     70  C   UNL A   1      42.683  22.209  25.917  1.00  0.00     0.020 A 
ATOM     71  C   UNL A   1      41.997  21.301  28.062  1.00  0.00     0.020 A 
ATOM     72  C   UNL A   1      42.296  21.125  26.710  1.00  0.00     0.054 A 
BRANCH  72  73
ATOM     73  S   UNL A   1      42.258  19.466  25.971  1.00  0.00     0.124 S 
ATOM     74  O   UNL A   1      42.800  18.642  27.046  1.00  0.00    -0.237 OA
ATOM     75  O   UNL A   1      40.838  19.279  25.685  1.00  0.00    -0.237 OA
ATOM     76  O   UNL A   1      43.109  19.601  24.791  1.00  0.00    -0.744 OA
ENDBRANCH  72  73
ENDBRANCH  44  67
BRANCH  56  77
ATOM     77  C   UNL A   1      47.793  26.958  30.976  1.00  0.00    -0.014 A 
ATOM     78  C   UNL A   1      48.064  26.253  32.162  1.00  0.00     0.010 A 
ATOM     79  C   UNL A   1      48.839  27.210  30.070  1.00  0.00     0.010 A 
ATOM     80  C   UNL A   1      49.364  25.825  32.444  1.00  0.00     0.020 A 
ATOM     81  C   UNL A   1      50.134  26.764  30.339  1.00  0.00     0.020 A 
ATOM     82  C   UNL A   1      50.390  26.083  31.531  1.00  0.00     0.054 A 
BRANCH  82  83
ATOM     83  S   UNL A   1      52.059  25.470  31.893  1.00  0.00     0.124 S 
ATOM     84  O   UNL A   1      51.819  24.045  32.105  1.00  0.00    -0.237 OA
ATOM     85  O   UNL A   1      52.798  25.809  30.679  1.00  0.00    -0.237 OA
ATOM     86  O   UNL A   1      52.452  26.222  33.083  1.00  0.00    -0.744 OA
ENDBRANCH  82  83
ENDBRANCH  56  77
ENDBRANCH  30  31
ENDBRANCH  22  25
ENDBRANCH  20  21
ENDBRANCH  19  20
ENDBRANCH   1  19
TORSDOF 18
ENDMDL
