MODEL 1
REMARK VINA RESULT:     -11.0      0.000      0.000
REMARK SMILES CCc1cccc(CC)c1NC(=O)C[C@@](C)(C(=O)NCCCCNC(=O)c1ccc(-c2c3nc(c(-c4ccc(S(=O)(=O)[O-])cc4)c4ccc([nH]4)c(-c4ccc(S(=O)(=O)[O-])cc4)c4nc(c(-c5ccc(S(=O)(=O)[O-])cc5)c5ccc2[nH]5)C=C4)C=C3)cc1)c1ccccc1
REMARK SMILES IDX 21 1 20 2 19 3 17 4 18 5 15 7 16 8 14 9 12 10 11 11 13 13
REMARK SMILES IDX 10 14 3 15 4 16 5 17 7 18 6 19 2 20 1 21 8 22 9 23 87 24
REMARK SMILES IDX 88 25 92 26 89 27 91 28 90 29 22 30 23 31 24 32 25 33 26 35
REMARK SMILES IDX 27 36 28 37 86 38 29 39 85 40 30 41 31 42 32 43 79 44 33 45
REMARK SMILES IDX 84 46 78 47 80 48 34 49 83 50 77 51 76 52 35 54 65 55 46 56
REMARK SMILES IDX 64 57 47 58 50 59 63 60 81 61 48 62 49 63 62 65 82 66 51 67
REMARK SMILES IDX 36 68 37 69 45 70 38 71 44 72 39 73 40 74 41 75 42 76 43 77
REMARK SMILES IDX 66 78 67 79 75 80 68 81 74 82 69 83 70 84 71 85 72 86 73 87
REMARK SMILES IDX 52 88 53 89 61 90 54 91 60 92 55 93 56 94 57 95 58 96 59 97
REMARK H PARENT 19 6 11 12 24 34 80 53 50 64
REMARK Flexibility Score: inf
ROOT
ATOM      1  C   UNL A   1      37.470  20.630  24.606  1.00  0.00     0.023 C 
ENDROOT
BRANCH   1   2
ATOM      2  C   UNL A   1      36.092  20.128  25.045  1.00  0.00     0.116 C 
BRANCH   2   3
ATOM      3  N   UNL A   1      35.237  21.127  25.715  1.00  0.00    -0.355 N 
ATOM      4  C   UNL A   1      33.879  21.202  25.415  1.00  0.00     0.230 C 
ATOM      5  O   UNL A   1      33.129  20.405  25.984  1.00  0.00    -0.274 OA
ATOM      6  H   UNL A   1      35.628  21.741  26.378  1.00  0.00     0.163 HD
BRANCH   4   7
ATOM      7  C   UNL A   1      33.346  22.328  24.431  1.00  0.00     0.080 C 
ATOM      8  C   UNL A   1      32.608  21.709  23.191  1.00  0.00     0.027 C 
BRANCH   7   9
ATOM      9  C   UNL A   1      34.562  23.185  23.975  1.00  0.00     0.121 C 
BRANCH   9  10
ATOM     10  C   UNL A   1      34.988  24.311  24.872  1.00  0.00     0.225 C 
ATOM     11  N   UNL A   1      34.591  25.607  24.825  1.00  0.00    -0.326 N 
ATOM     12  H   UNL A   1      35.083  26.081  25.534  1.00  0.00     0.169 HD
ATOM     13  O   UNL A   1      35.853  24.075  25.733  1.00  0.00    -0.275 OA
BRANCH  11  14
ATOM     14  C   UNL A   1      33.760  26.576  24.180  1.00  0.00     0.047 A 
ATOM     15  C   UNL A   1      33.349  27.645  25.046  1.00  0.00    -0.024 A 
ATOM     16  C   UNL A   1      32.637  28.757  24.550  1.00  0.00     0.006 A 
ATOM     17  C   UNL A   1      32.300  28.844  23.217  1.00  0.00     0.001 A 
ATOM     18  C   UNL A   1      33.245  26.614  22.852  1.00  0.00    -0.024 A 
ATOM     19  C   UNL A   1      32.589  27.779  22.385  1.00  0.00     0.006 A 
BRANCH  15  20
ATOM     20  C   UNL A   1      33.511  27.620  26.561  1.00  0.00     0.034 C 
ATOM     21  C   UNL A   1      32.311  28.282  27.234  1.00  0.00     0.009 C 
ENDBRANCH  15  20
BRANCH  18  22
ATOM     22  C   UNL A   1      33.067  25.401  21.979  1.00  0.00     0.034 C 
ATOM     23  C   UNL A   1      32.629  25.498  20.519  1.00  0.00     0.009 C 
ENDBRANCH  18  22
ENDBRANCH  11  14
ENDBRANCH   9  10
ENDBRANCH   7   9
BRANCH   7  24
ATOM     24  C   UNL A   1      32.109  23.068  25.052  1.00  0.00    -0.032 A 
ATOM     25  C   UNL A   1      31.164  23.641  24.160  1.00  0.00     0.005 A 
ATOM     26  C   UNL A   1      32.145  23.572  26.362  1.00  0.00     0.005 A 
ATOM     27  C   UNL A   1      30.437  24.782  24.506  1.00  0.00     0.000 A 
ATOM     28  C   UNL A   1      31.394  24.704  26.710  1.00  0.00     0.000 A 
ATOM     29  C   UNL A   1      30.578  25.333  25.772  1.00  0.00     0.000 A 
ENDBRANCH   7  24
ENDBRANCH   4   7
ENDBRANCH   2   3
ENDBRANCH   1   2
BRANCH   1  30
ATOM     30  C   UNL A   1      38.016  21.813  25.416  1.00  0.00     0.023 C 
BRANCH  30  31
ATOM     31  C   UNL A   1      39.272  21.576  26.262  1.00  0.00     0.116 C 
BRANCH  31  32
ATOM     32  N   UNL A   1      39.951  20.310  26.024  1.00  0.00    -0.352 N 
ATOM     33  C   UNL A   1      41.294  19.995  26.147  1.00  0.00     0.251 C 
ATOM     34  H   UNL A   1      39.371  19.571  25.731  1.00  0.00     0.163 HD
ATOM     35  O   UNL A   1      41.690  18.867  25.906  1.00  0.00    -0.269 OA
BRANCH  33  36
ATOM     36  C   UNL A   1      42.262  21.058  26.513  1.00  0.00     0.039 A 
ATOM     37  C   UNL A   1      42.849  21.807  25.489  1.00  0.00     0.014 A 
ATOM     38  C   UNL A   1      42.521  21.370  27.848  1.00  0.00     0.014 A 
ATOM     39  C   UNL A   1      43.574  22.961  25.803  1.00  0.00     0.010 A 
ATOM     40  C   UNL A   1      43.190  22.554  28.159  1.00  0.00     0.010 A 
ATOM     41  C   UNL A   1      43.680  23.385  27.138  1.00  0.00    -0.014 A 
BRANCH  41  42
ATOM     42  C   UNL A   1      44.177  24.746  27.480  1.00  0.00     0.031 A 
ATOM     43  C   UNL A   1      43.229  25.834  27.894  1.00  0.00     0.074 A 
ATOM     44  C   UNL A   1      45.480  25.034  27.283  1.00  0.00     0.049 A 
ATOM     45  N   UNL A   1      43.475  27.102  28.107  1.00  0.00    -0.248 NA
ATOM     46  C   UNL A   1      41.819  25.456  28.064  1.00  0.00     0.031 C 
ATOM     47  C   UNL A   1      46.496  24.086  26.818  1.00  0.00     0.029 A 
ATOM     48  N   UNL A   1      46.170  26.215  27.420  1.00  0.00    -0.354 N 
ATOM     49  C   UNL A   1      42.248  27.680  28.408  1.00  0.00     0.074 A 
ATOM     50  C   UNL A   1      41.256  26.629  28.320  1.00  0.00     0.031 C 
ATOM     51  C   UNL A   1      47.674  24.719  26.711  1.00  0.00     0.029 A 
ATOM     52  C   UNL A   1      47.494  26.125  27.057  1.00  0.00     0.049 A 
ATOM     53  H   UNL A   1      45.755  27.046  27.746  1.00  0.00     0.167 HD
ATOM     54  C   UNL A   1      41.974  28.967  28.735  1.00  0.00     0.031 A 
ATOM     55  C   UNL A   1      48.455  27.066  26.983  1.00  0.00     0.031 A 
ATOM     56  C   UNL A   1      42.960  30.010  28.830  1.00  0.00     0.049 A 
ATOM     57  C   UNL A   1      48.132  28.485  27.353  1.00  0.00     0.074 A 
ATOM     58  C   UNL A   1      42.792  31.318  29.248  1.00  0.00     0.029 A 
ATOM     59  N   UNL A   1      44.296  29.871  28.484  1.00  0.00    -0.354 N 
ATOM     60  N   UNL A   1      46.985  28.990  27.736  1.00  0.00    -0.248 NA
ATOM     61  C   UNL A   1      49.230  29.460  27.282  1.00  0.00     0.031 C 
ATOM     62  C   UNL A   1      44.015  31.984  29.104  1.00  0.00     0.029 A 
ATOM     63  C   UNL A   1      44.955  31.079  28.641  1.00  0.00     0.049 A 
ATOM     64  H   UNL A   1      44.715  29.036  28.173  1.00  0.00     0.167 HD
ATOM     65  C   UNL A   1      47.221  30.342  27.956  1.00  0.00     0.074 A 
ATOM     66  C   UNL A   1      48.625  30.570  27.684  1.00  0.00     0.031 C 
ATOM     67  C   UNL A   1      46.350  31.303  28.347  1.00  0.00     0.031 A 
BRANCH  54  68
ATOM     68  C   UNL A   1      40.532  29.317  28.995  1.00  0.00    -0.014 A 
ATOM     69  C   UNL A   1      39.637  29.545  27.933  1.00  0.00     0.010 A 
ATOM     70  C   UNL A   1      40.067  29.417  30.318  1.00  0.00     0.010 A 
ATOM     71  C   UNL A   1      38.319  29.928  28.192  1.00  0.00     0.020 A 
ATOM     72  C   UNL A   1      38.741  29.774  30.580  1.00  0.00     0.020 A 
ATOM     73  C   UNL A   1      37.883  30.053  29.514  1.00  0.00     0.054 A 
BRANCH  73  74
ATOM     74  S   UNL A   1      36.173  30.576  29.823  1.00  0.00     0.124 S 
ATOM     75  O   UNL A   1      35.911  29.982  31.131  1.00  0.00    -0.237 OA
ATOM     76  O   UNL A   1      36.272  32.033  29.803  1.00  0.00    -0.237 OA
ATOM     77  O   UNL A   1      35.426  29.990  28.712  1.00  0.00    -0.744 OA
ENDBRANCH  73  74
ENDBRANCH  54  68
BRANCH  55  78
ATOM     78  C   UNL A   1      49.817  26.681  26.526  1.00  0.00    -0.014 A 
ATOM     79  C   UNL A   1      50.713  26.050  27.405  1.00  0.00     0.010 A 
ATOM     80  C   UNL A   1      50.201  26.887  25.187  1.00  0.00     0.010 A 
ATOM     81  C   UNL A   1      51.965  25.624  26.954  1.00  0.00     0.020 A 
ATOM     82  C   UNL A   1      51.443  26.444  24.727  1.00  0.00     0.020 A 
ATOM     83  C   UNL A   1      52.319  25.815  25.614  1.00  0.00     0.054 A 
BRANCH  83  84
ATOM     84  S   UNL A   1      53.907  25.164  25.025  1.00  0.00     0.124 S 
ATOM     85  O   UNL A   1      54.808  25.529  26.112  1.00  0.00    -0.237 OA
ATOM     86  O   UNL A   1      53.630  23.736  24.883  1.00  0.00    -0.237 OA
ATOM     87  O   UNL A   1      54.120  25.875  23.766  1.00  0.00    -0.744 OA
ENDBRANCH  83  84
ENDBRANCH  55  78
BRANCH  67  88
ATOM     88  C   UNL A   1      46.882  32.702  28.496  1.00  0.00    -0.014 A 
ATOM     89  C   UNL A   1      46.913  33.580  27.398  1.00  0.00     0.010 A 
ATOM     90  C   UNL A   1      47.285  33.168  29.760  1.00  0.00     0.010 A 
ATOM     91  C   UNL A   1      47.349  34.897  27.560  1.00  0.00     0.020 A 
ATOM     92  C   UNL A   1      47.702  34.491  29.930  1.00  0.00     0.020 A 
ATOM     93  C   UNL A   1      47.737  35.346  28.826  1.00  0.00     0.054 A 
BRANCH  93  94
ATOM     94  S   UNL A   1      48.233  37.080  29.025  1.00  0.00     0.124 S 
ATOM     95  O   UNL A   1      47.032  37.791  28.598  1.00  0.00    -0.237 OA
ATOM     96  O   UNL A   1      48.539  37.165  30.452  1.00  0.00    -0.237 OA
ATOM     97  O   UNL A   1      49.386  37.215  28.139  1.00  0.00    -0.744 OA
ENDBRANCH  93  94
ENDBRANCH  67  88
ENDBRANCH  41  42
ENDBRANCH  33  36
ENDBRANCH  31  32
ENDBRANCH  30  31
ENDBRANCH   1  30
TORSDOF 20
ENDMDL
MODEL 2
REMARK VINA RESULT:     -10.8      0.609      7.921
REMARK SMILES CCc1cccc(CC)c1NC(=O)C[C@@](C)(C(=O)NCCCCNC(=O)c1ccc(-c2c3nc(c(-c4ccc(S(=O)(=O)[O-])cc4)c4ccc([nH]4)c(-c4ccc(S(=O)(=O)[O-])cc4)c4nc(c(-c5ccc(S(=O)(=O)[O-])cc5)c5ccc2[nH]5)C=C4)C=C3)cc1)c1ccccc1
REMARK SMILES IDX 21 1 20 2 19 3 17 4 18 5 15 7 16 8 14 9 12 10 11 11 13 13
REMARK SMILES IDX 10 14 3 15 4 16 5 17 7 18 6 19 2 20 1 21 8 22 9 23 87 24
REMARK SMILES IDX 88 25 92 26 89 27 91 28 90 29 22 30 23 31 24 32 25 33 26 35
REMARK SMILES IDX 27 36 28 37 86 38 29 39 85 40 30 41 31 42 32 43 79 44 33 45
REMARK SMILES IDX 84 46 78 47 80 48 34 49 83 50 77 51 76 52 35 54 65 55 46 56
REMARK SMILES IDX 64 57 47 58 50 59 63 60 81 61 48 62 49 63 62 65 82 66 51 67
REMARK SMILES IDX 36 68 37 69 45 70 38 71 44 72 39 73 40 74 41 75 42 76 43 77
REMARK SMILES IDX 66 78 67 79 75 80 68 81 74 82 69 83 70 84 71 85 72 86 73 87
REMARK SMILES IDX 52 88 53 89 61 90 54 91 60 92 55 93 56 94 57 95 58 96 59 97
REMARK H PARENT 19 6 11 12 24 34 80 53 50 64
REMARK Flexibility Score: inf
ROOT
ATOM      1  C   UNL A   1      37.430  20.882  24.726  1.00  0.00     0.023 C 
ENDROOT
BRANCH   1   2
ATOM      2  C   UNL A   1      36.055  20.254  24.969  1.00  0.00     0.116 C 
BRANCH   2   3
ATOM      3  N   UNL A   1      35.062  21.131  25.618  1.00  0.00    -0.355 N 
ATOM      4  C   UNL A   1      33.756  21.188  25.137  1.00  0.00     0.230 C 
ATOM      5  O   UNL A   1      32.982  20.301  25.501  1.00  0.00    -0.274 OA
ATOM      6  H   UNL A   1      35.324  21.677  26.395  1.00  0.00     0.163 HD
BRANCH   4   7
ATOM      7  C   UNL A   1      33.302  22.401  24.221  1.00  0.00     0.080 C 
ATOM      8  C   UNL A   1      32.810  21.909  22.813  1.00  0.00     0.027 C 
BRANCH   7   9
ATOM      9  C   UNL A   1      34.508  23.372  24.072  1.00  0.00     0.121 C 
BRANCH   9  10
ATOM     10  C   UNL A   1      34.702  24.403  25.147  1.00  0.00     0.225 C 
ATOM     11  N   UNL A   1      34.240  25.679  25.167  1.00  0.00    -0.326 N 
ATOM     12  H   UNL A   1      34.571  26.087  26.000  1.00  0.00     0.169 HD
ATOM     13  O   UNL A   1      35.417  24.105  26.118  1.00  0.00    -0.275 OA
BRANCH  11  14
ATOM     14  C   UNL A   1      33.475  26.680  24.491  1.00  0.00     0.047 A 
ATOM     15  C   UNL A   1      32.776  27.563  25.381  1.00  0.00    -0.024 A 
ATOM     16  C   UNL A   1      32.079  28.690  24.895  1.00  0.00     0.006 A 
ATOM     17  C   UNL A   1      32.036  28.969  23.547  1.00  0.00     0.001 A 
ATOM     18  C   UNL A   1      33.264  26.898  23.100  1.00  0.00    -0.024 A 
ATOM     19  C   UNL A   1      32.609  28.075  22.663  1.00  0.00     0.006 A 
BRANCH  15  20
ATOM     20  C   UNL A   1      32.602  27.304  26.872  1.00  0.00     0.034 C 
ATOM     21  C   UNL A   1      31.501  28.195  27.442  1.00  0.00     0.009 C 
ENDBRANCH  15  20
BRANCH  18  22
ATOM     22  C   UNL A   1      33.408  25.833  22.045  1.00  0.00     0.034 C 
ATOM     23  C   UNL A   1      32.381  25.636  20.932  1.00  0.00     0.009 C 
ENDBRANCH  18  22
ENDBRANCH  11  14
ENDBRANCH   9  10
ENDBRANCH   7   9
BRANCH   7  24
ATOM     24  C   UNL A   1      31.934  22.990  24.717  1.00  0.00    -0.032 A 
ATOM     25  C   UNL A   1      31.160  23.737  23.790  1.00  0.00     0.005 A 
ATOM     26  C   UNL A   1      31.687  23.206  26.082  1.00  0.00     0.005 A 
ATOM     27  C   UNL A   1      30.327  24.777  24.209  1.00  0.00     0.000 A 
ATOM     28  C   UNL A   1      30.832  24.237  26.497  1.00  0.00     0.000 A 
ATOM     29  C   UNL A   1      30.190  25.047  25.563  1.00  0.00     0.000 A 
ENDBRANCH   7  24
ENDBRANCH   4   7
ENDBRANCH   2   3
ENDBRANCH   1   2
BRANCH   1  30
ATOM     30  C   UNL A   1      37.845  21.945  25.751  1.00  0.00     0.023 C 
BRANCH  30  31
ATOM     31  C   UNL A   1      39.224  21.803  26.406  1.00  0.00     0.116 C 
BRANCH  31  32
ATOM     32  N   UNL A   1      39.902  20.539  26.154  1.00  0.00    -0.352 N 
ATOM     33  C   UNL A   1      41.258  20.257  26.129  1.00  0.00     0.251 C 
ATOM     34  H   UNL A   1      39.311  19.773  25.974  1.00  0.00     0.163 HD
ATOM     35  O   UNL A   1      41.651  19.126  25.902  1.00  0.00    -0.269 OA
BRANCH  33  36
ATOM     36  C   UNL A   1      42.235  21.358  26.317  1.00  0.00     0.039 A 
ATOM     37  C   UNL A   1      42.680  22.053  25.190  1.00  0.00     0.014 A 
ATOM     38  C   UNL A   1      42.638  21.755  27.593  1.00  0.00     0.014 A 
ATOM     39  C   UNL A   1      43.408  23.237  25.350  1.00  0.00     0.010 A 
ATOM     40  C   UNL A   1      43.309  22.967  27.754  1.00  0.00     0.010 A 
ATOM     41  C   UNL A   1      43.657  23.743  26.636  1.00  0.00    -0.014 A 
BRANCH  41  42
ATOM     42  C   UNL A   1      44.156  25.131  26.838  1.00  0.00     0.031 A 
ATOM     43  C   UNL A   1      45.613  25.460  26.687  1.00  0.00     0.074 A 
ATOM     44  C   UNL A   1      43.303  26.071  27.296  1.00  0.00     0.049 A 
ATOM     45  N   UNL A   1      46.234  26.583  26.945  1.00  0.00    -0.248 NA
ATOM     46  C   UNL A   1      46.490  24.381  26.210  1.00  0.00     0.031 C 
ATOM     47  C   UNL A   1      41.874  25.866  27.551  1.00  0.00     0.029 A 
ATOM     48  N   UNL A   1      43.517  27.380  27.657  1.00  0.00    -0.354 N 
ATOM     49  C   UNL A   1      47.577  26.340  26.691  1.00  0.00     0.074 A 
ATOM     50  C   UNL A   1      47.683  24.954  26.286  1.00  0.00     0.031 C 
ATOM     51  C   UNL A   1      41.342  27.004  28.023  1.00  0.00     0.029 A 
ATOM     52  C   UNL A   1      42.394  28.007  28.146  1.00  0.00     0.049 A 
ATOM     53  H   UNL A   1      44.391  27.825  27.574  1.00  0.00     0.167 HD
ATOM     54  C   UNL A   1      48.626  27.195  26.778  1.00  0.00     0.031 A 
ATOM     55  C   UNL A   1      42.226  29.242  28.660  1.00  0.00     0.031 A 
ATOM     56  C   UNL A   1      48.520  28.574  27.173  1.00  0.00     0.049 A 
ATOM     57  C   UNL A   1      43.399  30.174  28.745  1.00  0.00     0.074 A 
ATOM     58  C   UNL A   1      49.509  29.541  27.198  1.00  0.00     0.029 A 
ATOM     59  N   UNL A   1      47.359  29.180  27.631  1.00  0.00    -0.354 N 
ATOM     60  N   UNL A   1      44.644  29.956  28.400  1.00  0.00    -0.248 NA
ATOM     61  C   UNL A   1      43.146  31.517  29.286  1.00  0.00     0.031 C 
ATOM     62  C   UNL A   1      48.959  30.718  27.720  1.00  0.00     0.029 A 
ATOM     63  C   UNL A   1      47.616  30.496  27.978  1.00  0.00     0.049 A 
ATOM     64  H   UNL A   1      46.481  28.740  27.699  1.00  0.00     0.167 HD
ATOM     65  C   UNL A   1      45.326  31.135  28.679  1.00  0.00     0.074 A 
ATOM     66  C   UNL A   1      44.349  32.069  29.201  1.00  0.00     0.031 C 
ATOM     67  C   UNL A   1      46.642  31.414  28.517  1.00  0.00     0.031 A 
BRANCH  54  68
ATOM     68  C   UNL A   1      49.990  26.644  26.457  1.00  0.00    -0.014 A 
ATOM     69  C   UNL A   1      50.477  26.631  25.137  1.00  0.00     0.010 A 
ATOM     70  C   UNL A   1      50.797  26.135  27.491  1.00  0.00     0.010 A 
ATOM     71  C   UNL A   1      51.720  26.062  24.849  1.00  0.00     0.020 A 
ATOM     72  C   UNL A   1      52.052  25.588  27.209  1.00  0.00     0.020 A 
ATOM     73  C   UNL A   1      52.494  25.532  25.885  1.00  0.00     0.054 A 
BRANCH  73  74
ATOM     74  S   UNL A   1      54.093  24.776  25.481  1.00  0.00     0.124 S 
ATOM     75  O   UNL A   1      54.606  25.688  24.464  1.00  0.00    -0.237 OA
ATOM     76  O   UNL A   1      54.796  24.803  26.761  1.00  0.00    -0.237 OA
ATOM     77  O   UNL A   1      53.734  23.443  25.001  1.00  0.00    -0.744 OA
ENDBRANCH  73  74
ENDBRANCH  54  68
BRANCH  55  78
ATOM     78  C   UNL A   1      40.880  29.651  29.143  1.00  0.00    -0.014 A 
ATOM     79  C   UNL A   1      39.850  29.933  28.231  1.00  0.00     0.010 A 
ATOM     80  C   UNL A   1      40.605  29.698  30.523  1.00  0.00     0.010 A 
ATOM     81  C   UNL A   1      38.567  30.247  28.687  1.00  0.00     0.020 A 
ATOM     82  C   UNL A   1      39.320  29.990  30.983  1.00  0.00     0.020 A 
ATOM     83  C   UNL A   1      38.307  30.265  30.061  1.00  0.00     0.054 A 
BRANCH  83  84
ATOM     84  S   UNL A   1      36.612  30.574  30.630  1.00  0.00     0.124 S 
ATOM     85  O   UNL A   1      36.775  31.783  31.430  1.00  0.00    -0.237 OA
ATOM     86  O   UNL A   1      35.881  30.737  29.375  1.00  0.00    -0.237 OA
ATOM     87  O   UNL A   1      36.279  29.364  31.380  1.00  0.00    -0.744 OA
ENDBRANCH  83  84
ENDBRANCH  55  78
BRANCH  67  88
ATOM     88  C   UNL A   1      47.115  32.784  28.918  1.00  0.00    -0.014 A 
ATOM     89  C   UNL A   1      47.623  33.020  30.208  1.00  0.00     0.010 A 
ATOM     90  C   UNL A   1      47.122  33.827  27.975  1.00  0.00     0.010 A 
ATOM     91  C   UNL A   1      48.120  34.280  30.550  1.00  0.00     0.020 A 
ATOM     92  C   UNL A   1      47.638  35.083  28.308  1.00  0.00     0.020 A 
ATOM     93  C   UNL A   1      48.127  35.303  29.597  1.00  0.00     0.054 A 
BRANCH  93  94
ATOM     94  S   UNL A   1      48.842  36.910  30.044  1.00  0.00     0.124 S 
ATOM     95  O   UNL A   1      49.826  37.111  28.985  1.00  0.00    -0.237 OA
ATOM     96  O   UNL A   1      47.683  37.800  30.002  1.00  0.00    -0.237 OA
ATOM     97  O   UNL A   1      49.396  36.684  31.377  1.00  0.00    -0.744 OA
ENDBRANCH  93  94
ENDBRANCH  67  88
ENDBRANCH  41  42
ENDBRANCH  33  36
ENDBRANCH  31  32
ENDBRANCH  30  31
ENDBRANCH   1  30
TORSDOF 20
ENDMDL
MODEL 3
REMARK VINA RESULT:     -10.6      1.261      2.401
REMARK SMILES CCc1cccc(CC)c1NC(=O)C[C@@](C)(C(=O)NCCCCNC(=O)c1ccc(-c2c3nc(c(-c4ccc(S(=O)(=O)[O-])cc4)c4ccc([nH]4)c(-c4ccc(S(=O)(=O)[O-])cc4)c4nc(c(-c5ccc(S(=O)(=O)[O-])cc5)c5ccc2[nH]5)C=C4)C=C3)cc1)c1ccccc1
REMARK SMILES IDX 21 1 20 2 19 3 17 4 18 5 15 7 16 8 14 9 12 10 11 11 13 13
REMARK SMILES IDX 10 14 3 15 4 16 5 17 7 18 6 19 2 20 1 21 8 22 9 23 87 24
REMARK SMILES IDX 88 25 92 26 89 27 91 28 90 29 22 30 23 31 24 32 25 33 26 35
REMARK SMILES IDX 27 36 28 37 86 38 29 39 85 40 30 41 31 42 32 43 79 44 33 45
REMARK SMILES IDX 84 46 78 47 80 48 34 49 83 50 77 51 76 52 35 54 65 55 46 56
REMARK SMILES IDX 64 57 47 58 50 59 63 60 81 61 48 62 49 63 62 65 82 66 51 67
REMARK SMILES IDX 36 68 37 69 45 70 38 71 44 72 39 73 40 74 41 75 42 76 43 77
REMARK SMILES IDX 66 78 67 79 75 80 68 81 74 82 69 83 70 84 71 85 72 86 73 87
REMARK SMILES IDX 52 88 53 89 61 90 54 91 60 92 55 93 56 94 57 95 58 96 59 97
REMARK H PARENT 19 6 11 12 24 34 80 53 50 64
REMARK Flexibility Score: inf
ROOT
ATOM      1  C   UNL A   1      37.023  21.981  24.271  1.00  0.00     0.023 C 
ENDROOT
BRANCH   1   2
ATOM      2  C   UNL A   1      36.614  23.324  23.658  1.00  0.00     0.116 C 
BRANCH   2   3
ATOM      3  N   UNL A   1      35.239  23.386  23.127  1.00  0.00    -0.355 N 
ATOM      4  C   UNL A   1      34.290  24.205  23.734  1.00  0.00     0.230 C 
ATOM      5  O   UNL A   1      34.297  25.399  23.429  1.00  0.00    -0.274 OA
ATOM      6  H   UNL A   1      34.993  22.847  22.340  1.00  0.00     0.163 HD
BRANCH   4   7
ATOM      7  C   UNL A   1      33.213  23.576  24.715  1.00  0.00     0.080 C 
ATOM      8  C   UNL A   1      31.790  23.522  24.053  1.00  0.00     0.027 C 
BRANCH   7   9
ATOM      9  C   UNL A   1      33.182  24.435  26.012  1.00  0.00     0.121 C 
BRANCH   9  10
ATOM     10  C   UNL A   1      31.836  24.845  26.538  1.00  0.00     0.225 C 
ATOM     11  N   UNL A   1      31.228  26.051  26.414  1.00  0.00    -0.326 N 
ATOM     12  H   UNL A   1      30.372  25.988  26.898  1.00  0.00     0.169 HD
ATOM     13  O   UNL A   1      31.205  24.024  27.224  1.00  0.00    -0.275 OA
BRANCH  11  14
ATOM     14  C   UNL A   1      31.304  27.374  25.878  1.00  0.00     0.047 A 
ATOM     15  C   UNL A   1      30.590  27.533  24.643  1.00  0.00    -0.024 A 
ATOM     16  C   UNL A   1      30.445  28.799  24.038  1.00  0.00     0.006 A 
ATOM     17  C   UNL A   1      30.998  29.924  24.610  1.00  0.00     0.001 A 
ATOM     18  C   UNL A   1      32.007  28.521  26.345  1.00  0.00    -0.024 A 
ATOM     19  C   UNL A   1      31.780  29.781  25.740  1.00  0.00     0.006 A 
BRANCH  15  20
ATOM     20  C   UNL A   1      30.058  26.370  23.814  1.00  0.00     0.034 C 
ATOM     21  C   UNL A   1      28.533  26.328  23.876  1.00  0.00     0.009 C 
ENDBRANCH  15  20
BRANCH  18  22
ATOM     22  C   UNL A   1      33.214  28.466  27.244  1.00  0.00     0.034 C 
ATOM     23  C   UNL A   1      34.620  28.193  26.713  1.00  0.00     0.009 C 
ENDBRANCH  18  22
ENDBRANCH  11  14
ENDBRANCH   9  10
ENDBRANCH   7   9
BRANCH   7  24
ATOM     24  C   UNL A   1      33.428  22.028  24.857  1.00  0.00    -0.032 A 
ATOM     25  C   UNL A   1      32.889  21.190  23.844  1.00  0.00     0.005 A 
ATOM     26  C   UNL A   1      33.692  21.440  26.104  1.00  0.00     0.005 A 
ATOM     27  C   UNL A   1      32.461  19.891  24.127  1.00  0.00     0.000 A 
ATOM     28  C   UNL A   1      33.280  20.128  26.375  1.00  0.00     0.000 A 
ATOM     29  C   UNL A   1      32.627  19.373  25.404  1.00  0.00     0.000 A 
ENDBRANCH   7  24
ENDBRANCH   4   7
ENDBRANCH   2   3
ENDBRANCH   1   2
BRANCH   1  30
ATOM     30  C   UNL A   1      37.391  22.034  25.759  1.00  0.00     0.023 C 
BRANCH  30  31
ATOM     31  C   UNL A   1      38.877  21.957  26.128  1.00  0.00     0.116 C 
BRANCH  31  32
ATOM     32  N   UNL A   1      39.486  20.643  25.976  1.00  0.00    -0.352 N 
ATOM     33  C   UNL A   1      40.810  20.263  26.123  1.00  0.00     0.251 C 
ATOM     34  H   UNL A   1      38.866  19.917  25.733  1.00  0.00     0.163 HD
ATOM     35  O   UNL A   1      41.143  19.103  25.959  1.00  0.00    -0.269 OA
BRANCH  33  36
ATOM     36  C   UNL A   1      41.835  21.295  26.418  1.00  0.00     0.039 A 
ATOM     37  C   UNL A   1      42.318  22.076  25.364  1.00  0.00     0.014 A 
ATOM     38  C   UNL A   1      42.249  21.547  27.727  1.00  0.00     0.014 A 
ATOM     39  C   UNL A   1      43.098  23.203  25.640  1.00  0.00     0.010 A 
ATOM     40  C   UNL A   1      42.973  22.706  28.006  1.00  0.00     0.010 A 
ATOM     41  C   UNL A   1      43.362  23.570  26.969  1.00  0.00    -0.014 A 
BRANCH  41  42
ATOM     42  C   UNL A   1      43.923  24.907  27.307  1.00  0.00     0.031 A 
ATOM     43  C   UNL A   1      43.040  26.012  27.812  1.00  0.00     0.074 A 
ATOM     44  C   UNL A   1      45.217  25.164  27.024  1.00  0.00     0.049 A 
ATOM     45  N   UNL A   1      43.338  27.266  28.036  1.00  0.00    -0.248 NA
ATOM     46  C   UNL A   1      41.634  25.669  28.073  1.00  0.00     0.031 C 
ATOM     47  C   UNL A   1      46.169  24.199  26.467  1.00  0.00     0.029 A 
ATOM     48  N   UNL A   1      45.950  26.321  27.139  1.00  0.00    -0.354 N 
ATOM     49  C   UNL A   1      42.154  27.871  28.437  1.00  0.00     0.074 A 
ATOM     50  C   UNL A   1      41.127  26.851  28.396  1.00  0.00     0.031 C 
ATOM     51  C   UNL A   1      47.355  24.801  26.290  1.00  0.00     0.029 A 
ATOM     52  C   UNL A   1      47.242  26.202  26.680  1.00  0.00     0.049 A 
ATOM     53  H   UNL A   1      45.584  27.154  27.512  1.00  0.00     0.167 HD
ATOM     54  C   UNL A   1      41.942  29.157  28.812  1.00  0.00     0.031 A 
ATOM     55  C   UNL A   1      48.223  27.117  26.560  1.00  0.00     0.031 A 
ATOM     56  C   UNL A   1      42.963  30.169  28.860  1.00  0.00     0.049 A 
ATOM     57  C   UNL A   1      47.970  28.535  26.984  1.00  0.00     0.074 A 
ATOM     58  C   UNL A   1      42.864  31.470  29.318  1.00  0.00     0.029 A 
ATOM     59  N   UNL A   1      44.267  30.000  28.417  1.00  0.00    -0.354 N 
ATOM     60  N   UNL A   1      46.868  29.062  27.460  1.00  0.00    -0.248 NA
ATOM     61  C   UNL A   1      49.089  29.479  26.858  1.00  0.00     0.031 C 
ATOM     62  C   UNL A   1      44.093  32.105  29.104  1.00  0.00     0.029 A 
ATOM     63  C   UNL A   1      44.972  31.185  28.554  1.00  0.00     0.049 A 
ATOM     64  H   UNL A   1      44.637  29.162  28.057  1.00  0.00     0.167 HD
ATOM     65  C   UNL A   1      47.160  30.401  27.693  1.00  0.00     0.074 A 
ATOM     66  C   UNL A   1      48.548  30.596  27.326  1.00  0.00     0.031 C 
ATOM     67  C   UNL A   1      46.348  31.377  28.166  1.00  0.00     0.031 A 
BRANCH  54  68
ATOM     68  C   UNL A   1      40.533  29.541  29.181  1.00  0.00    -0.014 A 
ATOM     69  C   UNL A   1      39.542  29.706  28.196  1.00  0.00     0.010 A 
ATOM     70  C   UNL A   1      40.196  29.738  30.532  1.00  0.00     0.010 A 
ATOM     71  C   UNL A   1      38.257  30.121  28.551  1.00  0.00     0.020 A 
ATOM     72  C   UNL A   1      38.903  30.129  30.893  1.00  0.00     0.020 A 
ATOM     73  C   UNL A   1      37.949  30.343  29.896  1.00  0.00     0.054 A 
BRANCH  73  74
ATOM     74  S   UNL A   1      36.279  30.906  30.328  1.00  0.00     0.124 S 
ATOM     75  O   UNL A   1      35.560  30.696  29.075  1.00  0.00    -0.237 OA
ATOM     76  O   UNL A   1      35.910  30.011  31.422  1.00  0.00    -0.237 OA
ATOM     77  O   UNL A   1      36.473  32.303  30.709  1.00  0.00    -0.744 OA
ENDBRANCH  73  74
ENDBRANCH  54  68
BRANCH  55  78
ATOM     78  C   UNL A   1      49.538  26.705  25.998  1.00  0.00    -0.014 A 
ATOM     79  C   UNL A   1      49.876  27.020  24.671  1.00  0.00     0.010 A 
ATOM     80  C   UNL A   1      50.483  26.051  26.810  1.00  0.00     0.010 A 
ATOM     81  C   UNL A   1      51.139  26.696  24.168  1.00  0.00     0.020 A 
ATOM     82  C   UNL A   1      51.753  25.744  26.317  1.00  0.00     0.020 A 
ATOM     83  C   UNL A   1      52.074  26.067  24.997  1.00  0.00     0.054 A 
BRANCH  83  84
ATOM     84  S   UNL A   1      53.741  25.748  24.355  1.00  0.00     0.124 S 
ATOM     85  O   UNL A   1      54.534  26.750  25.059  1.00  0.00    -0.237 OA
ATOM     86  O   UNL A   1      53.973  24.361  24.753  1.00  0.00    -0.237 OA
ATOM     87  O   UNL A   1      53.597  25.957  22.916  1.00  0.00    -0.744 OA
ENDBRANCH  83  84
ENDBRANCH  55  78
BRANCH  67  88
ATOM     88  C   UNL A   1      46.931  32.756  28.309  1.00  0.00    -0.014 A 
ATOM     89  C   UNL A   1      46.816  33.696  27.270  1.00  0.00     0.010 A 
ATOM     90  C   UNL A   1      47.534  33.140  29.520  1.00  0.00     0.010 A 
ATOM     91  C   UNL A   1      47.304  34.994  27.436  1.00  0.00     0.020 A 
ATOM     92  C   UNL A   1      48.004  34.444  29.698  1.00  0.00     0.020 A 
ATOM     93  C   UNL A   1      47.892  35.362  28.650  1.00  0.00     0.054 A 
BRANCH  93  94
ATOM     94  S   UNL A   1      48.455  37.073  28.867  1.00  0.00     0.124 S 
ATOM     95  O   UNL A   1      49.897  36.904  29.012  1.00  0.00    -0.237 OA
ATOM     96  O   UNL A   1      48.020  37.714  27.627  1.00  0.00    -0.237 OA
ATOM     97  O   UNL A   1      47.755  37.519  30.069  1.00  0.00    -0.744 OA
ENDBRANCH  93  94
ENDBRANCH  67  88
ENDBRANCH  41  42
ENDBRANCH  33  36
ENDBRANCH  31  32
ENDBRANCH  30  31
ENDBRANCH   1  30
TORSDOF 20
ENDMDL
