MODEL 1
REMARK VINA RESULT:      -9.2      0.000      0.000
REMARK SMILES COCCN(CC(=O)NCCCCNC(=O)c1ccc(-c2c3nc(c(-c4ccc(S(=O)(=O)[O-])cc4)c4ccc([nH]4)c(-c4ccc(S(=O)(=O)[O-])cc4)c4nc(c(-c5ccc(S(=O)(=O)[O-])cc5)c5ccc2[nH]5)C=C4)C=C3)cc1)C(=O)N1CCC[C@@H]1C
REMARK SMILES IDX 11 1 10 2 9 3 7 4 8 5 6 7 5 8 4 9 3 10 2 11 1 12 77 13 78 14
REMARK SMILES IDX 79 15 80 16 83 17 81 18 82 19 84 20 12 21 13 22 14 23 15 24
REMARK SMILES IDX 16 26 17 27 18 28 76 29 19 30 75 31 20 32 21 33 22 34 69 35
REMARK SMILES IDX 23 36 74 37 68 38 70 39 24 40 73 41 67 42 66 43 25 45 55 46
REMARK SMILES IDX 36 47 54 48 37 49 40 50 53 51 71 52 38 53 39 54 52 56 72 57
REMARK SMILES IDX 41 58 26 59 27 60 35 61 28 62 34 63 29 64 30 65 31 66 32 67
REMARK SMILES IDX 33 68 56 69 57 70 65 71 58 72 64 73 59 74 60 75 61 76 62 77
REMARK SMILES IDX 63 78 42 79 43 80 51 81 44 82 50 83 45 84 46 85 47 86 48 87
REMARK SMILES IDX 49 88
REMARK H PARENT 9 6 14 25 70 44 40 55
REMARK Flexibility Score: inf
ROOT
ATOM      1  C   UNL A   1      32.949  26.537  26.178  1.00  0.00     0.023 C 
ENDROOT
BRANCH   1   2
ATOM      2  C   UNL A   1      31.665  26.078  25.493  1.00  0.00     0.116 C 
BRANCH   2   3
ATOM      3  N   UNL A   1      31.042  24.925  26.101  1.00  0.00    -0.355 N 
ATOM      4  C   UNL A   1      31.626  23.837  26.676  1.00  0.00     0.239 C 
ATOM      5  O   UNL A   1      30.962  23.243  27.535  1.00  0.00    -0.273 OA
ATOM      6  H   UNL A   1      30.057  24.925  26.098  1.00  0.00     0.163 HD
BRANCH   4   7
ATOM      7  C   UNL A   1      33.089  23.424  26.415  1.00  0.00     0.221 C 
BRANCH   7   8
ATOM      8  N   UNL A   1      33.361  22.527  25.289  1.00  0.00    -0.313 N 
BRANCH   8   9
ATOM      9  C   UNL A   1      32.245  21.679  24.821  1.00  0.00     0.150 C 
BRANCH   9  10
ATOM     10  C   UNL A   1      32.626  20.229  24.468  1.00  0.00     0.181 C 
BRANCH  10  11
ATOM     11  O   UNL A   1      32.410  19.327  25.551  1.00  0.00    -0.383 OA
ATOM     12  C   UNL A   1      32.404  17.963  25.161  1.00  0.00     0.194 C 
ENDBRANCH  10  11
ENDBRANCH   9  10
ENDBRANCH   8   9
BRANCH   8  13
ATOM     13  C   UNL A   1      34.489  22.585  24.479  1.00  0.00     0.320 C 
ATOM     14  O   UNL A   1      34.399  22.738  23.261  1.00  0.00    -0.248 OA
BRANCH  13  15
ATOM     15  N   UNL A   1      35.721  22.649  25.082  1.00  0.00    -0.322 N 
ATOM     16  C   UNL A   1      36.663  23.645  24.617  1.00  0.00     0.122 C 
ATOM     17  C   UNL A   1      36.462  21.538  25.689  1.00  0.00     0.083 C 
ATOM     18  C   UNL A   1      37.764  23.588  25.653  1.00  0.00     0.024 C 
ATOM     19  C   UNL A   1      37.879  22.097  25.940  1.00  0.00     0.027 C 
ATOM     20  C   UNL A   1      36.525  20.310  24.784  1.00  0.00     0.031 C 
ENDBRANCH  13  15
ENDBRANCH   8  13
ENDBRANCH   7   8
ENDBRANCH   4   7
ENDBRANCH   2   3
ENDBRANCH   1   2
BRANCH   1  21
ATOM     21  C   UNL A   1      32.887  27.913  26.842  1.00  0.00     0.023 C 
BRANCH  21  22
ATOM     22  C   UNL A   1      33.864  28.948  26.306  1.00  0.00     0.116 C 
BRANCH  22  23
ATOM     23  N   UNL A   1      33.540  30.311  26.695  1.00  0.00    -0.352 N 
ATOM     24  C   UNL A   1      34.228  31.150  27.539  1.00  0.00     0.251 C 
ATOM     25  H   UNL A   1      32.719  30.684  26.301  1.00  0.00     0.163 HD
ATOM     26  O   UNL A   1      33.765  32.251  27.822  1.00  0.00    -0.269 OA
BRANCH  24  27
ATOM     27  C   UNL A   1      35.501  30.698  28.139  1.00  0.00     0.039 A 
ATOM     28  C   UNL A   1      36.673  31.388  27.823  1.00  0.00     0.014 A 
ATOM     29  C   UNL A   1      35.535  29.624  29.034  1.00  0.00     0.014 A 
ATOM     30  C   UNL A   1      37.868  31.045  28.459  1.00  0.00     0.010 A 
ATOM     31  C   UNL A   1      36.710  29.335  29.722  1.00  0.00     0.010 A 
ATOM     32  C   UNL A   1      37.889  30.040  29.440  1.00  0.00    -0.014 A 
BRANCH  32  33
ATOM     33  C   UNL A   1      39.135  29.722  30.184  1.00  0.00     0.031 A 
ATOM     34  C   UNL A   1      40.044  28.624  29.704  1.00  0.00     0.074 A 
ATOM     35  C   UNL A   1      39.420  30.387  31.321  1.00  0.00     0.049 A 
ATOM     36  N   UNL A   1      41.157  28.185  30.234  1.00  0.00    -0.248 NA
ATOM     37  C   UNL A   1      39.638  27.908  28.483  1.00  0.00     0.031 C 
ATOM     38  C   UNL A   1      38.594  31.441  31.917  1.00  0.00     0.029 A 
ATOM     39  N   UNL A   1      40.484  30.276  32.181  1.00  0.00    -0.354 N 
ATOM     40  C   UNL A   1      41.576  27.138  29.422  1.00  0.00     0.074 A 
ATOM     41  C   UNL A   1      40.571  26.971  28.396  1.00  0.00     0.031 C 
ATOM     42  C   UNL A   1      39.199  31.902  33.023  1.00  0.00     0.029 A 
ATOM     43  C   UNL A   1      40.434  31.155  33.237  1.00  0.00     0.049 A 
ATOM     44  H   UNL A   1      41.213  29.628  32.052  1.00  0.00     0.167 HD
ATOM     45  C   UNL A   1      42.707  26.397  29.507  1.00  0.00     0.031 A 
ATOM     46  C   UNL A   1      41.287  31.339  34.264  1.00  0.00     0.031 A 
ATOM     47  C   UNL A   1      43.710  26.572  30.524  1.00  0.00     0.049 A 
ATOM     48  C   UNL A   1      42.535  30.504  34.338  1.00  0.00     0.074 A 
ATOM     49  C   UNL A   1      44.915  25.906  30.668  1.00  0.00     0.029 A 
ATOM     50  N   UNL A   1      43.626  27.477  31.572  1.00  0.00    -0.354 N 
ATOM     51  N   UNL A   1      42.946  29.561  33.523  1.00  0.00    -0.248 NA
ATOM     52  C   UNL A   1      43.442  30.768  35.463  1.00  0.00     0.031 C 
ATOM     53  C   UNL A   1      45.538  26.376  31.829  1.00  0.00     0.029 A 
ATOM     54  C   UNL A   1      44.749  27.374  32.377  1.00  0.00     0.049 A 
ATOM     55  H   UNL A   1      42.879  28.101  31.721  1.00  0.00     0.167 HD
ATOM     56  C   UNL A   1      44.172  29.138  34.023  1.00  0.00     0.074 A 
ATOM     57  C   UNL A   1      44.443  29.939  35.200  1.00  0.00     0.031 C 
ATOM     58  C   UNL A   1      45.001  28.175  33.548  1.00  0.00     0.031 A 
BRANCH  45  59
ATOM     59  C   UNL A   1      42.915  25.327  28.468  1.00  0.00    -0.014 A 
ATOM     60  C   UNL A   1      42.431  24.020  28.666  1.00  0.00     0.010 A 
ATOM     61  C   UNL A   1      43.574  25.635  27.264  1.00  0.00     0.010 A 
ATOM     62  C   UNL A   1      42.642  23.032  27.701  1.00  0.00     0.020 A 
ATOM     63  C   UNL A   1      43.762  24.657  26.284  1.00  0.00     0.020 A 
ATOM     64  C   UNL A   1      43.310  23.356  26.518  1.00  0.00     0.054 A 
BRANCH  64  65
ATOM     65  S   UNL A   1      43.555  22.057  25.275  1.00  0.00     0.124 S 
ATOM     66  O   UNL A   1      42.429  21.167  25.546  1.00  0.00    -0.237 OA
ATOM     67  O   UNL A   1      43.481  22.798  24.018  1.00  0.00    -0.237 OA
ATOM     68  O   UNL A   1      44.871  21.512  25.597  1.00  0.00    -0.744 OA
ENDBRANCH  64  65
ENDBRANCH  45  59
BRANCH  46  69
ATOM     69  C   UNL A   1      41.001  32.379  35.289  1.00  0.00    -0.014 A 
ATOM     70  C   UNL A   1      41.481  33.691  35.127  1.00  0.00     0.010 A 
ATOM     71  C   UNL A   1      40.236  32.068  36.428  1.00  0.00     0.010 A 
ATOM     72  C   UNL A   1      41.218  34.667  36.092  1.00  0.00     0.020 A 
ATOM     73  C   UNL A   1      39.947  33.048  37.382  1.00  0.00     0.020 A 
ATOM     74  C   UNL A   1      40.451  34.339  37.214  1.00  0.00     0.054 A 
BRANCH  74  75
ATOM     75  S   UNL A   1      40.080  35.635  38.429  1.00  0.00     0.124 S 
ATOM     76  O   UNL A   1      41.343  35.745  39.150  1.00  0.00    -0.237 OA
ATOM     77  O   UNL A   1      39.731  36.772  37.582  1.00  0.00    -0.237 OA
ATOM     78  O   UNL A   1      38.968  35.075  39.194  1.00  0.00    -0.744 OA
ENDBRANCH  74  75
ENDBRANCH  46  69
BRANCH  58  79
ATOM     79  C   UNL A   1      46.296  27.955  34.285  1.00  0.00    -0.014 A 
ATOM     80  C   UNL A   1      46.381  27.048  35.356  1.00  0.00     0.010 A 
ATOM     81  C   UNL A   1      47.453  28.638  33.871  1.00  0.00     0.010 A 
ATOM     82  C   UNL A   1      47.594  26.857  36.025  1.00  0.00     0.020 A 
ATOM     83  C   UNL A   1      48.674  28.428  34.517  1.00  0.00     0.020 A 
ATOM     84  C   UNL A   1      48.732  27.551  35.602  1.00  0.00     0.054 A 
BRANCH  84  85
ATOM     85  S   UNL A   1      50.301  27.264  36.465  1.00  0.00     0.124 S 
ATOM     86  O   UNL A   1      51.280  27.602  35.435  1.00  0.00    -0.237 OA
ATOM     87  O   UNL A   1      50.225  28.192  37.590  1.00  0.00    -0.237 OA
ATOM     88  O   UNL A   1      50.242  25.850  36.827  1.00  0.00    -0.744 OA
ENDBRANCH  84  85
ENDBRANCH  58  79
ENDBRANCH  32  33
ENDBRANCH  24  27
ENDBRANCH  22  23
ENDBRANCH  21  22
ENDBRANCH   1  21
TORSDOF 20
ENDMDL
MODEL 2
REMARK VINA RESULT:      -8.8      3.154      8.044
REMARK SMILES COCCN(CC(=O)NCCCCNC(=O)c1ccc(-c2c3nc(c(-c4ccc(S(=O)(=O)[O-])cc4)c4ccc([nH]4)c(-c4ccc(S(=O)(=O)[O-])cc4)c4nc(c(-c5ccc(S(=O)(=O)[O-])cc5)c5ccc2[nH]5)C=C4)C=C3)cc1)C(=O)N1CCC[C@@H]1C
REMARK SMILES IDX 11 1 10 2 9 3 7 4 8 5 6 7 5 8 4 9 3 10 2 11 1 12 77 13 78 14
REMARK SMILES IDX 79 15 80 16 83 17 81 18 82 19 84 20 12 21 13 22 14 23 15 24
REMARK SMILES IDX 16 26 17 27 18 28 76 29 19 30 75 31 20 32 21 33 22 34 69 35
REMARK SMILES IDX 23 36 74 37 68 38 70 39 24 40 73 41 67 42 66 43 25 45 55 46
REMARK SMILES IDX 36 47 54 48 37 49 40 50 53 51 71 52 38 53 39 54 52 56 72 57
REMARK SMILES IDX 41 58 26 59 27 60 35 61 28 62 34 63 29 64 30 65 31 66 32 67
REMARK SMILES IDX 33 68 56 69 57 70 65 71 58 72 64 73 59 74 60 75 61 76 62 77
REMARK SMILES IDX 63 78 42 79 43 80 51 81 44 82 50 83 45 84 46 85 47 86 48 87
REMARK SMILES IDX 49 88
REMARK H PARENT 9 6 14 25 70 44 40 55
REMARK Flexibility Score: inf
ROOT
ATOM      1  C   UNL A   1      38.825  22.484  26.200  1.00  0.00     0.023 C 
ENDROOT
BRANCH   1   2
ATOM      2  C   UNL A   1      37.539  23.169  25.748  1.00  0.00     0.116 C 
BRANCH   2   3
ATOM      3  N   UNL A   1      36.352  22.733  26.445  1.00  0.00    -0.355 N 
ATOM      4  C   UNL A   1      35.261  22.081  25.956  1.00  0.00     0.239 C 
ATOM      5  O   UNL A   1      34.623  21.391  26.762  1.00  0.00    -0.273 OA
ATOM      6  H   UNL A   1      36.328  22.937  27.408  1.00  0.00     0.163 HD
BRANCH   4   7
ATOM      7  C   UNL A   1      34.894  22.049  24.459  1.00  0.00     0.221 C 
BRANCH   7   8
ATOM      8  N   UNL A   1      33.883  22.994  23.978  1.00  0.00    -0.313 N 
BRANCH   8   9
ATOM      9  C   UNL A   1      34.368  24.188  23.255  1.00  0.00     0.150 C 
BRANCH   9  10
ATOM     10  C   UNL A   1      34.412  25.485  24.084  1.00  0.00     0.181 C 
BRANCH  10  11
ATOM     11  O   UNL A   1      33.473  26.456  23.631  1.00  0.00    -0.383 OA
ATOM     12  C   UNL A   1      33.780  27.779  24.043  1.00  0.00     0.194 C 
ENDBRANCH  10  11
ENDBRANCH   9  10
ENDBRANCH   8   9
BRANCH   8  13
ATOM     13  C   UNL A   1      32.517  22.742  23.929  1.00  0.00     0.320 C 
ATOM     14  O   UNL A   1      32.032  21.986  23.087  1.00  0.00    -0.248 OA
BRANCH  13  15
ATOM     15  N   UNL A   1      31.731  23.211  24.953  1.00  0.00    -0.322 N 
ATOM     16  C   UNL A   1      30.978  22.253  25.735  1.00  0.00     0.122 C 
ATOM     17  C   UNL A   1      31.062  24.514  25.023  1.00  0.00     0.083 C 
ATOM     18  C   UNL A   1      30.459  23.083  26.889  1.00  0.00     0.024 C 
ATOM     19  C   UNL A   1      30.094  24.400  26.219  1.00  0.00     0.027 C 
ATOM     20  C   UNL A   1      30.295  24.850  23.746  1.00  0.00     0.031 C 
ENDBRANCH  13  15
ENDBRANCH   8  13
ENDBRANCH   7   8
ENDBRANCH   4   7
ENDBRANCH   2   3
ENDBRANCH   1   2
BRANCH   1  21
ATOM     21  C   UNL A   1      39.651  23.246  27.236  1.00  0.00     0.023 C 
BRANCH  21  22
ATOM     22  C   UNL A   1      39.451  24.754  27.259  1.00  0.00     0.116 C 
BRANCH  22  23
ATOM     23  N   UNL A   1      40.242  25.463  26.266  1.00  0.00    -0.352 N 
ATOM     24  C   UNL A   1      40.777  26.726  26.337  1.00  0.00     0.251 C 
ATOM     25  H   UNL A   1      40.420  24.971  25.432  1.00  0.00     0.163 HD
ATOM     26  O   UNL A   1      41.356  27.203  25.364  1.00  0.00    -0.269 OA
BRANCH  24  27
ATOM     27  C   UNL A   1      40.608  27.523  27.570  1.00  0.00     0.039 A 
ATOM     28  C   UNL A   1      39.953  26.943  28.658  1.00  0.00     0.014 A 
ATOM     29  C   UNL A   1      41.122  28.819  27.667  1.00  0.00     0.014 A 
ATOM     30  C   UNL A   1      39.874  27.637  29.867  1.00  0.00     0.010 A 
ATOM     31  C   UNL A   1      41.110  29.478  28.894  1.00  0.00     0.010 A 
ATOM     32  C   UNL A   1      40.485  28.895  30.005  1.00  0.00    -0.014 A 
BRANCH  32  33
ATOM     33  C   UNL A   1      40.481  29.608  31.308  1.00  0.00     0.031 A 
ATOM     34  C   UNL A   1      41.557  29.335  32.324  1.00  0.00     0.074 A 
ATOM     35  C   UNL A   1      39.480  30.463  31.597  1.00  0.00     0.049 A 
ATOM     36  N   UNL A   1      41.705  29.839  33.522  1.00  0.00    -0.248 NA
ATOM     37  C   UNL A   1      42.587  28.349  31.956  1.00  0.00     0.031 C 
ATOM     38  C   UNL A   1      38.352  30.778  30.715  1.00  0.00     0.029 A 
ATOM     39  N   UNL A   1      39.248  31.225  32.714  1.00  0.00    -0.354 N 
ATOM     40  C   UNL A   1      42.832  29.224  34.055  1.00  0.00     0.074 A 
ATOM     41  C   UNL A   1      43.298  28.272  33.071  1.00  0.00     0.031 C 
ATOM     42  C   UNL A   1      37.570  31.692  31.310  1.00  0.00     0.029 A 
ATOM     43  C   UNL A   1      38.115  32.000  32.628  1.00  0.00     0.049 A 
ATOM     44  H   UNL A   1      39.836  31.217  33.503  1.00  0.00     0.167 HD
ATOM     45  C   UNL A   1      43.440  29.449  35.244  1.00  0.00     0.031 A 
ATOM     46  C   UNL A   1      37.577  32.865  33.510  1.00  0.00     0.031 A 
ATOM     47  C   UNL A   1      42.980  30.404  36.217  1.00  0.00     0.049 A 
ATOM     48  C   UNL A   1      38.268  33.096  34.824  1.00  0.00     0.074 A 
ATOM     49  C   UNL A   1      43.554  30.741  37.430  1.00  0.00     0.029 A 
ATOM     50  N   UNL A   1      41.834  31.174  36.089  1.00  0.00    -0.354 N 
ATOM     51  N   UNL A   1      39.371  32.552  35.283  1.00  0.00    -0.248 NA
ATOM     52  C   UNL A   1      37.650  34.070  35.735  1.00  0.00     0.031 C 
ATOM     53  C   UNL A   1      42.729  31.682  38.058  1.00  0.00     0.029 A 
ATOM     54  C   UNL A   1      41.673  31.973  37.210  1.00  0.00     0.049 A 
ATOM     55  H   UNL A   1      41.224  31.157  35.316  1.00  0.00     0.167 HD
ATOM     56  C   UNL A   1      39.593  33.138  36.525  1.00  0.00     0.074 A 
ATOM     57  C   UNL A   1      38.520  34.088  36.736  1.00  0.00     0.031 C 
ATOM     58  C   UNL A   1      40.596  32.910  37.408  1.00  0.00     0.031 A 
BRANCH  45  59
ATOM     59  C   UNL A   1      44.672  28.641  35.557  1.00  0.00    -0.014 A 
ATOM     60  C   UNL A   1      45.950  29.090  35.176  1.00  0.00     0.010 A 
ATOM     61  C   UNL A   1      44.558  27.432  36.268  1.00  0.00     0.010 A 
ATOM     62  C   UNL A   1      47.084  28.325  35.459  1.00  0.00     0.020 A 
ATOM     63  C   UNL A   1      45.693  26.678  36.579  1.00  0.00     0.020 A 
ATOM     64  C   UNL A   1      46.948  27.121  36.155  1.00  0.00     0.054 A 
BRANCH  64  65
ATOM     65  S   UNL A   1      48.440  26.158  36.525  1.00  0.00     0.124 S 
ATOM     66  O   UNL A   1      47.903  24.804  36.635  1.00  0.00    -0.237 OA
ATOM     67  O   UNL A   1      49.280  26.407  35.356  1.00  0.00    -0.237 OA
ATOM     68  O   UNL A   1      48.927  26.738  37.774  1.00  0.00    -0.744 OA
ENDBRANCH  64  65
ENDBRANCH  45  59
BRANCH  46  69
ATOM     69  C   UNL A   1      36.327  33.596  33.164  1.00  0.00    -0.014 A 
ATOM     70  C   UNL A   1      36.387  34.896  32.630  1.00  0.00     0.010 A 
ATOM     71  C   UNL A   1      35.070  32.993  33.354  1.00  0.00     0.010 A 
ATOM     72  C   UNL A   1      35.214  35.586  32.311  1.00  0.00     0.020 A 
ATOM     73  C   UNL A   1      33.896  33.669  33.010  1.00  0.00     0.020 A 
ATOM     74  C   UNL A   1      33.975  34.967  32.502  1.00  0.00     0.054 A 
BRANCH  74  75
ATOM     75  S   UNL A   1      32.468  35.862  32.034  1.00  0.00     0.124 S 
ATOM     76  O   UNL A   1      32.533  35.824  30.577  1.00  0.00    -0.237 OA
ATOM     77  O   UNL A   1      31.417  35.052  32.644  1.00  0.00    -0.237 OA
ATOM     78  O   UNL A   1      32.655  37.181  32.635  1.00  0.00    -0.744 OA
ENDBRANCH  74  75
ENDBRANCH  46  69
BRANCH  58  79
ATOM     79  C   UNL A   1      40.599  33.727  38.673  1.00  0.00    -0.014 A 
ATOM     80  C   UNL A   1      39.920  33.291  39.825  1.00  0.00     0.010 A 
ATOM     81  C   UNL A   1      41.328  34.929  38.721  1.00  0.00     0.010 A 
ATOM     82  C   UNL A   1      39.937  34.064  40.990  1.00  0.00     0.020 A 
ATOM     83  C   UNL A   1      41.372  35.689  39.892  1.00  0.00     0.020 A 
ATOM     84  C   UNL A   1      40.662  35.260  41.014  1.00  0.00     0.054 A 
BRANCH  84  85
ATOM     85  S   UNL A   1      40.696  36.229  42.546  1.00  0.00     0.124 S 
ATOM     86  O   UNL A   1      39.291  36.212  42.947  1.00  0.00    -0.237 OA
ATOM     87  O   UNL A   1      41.601  35.458  43.395  1.00  0.00    -0.237 OA
ATOM     88  O   UNL A   1      41.207  37.530  42.122  1.00  0.00    -0.744 OA
ENDBRANCH  84  85
ENDBRANCH  58  79
ENDBRANCH  32  33
ENDBRANCH  24  27
ENDBRANCH  22  23
ENDBRANCH  21  22
ENDBRANCH   1  21
TORSDOF 20
ENDMDL
MODEL 3
REMARK VINA RESULT:      -8.8      1.224      8.577
REMARK SMILES COCCN(CC(=O)NCCCCNC(=O)c1ccc(-c2c3nc(c(-c4ccc(S(=O)(=O)[O-])cc4)c4ccc([nH]4)c(-c4ccc(S(=O)(=O)[O-])cc4)c4nc(c(-c5ccc(S(=O)(=O)[O-])cc5)c5ccc2[nH]5)C=C4)C=C3)cc1)C(=O)N1CCC[C@@H]1C
REMARK SMILES IDX 11 1 10 2 9 3 7 4 8 5 6 7 5 8 4 9 3 10 2 11 1 12 77 13 78 14
REMARK SMILES IDX 79 15 80 16 83 17 81 18 82 19 84 20 12 21 13 22 14 23 15 24
REMARK SMILES IDX 16 26 17 27 18 28 76 29 19 30 75 31 20 32 21 33 22 34 69 35
REMARK SMILES IDX 23 36 74 37 68 38 70 39 24 40 73 41 67 42 66 43 25 45 55 46
REMARK SMILES IDX 36 47 54 48 37 49 40 50 53 51 71 52 38 53 39 54 52 56 72 57
REMARK SMILES IDX 41 58 26 59 27 60 35 61 28 62 34 63 29 64 30 65 31 66 32 67
REMARK SMILES IDX 33 68 56 69 57 70 65 71 58 72 64 73 59 74 60 75 61 76 62 77
REMARK SMILES IDX 63 78 42 79 43 80 51 81 44 82 50 83 45 84 46 85 47 86 48 87
REMARK SMILES IDX 49 88
REMARK H PARENT 9 6 14 25 70 44 40 55
REMARK Flexibility Score: inf
ROOT
ATOM      1  C   UNL A   1      32.932  27.319  26.382  1.00  0.00     0.023 C 
ENDROOT
BRANCH   1   2
ATOM      2  C   UNL A   1      31.445  27.088  26.129  1.00  0.00     0.116 C 
BRANCH   2   3
ATOM      3  N   UNL A   1      30.978  25.765  26.476  1.00  0.00    -0.355 N 
ATOM      4  C   UNL A   1      31.628  24.572  26.376  1.00  0.00     0.239 C 
ATOM      5  O   UNL A   1      31.264  23.679  27.151  1.00  0.00    -0.273 OA
ATOM      6  H   UNL A   1      30.062  25.720  26.833  1.00  0.00     0.163 HD
BRANCH   4   7
ATOM      7  C   UNL A   1      32.858  24.351  25.472  1.00  0.00     0.221 C 
BRANCH   7   8
ATOM      8  N   UNL A   1      32.648  23.710  24.171  1.00  0.00    -0.313 N 
BRANCH   8   9
ATOM      9  C   UNL A   1      31.531  24.212  23.346  1.00  0.00     0.150 C 
BRANCH   9  10
ATOM     10  C   UNL A   1      31.782  25.563  22.651  1.00  0.00     0.181 C 
BRANCH  10  11
ATOM     11  O   UNL A   1      30.633  26.406  22.659  1.00  0.00    -0.383 OA
ATOM     12  C   UNL A   1      30.931  27.776  22.447  1.00  0.00     0.194 C 
ENDBRANCH  10  11
ENDBRANCH   9  10
ENDBRANCH   8   9
BRANCH   8  13
ATOM     13  C   UNL A   1      33.550  22.852  23.552  1.00  0.00     0.320 C 
ATOM     14  O   UNL A   1      34.448  23.278  22.825  1.00  0.00    -0.248 OA
BRANCH  13  15
ATOM     15  N   UNL A   1      33.537  21.526  23.909  1.00  0.00    -0.322 N 
ATOM     16  C   UNL A   1      32.259  20.895  24.165  1.00  0.00     0.122 C 
ATOM     17  C   UNL A   1      34.581  20.801  24.640  1.00  0.00     0.083 C 
ATOM     18  C   UNL A   1      32.613  19.428  24.268  1.00  0.00     0.024 C 
ATOM     19  C   UNL A   1      33.935  19.454  25.023  1.00  0.00     0.027 C 
ATOM     20  C   UNL A   1      35.047  21.545  25.890  1.00  0.00     0.031 C 
ENDBRANCH  13  15
ENDBRANCH   8  13
ENDBRANCH   7   8
ENDBRANCH   4   7
ENDBRANCH   2   3
ENDBRANCH   1   2
BRANCH   1  21
ATOM     21  C   UNL A   1      33.275  28.549  27.224  1.00  0.00     0.023 C 
BRANCH  21  22
ATOM     22  C   UNL A   1      34.148  29.592  26.544  1.00  0.00     0.116 C 
BRANCH  22  23
ATOM     23  N   UNL A   1      33.931  30.943  27.035  1.00  0.00    -0.352 N 
ATOM     24  C   UNL A   1      34.671  31.653  27.950  1.00  0.00     0.251 C 
ATOM     25  H   UNL A   1      33.151  31.413  26.661  1.00  0.00     0.163 HD
ATOM     26  O   UNL A   1      34.296  32.764  28.313  1.00  0.00    -0.269 OA
BRANCH  24  27
ATOM     27  C   UNL A   1      35.891  31.050  28.528  1.00  0.00     0.039 A 
ATOM     28  C   UNL A   1      37.129  31.616  28.217  1.00  0.00     0.014 A 
ATOM     29  C   UNL A   1      35.813  29.959  29.398  1.00  0.00     0.014 A 
ATOM     30  C   UNL A   1      38.284  31.129  28.834  1.00  0.00     0.010 A 
ATOM     31  C   UNL A   1      36.954  29.526  30.068  1.00  0.00     0.010 A 
ATOM     32  C   UNL A   1      38.201  30.105  29.792  1.00  0.00    -0.014 A 
BRANCH  32  33
ATOM     33  C   UNL A   1      39.409  29.635  30.516  1.00  0.00     0.031 A 
ATOM     34  C   UNL A   1      39.820  30.289  31.808  1.00  0.00     0.074 A 
ATOM     35  C   UNL A   1      40.166  28.655  29.984  1.00  0.00     0.049 A 
ATOM     36  N   UNL A   1      40.855  30.034  32.567  1.00  0.00    -0.248 NA
ATOM     37  C   UNL A   1      38.972  31.388  32.298  1.00  0.00     0.031 C 
ATOM     38  C   UNL A   1      39.900  27.974  28.714  1.00  0.00     0.029 A 
ATOM     39  N   UNL A   1      41.313  28.060  30.444  1.00  0.00    -0.354 N 
ATOM     40  C   UNL A   1      40.791  30.946  33.614  1.00  0.00     0.074 A 
ATOM     41  C   UNL A   1      39.646  31.794  33.364  1.00  0.00     0.031 C 
ATOM     42  C   UNL A   1      40.836  27.033  28.515  1.00  0.00     0.029 A 
ATOM     43  C   UNL A   1      41.788  27.067  29.620  1.00  0.00     0.049 A 
ATOM     44  H   UNL A   1      41.755  28.320  31.284  1.00  0.00     0.167 HD
ATOM     45  C   UNL A   1      41.595  31.053  34.698  1.00  0.00     0.031 A 
ATOM     46  C   UNL A   1      42.869  26.271  29.741  1.00  0.00     0.031 A 
ATOM     47  C   UNL A   1      42.727  30.202  34.949  1.00  0.00     0.049 A 
ATOM     48  C   UNL A   1      43.749  26.410  30.952  1.00  0.00     0.074 A 
ATOM     49  C   UNL A   1      43.575  30.196  36.042  1.00  0.00     0.029 A 
ATOM     50  N   UNL A   1      43.171  29.203  34.094  1.00  0.00    -0.354 N 
ATOM     51  N   UNL A   1      43.634  27.237  31.965  1.00  0.00    -0.248 NA
ATOM     52  C   UNL A   1      44.897  25.497  31.045  1.00  0.00     0.031 C 
ATOM     53  C   UNL A   1      44.561  29.226  35.827  1.00  0.00     0.029 A 
ATOM     54  C   UNL A   1      44.292  28.588  34.627  1.00  0.00     0.049 A 
ATOM     55  H   UNL A   1      42.751  28.965  33.236  1.00  0.00     0.167 HD
ATOM     56  C   UNL A   1      44.679  26.925  32.827  1.00  0.00     0.074 A 
ATOM     57  C   UNL A   1      45.405  25.825  32.225  1.00  0.00     0.031 C 
ATOM     58  C   UNL A   1      45.007  27.497  34.013  1.00  0.00     0.031 A 
BRANCH  45  59
ATOM     59  C   UNL A   1      41.275  32.136  35.695  1.00  0.00    -0.014 A 
ATOM     60  C   UNL A   1      40.355  31.915  36.736  1.00  0.00     0.010 A 
ATOM     61  C   UNL A   1      41.925  33.381  35.611  1.00  0.00     0.010 A 
ATOM     62  C   UNL A   1      40.057  32.931  37.647  1.00  0.00     0.020 A 
ATOM     63  C   UNL A   1      41.650  34.392  36.537  1.00  0.00     0.020 A 
ATOM     64  C   UNL A   1      40.703  34.166  37.538  1.00  0.00     0.054 A 
BRANCH  64  65
ATOM     65  S   UNL A   1      40.309  35.462  38.745  1.00  0.00     0.124 S 
ATOM     66  O   UNL A   1      41.201  35.123  39.851  1.00  0.00    -0.237 OA
ATOM     67  O   UNL A   1      40.641  36.686  38.021  1.00  0.00    -0.237 OA
ATOM     68  O   UNL A   1      38.885  35.266  39.011  1.00  0.00    -0.744 OA
ENDBRANCH  64  65
ENDBRANCH  45  59
BRANCH  46  69
ATOM     69  C   UNL A   1      43.163  25.253  28.696  1.00  0.00    -0.014 A 
ATOM     70  C   UNL A   1      42.510  24.007  28.712  1.00  0.00     0.010 A 
ATOM     71  C   UNL A   1      44.086  25.528  27.670  1.00  0.00     0.010 A 
ATOM     72  C   UNL A   1      42.789  23.048  27.734  1.00  0.00     0.020 A 
ATOM     73  C   UNL A   1      44.346  24.581  26.675  1.00  0.00     0.020 A 
ATOM     74  C   UNL A   1      43.706  23.342  26.720  1.00  0.00     0.054 A 
BRANCH  74  75
ATOM     75  S   UNL A   1      44.015  22.101  25.433  1.00  0.00     0.124 S 
ATOM     76  O   UNL A   1      45.470  22.005  25.447  1.00  0.00    -0.237 OA
ATOM     77  O   UNL A   1      43.297  20.934  25.940  1.00  0.00    -0.237 OA
ATOM     78  O   UNL A   1      43.437  22.704  24.234  1.00  0.00    -0.744 OA
ENDBRANCH  74  75
ENDBRANCH  46  69
BRANCH  58  79
ATOM     79  C   UNL A   1      46.185  26.923  34.753  1.00  0.00    -0.014 A 
ATOM     80  C   UNL A   1      47.485  27.422  34.557  1.00  0.00     0.010 A 
ATOM     81  C   UNL A   1      45.980  25.894  35.690  1.00  0.00     0.010 A 
ATOM     82  C   UNL A   1      48.564  26.876  35.257  1.00  0.00     0.020 A 
ATOM     83  C   UNL A   1      47.051  25.365  36.413  1.00  0.00     0.020 A 
ATOM     84  C   UNL A   1      48.340  25.848  36.179  1.00  0.00     0.054 A 
BRANCH  84  85
ATOM     85  S   UNL A   1      49.752  25.176  37.098  1.00  0.00     0.124 S 
ATOM     86  O   UNL A   1      49.388  25.482  38.480  1.00  0.00    -0.237 OA
ATOM     87  O   UNL A   1      49.726  23.760  36.740  1.00  0.00    -0.237 OA
ATOM     88  O   UNL A   1      50.893  25.923  36.575  1.00  0.00    -0.744 OA
ENDBRANCH  84  85
ENDBRANCH  58  79
ENDBRANCH  32  33
ENDBRANCH  24  27
ENDBRANCH  22  23
ENDBRANCH  21  22
ENDBRANCH   1  21
TORSDOF 20
ENDMDL
