MODEL 1
REMARK VINA RESULT:     -11.1      0.000      0.000
REMARK SMILES CC(=O)O[C@H]1C[C@@H](C(=O)NCCCCNC(=O)c2ccc(-c3c4nc(c(-c5ccc(S(=O)(=O)[O-])cc5)c5ccc([nH]5)c(-c5ccc(S(=O)(=O)[O-])cc5)c5nc(c(-c6ccc(S(=O)(=O)[O-])cc6)c6ccc3[nH]6)C=C5)C=C4)cc2)N(S(=O)(=O)c2ccc(F)cc2)C1
REMARK SMILES IDX 13 1 12 2 11 3 10 4 8 5 9 6 7 8 5 9 6 10 89 11 78 12 4 13
REMARK SMILES IDX 2 14 1 15 3 16 79 17 80 18 81 19 82 20 83 21 88 22 84 23
REMARK SMILES IDX 87 24 85 25 86 26 14 27 15 28 16 29 17 31 18 32 19 33 77 34
REMARK SMILES IDX 20 35 76 36 21 37 22 38 23 39 70 40 24 41 75 42 69 43 71 44
REMARK SMILES IDX 25 45 74 46 68 47 67 48 26 50 56 51 37 52 55 53 38 54 41 55
REMARK SMILES IDX 54 56 72 57 39 58 40 59 53 61 73 62 42 63 27 64 28 65 36 66
REMARK SMILES IDX 29 67 35 68 30 69 31 70 32 71 33 72 34 73 57 74 58 75 66 76
REMARK SMILES IDX 59 77 65 78 60 79 61 80 62 81 63 82 64 83 43 84 44 85 52 86
REMARK SMILES IDX 45 87 51 88 46 89 47 90 48 91 49 92 50 93
REMARK H PARENT 10 7 15 30 71 49 41 60
REMARK Flexibility Score: inf
ROOT
ATOM      1  C   UNL A   1      33.706  27.808  26.161  1.00  0.00     0.023 C 
ENDROOT
BRANCH   1   2
ATOM      2  C   UNL A   1      32.788  26.685  25.666  1.00  0.00     0.023 C 
BRANCH   2   3
ATOM      3  C   UNL A   1      33.187  25.289  26.148  1.00  0.00     0.116 C 
BRANCH   3   4
ATOM      4  N   UNL A   1      34.529  24.950  25.704  1.00  0.00    -0.355 N 
ATOM      5  C   UNL A   1      35.068  23.726  25.420  1.00  0.00     0.238 C 
ATOM      6  O   UNL A   1      36.267  23.660  25.158  1.00  0.00    -0.273 OA
ATOM      7  H   UNL A   1      35.140  25.714  25.590  1.00  0.00     0.163 HD
BRANCH   5   8
ATOM      8  C   UNL A   1      34.173  22.512  25.460  1.00  0.00     0.166 C 
ATOM      9  C   UNL A   1      33.785  20.192  25.279  1.00  0.00     0.193 C 
ATOM     10  C   UNL A   1      34.921  21.200  25.269  1.00  0.00     0.077 C 
ATOM     11  C   UNL A   1      32.619  20.937  24.597  1.00  0.00     0.148 C 
ATOM     12  N   UNL A   1      33.003  22.404  24.532  1.00  0.00    -0.182 NA
BRANCH   9  13
ATOM     13  O   UNL A   1      34.124  19.016  24.526  1.00  0.00    -0.461 OA
BRANCH  13  14
ATOM     14  C   UNL A   1      33.281  17.974  24.336  1.00  0.00     0.302 C 
ATOM     15  C   UNL A   1      33.592  17.020  23.222  1.00  0.00     0.139 C 
ATOM     16  O   UNL A   1      32.317  17.801  25.075  1.00  0.00    -0.253 OA
ENDBRANCH  13  14
ENDBRANCH   9  13
BRANCH  12  17
ATOM     17  S   UNL A   1      33.176  22.910  22.891  1.00  0.00     0.243 S 
ATOM     18  O   UNL A   1      34.591  23.022  22.610  1.00  0.00    -0.207 OA
ATOM     19  O   UNL A   1      32.348  22.018  22.106  1.00  0.00    -0.207 OA
BRANCH  17  20
ATOM     20  C   UNL A   1      32.438  24.522  22.744  1.00  0.00     0.082 A 
ATOM     21  C   UNL A   1      31.093  24.695  23.100  1.00  0.00     0.025 A 
ATOM     22  C   UNL A   1      33.128  25.552  22.093  1.00  0.00     0.025 A 
ATOM     23  C   UNL A   1      30.465  25.920  22.861  1.00  0.00     0.040 A 
ATOM     24  C   UNL A   1      32.507  26.786  21.891  1.00  0.00     0.040 A 
ATOM     25  C   UNL A   1      31.183  26.958  22.276  1.00  0.00     0.123 A 
ATOM     26  F   UNL A   1      30.583  28.136  22.063  1.00  0.00    -0.207 F 
ENDBRANCH  17  20
ENDBRANCH  12  17
ENDBRANCH   5   8
ENDBRANCH   3   4
ENDBRANCH   2   3
ENDBRANCH   1   2
BRANCH   1  27
ATOM     27  C   UNL A   1      33.358  28.356  27.543  1.00  0.00     0.116 C 
BRANCH  27  28
ATOM     28  N   UNL A   1      33.338  29.811  27.568  1.00  0.00    -0.352 N 
ATOM     29  C   UNL A   1      34.318  30.686  27.967  1.00  0.00     0.251 C 
ATOM     30  H   UNL A   1      32.502  30.227  27.252  1.00  0.00     0.163 HD
ATOM     31  O   UNL A   1      34.053  31.877  28.095  1.00  0.00    -0.269 OA
BRANCH  29  32
ATOM     32  C   UNL A   1      35.680  30.187  28.264  1.00  0.00     0.039 A 
ATOM     33  C   UNL A   1      36.632  30.175  27.242  1.00  0.00     0.014 A 
ATOM     34  C   UNL A   1      36.015  29.726  29.540  1.00  0.00     0.014 A 
ATOM     35  C   UNL A   1      37.938  29.759  27.516  1.00  0.00     0.010 A 
ATOM     36  C   UNL A   1      37.331  29.372  29.827  1.00  0.00     0.010 A 
ATOM     37  C   UNL A   1      38.306  29.384  28.818  1.00  0.00    -0.014 A 
BRANCH  37  38
ATOM     38  C   UNL A   1      39.705  29.005  29.144  1.00  0.00     0.031 A 
ATOM     39  C   UNL A   1      40.628  29.999  29.796  1.00  0.00     0.074 A 
ATOM     40  C   UNL A   1      40.162  27.784  28.801  1.00  0.00     0.049 A 
ATOM     41  N   UNL A   1      41.894  29.871  30.100  1.00  0.00    -0.248 NA
ATOM     42  C   UNL A   1      40.060  31.315  30.130  1.00  0.00     0.031 C 
ATOM     43  C   UNL A   1      39.379  26.741  28.135  1.00  0.00     0.029 A 
ATOM     44  N   UNL A   1      41.401  27.217  28.960  1.00  0.00    -0.354 N 
ATOM     45  C   UNL A   1      42.278  31.090  30.646  1.00  0.00     0.074 A 
ATOM     46  C   UNL A   1      41.122  31.960  30.591  1.00  0.00     0.031 C 
ATOM     47  C   UNL A   1      40.147  25.652  27.969  1.00  0.00     0.029 A 
ATOM     48  C   UNL A   1      41.486  25.932  28.477  1.00  0.00     0.049 A 
ATOM     49  H   UNL A   1      42.159  27.686  29.380  1.00  0.00     0.167 HD
ATOM     50  C   UNL A   1      43.478  31.450  31.162  1.00  0.00     0.031 A 
ATOM     51  C   UNL A   1      42.525  25.075  28.443  1.00  0.00     0.031 A 
ATOM     52  C   UNL A   1      44.624  30.582  31.227  1.00  0.00     0.049 A 
ATOM     53  C   UNL A   1      43.851  25.501  29.012  1.00  0.00     0.074 A 
ATOM     54  C   UNL A   1      45.869  30.840  31.773  1.00  0.00     0.029 A 
ATOM     55  N   UNL A   1      44.666  29.288  30.731  1.00  0.00    -0.354 N 
ATOM     56  N   UNL A   1      44.179  26.642  29.567  1.00  0.00    -0.248 NA
ATOM     57  C   UNL A   1      44.941  24.518  28.959  1.00  0.00     0.031 C 
ATOM     58  C   UNL A   1      46.677  29.716  31.572  1.00  0.00     0.029 A 
ATOM     59  C   UNL A   1      45.920  28.740  30.945  1.00  0.00     0.049 A 
ATOM     60  H   UNL A   1      43.915  28.826  30.292  1.00  0.00     0.167 HD
ATOM     61  C   UNL A   1      45.508  26.506  29.954  1.00  0.00     0.074 A 
ATOM     62  C   UNL A   1      45.917  25.167  29.580  1.00  0.00     0.031 C 
ATOM     63  C   UNL A   1      46.314  27.407  30.567  1.00  0.00     0.031 A 
BRANCH  50  64
ATOM     64  C   UNL A   1      43.611  32.850  31.696  1.00  0.00    -0.014 A 
ATOM     65  C   UNL A   1      43.354  33.135  33.050  1.00  0.00     0.010 A 
ATOM     66  C   UNL A   1      44.037  33.888  30.848  1.00  0.00     0.010 A 
ATOM     67  C   UNL A   1      43.479  34.439  33.536  1.00  0.00     0.020 A 
ATOM     68  C   UNL A   1      44.188  35.190  31.336  1.00  0.00     0.020 A 
ATOM     69  C   UNL A   1      43.892  35.460  32.673  1.00  0.00     0.054 A 
BRANCH  69  70
ATOM     70  S   UNL A   1      44.066  37.140  33.335  1.00  0.00     0.124 S 
ATOM     71  O   UNL A   1      42.856  37.270  34.143  1.00  0.00    -0.237 OA
ATOM     72  O   UNL A   1      45.316  37.062  34.086  1.00  0.00    -0.237 OA
ATOM     73  O   UNL A   1      44.111  37.979  32.140  1.00  0.00    -0.744 OA
ENDBRANCH  69  70
ENDBRANCH  50  64
BRANCH  51  74
ATOM     74  C   UNL A   1      42.347  23.715  27.865  1.00  0.00    -0.014 A 
ATOM     75  C   UNL A   1      42.623  23.479  26.507  1.00  0.00     0.010 A 
ATOM     76  C   UNL A   1      41.916  22.647  28.673  1.00  0.00     0.010 A 
ATOM     77  C   UNL A   1      42.456  22.204  25.962  1.00  0.00     0.020 A 
ATOM     78  C   UNL A   1      41.772  21.364  28.138  1.00  0.00     0.020 A 
ATOM     79  C   UNL A   1      42.034  21.152  26.782  1.00  0.00     0.054 A 
BRANCH  79  80
ATOM     80  S   UNL A   1      41.880  19.492  26.067  1.00  0.00     0.124 S 
ATOM     81  O   UNL A   1      40.451  19.415  25.783  1.00  0.00    -0.237 OA
ATOM     82  O   UNL A   1      42.755  19.567  24.900  1.00  0.00    -0.237 OA
ATOM     83  O   UNL A   1      42.357  18.616  27.136  1.00  0.00    -0.744 OA
ENDBRANCH  79  80
ENDBRANCH  51  74
BRANCH  63  84
ATOM     84  C   UNL A   1      47.712  26.966  30.904  1.00  0.00    -0.014 A 
ATOM     85  C   UNL A   1      48.772  27.151  29.999  1.00  0.00     0.010 A 
ATOM     86  C   UNL A   1      47.977  26.406  32.167  1.00  0.00     0.010 A 
ATOM     87  C   UNL A   1      50.069  26.754  30.340  1.00  0.00     0.020 A 
ATOM     88  C   UNL A   1      49.275  26.031  32.522  1.00  0.00     0.020 A 
ATOM     89  C   UNL A   1      50.311  26.195  31.600  1.00  0.00     0.054 A 
BRANCH  89  90
ATOM     90  S   UNL A   1      52.008  25.727  32.037  1.00  0.00     0.124 S 
ATOM     91  O   UNL A   1      52.766  26.230  30.894  1.00  0.00    -0.237 OA
ATOM     92  O   UNL A   1      52.224  26.438  33.296  1.00  0.00    -0.237 OA
ATOM     93  O   UNL A   1      51.947  24.273  32.153  1.00  0.00    -0.744 OA
ENDBRANCH  89  90
ENDBRANCH  63  84
ENDBRANCH  37  38
ENDBRANCH  29  32
ENDBRANCH  27  28
ENDBRANCH   1  27
TORSDOF 18
ENDMDL
MODEL 2
REMARK VINA RESULT:     -11.1      1.723      2.471
REMARK SMILES CC(=O)O[C@H]1C[C@@H](C(=O)NCCCCNC(=O)c2ccc(-c3c4nc(c(-c5ccc(S(=O)(=O)[O-])cc5)c5ccc([nH]5)c(-c5ccc(S(=O)(=O)[O-])cc5)c5nc(c(-c6ccc(S(=O)(=O)[O-])cc6)c6ccc3[nH]6)C=C5)C=C4)cc2)N(S(=O)(=O)c2ccc(F)cc2)C1
REMARK SMILES IDX 13 1 12 2 11 3 10 4 8 5 9 6 7 8 5 9 6 10 89 11 78 12 4 13
REMARK SMILES IDX 2 14 1 15 3 16 79 17 80 18 81 19 82 20 83 21 88 22 84 23
REMARK SMILES IDX 87 24 85 25 86 26 14 27 15 28 16 29 17 31 18 32 19 33 77 34
REMARK SMILES IDX 20 35 76 36 21 37 22 38 23 39 70 40 24 41 75 42 69 43 71 44
REMARK SMILES IDX 25 45 74 46 68 47 67 48 26 50 56 51 37 52 55 53 38 54 41 55
REMARK SMILES IDX 54 56 72 57 39 58 40 59 53 61 73 62 42 63 27 64 28 65 36 66
REMARK SMILES IDX 29 67 35 68 30 69 31 70 32 71 33 72 34 73 57 74 58 75 66 76
REMARK SMILES IDX 59 77 65 78 60 79 61 80 62 81 63 82 64 83 43 84 44 85 52 86
REMARK SMILES IDX 45 87 51 88 46 89 47 90 48 91 49 92 50 93
REMARK H PARENT 10 7 15 30 71 49 41 60
REMARK Flexibility Score: inf
ROOT
ATOM      1  C   UNL A   1      32.681  27.708  27.012  1.00  0.00     0.023 C 
ENDROOT
BRANCH   1   2
ATOM      2  C   UNL A   1      31.707  27.228  25.931  1.00  0.00     0.023 C 
BRANCH   2   3
ATOM      3  C   UNL A   1      31.603  25.707  25.810  1.00  0.00     0.116 C 
BRANCH   3   4
ATOM      4  N   UNL A   1      32.669  25.052  26.550  1.00  0.00    -0.355 N 
ATOM      5  C   UNL A   1      33.103  23.758  26.488  1.00  0.00     0.238 C 
ATOM      6  O   UNL A   1      33.961  23.387  27.286  1.00  0.00    -0.273 OA
ATOM      7  H   UNL A   1      33.150  25.626  27.190  1.00  0.00     0.163 HD
BRANCH   5   8
ATOM      8  C   UNL A   1      32.498  22.838  25.455  1.00  0.00     0.166 C 
ATOM      9  C   UNL A   1      32.299  20.753  24.370  1.00  0.00     0.193 C 
ATOM     10  C   UNL A   1      33.006  21.406  25.546  1.00  0.00     0.077 C 
ATOM     11  C   UNL A   1      32.243  21.865  23.304  1.00  0.00     0.148 C 
ATOM     12  N   UNL A   1      32.594  23.169  23.998  1.00  0.00    -0.182 NA
BRANCH   9  13
ATOM     13  O   UNL A   1      33.046  19.631  23.872  1.00  0.00    -0.461 OA
BRANCH  13  14
ATOM     14  C   UNL A   1      32.802  18.346  24.225  1.00  0.00     0.302 C 
ATOM     15  C   UNL A   1      33.285  17.266  23.305  1.00  0.00     0.139 C 
ATOM     16  O   UNL A   1      32.236  18.080  25.281  1.00  0.00    -0.253 OA
ENDBRANCH  13  14
ENDBRANCH   9  13
BRANCH  12  17
ATOM     17  S   UNL A   1      34.071  23.806  23.372  1.00  0.00     0.243 S 
ATOM     18  O   UNL A   1      34.213  23.336  22.011  1.00  0.00    -0.207 OA
ATOM     19  O   UNL A   1      34.046  25.227  23.650  1.00  0.00    -0.207 OA
BRANCH  17  20
ATOM     20  C   UNL A   1      35.401  23.138  24.346  1.00  0.00     0.082 A 
ATOM     21  C   UNL A   1      36.172  24.002  25.137  1.00  0.00     0.025 A 
ATOM     22  C   UNL A   1      35.800  21.807  24.170  1.00  0.00     0.025 A 
ATOM     23  C   UNL A   1      37.302  23.512  25.798  1.00  0.00     0.040 A 
ATOM     24  C   UNL A   1      36.906  21.314  24.863  1.00  0.00     0.040 A 
ATOM     25  C   UNL A   1      37.647  22.171  25.669  1.00  0.00     0.123 A 
ATOM     26  F   UNL A   1      38.721  21.702  26.317  1.00  0.00    -0.207 F 
ENDBRANCH  17  20
ENDBRANCH  12  17
ENDBRANCH   5   8
ENDBRANCH   3   4
ENDBRANCH   2   3
ENDBRANCH   1   2
BRANCH   1  27
ATOM     27  C   UNL A   1      33.826  28.579  26.502  1.00  0.00     0.116 C 
BRANCH  27  28
ATOM     28  N   UNL A   1      33.717  29.955  26.960  1.00  0.00    -0.352 N 
ATOM     29  C   UNL A   1      34.569  30.672  27.763  1.00  0.00     0.251 C 
ATOM     30  H   UNL A   1      32.918  30.441  26.650  1.00  0.00     0.163 HD
ATOM     31  O   UNL A   1      34.218  31.765  28.199  1.00  0.00    -0.269 OA
BRANCH  29  32
ATOM     32  C   UNL A   1      35.894  30.118  28.119  1.00  0.00     0.039 A 
ATOM     33  C   UNL A   1      36.925  30.173  27.177  1.00  0.00     0.014 A 
ATOM     34  C   UNL A   1      36.119  29.538  29.371  1.00  0.00     0.014 A 
ATOM     35  C   UNL A   1      38.198  29.703  27.513  1.00  0.00     0.010 A 
ATOM     36  C   UNL A   1      37.402  29.129  29.727  1.00  0.00     0.010 A 
ATOM     37  C   UNL A   1      38.455  29.206  28.802  1.00  0.00    -0.014 A 
BRANCH  37  38
ATOM     38  C   UNL A   1      39.816  28.767  29.201  1.00  0.00     0.031 A 
ATOM     39  C   UNL A   1      40.729  29.704  29.944  1.00  0.00     0.074 A 
ATOM     40  C   UNL A   1      40.254  27.543  28.842  1.00  0.00     0.049 A 
ATOM     41  N   UNL A   1      41.968  29.521  30.322  1.00  0.00    -0.248 NA
ATOM     42  C   UNL A   1      40.184  31.027  30.290  1.00  0.00     0.031 C 
ATOM     43  C   UNL A   1      39.479  26.551  28.091  1.00  0.00     0.029 A 
ATOM     44  N   UNL A   1      41.461  26.927  29.057  1.00  0.00    -0.354 N 
ATOM     45  C   UNL A   1      42.356  30.706  30.935  1.00  0.00     0.074 A 
ATOM     46  C   UNL A   1      41.236  31.618  30.839  1.00  0.00     0.031 C 
ATOM     47  C   UNL A   1      40.220  25.443  27.933  1.00  0.00     0.029 A 
ATOM     48  C   UNL A   1      41.533  25.657  28.533  1.00  0.00     0.049 A 
ATOM     49  H   UNL A   1      42.205  27.354  29.540  1.00  0.00     0.167 HD
ATOM     50  C   UNL A   1      43.533  31.005  31.537  1.00  0.00     0.031 A 
ATOM     51  C   UNL A   1      42.543  24.766  28.533  1.00  0.00     0.031 A 
ATOM     52  C   UNL A   1      44.642  30.095  31.642  1.00  0.00     0.049 A 
ATOM     53  C   UNL A   1      43.843  25.124  29.199  1.00  0.00     0.074 A 
ATOM     54  C   UNL A   1      45.858  30.290  32.274  1.00  0.00     0.029 A 
ATOM     55  N   UNL A   1      44.673  28.818  31.103  1.00  0.00    -0.354 N 
ATOM     56  N   UNL A   1      44.173  26.233  29.815  1.00  0.00    -0.248 NA
ATOM     57  C   UNL A   1      44.901  24.105  29.178  1.00  0.00     0.031 C 
ATOM     58  C   UNL A   1      46.640  29.146  32.082  1.00  0.00     0.029 A 
ATOM     59  C   UNL A   1      45.892  28.219  31.374  1.00  0.00     0.049 A 
ATOM     60  H   UNL A   1      43.936  28.399  30.601  1.00  0.00     0.167 HD
ATOM     61  C   UNL A   1      45.469  26.036  30.279  1.00  0.00     0.074 A 
ATOM     62  C   UNL A   1      45.857  24.698  29.882  1.00  0.00     0.031 C 
ATOM     63  C   UNL A   1      46.264  26.886  30.973  1.00  0.00     0.031 A 
BRANCH  50  64
ATOM     64  C   UNL A   1      43.678  32.381  32.130  1.00  0.00    -0.014 A 
ATOM     65  C   UNL A   1      43.430  32.610  33.496  1.00  0.00     0.010 A 
ATOM     66  C   UNL A   1      44.106  33.451  31.324  1.00  0.00     0.010 A 
ATOM     67  C   UNL A   1      43.567  33.891  34.036  1.00  0.00     0.020 A 
ATOM     68  C   UNL A   1      44.269  34.730  31.865  1.00  0.00     0.020 A 
ATOM     69  C   UNL A   1      43.982  34.945  33.215  1.00  0.00     0.054 A 
BRANCH  69  70
ATOM     70  S   UNL A   1      44.171  36.594  33.946  1.00  0.00     0.124 S 
ATOM     71  O   UNL A   1      45.338  37.107  33.230  1.00  0.00    -0.237 OA
ATOM     72  O   UNL A   1      42.903  37.238  33.619  1.00  0.00    -0.237 OA
ATOM     73  O   UNL A   1      44.382  36.322  35.365  1.00  0.00    -0.744 OA
ENDBRANCH  69  70
ENDBRANCH  50  64
BRANCH  51  74
ATOM     74  C   UNL A   1      42.356  23.434  27.896  1.00  0.00    -0.014 A 
ATOM     75  C   UNL A   1      42.841  23.193  26.599  1.00  0.00     0.010 A 
ATOM     76  C   UNL A   1      41.708  22.395  28.589  1.00  0.00     0.010 A 
ATOM     77  C   UNL A   1      42.667  21.944  25.998  1.00  0.00     0.020 A 
ATOM     78  C   UNL A   1      41.555  21.136  28.002  1.00  0.00     0.020 A 
ATOM     79  C   UNL A   1      42.027  20.921  26.705  1.00  0.00     0.054 A 
BRANCH  79  80
ATOM     80  S   UNL A   1      41.864  19.290  25.929  1.00  0.00     0.124 S 
ATOM     81  O   UNL A   1      40.442  19.250  25.601  1.00  0.00    -0.237 OA
ATOM     82  O   UNL A   1      42.774  19.387  24.791  1.00  0.00    -0.237 OA
ATOM     83  O   UNL A   1      42.293  18.369  26.980  1.00  0.00    -0.744 OA
ENDBRANCH  79  80
ENDBRANCH  51  74
BRANCH  63  84
ATOM     84  C   UNL A   1      47.623  26.385  31.380  1.00  0.00    -0.014 A 
ATOM     85  C   UNL A   1      47.838  25.806  32.643  1.00  0.00     0.010 A 
ATOM     86  C   UNL A   1      48.689  26.449  30.464  1.00  0.00     0.010 A 
ATOM     87  C   UNL A   1      49.103  25.326  32.994  1.00  0.00     0.020 A 
ATOM     88  C   UNL A   1      49.948  25.948  30.801  1.00  0.00     0.020 A 
ATOM     89  C   UNL A   1      50.151  25.402  32.070  1.00  0.00     0.054 A 
BRANCH  89  90
ATOM     90  S   UNL A   1      51.774  24.735  32.531  1.00  0.00     0.124 S 
ATOM     91  O   UNL A   1      51.851  25.077  33.949  1.00  0.00    -0.237 OA
ATOM     92  O   UNL A   1      51.632  23.311  32.236  1.00  0.00    -0.237 OA
ATOM     93  O   UNL A   1      52.703  25.454  31.664  1.00  0.00    -0.744 OA
ENDBRANCH  89  90
ENDBRANCH  63  84
ENDBRANCH  37  38
ENDBRANCH  29  32
ENDBRANCH  27  28
ENDBRANCH   1  27
TORSDOF 18
ENDMDL
MODEL 3
REMARK VINA RESULT:     -10.9      3.075      9.334
REMARK SMILES CC(=O)O[C@H]1C[C@@H](C(=O)NCCCCNC(=O)c2ccc(-c3c4nc(c(-c5ccc(S(=O)(=O)[O-])cc5)c5ccc([nH]5)c(-c5ccc(S(=O)(=O)[O-])cc5)c5nc(c(-c6ccc(S(=O)(=O)[O-])cc6)c6ccc3[nH]6)C=C5)C=C4)cc2)N(S(=O)(=O)c2ccc(F)cc2)C1
REMARK SMILES IDX 13 1 12 2 11 3 10 4 8 5 9 6 7 8 5 9 6 10 89 11 78 12 4 13
REMARK SMILES IDX 2 14 1 15 3 16 79 17 80 18 81 19 82 20 83 21 88 22 84 23
REMARK SMILES IDX 87 24 85 25 86 26 14 27 15 28 16 29 17 31 18 32 19 33 77 34
REMARK SMILES IDX 20 35 76 36 21 37 22 38 23 39 70 40 24 41 75 42 69 43 71 44
REMARK SMILES IDX 25 45 74 46 68 47 67 48 26 50 56 51 37 52 55 53 38 54 41 55
REMARK SMILES IDX 54 56 72 57 39 58 40 59 53 61 73 62 42 63 27 64 28 65 36 66
REMARK SMILES IDX 29 67 35 68 30 69 31 70 32 71 33 72 34 73 57 74 58 75 66 76
REMARK SMILES IDX 59 77 65 78 60 79 61 80 62 81 63 82 64 83 43 84 44 85 52 86
REMARK SMILES IDX 45 87 51 88 46 89 47 90 48 91 49 92 50 93
REMARK H PARENT 10 7 15 30 71 49 41 60
REMARK Flexibility Score: inf
ROOT
ATOM      1  C   UNL A   1      35.451  23.294  24.743  1.00  0.00     0.023 C 
ENDROOT
BRANCH   1   2
ATOM      2  C   UNL A   1      34.864  23.468  23.338  1.00  0.00     0.023 C 
BRANCH   2   3
ATOM      3  C   UNL A   1      33.992  24.714  23.171  1.00  0.00     0.116 C 
BRANCH   3   4
ATOM      4  N   UNL A   1      34.187  25.637  24.278  1.00  0.00    -0.355 N 
ATOM      5  C   UNL A   1      33.545  26.811  24.555  1.00  0.00     0.238 C 
ATOM      6  O   UNL A   1      33.945  27.491  25.498  1.00  0.00    -0.273 OA
ATOM      7  H   UNL A   1      34.885  25.378  24.923  1.00  0.00     0.163 HD
BRANCH   5   8
ATOM      8  C   UNL A   1      32.386  27.228  23.681  1.00  0.00     0.166 C 
ATOM      9  C   UNL A   1      30.794  28.796  22.927  1.00  0.00     0.193 C 
ATOM     10  C   UNL A   1      31.999  28.691  23.846  1.00  0.00     0.077 C 
ATOM     11  C   UNL A   1      30.103  27.423  23.059  1.00  0.00     0.148 C 
ATOM     12  N   UNL A   1      31.083  26.494  23.752  1.00  0.00    -0.182 NA
BRANCH   9  13
ATOM     13  O   UNL A   1      29.902  29.838  23.355  1.00  0.00    -0.461 OA
BRANCH  13  14
ATOM     14  C   UNL A   1      28.928  30.364  22.574  1.00  0.00     0.302 C 
ATOM     15  C   UNL A   1      27.842  31.147  23.247  1.00  0.00     0.139 C 
ATOM     16  O   UNL A   1      28.958  30.230  21.355  1.00  0.00    -0.253 OA
ENDBRANCH  13  14
ENDBRANCH   9  13
BRANCH  12  17
ATOM     17  S   UNL A   1      30.469  26.009  25.290  1.00  0.00     0.243 S 
ATOM     18  O   UNL A   1      30.964  26.943  26.278  1.00  0.00    -0.207 OA
ATOM     19  O   UNL A   1      29.043  25.825  25.115  1.00  0.00    -0.207 OA
BRANCH  17  20
ATOM     20  C   UNL A   1      31.131  24.398  25.651  1.00  0.00     0.082 A 
ATOM     21  C   UNL A   1      31.922  24.221  26.795  1.00  0.00     0.025 A 
ATOM     22  C   UNL A   1      31.034  23.371  24.703  1.00  0.00     0.025 A 
ATOM     23  C   UNL A   1      32.558  22.997  27.016  1.00  0.00     0.040 A 
ATOM     24  C   UNL A   1      31.640  22.138  24.947  1.00  0.00     0.040 A 
ATOM     25  C   UNL A   1      32.397  21.963  26.100  1.00  0.00     0.123 A 
ATOM     26  F   UNL A   1      32.995  20.786  26.323  1.00  0.00    -0.207 F 
ENDBRANCH  17  20
ENDBRANCH  12  17
ENDBRANCH   5   8
ENDBRANCH   3   4
ENDBRANCH   2   3
ENDBRANCH   1   2
BRANCH   1  27
ATOM     27  C   UNL A   1      36.897  23.757  24.894  1.00  0.00     0.116 C 
BRANCH  27  28
ATOM     28  N   UNL A   1      37.770  22.690  25.360  1.00  0.00    -0.352 N 
ATOM     29  C   UNL A   1      38.921  22.774  26.104  1.00  0.00     0.251 C 
ATOM     30  H   UNL A   1      37.495  21.779  25.107  1.00  0.00     0.163 HD
ATOM     31  O   UNL A   1      39.628  21.780  26.244  1.00  0.00    -0.269 OA
BRANCH  29  32
ATOM     32  C   UNL A   1      39.318  24.063  26.713  1.00  0.00     0.039 A 
ATOM     33  C   UNL A   1      38.928  24.338  28.027  1.00  0.00     0.014 A 
ATOM     34  C   UNL A   1      40.063  25.000  25.992  1.00  0.00     0.014 A 
ATOM     35  C   UNL A   1      39.339  25.526  28.637  1.00  0.00     0.010 A 
ATOM     36  C   UNL A   1      40.525  26.154  26.622  1.00  0.00     0.010 A 
ATOM     37  C   UNL A   1      40.167  26.429  27.951  1.00  0.00    -0.014 A 
BRANCH  37  38
ATOM     38  C   UNL A   1      40.670  27.664  28.606  1.00  0.00     0.031 A 
ATOM     39  C   UNL A   1      42.079  27.724  29.130  1.00  0.00     0.074 A 
ATOM     40  C   UNL A   1      39.839  28.711  28.782  1.00  0.00     0.049 A 
ATOM     41  N   UNL A   1      42.675  28.689  29.781  1.00  0.00    -0.248 NA
ATOM     42  C   UNL A   1      42.921  26.537  28.911  1.00  0.00     0.031 C 
ATOM     43  C   UNL A   1      38.441  28.767  28.349  1.00  0.00     0.029 A 
ATOM     44  N   UNL A   1      40.051  29.929  29.377  1.00  0.00    -0.354 N 
ATOM     45  C   UNL A   1      43.954  28.223  30.063  1.00  0.00     0.074 A 
ATOM     46  C   UNL A   1      44.033  26.872  29.551  1.00  0.00     0.031 C 
ATOM     47  C   UNL A   1      37.929  29.967  28.669  1.00  0.00     0.029 A 
ATOM     48  C   UNL A   1      38.947  30.750  29.363  1.00  0.00     0.049 A 
ATOM     49  H   UNL A   1      40.912  30.191  29.777  1.00  0.00     0.167 HD
ATOM     50  C   UNL A   1      44.976  28.866  30.679  1.00  0.00     0.031 A 
ATOM     51  C   UNL A   1      38.772  31.991  29.855  1.00  0.00     0.031 A 
ATOM     52  C   UNL A   1      44.900  30.213  31.179  1.00  0.00     0.049 A 
ATOM     53  C   UNL A   1      39.918  32.680  30.543  1.00  0.00     0.074 A 
ATOM     54  C   UNL A   1      45.897  30.966  31.775  1.00  0.00     0.029 A 
ATOM     55  N   UNL A   1      43.767  31.010  31.140  1.00  0.00    -0.354 N 
ATOM     56  N   UNL A   1      41.134  32.239  30.757  1.00  0.00    -0.248 NA
ATOM     57  C   UNL A   1      39.670  34.038  31.046  1.00  0.00     0.031 C 
ATOM     58  C   UNL A   1      45.354  32.204  32.134  1.00  0.00     0.029 A 
ATOM     59  C   UNL A   1      44.034  32.241  31.716  1.00  0.00     0.049 A 
ATOM     60  H   UNL A   1      42.899  30.740  30.759  1.00  0.00     0.167 HD
ATOM     61  C   UNL A   1      41.805  33.276  31.397  1.00  0.00     0.074 A 
ATOM     62  C   UNL A   1      40.862  34.369  31.523  1.00  0.00     0.031 C 
ATOM     63  C   UNL A   1      43.086  33.319  31.836  1.00  0.00     0.031 A 
BRANCH  50  64
ATOM     64  C   UNL A   1      46.267  28.111  30.847  1.00  0.00    -0.014 A 
ATOM     65  C   UNL A   1      46.496  27.313  31.983  1.00  0.00     0.010 A 
ATOM     66  C   UNL A   1      47.248  28.166  29.840  1.00  0.00     0.010 A 
ATOM     67  C   UNL A   1      47.699  26.617  32.128  1.00  0.00     0.020 A 
ATOM     68  C   UNL A   1      48.443  27.452  29.970  1.00  0.00     0.020 A 
ATOM     69  C   UNL A   1      48.667  26.695  31.122  1.00  0.00     0.054 A 
BRANCH  69  70
ATOM     70  S   UNL A   1      50.212  25.766  31.328  1.00  0.00     0.124 S 
ATOM     71  O   UNL A   1      51.151  26.823  31.694  1.00  0.00    -0.237 OA
ATOM     72  O   UNL A   1      49.881  24.824  32.394  1.00  0.00    -0.237 OA
ATOM     73  O   UNL A   1      50.431  25.165  30.015  1.00  0.00    -0.744 OA
ENDBRANCH  69  70
ENDBRANCH  50  64
BRANCH  51  74
ATOM     74  C   UNL A   1      37.460  32.674  29.695  1.00  0.00    -0.014 A 
ATOM     75  C   UNL A   1      36.546  32.715  30.762  1.00  0.00     0.010 A 
ATOM     76  C   UNL A   1      37.123  33.300  28.481  1.00  0.00     0.010 A 
ATOM     77  C   UNL A   1      35.313  33.355  30.615  1.00  0.00     0.020 A 
ATOM     78  C   UNL A   1      35.901  33.964  28.338  1.00  0.00     0.020 A 
ATOM     79  C   UNL A   1      34.999  33.978  29.404  1.00  0.00     0.054 A 
BRANCH  79  80
ATOM     80  S   UNL A   1      33.417  34.854  29.253  1.00  0.00     0.124 S 
ATOM     81  O   UNL A   1      32.718  34.048  28.258  1.00  0.00    -0.237 OA
ATOM     82  O   UNL A   1      32.886  34.784  30.612  1.00  0.00    -0.237 OA
ATOM     83  O   UNL A   1      33.810  36.192  28.817  1.00  0.00    -0.744 OA
ENDBRANCH  79  80
ENDBRANCH  51  74
BRANCH  63  84
ATOM     84  C   UNL A   1      43.559  34.602  32.465  1.00  0.00    -0.014 A 
ATOM     85  C   UNL A   1      44.093  35.642  31.686  1.00  0.00     0.010 A 
ATOM     86  C   UNL A   1      43.416  34.786  33.853  1.00  0.00     0.010 A 
ATOM     87  C   UNL A   1      44.507  36.834  32.288  1.00  0.00     0.020 A 
ATOM     88  C   UNL A   1      43.804  35.985  34.455  1.00  0.00     0.020 A 
ATOM     89  C   UNL A   1      44.360  36.997  33.669  1.00  0.00     0.054 A 
BRANCH  89  90
ATOM     90  S   UNL A   1      44.864  38.569  34.423  1.00  0.00     0.124 S 
ATOM     91  O   UNL A   1      46.069  38.183  35.152  1.00  0.00    -0.237 OA
ATOM     92  O   UNL A   1      45.080  39.428  33.261  1.00  0.00    -0.237 OA
ATOM     93  O   UNL A   1      43.721  38.935  35.256  1.00  0.00    -0.744 OA
ENDBRANCH  89  90
ENDBRANCH  63  84
ENDBRANCH  37  38
ENDBRANCH  29  32
ENDBRANCH  27  28
ENDBRANCH   1  27
TORSDOF 18
ENDMDL
