MODEL 1
REMARK VINA RESULT:     -11.2      0.000      0.000
REMARK SMILES C[C@@H]1CCC[C@@H](C)C1[N@H+]1CCO[C@H](CC(=O)NCCCCNC(=O)c2ccc(-c3c4nc(c(-c5ccc(S(=O)(=O)[O-])cc5)c5ccc([nH]5)c(-c5ccc(S(=O)(=O)[O-])cc5)c5nc(c(-c6ccc(S(=O)(=O)[O-])cc6)c6ccc3[nH]6)C=C5)C=C4)cc2)C1
REMARK SMILES IDX 20 1 19 2 18 3 17 4 15 5 16 6 14 8 13 9 9 10 10 11 85 12
REMARK SMILES IDX 11 14 12 15 8 16 1 17 2 18 3 19 4 20 6 21 5 22 7 23 21 24
REMARK SMILES IDX 22 25 23 26 24 28 25 29 26 30 84 31 27 32 83 33 28 34 29 35
REMARK SMILES IDX 30 36 77 37 31 38 82 39 76 40 78 41 32 42 81 43 75 44 74 45
REMARK SMILES IDX 33 47 63 48 44 49 62 50 45 51 48 52 61 53 79 54 46 55 47 56
REMARK SMILES IDX 60 58 80 59 49 60 34 61 35 62 43 63 36 64 42 65 37 66 38 67
REMARK SMILES IDX 39 68 40 69 41 70 64 71 65 72 73 73 66 74 72 75 67 76 68 77
REMARK SMILES IDX 69 78 70 79 71 80 50 81 51 82 59 83 52 84 58 85 53 86 54 87
REMARK SMILES IDX 55 88 56 89 57 90
REMARK H PARENT 17 7 9 13 22 27 78 46 48 57
REMARK Flexibility Score: inf
ROOT
ATOM      1  C   UNL A   1      33.176  28.167  25.834  1.00  0.00     0.023 C 
ENDROOT
BRANCH   1   2
ATOM      2  C   UNL A   1      32.740  29.443  25.123  1.00  0.00     0.023 C 
BRANCH   2   3
ATOM      3  C   UNL A   1      31.235  29.635  24.976  1.00  0.00     0.116 C 
BRANCH   3   4
ATOM      4  N   UNL A   1      30.798  29.746  23.598  1.00  0.00    -0.356 N 
ATOM      5  C   UNL A   1      30.208  28.814  22.794  1.00  0.00     0.222 C 
ATOM      6  O   UNL A   1      29.882  29.132  21.650  1.00  0.00    -0.275 OA
ATOM      7  H   UNL A   1      30.948  30.624  23.179  1.00  0.00     0.163 HD
BRANCH   5   8
ATOM      8  C   UNL A   1      29.905  27.436  23.332  1.00  0.00     0.138 C 
BRANCH   8   9
ATOM      9  C   UNL A   1      30.999  26.379  23.119  1.00  0.00     0.182 C 
ATOM     10  N   UNL A   1      32.276  24.593  24.391  1.00  0.00    -0.328 N 
ATOM     11  C   UNL A   1      33.491  25.221  23.880  1.00  0.00     0.291 C 
ATOM     12  C   UNL A   1      31.192  25.580  24.438  1.00  0.00     0.295 C 
ATOM     13  H   UNL A   1      32.598  24.303  25.314  1.00  0.00     0.348 HD
ATOM     14  C   UNL A   1      33.324  26.058  22.603  1.00  0.00     0.222 C 
ATOM     15  O   UNL A   1      32.220  26.966  22.657  1.00  0.00    -0.366 OA
BRANCH  10  16
ATOM     16  C   UNL A   1      31.874  23.204  24.103  1.00  0.00     0.189 C 
ATOM     17  C   UNL A   1      32.004  21.274  22.410  1.00  0.00     0.014 C 
ATOM     18  C   UNL A   1      32.773  22.410  23.106  1.00  0.00     0.045 C 
ATOM     19  C   UNL A   1      34.036  21.857  23.770  1.00  0.00     0.009 C 
ATOM     20  C   UNL A   1      33.775  21.081  25.059  1.00  0.00     0.001 C 
ATOM     21  C   UNL A   1      31.536  22.293  25.319  1.00  0.00     0.045 C 
ATOM     22  C   UNL A   1      32.780  21.730  26.022  1.00  0.00     0.009 C 
ATOM     23  C   UNL A   1      30.530  22.919  26.291  1.00  0.00     0.014 C 
ENDBRANCH  10  16
ENDBRANCH   8   9
ENDBRANCH   5   8
ENDBRANCH   3   4
ENDBRANCH   2   3
ENDBRANCH   1   2
BRANCH   1  24
ATOM     24  C   UNL A   1      33.621  28.429  27.257  1.00  0.00     0.116 C 
BRANCH  24  25
ATOM     25  N   UNL A   1      33.498  29.833  27.628  1.00  0.00    -0.352 N 
ATOM     26  C   UNL A   1      34.459  30.652  28.174  1.00  0.00     0.251 C 
ATOM     27  H   UNL A   1      32.619  30.247  27.468  1.00  0.00     0.163 HD
ATOM     28  O   UNL A   1      34.192  31.783  28.533  1.00  0.00    -0.269 OA
BRANCH  26  29
ATOM     29  C   UNL A   1      35.806  30.084  28.364  1.00  0.00     0.039 A 
ATOM     30  C   UNL A   1      36.708  30.130  27.301  1.00  0.00     0.014 A 
ATOM     31  C   UNL A   1      36.196  29.627  29.623  1.00  0.00     0.014 A 
ATOM     32  C   UNL A   1      38.034  29.768  27.524  1.00  0.00     0.010 A 
ATOM     33  C   UNL A   1      37.536  29.370  29.867  1.00  0.00     0.010 A 
ATOM     34  C   UNL A   1      38.462  29.420  28.816  1.00  0.00    -0.014 A 
BRANCH  34  35
ATOM     35  C   UNL A   1      39.871  29.056  29.089  1.00  0.00     0.031 A 
ATOM     36  C   UNL A   1      40.786  30.081  29.702  1.00  0.00     0.074 A 
ATOM     37  C   UNL A   1      40.334  27.845  28.725  1.00  0.00     0.049 A 
ATOM     38  N   UNL A   1      42.066  29.998  29.951  1.00  0.00    -0.248 NA
ATOM     39  C   UNL A   1      40.192  31.388  30.040  1.00  0.00     0.031 C 
ATOM     40  C   UNL A   1      39.551  26.795  28.069  1.00  0.00     0.029 A 
ATOM     41  N   UNL A   1      41.583  27.294  28.855  1.00  0.00    -0.354 N 
ATOM     42  C   UNL A   1      42.432  31.245  30.444  1.00  0.00     0.074 A 
ATOM     43  C   UNL A   1      41.258  32.085  30.400  1.00  0.00     0.031 C 
ATOM     44  C   UNL A   1      40.329  25.714  27.888  1.00  0.00     0.029 A 
ATOM     45  C   UNL A   1      41.670  26.006  28.380  1.00  0.00     0.049 A 
ATOM     46  H   UNL A   1      42.346  27.775  29.249  1.00  0.00     0.167 HD
ATOM     47  C   UNL A   1      43.632  31.646  30.922  1.00  0.00     0.031 A 
ATOM     48  C   UNL A   1      42.715  25.158  28.353  1.00  0.00     0.031 A 
ATOM     49  C   UNL A   1      44.782  30.789  31.001  1.00  0.00     0.049 A 
ATOM     50  C   UNL A   1      44.031  25.613  28.924  1.00  0.00     0.074 A 
ATOM     51  C   UNL A   1      46.029  31.067  31.530  1.00  0.00     0.029 A 
ATOM     52  N   UNL A   1      44.819  29.478  30.548  1.00  0.00    -0.354 N 
ATOM     53  N   UNL A   1      44.342  26.776  29.447  1.00  0.00    -0.248 NA
ATOM     54  C   UNL A   1      45.128  24.639  28.918  1.00  0.00     0.031 C 
ATOM     55  C   UNL A   1      46.833  29.935  31.362  1.00  0.00     0.029 A 
ATOM     56  C   UNL A   1      46.071  28.937  30.774  1.00  0.00     0.049 A 
ATOM     57  H   UNL A   1      44.065  29.005  30.126  1.00  0.00     0.167 HD
ATOM     58  C   UNL A   1      45.666  26.663  29.857  1.00  0.00     0.074 A 
ATOM     59  C   UNL A   1      46.089  25.315  29.533  1.00  0.00     0.031 C 
ATOM     60  C   UNL A   1      46.461  27.589  30.448  1.00  0.00     0.031 A 
BRANCH  47  61
ATOM     61  C   UNL A   1      43.747  33.067  31.402  1.00  0.00    -0.014 A 
ATOM     62  C   UNL A   1      44.242  34.079  30.560  1.00  0.00     0.010 A 
ATOM     63  C   UNL A   1      43.343  33.400  32.708  1.00  0.00     0.010 A 
ATOM     64  C   UNL A   1      44.377  35.388  31.028  1.00  0.00     0.020 A 
ATOM     65  C   UNL A   1      43.448  34.715  33.171  1.00  0.00     0.020 A 
ATOM     66  C   UNL A   1      43.983  35.698  32.333  1.00  0.00     0.054 A 
BRANCH  66  67
ATOM     67  S   UNL A   1      44.149  37.409  32.909  1.00  0.00     0.124 S 
ATOM     68  O   UNL A   1      45.539  37.440  33.359  1.00  0.00    -0.237 OA
ATOM     69  O   UNL A   1      43.862  38.182  31.703  1.00  0.00    -0.237 OA
ATOM     70  O   UNL A   1      43.149  37.517  33.968  1.00  0.00    -0.744 OA
ENDBRANCH  66  67
ENDBRANCH  47  61
BRANCH  48  71
ATOM     71  C   UNL A   1      42.550  23.787  27.799  1.00  0.00    -0.014 A 
ATOM     72  C   UNL A   1      42.221  22.713  28.646  1.00  0.00     0.010 A 
ATOM     73  C   UNL A   1      42.703  23.548  26.421  1.00  0.00     0.010 A 
ATOM     74  C   UNL A   1      42.071  21.423  28.129  1.00  0.00     0.020 A 
ATOM     75  C   UNL A   1      42.529  22.264  25.897  1.00  0.00     0.020 A 
ATOM     76  C   UNL A   1      42.226  21.206  26.758  1.00  0.00     0.054 A 
BRANCH  76  77
ATOM     77  S   UNL A   1      41.979  19.532  26.103  1.00  0.00     0.124 S 
ATOM     78  O   UNL A   1      40.540  19.509  25.863  1.00  0.00    -0.237 OA
ATOM     79  O   UNL A   1      42.820  19.532  24.908  1.00  0.00    -0.237 OA
ATOM     80  O   UNL A   1      42.449  18.669  27.185  1.00  0.00    -0.744 OA
ENDBRANCH  76  77
ENDBRANCH  48  71
BRANCH  60  81
ATOM     81  C   UNL A   1      47.855  27.165  30.815  1.00  0.00    -0.014 A 
ATOM     82  C   UNL A   1      48.111  26.453  31.999  1.00  0.00     0.010 A 
ATOM     83  C   UNL A   1      48.914  27.430  29.927  1.00  0.00     0.010 A 
ATOM     84  C   UNL A   1      49.409  26.039  32.303  1.00  0.00     0.020 A 
ATOM     85  C   UNL A   1      50.208  26.994  30.216  1.00  0.00     0.020 A 
ATOM     86  C   UNL A   1      50.449  26.312  31.410  1.00  0.00     0.054 A 
BRANCH  86  87
ATOM     87  S   UNL A   1      52.117  25.721  31.804  1.00  0.00     0.124 S 
ATOM     88  O   UNL A   1      52.497  26.599  32.907  1.00  0.00    -0.237 OA
ATOM     89  O   UNL A   1      51.888  24.324  32.164  1.00  0.00    -0.237 OA
ATOM     90  O   UNL A   1      52.859  25.923  30.562  1.00  0.00    -0.744 OA
ENDBRANCH  86  87
ENDBRANCH  60  81
ENDBRANCH  34  35
ENDBRANCH  26  29
ENDBRANCH  24  25
ENDBRANCH   1  24
TORSDOF 16
ENDMDL
MODEL 2
REMARK VINA RESULT:     -10.9      1.209      2.008
REMARK SMILES C[C@@H]1CCC[C@@H](C)C1[N@H+]1CCO[C@H](CC(=O)NCCCCNC(=O)c2ccc(-c3c4nc(c(-c5ccc(S(=O)(=O)[O-])cc5)c5ccc([nH]5)c(-c5ccc(S(=O)(=O)[O-])cc5)c5nc(c(-c6ccc(S(=O)(=O)[O-])cc6)c6ccc3[nH]6)C=C5)C=C4)cc2)C1
REMARK SMILES IDX 20 1 19 2 18 3 17 4 15 5 16 6 14 8 13 9 9 10 10 11 85 12
REMARK SMILES IDX 11 14 12 15 8 16 1 17 2 18 3 19 4 20 6 21 5 22 7 23 21 24
REMARK SMILES IDX 22 25 23 26 24 28 25 29 26 30 84 31 27 32 83 33 28 34 29 35
REMARK SMILES IDX 30 36 77 37 31 38 82 39 76 40 78 41 32 42 81 43 75 44 74 45
REMARK SMILES IDX 33 47 63 48 44 49 62 50 45 51 48 52 61 53 79 54 46 55 47 56
REMARK SMILES IDX 60 58 80 59 49 60 34 61 35 62 43 63 36 64 42 65 37 66 38 67
REMARK SMILES IDX 39 68 40 69 41 70 64 71 65 72 73 73 66 74 72 75 67 76 68 77
REMARK SMILES IDX 69 78 70 79 71 80 50 81 51 82 59 83 52 84 58 85 53 86 54 87
REMARK SMILES IDX 55 88 56 89 57 90
REMARK H PARENT 17 7 9 13 22 27 78 46 48 57
REMARK Flexibility Score: inf
ROOT
ATOM      1  C   UNL A   1      33.865  28.432  25.589  1.00  0.00     0.023 C 
ENDROOT
BRANCH   1   2
ATOM      2  C   UNL A   1      32.619  29.157  25.093  1.00  0.00     0.023 C 
BRANCH   2   3
ATOM      3  C   UNL A   1      31.466  28.262  24.654  1.00  0.00     0.116 C 
BRANCH   3   4
ATOM      4  N   UNL A   1      31.034  27.331  25.679  1.00  0.00    -0.356 N 
ATOM      5  C   UNL A   1      30.681  26.017  25.569  1.00  0.00     0.222 C 
ATOM      6  O   UNL A   1      30.374  25.394  26.587  1.00  0.00    -0.275 OA
ATOM      7  H   UNL A   1      30.986  27.702  26.590  1.00  0.00     0.163 HD
BRANCH   5   8
ATOM      8  C   UNL A   1      30.737  25.331  24.226  1.00  0.00     0.138 C 
BRANCH   8   9
ATOM      9  C   UNL A   1      31.758  24.191  24.099  1.00  0.00     0.182 C 
ATOM     10  N   UNL A   1      34.246  23.751  24.334  1.00  0.00    -0.328 N 
ATOM     11  C   UNL A   1      34.180  23.161  22.999  1.00  0.00     0.291 C 
ATOM     12  C   UNL A   1      33.162  24.726  24.498  1.00  0.00     0.295 C 
ATOM     13  H   UNL A   1      35.171  24.179  24.294  1.00  0.00     0.348 HD
ATOM     14  C   UNL A   1      32.794  22.666  22.558  1.00  0.00     0.222 C 
ATOM     15  O   UNL A   1      31.749  23.615  22.789  1.00  0.00    -0.366 OA
BRANCH  10  16
ATOM     16  C   UNL A   1      34.646  23.018  25.548  1.00  0.00     0.189 C 
ATOM     17  C   UNL A   1      33.880  21.382  27.377  1.00  0.00     0.014 C 
ATOM     18  C   UNL A   1      33.841  21.723  25.878  1.00  0.00     0.045 C 
ATOM     19  C   UNL A   1      34.307  20.520  25.055  1.00  0.00     0.009 C 
ATOM     20  C   UNL A   1      35.816  20.287  25.087  1.00  0.00     0.001 C 
ATOM     21  C   UNL A   1      36.164  22.736  25.745  1.00  0.00     0.045 C 
ATOM     22  C   UNL A   1      36.673  21.543  24.922  1.00  0.00     0.009 C 
ATOM     23  C   UNL A   1      37.041  23.984  25.596  1.00  0.00     0.014 C 
ENDBRANCH  10  16
ENDBRANCH   8   9
ENDBRANCH   5   8
ENDBRANCH   3   4
ENDBRANCH   2   3
ENDBRANCH   1   2
BRANCH   1  24
ATOM     24  C   UNL A   1      34.001  28.496  27.096  1.00  0.00     0.116 C 
BRANCH  24  25
ATOM     25  N   UNL A   1      33.880  29.856  27.607  1.00  0.00    -0.352 N 
ATOM     26  C   UNL A   1      34.828  30.598  28.273  1.00  0.00     0.251 C 
ATOM     27  H   UNL A   1      33.013  30.297  27.459  1.00  0.00     0.163 HD
ATOM     28  O   UNL A   1      34.561  31.689  28.738  1.00  0.00    -0.269 OA
BRANCH  26  29
ATOM     29  C   UNL A   1      36.160  29.992  28.452  1.00  0.00     0.039 A 
ATOM     30  C   UNL A   1      37.095  30.114  27.424  1.00  0.00     0.014 A 
ATOM     31  C   UNL A   1      36.505  29.422  29.678  1.00  0.00     0.014 A 
ATOM     32  C   UNL A   1      38.408  29.711  27.653  1.00  0.00     0.010 A 
ATOM     33  C   UNL A   1      37.832  29.122  29.938  1.00  0.00     0.010 A 
ATOM     34  C   UNL A   1      38.791  29.246  28.923  1.00  0.00    -0.014 A 
BRANCH  34  35
ATOM     35  C   UNL A   1      40.186  28.836  29.204  1.00  0.00     0.031 A 
ATOM     36  C   UNL A   1      41.118  29.816  29.862  1.00  0.00     0.074 A 
ATOM     37  C   UNL A   1      40.621  27.624  28.810  1.00  0.00     0.049 A 
ATOM     38  N   UNL A   1      42.392  29.691  30.127  1.00  0.00    -0.248 NA
ATOM     39  C   UNL A   1      40.555  31.127  30.232  1.00  0.00     0.031 C 
ATOM     40  C   UNL A   1      39.820  26.616  28.111  1.00  0.00     0.029 A 
ATOM     41  N   UNL A   1      41.853  27.035  28.941  1.00  0.00    -0.354 N 
ATOM     42  C   UNL A   1      42.783  30.911  30.663  1.00  0.00     0.074 A 
ATOM     43  C   UNL A   1      41.633  31.784  30.628  1.00  0.00     0.031 C 
ATOM     44  C   UNL A   1      40.571  25.520  27.908  1.00  0.00     0.029 A 
ATOM     45  C   UNL A   1      41.912  25.760  28.429  1.00  0.00     0.049 A 
ATOM     46  H   UNL A   1      42.622  27.483  29.361  1.00  0.00     0.167 HD
ATOM     47  C   UNL A   1      43.987  31.265  31.171  1.00  0.00     0.031 A 
ATOM     48  C   UNL A   1      42.935  24.886  28.390  1.00  0.00     0.031 A 
ATOM     49  C   UNL A   1      45.111  30.375  31.240  1.00  0.00     0.049 A 
ATOM     50  C   UNL A   1      44.253  25.287  28.994  1.00  0.00     0.074 A 
ATOM     51  C   UNL A   1      46.357  30.602  31.795  1.00  0.00     0.029 A 
ATOM     52  N   UNL A   1      45.120  29.078  30.747  1.00  0.00    -0.354 N 
ATOM     53  N   UNL A   1      44.588  26.424  29.557  1.00  0.00    -0.248 NA
ATOM     54  C   UNL A   1      45.324  24.283  28.973  1.00  0.00     0.031 C 
ATOM     55  C   UNL A   1      47.133  29.454  31.604  1.00  0.00     0.029 A 
ATOM     56  C   UNL A   1      46.353  28.496  30.975  1.00  0.00     0.049 A 
ATOM     57  H   UNL A   1      44.360  28.638  30.300  1.00  0.00     0.167 HD
ATOM     58  C   UNL A   1      45.901  26.263  29.982  1.00  0.00     0.074 A 
ATOM     59  C   UNL A   1      46.293  24.914  29.623  1.00  0.00     0.031 C 
ATOM     60  C   UNL A   1      46.712  27.148  30.612  1.00  0.00     0.031 A 
BRANCH  47  61
ATOM     61  C   UNL A   1      44.132  32.667  31.696  1.00  0.00    -0.014 A 
ATOM     62  C   UNL A   1      43.902  32.962  33.052  1.00  0.00     0.010 A 
ATOM     63  C   UNL A   1      44.516  33.704  30.826  1.00  0.00     0.010 A 
ATOM     64  C   UNL A   1      44.006  34.273  33.520  1.00  0.00     0.020 A 
ATOM     65  C   UNL A   1      44.651  35.013  31.297  1.00  0.00     0.020 A 
ATOM     66  C   UNL A   1      44.376  35.293  32.638  1.00  0.00     0.054 A 
BRANCH  66  67
ATOM     67  S   UNL A   1      44.523  36.983  33.276  1.00  0.00     0.124 S 
ATOM     68  O   UNL A   1      43.145  37.459  33.186  1.00  0.00    -0.237 OA
ATOM     69  O   UNL A   1      45.026  36.772  34.631  1.00  0.00    -0.237 OA
ATOM     70  O   UNL A   1      45.463  37.620  32.358  1.00  0.00    -0.744 OA
ENDBRANCH  66  67
ENDBRANCH  47  61
BRANCH  48  71
ATOM     71  C   UNL A   1      42.741  23.537  27.792  1.00  0.00    -0.014 A 
ATOM     72  C   UNL A   1      42.139  22.508  28.539  1.00  0.00     0.010 A 
ATOM     73  C   UNL A   1      43.140  23.276  26.469  1.00  0.00     0.010 A 
ATOM     74  C   UNL A   1      41.961  21.238  27.981  1.00  0.00     0.020 A 
ATOM     75  C   UNL A   1      42.941  22.015  25.899  1.00  0.00     0.020 A 
ATOM     76  C   UNL A   1      42.363  20.999  26.665  1.00  0.00     0.054 A 
BRANCH  76  77
ATOM     77  S   UNL A   1      42.079  19.357  25.946  1.00  0.00     0.124 S 
ATOM     78  O   UNL A   1      40.631  19.354  25.761  1.00  0.00    -0.237 OA
ATOM     79  O   UNL A   1      42.874  19.406  24.722  1.00  0.00    -0.237 OA
ATOM     80  O   UNL A   1      42.582  18.444  26.971  1.00  0.00    -0.744 OA
ENDBRANCH  76  77
ENDBRANCH  48  71
BRANCH  60  81
ATOM     81  C   UNL A   1      48.089  26.676  30.987  1.00  0.00    -0.014 A 
ATOM     82  C   UNL A   1      49.175  26.831  30.109  1.00  0.00     0.010 A 
ATOM     83  C   UNL A   1      48.307  26.127  32.265  1.00  0.00     0.010 A 
ATOM     84  C   UNL A   1      50.452  26.417  30.493  1.00  0.00     0.020 A 
ATOM     85  C   UNL A   1      49.587  25.738  32.660  1.00  0.00     0.020 A 
ATOM     86  C   UNL A   1      50.650  25.873  31.765  1.00  0.00     0.054 A 
BRANCH  86  87
ATOM     87  S   UNL A   1      52.326  25.389  32.257  1.00  0.00     0.124 S 
ATOM     88  O   UNL A   1      52.494  26.112  33.514  1.00  0.00    -0.237 OA
ATOM     89  O   UNL A   1      52.220  23.936  32.378  1.00  0.00    -0.237 OA
ATOM     90  O   UNL A   1      53.161  25.855  31.152  1.00  0.00    -0.744 OA
ENDBRANCH  86  87
ENDBRANCH  60  81
ENDBRANCH  34  35
ENDBRANCH  26  29
ENDBRANCH  24  25
ENDBRANCH   1  24
TORSDOF 16
ENDMDL
MODEL 3
REMARK VINA RESULT:     -10.7      2.647      9.322
REMARK SMILES C[C@@H]1CCC[C@@H](C)C1[N@H+]1CCO[C@H](CC(=O)NCCCCNC(=O)c2ccc(-c3c4nc(c(-c5ccc(S(=O)(=O)[O-])cc5)c5ccc([nH]5)c(-c5ccc(S(=O)(=O)[O-])cc5)c5nc(c(-c6ccc(S(=O)(=O)[O-])cc6)c6ccc3[nH]6)C=C5)C=C4)cc2)C1
REMARK SMILES IDX 20 1 19 2 18 3 17 4 15 5 16 6 14 8 13 9 9 10 10 11 85 12
REMARK SMILES IDX 11 14 12 15 8 16 1 17 2 18 3 19 4 20 6 21 5 22 7 23 21 24
REMARK SMILES IDX 22 25 23 26 24 28 25 29 26 30 84 31 27 32 83 33 28 34 29 35
REMARK SMILES IDX 30 36 77 37 31 38 82 39 76 40 78 41 32 42 81 43 75 44 74 45
REMARK SMILES IDX 33 47 63 48 44 49 62 50 45 51 48 52 61 53 79 54 46 55 47 56
REMARK SMILES IDX 60 58 80 59 49 60 34 61 35 62 43 63 36 64 42 65 37 66 38 67
REMARK SMILES IDX 39 68 40 69 41 70 64 71 65 72 73 73 66 74 72 75 67 76 68 77
REMARK SMILES IDX 69 78 70 79 71 80 50 81 51 82 59 83 52 84 58 85 53 86 54 87
REMARK SMILES IDX 55 88 56 89 57 90
REMARK H PARENT 17 7 9 13 22 27 78 46 48 57
REMARK Flexibility Score: inf
ROOT
ATOM      1  C   UNL A   1      35.931  23.172  24.466  1.00  0.00     0.023 C 
ENDROOT
BRANCH   1   2
ATOM      2  C   UNL A   1      35.735  21.670  24.635  1.00  0.00     0.023 C 
BRANCH   2   3
ATOM      3  C   UNL A   1      34.342  21.232  25.072  1.00  0.00     0.116 C 
BRANCH   3   4
ATOM      4  N   UNL A   1      33.986  21.681  26.404  1.00  0.00    -0.356 N 
ATOM      5  C   UNL A   1      32.868  22.339  26.830  1.00  0.00     0.222 C 
ATOM      6  O   UNL A   1      32.749  22.599  28.028  1.00  0.00    -0.275 OA
ATOM      7  H   UNL A   1      34.648  21.484  27.105  1.00  0.00     0.163 HD
BRANCH   5   8
ATOM      8  C   UNL A   1      31.770  22.676  25.850  1.00  0.00     0.138 C 
BRANCH   8   9
ATOM      9  C   UNL A   1      31.976  23.960  25.031  1.00  0.00     0.182 C 
ATOM     10  N   UNL A   1      30.662  25.909  24.077  1.00  0.00    -0.328 N 
ATOM     11  C   UNL A   1      31.293  25.595  22.798  1.00  0.00     0.291 C 
ATOM     12  C   UNL A   1      30.618  24.705  24.915  1.00  0.00     0.295 C 
ATOM     13  H   UNL A   1      29.743  26.210  23.755  1.00  0.00     0.348 HD
ATOM     14  C   UNL A   1      32.614  24.816  22.879  1.00  0.00     0.222 C 
ATOM     15  O   UNL A   1      32.556  23.684  23.752  1.00  0.00    -0.366 OA
BRANCH  10  16
ATOM     16  C   UNL A   1      30.823  27.189  24.792  1.00  0.00     0.189 C 
ATOM     17  C   UNL A   1      31.826  28.344  26.858  1.00  0.00     0.014 C 
ATOM     18  C   UNL A   1      32.051  27.305  25.746  1.00  0.00     0.045 C 
ATOM     19  C   UNL A   1      33.347  27.617  24.995  1.00  0.00     0.009 C 
ATOM     20  C   UNL A   1      33.245  28.800  24.035  1.00  0.00     0.001 C 
ATOM     21  C   UNL A   1      30.706  28.494  23.952  1.00  0.00     0.045 C 
ATOM     22  C   UNL A   1      31.984  28.832  23.171  1.00  0.00     0.009 C 
ATOM     23  C   UNL A   1      29.441  28.553  23.088  1.00  0.00     0.014 C 
ENDBRANCH  10  16
ENDBRANCH   8   9
ENDBRANCH   5   8
ENDBRANCH   3   4
ENDBRANCH   2   3
ENDBRANCH   1   2
BRANCH   1  24
ATOM     24  C   UNL A   1      37.005  23.716  25.384  1.00  0.00     0.116 C 
BRANCH  24  25
ATOM     25  N   UNL A   1      38.112  22.782  25.558  1.00  0.00    -0.352 N 
ATOM     26  C   UNL A   1      39.315  23.003  26.186  1.00  0.00     0.251 C 
ATOM     27  H   UNL A   1      37.982  21.884  25.178  1.00  0.00     0.163 HD
ATOM     28  O   UNL A   1      40.197  22.165  26.171  1.00  0.00    -0.269 OA
BRANCH  26  29
ATOM     29  C   UNL A   1      39.516  24.317  26.826  1.00  0.00     0.039 A 
ATOM     30  C   UNL A   1      39.094  24.492  28.143  1.00  0.00     0.014 A 
ATOM     31  C   UNL A   1      40.226  25.314  26.155  1.00  0.00     0.014 A 
ATOM     32  C   UNL A   1      39.442  25.661  28.814  1.00  0.00     0.010 A 
ATOM     33  C   UNL A   1      40.661  26.425  26.858  1.00  0.00     0.010 A 
ATOM     34  C   UNL A   1      40.258  26.618  28.187  1.00  0.00    -0.014 A 
BRANCH  34  35
ATOM     35  C   UNL A   1      40.667  27.858  28.885  1.00  0.00     0.031 A 
ATOM     36  C   UNL A   1      42.038  27.933  29.499  1.00  0.00     0.074 A 
ATOM     37  C   UNL A   1      39.791  28.871  29.022  1.00  0.00     0.049 A 
ATOM     38  N   UNL A   1      42.568  28.888  30.217  1.00  0.00    -0.248 NA
ATOM     39  C   UNL A   1      42.915  26.762  29.319  1.00  0.00     0.031 C 
ATOM     40  C   UNL A   1      38.415  28.883  28.518  1.00  0.00     0.029 A 
ATOM     41  N   UNL A   1      39.930  30.091  29.631  1.00  0.00    -0.354 N 
ATOM     42  C   UNL A   1      43.820  28.420  30.596  1.00  0.00     0.074 A 
ATOM     43  C   UNL A   1      43.948  27.075  30.085  1.00  0.00     0.031 C 
ATOM     44  C   UNL A   1      37.850  30.067  28.808  1.00  0.00     0.029 A 
ATOM     45  C   UNL A   1      38.808  30.882  29.546  1.00  0.00     0.049 A 
ATOM     46  H   UNL A   1      40.755  30.375  30.089  1.00  0.00     0.167 HD
ATOM     47  C   UNL A   1      44.792  29.065  31.281  1.00  0.00     0.031 A 
ATOM     48  C   UNL A   1      38.584  32.126  30.008  1.00  0.00     0.031 A 
ATOM     49  C   UNL A   1      44.671  30.418  31.748  1.00  0.00     0.049 A 
ATOM     50  C   UNL A   1      39.692  32.839  30.735  1.00  0.00     0.074 A 
ATOM     51  C   UNL A   1      45.615  31.195  32.392  1.00  0.00     0.029 A 
ATOM     52  N   UNL A   1      43.533  31.200  31.606  1.00  0.00    -0.354 N 
ATOM     53  N   UNL A   1      40.896  32.405  31.028  1.00  0.00    -0.248 NA
ATOM     54  C   UNL A   1      39.419  34.211  31.178  1.00  0.00     0.031 C 
ATOM     55  C   UNL A   1      45.035  32.436  32.674  1.00  0.00     0.029 A 
ATOM     56  C   UNL A   1      43.748  32.448  32.161  1.00  0.00     0.049 A 
ATOM     57  H   UNL A   1      42.697  30.908  31.176  1.00  0.00     0.167 HD
ATOM     58  C   UNL A   1      41.534  33.462  31.667  1.00  0.00     0.074 A 
ATOM     59  C   UNL A   1      40.586  34.559  31.704  1.00  0.00     0.031 C 
ATOM     60  C   UNL A   1      42.788  33.523  32.177  1.00  0.00     0.031 A 
BRANCH  47  61
ATOM     61  C   UNL A   1      46.066  28.312  31.551  1.00  0.00    -0.014 A 
ATOM     62  C   UNL A   1      47.148  28.372  30.655  1.00  0.00     0.010 A 
ATOM     63  C   UNL A   1      46.189  27.542  32.722  1.00  0.00     0.010 A 
ATOM     64  C   UNL A   1      48.312  27.641  30.899  1.00  0.00     0.020 A 
ATOM     65  C   UNL A   1      47.364  26.832  32.985  1.00  0.00     0.020 A 
ATOM     66  C   UNL A   1      48.412  26.871  32.061  1.00  0.00     0.054 A 
BRANCH  66  67
ATOM     67  S   UNL A   1      49.942  25.946  32.363  1.00  0.00     0.124 S 
ATOM     68  O   UNL A   1      49.902  24.944  31.301  1.00  0.00    -0.237 OA
ATOM     69  O   UNL A   1      50.971  26.973  32.218  1.00  0.00    -0.237 OA
ATOM     70  O   UNL A   1      49.771  25.426  33.717  1.00  0.00    -0.744 OA
ENDBRANCH  66  67
ENDBRANCH  47  61
BRANCH  48  71
ATOM     71  C   UNL A   1      37.273  32.788  29.766  1.00  0.00    -0.014 A 
ATOM     72  C   UNL A   1      37.032  33.466  28.558  1.00  0.00     0.010 A 
ATOM     73  C   UNL A   1      36.253  32.731  30.733  1.00  0.00     0.010 A 
ATOM     74  C   UNL A   1      35.803  34.093  28.329  1.00  0.00     0.020 A 
ATOM     75  C   UNL A   1      35.014  33.336  30.498  1.00  0.00     0.020 A 
ATOM     76  C   UNL A   1      34.802  34.025  29.301  1.00  0.00     0.054 A 
BRANCH  76  77
ATOM     77  S   UNL A   1      33.199  34.805  28.964  1.00  0.00     0.124 S 
ATOM     78  O   UNL A   1      32.638  33.919  27.949  1.00  0.00    -0.237 OA
ATOM     79  O   UNL A   1      32.546  34.765  30.270  1.00  0.00    -0.237 OA
ATOM     80  O   UNL A   1      33.562  36.142  28.499  1.00  0.00    -0.744 OA
ENDBRANCH  76  77
ENDBRANCH  48  71
BRANCH  60  81
ATOM     81  C   UNL A   1      43.222  34.827  32.785  1.00  0.00    -0.014 A 
ATOM     82  C   UNL A   1      43.840  35.821  32.008  1.00  0.00     0.010 A 
ATOM     83  C   UNL A   1      42.947  35.082  34.141  1.00  0.00     0.010 A 
ATOM     84  C   UNL A   1      44.202  37.040  32.586  1.00  0.00     0.020 A 
ATOM     85  C   UNL A   1      43.285  36.308  34.715  1.00  0.00     0.020 A 
ATOM     86  C   UNL A   1      43.923  37.275  33.935  1.00  0.00     0.054 A 
BRANCH  86  87
ATOM     87  S   UNL A   1      44.360  38.883  34.651  1.00  0.00     0.124 S 
ATOM     88  O   UNL A   1      45.721  39.074  34.159  1.00  0.00    -0.237 OA
ATOM     89  O   UNL A   1      43.354  39.774  34.078  1.00  0.00    -0.237 OA
ATOM     90  O   UNL A   1      44.241  38.665  36.091  1.00  0.00    -0.744 OA
ENDBRANCH  86  87
ENDBRANCH  60  81
ENDBRANCH  34  35
ENDBRANCH  26  29
ENDBRANCH  24  25
ENDBRANCH   1  24
TORSDOF 16
ENDMDL
