MODEL 1
REMARK VINA RESULT:      -8.4      0.000      0.000
REMARK SMILES C[NH2+]C[C@H](C)C(=O)NC[C@](C)(O)C(=O)NCCCCNC(=O)c1ccc(-c2c3nc(c(-c4ccc(S(=O)(=O)[O-])cc4)c4ccc([nH]4)c(-c4ccc(S(=O)(=O)[O-])cc4)c4nc(c(-c5ccc(S(=O)(=O)[O-])cc5)c5ccc2[nH]5)C=C4)C=C3)cc1
REMARK SMILES IDX 16 1 15 2 13 3 14 4 10 6 11 7 9 8 8 9 6 10 7 11 4 13 5 14
REMARK SMILES IDX 3 15 2 16 1 17 12 20 17 22 18 23 19 24 20 25 21 26 22 28
REMARK SMILES IDX 23 29 24 30 82 31 25 32 81 33 26 34 27 35 28 36 75 37 29 38
REMARK SMILES IDX 80 39 74 40 76 41 30 42 79 43 73 44 72 45 31 47 61 48 42 49
REMARK SMILES IDX 60 50 43 51 46 52 59 53 77 54 44 55 45 56 58 58 78 59 47 60
REMARK SMILES IDX 32 61 33 62 41 63 34 64 40 65 35 66 36 67 37 68 38 69 39 70
REMARK SMILES IDX 62 71 63 72 71 73 64 74 70 75 65 76 66 77 67 78 68 79 69 80
REMARK SMILES IDX 48 81 49 82 57 83 50 84 56 85 51 86 52 87 53 88 54 89 55 90
REMARK H PARENT 15 5 8 12 2 18 2 19 12 21 20 27 76 46 46 57
REMARK Flexibility Score: inf
ROOT
ATOM      1  C   UNL A   1      43.315  23.150  27.539  1.00  0.00     0.116 C 
ENDROOT
BRANCH   1   2
ATOM      2  N   UNL A   1      44.428  22.311  27.135  1.00  0.00    -0.354 N 
ATOM      3  C   UNL A   1      45.265  22.425  26.058  1.00  0.00     0.253 C 
ATOM      4  O   UNL A   1      46.070  21.508  25.880  1.00  0.00    -0.272 OA
ATOM      5  H   UNL A   1      44.609  21.544  27.725  1.00  0.00     0.163 HD
BRANCH   3   6
ATOM      6  C   UNL A   1      45.266  23.722  25.199  1.00  0.00     0.157 C 
ATOM      7  C   UNL A   1      46.449  23.722  24.213  1.00  0.00     0.055 C 
BRANCH   6   8
ATOM      8  C   UNL A   1      45.331  24.977  26.118  1.00  0.00     0.160 C 
BRANCH   8   9
ATOM      9  N   UNL A   1      44.410  26.045  25.750  1.00  0.00    -0.352 N 
ATOM     10  C   UNL A   1      44.558  27.382  25.617  1.00  0.00     0.228 C 
ATOM     11  O   UNL A   1      43.564  28.024  25.266  1.00  0.00    -0.275 OA
ATOM     12  H   UNL A   1      43.498  25.730  25.560  1.00  0.00     0.163 HD
BRANCH  10  13
ATOM     13  C   UNL A   1      45.866  28.096  25.890  1.00  0.00     0.130 C 
ATOM     14  C   UNL A   1      46.680  28.223  24.602  1.00  0.00     0.024 C 
BRANCH  13  15
ATOM     15  C   UNL A   1      45.766  29.430  26.654  1.00  0.00     0.273 C 
BRANCH  15  16
ATOM     16  N   UNL A   1      44.795  30.434  26.210  1.00  0.00    -0.348 N 
ATOM     17  C   UNL A   1      44.136  31.146  27.297  1.00  0.00     0.330 C 
ATOM     18  H   UNL A   1      45.284  31.117  25.630  1.00  0.00     0.346 HD
ATOM     19  H   UNL A   1      44.067  29.935  25.700  1.00  0.00     0.346 HD
ENDBRANCH  15  16
ENDBRANCH  13  15
ENDBRANCH  10  13
ENDBRANCH   8   9
ENDBRANCH   6   8
BRANCH   6  20
ATOM     20  O   UNL A   1      44.059  23.770  24.420  1.00  0.00    -0.378 OA
ATOM     21  H   UNL A   1      44.100  24.519  23.806  1.00  0.00     0.212 HD
ENDBRANCH   6  20
ENDBRANCH   3   6
ENDBRANCH   1   2
BRANCH   1  22
ATOM     22  C   UNL A   1      42.346  22.396  28.440  1.00  0.00     0.023 C 
BRANCH  22  23
ATOM     23  C   UNL A   1      41.367  21.489  27.694  1.00  0.00     0.023 C 
BRANCH  23  24
ATOM     24  C   UNL A   1      41.189  21.808  26.214  1.00  0.00     0.116 C 
BRANCH  24  25
ATOM     25  N   UNL A   1      39.791  21.894  25.823  1.00  0.00    -0.352 N 
ATOM     26  C   UNL A   1      38.875  22.883  26.083  1.00  0.00     0.251 C 
ATOM     27  H   UNL A   1      39.453  21.135  25.296  1.00  0.00     0.163 HD
ATOM     28  O   UNL A   1      37.689  22.697  25.810  1.00  0.00    -0.269 OA
BRANCH  26  29
ATOM     29  C   UNL A   1      39.304  24.150  26.712  1.00  0.00     0.039 A 
ATOM     30  C   UNL A   1      38.970  24.385  28.048  1.00  0.00     0.014 A 
ATOM     31  C   UNL A   1      40.026  25.107  25.993  1.00  0.00     0.014 A 
ATOM     32  C   UNL A   1      39.405  25.554  28.675  1.00  0.00     0.010 A 
ATOM     33  C   UNL A   1      40.533  26.230  26.644  1.00  0.00     0.010 A 
ATOM     34  C   UNL A   1      40.217  26.474  27.988  1.00  0.00    -0.014 A 
BRANCH  34  35
ATOM     35  C   UNL A   1      40.728  27.692  28.669  1.00  0.00     0.031 A 
ATOM     36  C   UNL A   1      42.161  27.763  29.133  1.00  0.00     0.074 A 
ATOM     37  C   UNL A   1      39.895  28.728  28.894  1.00  0.00     0.049 A 
ATOM     38  N   UNL A   1      42.788  28.751  29.719  1.00  0.00    -0.248 NA
ATOM     39  C   UNL A   1      42.989  26.562  28.936  1.00  0.00     0.031 C 
ATOM     40  C   UNL A   1      38.474  28.764  28.540  1.00  0.00     0.029 A 
ATOM     41  N   UNL A   1      40.123  29.955  29.465  1.00  0.00    -0.354 N 
ATOM     42  C   UNL A   1      44.076  28.290  29.966  1.00  0.00     0.074 A 
ATOM     43  C   UNL A   1      44.124  26.914  29.524  1.00  0.00     0.031 C 
ATOM     44  C   UNL A   1      37.970  29.965  28.860  1.00  0.00     0.029 A 
ATOM     45  C   UNL A   1      39.017  30.773  29.479  1.00  0.00     0.049 A 
ATOM     46  H   UNL A   1      40.996  30.224  29.831  1.00  0.00     0.167 HD
ATOM     47  C   UNL A   1      45.132  28.956  30.492  1.00  0.00     0.031 A 
ATOM     48  C   UNL A   1      38.861  32.032  29.931  1.00  0.00     0.031 A 
ATOM     49  C   UNL A   1      45.081  30.327  30.928  1.00  0.00     0.049 A 
ATOM     50  C   UNL A   1      40.049  32.752  30.511  1.00  0.00     0.074 A 
ATOM     51  C   UNL A   1      46.109  31.108  31.427  1.00  0.00     0.029 A 
ATOM     52  N   UNL A   1      43.943  31.119  30.922  1.00  0.00    -0.354 N 
ATOM     53  N   UNL A   1      41.278  32.322  30.669  1.00  0.00    -0.248 NA
ATOM     54  C   UNL A   1      39.831  34.135  30.955  1.00  0.00     0.031 C 
ATOM     55  C   UNL A   1      45.579  32.355  31.777  1.00  0.00     0.029 A 
ATOM     56  C   UNL A   1      44.238  32.375  31.429  1.00  0.00     0.049 A 
ATOM     57  H   UNL A   1      43.057  30.833  30.604  1.00  0.00     0.167 HD
ATOM     58  C   UNL A   1      41.989  33.394  31.197  1.00  0.00     0.074 A 
ATOM     59  C   UNL A   1      41.055  34.495  31.317  1.00  0.00     0.031 C 
ATOM     60  C   UNL A   1      43.299  33.462  31.545  1.00  0.00     0.031 A 
BRANCH  47  61
ATOM     61  C   UNL A   1      46.434  28.207  30.628  1.00  0.00    -0.014 A 
ATOM     62  C   UNL A   1      47.359  28.156  29.568  1.00  0.00     0.010 A 
ATOM     63  C   UNL A   1      46.757  27.581  31.844  1.00  0.00     0.010 A 
ATOM     64  C   UNL A   1      48.562  27.459  29.709  1.00  0.00     0.020 A 
ATOM     65  C   UNL A   1      47.974  26.910  32.001  1.00  0.00     0.020 A 
ATOM     66  C   UNL A   1      48.861  26.839  30.926  1.00  0.00     0.054 A 
BRANCH  66  67
ATOM     67  S   UNL A   1      50.441  25.963  31.088  1.00  0.00     0.124 S 
ATOM     68  O   UNL A   1      51.175  26.830  32.005  1.00  0.00    -0.237 OA
ATOM     69  O   UNL A   1      50.035  24.670  31.636  1.00  0.00    -0.237 OA
ATOM     70  O   UNL A   1      50.958  25.922  29.722  1.00  0.00    -0.744 OA
ENDBRANCH  66  67
ENDBRANCH  47  61
BRANCH  48  71
ATOM     71  C   UNL A   1      37.535  32.701  29.825  1.00  0.00    -0.014 A 
ATOM     72  C   UNL A   1      36.599  32.609  30.870  1.00  0.00     0.010 A 
ATOM     73  C   UNL A   1      37.205  33.447  28.679  1.00  0.00     0.010 A 
ATOM     74  C   UNL A   1      35.350  33.229  30.762  1.00  0.00     0.020 A 
ATOM     75  C   UNL A   1      35.971  34.097  28.580  1.00  0.00     0.020 A 
ATOM     76  C   UNL A   1      35.046  33.972  29.618  1.00  0.00     0.054 A 
BRANCH  76  77
ATOM     77  S   UNL A   1      33.440  34.809  29.519  1.00  0.00     0.124 S 
ATOM     78  O   UNL A   1      33.799  36.089  28.915  1.00  0.00    -0.237 OA
ATOM     79  O   UNL A   1      32.666  33.905  28.672  1.00  0.00    -0.237 OA
ATOM     80  O   UNL A   1      33.000  34.874  30.911  1.00  0.00    -0.744 OA
ENDBRANCH  76  77
ENDBRANCH  48  71
BRANCH  60  81
ATOM     81  C   UNL A   1      43.816  34.788  32.042  1.00  0.00    -0.014 A 
ATOM     82  C   UNL A   1      44.318  35.762  31.162  1.00  0.00     0.010 A 
ATOM     83  C   UNL A   1      43.763  35.072  33.419  1.00  0.00     0.010 A 
ATOM     84  C   UNL A   1      44.802  36.977  31.654  1.00  0.00     0.020 A 
ATOM     85  C   UNL A   1      44.214  36.299  33.912  1.00  0.00     0.020 A 
ATOM     86  C   UNL A   1      44.750  37.237  33.027  1.00  0.00     0.054 A 
BRANCH  86  87
ATOM     87  S   UNL A   1      45.366  38.828  33.641  1.00  0.00     0.124 S 
ATOM     88  O   UNL A   1      44.544  39.033  34.830  1.00  0.00    -0.237 OA
ATOM     89  O   UNL A   1      46.778  38.548  33.893  1.00  0.00    -0.237 OA
ATOM     90  O   UNL A   1      45.107  39.750  32.538  1.00  0.00    -0.744 OA
ENDBRANCH  86  87
ENDBRANCH  60  81
ENDBRANCH  34  35
ENDBRANCH  26  29
ENDBRANCH  24  25
ENDBRANCH  23  24
ENDBRANCH  22  23
ENDBRANCH   1  22
TORSDOF 20
ENDMDL
MODEL 2
REMARK VINA RESULT:      -7.7      4.532     10.998
REMARK SMILES C[NH2+]C[C@H](C)C(=O)NC[C@](C)(O)C(=O)NCCCCNC(=O)c1ccc(-c2c3nc(c(-c4ccc(S(=O)(=O)[O-])cc4)c4ccc([nH]4)c(-c4ccc(S(=O)(=O)[O-])cc4)c4nc(c(-c5ccc(S(=O)(=O)[O-])cc5)c5ccc2[nH]5)C=C4)C=C3)cc1
REMARK SMILES IDX 16 1 15 2 13 3 14 4 10 6 11 7 9 8 8 9 6 10 7 11 4 13 5 14
REMARK SMILES IDX 3 15 2 16 1 17 12 20 17 22 18 23 19 24 20 25 21 26 22 28
REMARK SMILES IDX 23 29 24 30 82 31 25 32 81 33 26 34 27 35 28 36 75 37 29 38
REMARK SMILES IDX 80 39 74 40 76 41 30 42 79 43 73 44 72 45 31 47 61 48 42 49
REMARK SMILES IDX 60 50 43 51 46 52 59 53 77 54 44 55 45 56 58 58 78 59 47 60
REMARK SMILES IDX 32 61 33 62 41 63 34 64 40 65 35 66 36 67 37 68 38 69 39 70
REMARK SMILES IDX 62 71 63 72 71 73 64 74 70 75 65 76 66 77 67 78 68 79 69 80
REMARK SMILES IDX 48 81 49 82 57 83 50 84 56 85 51 86 52 87 53 88 54 89 55 90
REMARK H PARENT 15 5 8 12 2 18 2 19 12 21 20 27 76 46 46 57
REMARK Flexibility Score: inf
ROOT
ATOM      1  C   UNL A   1      32.781  27.346  24.276  1.00  0.00     0.116 C 
ENDROOT
BRANCH   1   2
ATOM      2  N   UNL A   1      33.787  26.329  24.032  1.00  0.00    -0.354 N 
ATOM      3  C   UNL A   1      33.647  25.059  23.542  1.00  0.00     0.253 C 
ATOM      4  O   UNL A   1      34.657  24.351  23.535  1.00  0.00    -0.272 OA
ATOM      5  H   UNL A   1      34.710  26.592  24.252  1.00  0.00     0.163 HD
BRANCH   3   6
ATOM      6  C   UNL A   1      32.301  24.606  22.909  1.00  0.00     0.157 C 
ATOM      7  C   UNL A   1      31.660  25.756  22.109  1.00  0.00     0.055 C 
BRANCH   6   8
ATOM      8  C   UNL A   1      31.325  24.110  24.015  1.00  0.00     0.160 C 
BRANCH   8   9
ATOM      9  N   UNL A   1      31.351  22.671  24.246  1.00  0.00    -0.352 N 
ATOM     10  C   UNL A   1      32.015  21.893  25.131  1.00  0.00     0.228 C 
ATOM     11  O   UNL A   1      31.802  20.678  25.078  1.00  0.00    -0.275 OA
ATOM     12  H   UNL A   1      30.770  22.165  23.635  1.00  0.00     0.163 HD
BRANCH  10  13
ATOM     13  C   UNL A   1      32.992  22.450  26.145  1.00  0.00     0.130 C 
ATOM     14  C   UNL A   1      32.240  23.171  27.265  1.00  0.00     0.024 C 
BRANCH  13  15
ATOM     15  C   UNL A   1      34.045  21.466  26.686  1.00  0.00     0.273 C 
BRANCH  15  16
ATOM     16  N   UNL A   1      35.467  21.771  26.501  1.00  0.00    -0.348 N 
ATOM     17  C   UNL A   1      36.073  21.110  25.353  1.00  0.00     0.330 C 
ATOM     18  H   UNL A   1      35.565  22.780  26.378  1.00  0.00     0.346 HD
ATOM     19  H   UNL A   1      35.952  21.427  27.329  1.00  0.00     0.346 HD
ENDBRANCH  15  16
ENDBRANCH  13  15
ENDBRANCH  10  13
ENDBRANCH   8   9
ENDBRANCH   6   8
BRANCH   6  20
ATOM     20  O   UNL A   1      32.554  23.532  21.988  1.00  0.00    -0.378 OA
ATOM     21  H   UNL A   1      32.022  22.760  22.237  1.00  0.00     0.212 HD
ENDBRANCH   6  20
ENDBRANCH   3   6
ENDBRANCH   1   2
BRANCH   1  22
ATOM     22  C   UNL A   1      32.277  27.300  25.713  1.00  0.00     0.023 C 
BRANCH  22  23
ATOM     23  C   UNL A   1      33.206  27.966  26.728  1.00  0.00     0.023 C 
BRANCH  23  24
ATOM     24  C   UNL A   1      34.134  29.031  26.155  1.00  0.00     0.116 C 
BRANCH  24  25
ATOM     25  N   UNL A   1      33.810  30.369  26.623  1.00  0.00    -0.352 N 
ATOM     26  C   UNL A   1      34.417  31.119  27.599  1.00  0.00     0.251 C 
ATOM     27  H   UNL A   1      33.046  30.799  26.175  1.00  0.00     0.163 HD
ATOM     28  O   UNL A   1      33.892  32.169  27.971  1.00  0.00    -0.269 OA
BRANCH  26  29
ATOM     29  C   UNL A   1      35.677  30.656  28.219  1.00  0.00     0.039 A 
ATOM     30  C   UNL A   1      36.862  31.331  27.917  1.00  0.00     0.014 A 
ATOM     31  C   UNL A   1      35.697  29.562  29.088  1.00  0.00     0.014 A 
ATOM     32  C   UNL A   1      38.055  30.940  28.528  1.00  0.00     0.010 A 
ATOM     33  C   UNL A   1      36.870  29.230  29.763  1.00  0.00     0.010 A 
ATOM     34  C   UNL A   1      38.066  29.905  29.480  1.00  0.00    -0.014 A 
BRANCH  34  35
ATOM     35  C   UNL A   1      39.324  29.524  30.173  1.00  0.00     0.031 A 
ATOM     36  C   UNL A   1      39.743  30.229  31.438  1.00  0.00     0.074 A 
ATOM     37  C   UNL A   1      40.105  28.558  29.650  1.00  0.00     0.049 A 
ATOM     38  N   UNL A   1      40.791  30.012  32.192  1.00  0.00    -0.248 NA
ATOM     39  C   UNL A   1      38.889  31.334  31.903  1.00  0.00     0.031 C 
ATOM     40  C   UNL A   1      39.838  27.834  28.404  1.00  0.00     0.029 A 
ATOM     41  N   UNL A   1      41.279  28.010  30.103  1.00  0.00    -0.354 N 
ATOM     42  C   UNL A   1      40.726  30.955  33.211  1.00  0.00     0.074 A 
ATOM     43  C   UNL A   1      39.571  31.785  32.946  1.00  0.00     0.031 C 
ATOM     44  C   UNL A   1      40.793  26.910  28.216  1.00  0.00     0.029 A 
ATOM     45  C   UNL A   1      41.762  26.999  29.304  1.00  0.00     0.049 A 
ATOM     46  H   UNL A   1      41.733  28.311  30.923  1.00  0.00     0.167 HD
ATOM     47  C   UNL A   1      41.538  31.105  34.285  1.00  0.00     0.031 A 
ATOM     48  C   UNL A   1      42.858  26.226  29.433  1.00  0.00     0.031 A 
ATOM     49  C   UNL A   1      42.684  30.275  34.547  1.00  0.00     0.049 A 
ATOM     50  C   UNL A   1      43.745  26.411  30.634  1.00  0.00     0.074 A 
ATOM     51  C   UNL A   1      43.542  30.313  35.634  1.00  0.00     0.029 A 
ATOM     52  N   UNL A   1      43.137  29.263  33.715  1.00  0.00    -0.354 N 
ATOM     53  N   UNL A   1      43.626  27.261  31.625  1.00  0.00    -0.248 NA
ATOM     54  C   UNL A   1      44.906  25.516  30.743  1.00  0.00     0.031 C 
ATOM     55  C   UNL A   1      44.547  29.361  35.430  1.00  0.00     0.029 A 
ATOM     56  C   UNL A   1      44.275  28.681  34.253  1.00  0.00     0.049 A 
ATOM     57  H   UNL A   1      42.713  28.995  32.869  1.00  0.00     0.167 HD
ATOM     58  C   UNL A   1      44.674  26.979  32.494  1.00  0.00     0.074 A 
ATOM     59  C   UNL A   1      45.408  25.871  31.917  1.00  0.00     0.031 C 
ATOM     60  C   UNL A   1      44.997  27.580  33.668  1.00  0.00     0.031 A 
BRANCH  47  61
ATOM     61  C   UNL A   1      41.216  32.213  35.256  1.00  0.00    -0.014 A 
ATOM     62  C   UNL A   1      41.652  33.532  35.028  1.00  0.00     0.010 A 
ATOM     63  C   UNL A   1      40.430  31.943  36.391  1.00  0.00     0.010 A 
ATOM     64  C   UNL A   1      41.345  34.548  35.937  1.00  0.00     0.020 A 
ATOM     65  C   UNL A   1      40.092  32.962  37.286  1.00  0.00     0.020 A 
ATOM     66  C   UNL A   1      40.567  34.256  37.062  1.00  0.00     0.054 A 
BRANCH  66  67
ATOM     67  S   UNL A   1      40.163  35.600  38.211  1.00  0.00     0.124 S 
ATOM     68  O   UNL A   1      38.965  35.086  38.868  1.00  0.00    -0.237 OA
ATOM     69  O   UNL A   1      41.357  35.673  39.049  1.00  0.00    -0.237 OA
ATOM     70  O   UNL A   1      39.947  36.751  37.336  1.00  0.00    -0.744 OA
ENDBRANCH  66  67
ENDBRANCH  47  61
BRANCH  48  71
ATOM     71  C   UNL A   1      43.159  25.187  28.410  1.00  0.00    -0.014 A 
ATOM     72  C   UNL A   1      42.662  23.878  28.546  1.00  0.00     0.010 A 
ATOM     73  C   UNL A   1      43.940  25.504  27.283  1.00  0.00     0.010 A 
ATOM     74  C   UNL A   1      42.956  22.903  27.589  1.00  0.00     0.020 A 
ATOM     75  C   UNL A   1      44.210  24.540  26.307  1.00  0.00     0.020 A 
ATOM     76  C   UNL A   1      43.727  23.242  26.473  1.00  0.00     0.054 A 
BRANCH  76  77
ATOM     77  S   UNL A   1      44.058  21.973  25.220  1.00  0.00     0.124 S 
ATOM     78  O   UNL A   1      45.407  21.541  25.573  1.00  0.00    -0.237 OA
ATOM     79  O   UNL A   1      42.996  21.001  25.469  1.00  0.00    -0.237 OA
ATOM     80  O   UNL A   1      43.942  22.699  23.958  1.00  0.00    -0.744 OA
ENDBRANCH  76  77
ENDBRANCH  48  71
BRANCH  60  81
ATOM     81  C   UNL A   1      46.167  27.019  34.435  1.00  0.00    -0.014 A 
ATOM     82  C   UNL A   1      46.004  26.000  35.389  1.00  0.00     0.010 A 
ATOM     83  C   UNL A   1      47.460  27.504  34.166  1.00  0.00     0.010 A 
ATOM     84  C   UNL A   1      47.107  25.509  36.094  1.00  0.00     0.020 A 
ATOM     85  C   UNL A   1      48.569  26.992  34.843  1.00  0.00     0.020 A 
ATOM     86  C   UNL A   1      48.383  26.011  35.818  1.00  0.00     0.054 A 
BRANCH  86  87
ATOM     87  S   UNL A   1      49.800  25.344  36.732  1.00  0.00     0.124 S 
ATOM     88  O   UNL A   1      50.739  25.041  35.655  1.00  0.00    -0.237 OA
ATOM     89  O   UNL A   1      50.176  26.460  37.597  1.00  0.00    -0.237 OA
ATOM     90  O   UNL A   1      49.252  24.182  37.426  1.00  0.00    -0.744 OA
ENDBRANCH  86  87
ENDBRANCH  60  81
ENDBRANCH  34  35
ENDBRANCH  26  29
ENDBRANCH  24  25
ENDBRANCH  23  24
ENDBRANCH  22  23
ENDBRANCH   1  22
TORSDOF 20
ENDMDL
MODEL 3
REMARK VINA RESULT:      -7.7      5.207      7.593
REMARK SMILES C[NH2+]C[C@H](C)C(=O)NC[C@](C)(O)C(=O)NCCCCNC(=O)c1ccc(-c2c3nc(c(-c4ccc(S(=O)(=O)[O-])cc4)c4ccc([nH]4)c(-c4ccc(S(=O)(=O)[O-])cc4)c4nc(c(-c5ccc(S(=O)(=O)[O-])cc5)c5ccc2[nH]5)C=C4)C=C3)cc1
REMARK SMILES IDX 16 1 15 2 13 3 14 4 10 6 11 7 9 8 8 9 6 10 7 11 4 13 5 14
REMARK SMILES IDX 3 15 2 16 1 17 12 20 17 22 18 23 19 24 20 25 21 26 22 28
REMARK SMILES IDX 23 29 24 30 82 31 25 32 81 33 26 34 27 35 28 36 75 37 29 38
REMARK SMILES IDX 80 39 74 40 76 41 30 42 79 43 73 44 72 45 31 47 61 48 42 49
REMARK SMILES IDX 60 50 43 51 46 52 59 53 77 54 44 55 45 56 58 58 78 59 47 60
REMARK SMILES IDX 32 61 33 62 41 63 34 64 40 65 35 66 36 67 37 68 38 69 39 70
REMARK SMILES IDX 62 71 63 72 71 73 64 74 70 75 65 76 66 77 67 78 68 79 69 80
REMARK SMILES IDX 48 81 49 82 57 83 50 84 56 85 51 86 52 87 53 88 54 89 55 90
REMARK H PARENT 15 5 8 12 2 18 2 19 12 21 20 27 76 46 46 57
REMARK Flexibility Score: inf
ROOT
ATOM      1  C   UNL A   1      35.210  23.734  25.156  1.00  0.00     0.116 C 
ENDROOT
BRANCH   1   2
ATOM      2  N   UNL A   1      34.927  25.153  25.280  1.00  0.00    -0.354 N 
ATOM      3  C   UNL A   1      33.731  25.795  25.446  1.00  0.00     0.253 C 
ATOM      4  O   UNL A   1      33.751  27.028  25.411  1.00  0.00    -0.272 OA
ATOM      5  H   UNL A   1      35.715  25.741  25.238  1.00  0.00     0.163 HD
BRANCH   3   6
ATOM      6  C   UNL A   1      32.448  24.987  25.792  1.00  0.00     0.157 C 
ATOM      7  C   UNL A   1      31.936  24.220  24.559  1.00  0.00     0.055 C 
BRANCH   6   8
ATOM      8  C   UNL A   1      31.341  25.938  26.333  1.00  0.00     0.160 C 
BRANCH   8   9
ATOM      9  N   UNL A   1      30.159  26.035  25.486  1.00  0.00    -0.352 N 
ATOM     10  C   UNL A   1      29.882  26.746  24.369  1.00  0.00     0.228 C 
ATOM     11  O   UNL A   1      28.765  26.590  23.868  1.00  0.00    -0.275 OA
ATOM     12  H   UNL A   1      29.412  25.470  25.787  1.00  0.00     0.163 HD
BRANCH  10  13
ATOM     13  C   UNL A   1      30.868  27.709  23.742  1.00  0.00     0.130 C 
ATOM     14  C   UNL A   1      30.744  27.679  22.218  1.00  0.00     0.024 C 
BRANCH  13  15
ATOM     15  C   UNL A   1      30.867  29.144  24.302  1.00  0.00     0.273 C 
BRANCH  15  16
ATOM     16  N   UNL A   1      32.100  29.684  24.882  1.00  0.00    -0.348 N 
ATOM     17  C   UNL A   1      31.896  30.451  26.104  1.00  0.00     0.330 C 
ATOM     18  H   UNL A   1      32.722  28.904  25.095  1.00  0.00     0.346 HD
ATOM     19  H   UNL A   1      32.493  30.325  24.194  1.00  0.00     0.346 HD
ENDBRANCH  15  16
ENDBRANCH  13  15
ENDBRANCH  10  13
ENDBRANCH   8   9
ENDBRANCH   6   8
BRANCH   6  20
ATOM     20  O   UNL A   1      32.765  24.013  26.801  1.00  0.00    -0.378 OA
ATOM     21  H   UNL A   1      33.723  23.861  26.813  1.00  0.00     0.212 HD
ENDBRANCH   6  20
ENDBRANCH   3   6
ENDBRANCH   1   2
BRANCH   1  22
ATOM     22  C   UNL A   1      36.199  23.268  26.218  1.00  0.00     0.023 C 
BRANCH  22  23
ATOM     23  C   UNL A   1      37.662  23.308  25.778  1.00  0.00     0.023 C 
BRANCH  23  24
ATOM     24  C   UNL A   1      38.526  24.340  26.496  1.00  0.00     0.116 C 
BRANCH  24  25
ATOM     25  N   UNL A   1      39.810  24.546  25.846  1.00  0.00    -0.352 N 
ATOM     26  C   UNL A   1      40.794  25.458  26.134  1.00  0.00     0.251 C 
ATOM     27  H   UNL A   1      40.003  23.943  25.092  1.00  0.00     0.163 HD
ATOM     28  O   UNL A   1      41.743  25.590  25.362  1.00  0.00    -0.269 OA
BRANCH  26  29
ATOM     29  C   UNL A   1      40.699  26.298  27.348  1.00  0.00     0.039 A 
ATOM     30  C   UNL A   1      41.465  27.463  27.420  1.00  0.00     0.014 A 
ATOM     31  C   UNL A   1      39.868  25.940  28.413  1.00  0.00     0.014 A 
ATOM     32  C   UNL A   1      41.357  28.294  28.538  1.00  0.00     0.010 A 
ATOM     33  C   UNL A   1      39.695  26.814  29.484  1.00  0.00     0.010 A 
ATOM     34  C   UNL A   1      40.448  27.993  29.567  1.00  0.00    -0.014 A 
BRANCH  34  35
ATOM     35  C   UNL A   1      40.289  28.904  30.730  1.00  0.00     0.031 A 
ATOM     36  C   UNL A   1      41.154  28.739  31.954  1.00  0.00     0.074 A 
ATOM     37  C   UNL A   1      39.347  29.867  30.697  1.00  0.00     0.049 A 
ATOM     38  N   UNL A   1      41.176  29.455  33.049  1.00  0.00    -0.248 NA
ATOM     39  C   UNL A   1      42.100  27.611  31.958  1.00  0.00     0.031 C 
ATOM     40  C   UNL A   1      38.411  30.099  29.593  1.00  0.00     0.029 A 
ATOM     41  N   UNL A   1      39.024  30.839  31.611  1.00  0.00    -0.354 N 
ATOM     42  C   UNL A   1      42.126  28.862  33.871  1.00  0.00     0.074 A 
ATOM     43  C   UNL A   1      42.615  27.691  33.176  1.00  0.00     0.031 C 
ATOM     44  C   UNL A   1      37.653  31.170  29.875  1.00  0.00     0.029 A 
ATOM     45  C   UNL A   1      38.017  31.679  31.194  1.00  0.00     0.049 A 
ATOM     46  H   UNL A   1      39.471  30.927  32.484  1.00  0.00     0.167 HD
ATOM     47  C   UNL A   1      42.572  29.265  35.086  1.00  0.00     0.031 A 
ATOM     48  C   UNL A   1      37.453  32.742  31.799  1.00  0.00     0.031 A 
ATOM     49  C   UNL A   1      42.085  30.432  35.773  1.00  0.00     0.049 A 
ATOM     50  C   UNL A   1      37.964  33.171  33.148  1.00  0.00     0.074 A 
ATOM     51  C   UNL A   1      42.507  30.955  36.984  1.00  0.00     0.029 A 
ATOM     52  N   UNL A   1      41.067  31.255  35.315  1.00  0.00    -0.354 N 
ATOM     53  N   UNL A   1      38.915  32.638  33.877  1.00  0.00    -0.248 NA
ATOM     54  C   UNL A   1      37.337  34.358  33.745  1.00  0.00     0.031 C 
ATOM     55  C   UNL A   1      41.704  32.061  37.286  1.00  0.00     0.029 A 
ATOM     56  C   UNL A   1      40.832  32.270  36.229  1.00  0.00     0.049 A 
ATOM     57  H   UNL A   1      40.584  31.137  34.467  1.00  0.00     0.167 HD
ATOM     58  C   UNL A   1      39.026  33.447  35.003  1.00  0.00     0.074 A 
ATOM     59  C   UNL A   1      38.055  34.511  34.850  1.00  0.00     0.031 C 
ATOM     60  C   UNL A   1      39.861  33.323  36.066  1.00  0.00     0.031 A 
BRANCH  47  61
ATOM     61  C   UNL A   1      43.639  28.432  35.751  1.00  0.00    -0.014 A 
ATOM     62  C   UNL A   1      43.303  27.373  36.616  1.00  0.00     0.010 A 
ATOM     63  C   UNL A   1      44.995  28.682  35.476  1.00  0.00     0.010 A 
ATOM     64  C   UNL A   1      44.303  26.610  37.224  1.00  0.00     0.020 A 
ATOM     65  C   UNL A   1      45.998  27.900  36.056  1.00  0.00     0.020 A 
ATOM     66  C   UNL A   1      45.646  26.880  36.941  1.00  0.00     0.054 A 
BRANCH  66  67
ATOM     67  S   UNL A   1      46.921  25.856  37.726  1.00  0.00     0.124 S 
ATOM     68  O   UNL A   1      46.933  26.380  39.088  1.00  0.00    -0.237 OA
ATOM     69  O   UNL A   1      46.382  24.506  37.577  1.00  0.00    -0.237 OA
ATOM     70  O   UNL A   1      48.122  26.134  36.940  1.00  0.00    -0.744 OA
ENDBRANCH  66  67
ENDBRANCH  47  61
BRANCH  48  71
ATOM     71  C   UNL A   1      36.360  33.491  31.120  1.00  0.00    -0.014 A 
ATOM     72  C   UNL A   1      36.585  34.130  29.888  1.00  0.00     0.010 A 
ATOM     73  C   UNL A   1      35.079  33.561  31.699  1.00  0.00     0.010 A 
ATOM     74  C   UNL A   1      35.559  34.842  29.258  1.00  0.00     0.020 A 
ATOM     75  C   UNL A   1      34.042  34.244  31.058  1.00  0.00     0.020 A 
ATOM     76  C   UNL A   1      34.293  34.892  29.847  1.00  0.00     0.054 A 
BRANCH  76  77
ATOM     77  S   UNL A   1      32.963  35.781  28.991  1.00  0.00     0.124 S 
ATOM     78  O   UNL A   1      32.361  34.724  28.184  1.00  0.00    -0.237 OA
ATOM     79  O   UNL A   1      32.149  36.272  30.100  1.00  0.00    -0.237 OA
ATOM     80  O   UNL A   1      33.671  36.816  28.242  1.00  0.00    -0.744 OA
ENDBRANCH  76  77
ENDBRANCH  48  71
BRANCH  60  81
ATOM     81  C   UNL A   1      39.799  34.393  37.125  1.00  0.00    -0.014 A 
ATOM     82  C   UNL A   1      39.083  34.210  38.320  1.00  0.00     0.010 A 
ATOM     83  C   UNL A   1      40.504  35.595  36.928  1.00  0.00     0.010 A 
ATOM     84  C   UNL A   1      39.034  35.227  39.278  1.00  0.00     0.020 A 
ATOM     85  C   UNL A   1      40.486  36.601  37.897  1.00  0.00     0.020 A 
ATOM     86  C   UNL A   1      39.733  36.417  39.059  1.00  0.00     0.054 A 
BRANCH  86  87
ATOM     87  S   UNL A   1      39.670  37.715  40.324  1.00  0.00     0.124 S 
ATOM     88  O   UNL A   1      41.084  38.037  40.498  1.00  0.00    -0.237 OA
ATOM     89  O   UNL A   1      38.864  38.749  39.681  1.00  0.00    -0.237 OA
ATOM     90  O   UNL A   1      39.036  37.058  41.464  1.00  0.00    -0.744 OA
ENDBRANCH  86  87
ENDBRANCH  60  81
ENDBRANCH  34  35
ENDBRANCH  26  29
ENDBRANCH  24  25
ENDBRANCH  23  24
ENDBRANCH  22  23
ENDBRANCH   1  22
TORSDOF 20
ENDMDL
