MODEL 1
REMARK VINA RESULT:     -10.5      0.000      0.000
REMARK SMILES O=C(NCCCCNC(=O)[C@]1([C@H]2CS(=O)(=O)C[C@@H]2O)CCOC1)c1ccc(-c2c3nc(c(-c4ccc(S(=O)(=O)[O-])cc4)c4ccc([nH]4)c(-c4ccc(S(=O)(=O)[O-])cc4)c4nc(c(-c5ccc(S(=O)(=O)[O-])cc5)c5ccc2[nH]5)C=C4)C=C3)cc1
REMARK SMILES IDX 5 1 4 2 3 3 1 4 2 5 24 7 25 8 83 9 26 10 82 11 27 12 28 13
REMARK SMILES IDX 29 14 76 15 30 16 81 17 75 18 77 19 31 20 80 21 74 22 73 23
REMARK SMILES IDX 32 25 62 26 43 27 61 28 44 29 47 30 60 31 78 32 45 33 46 34
REMARK SMILES IDX 59 36 79 37 48 38 33 39 34 40 42 41 35 42 41 43 36 44 37 45
REMARK SMILES IDX 38 46 39 47 40 48 63 49 64 50 72 51 65 52 71 53 66 54 67 55
REMARK SMILES IDX 68 56 69 57 70 58 49 59 50 60 58 61 51 62 57 63 52 64 53 65
REMARK SMILES IDX 54 66 55 67 56 68 6 69 7 70 8 71 9 72 10 74 11 75 20 76
REMARK SMILES IDX 23 77 21 78 22 79 12 80 13 81 18 82 14 83 17 84 15 85 16 86
REMARK SMILES IDX 19 87
REMARK H PARENT 3 6 77 24 47 35 8 73 19 88
REMARK Flexibility Score: inf
ROOT
ATOM      1  C   UNL A   1      32.362  27.828  26.477  1.00  0.00     0.023 C 
ENDROOT
BRANCH   1   2
ATOM      2  C   UNL A   1      33.542  28.355  27.278  1.00  0.00     0.116 C 
BRANCH   2   3
ATOM      3  N   UNL A   1      33.437  29.760  27.660  1.00  0.00    -0.352 N 
ATOM      4  O   UNL A   1      34.212  31.715  28.516  1.00  0.00    -0.269 OA
ATOM      5  C   UNL A   1      34.436  30.563  28.166  1.00  0.00     0.251 C 
ATOM      6  H   UNL A   1      32.554  30.180  27.543  1.00  0.00     0.163 HD
BRANCH   5   7
ATOM      7  C   UNL A   1      35.777  29.966  28.313  1.00  0.00     0.039 A 
ATOM      8  C   UNL A   1      36.173  29.492  29.563  1.00  0.00     0.014 A 
ATOM      9  C   UNL A   1      36.684  30.044  27.255  1.00  0.00     0.014 A 
ATOM     10  C   UNL A   1      37.520  29.292  29.812  1.00  0.00     0.010 A 
ATOM     11  C   UNL A   1      38.023  29.715  27.480  1.00  0.00     0.010 A 
ATOM     12  C   UNL A   1      38.462  29.386  28.772  1.00  0.00    -0.014 A 
BRANCH  12  13
ATOM     13  C   UNL A   1      39.886  29.079  29.066  1.00  0.00     0.031 A 
ATOM     14  C   UNL A   1      40.508  27.762  28.684  1.00  0.00     0.074 A 
ATOM     15  C   UNL A   1      40.630  30.037  29.652  1.00  0.00     0.049 A 
ATOM     16  N   UNL A   1      41.746  27.365  28.843  1.00  0.00    -0.248 NA
ATOM     17  C   UNL A   1      39.637  26.758  28.054  1.00  0.00     0.031 C 
ATOM     18  C   UNL A   1      40.134  31.356  30.063  1.00  0.00     0.029 A 
ATOM     19  N   UNL A   1      41.961  30.073  29.974  1.00  0.00    -0.354 N 
ATOM     20  C   UNL A   1      41.796  26.058  28.368  1.00  0.00     0.074 A 
ATOM     21  C   UNL A   1      40.457  25.723  27.931  1.00  0.00     0.031 C 
ATOM     22  C   UNL A   1      41.159  32.095  30.506  1.00  0.00     0.029 A 
ATOM     23  C   UNL A   1      42.363  31.277  30.504  1.00  0.00     0.049 A 
ATOM     24  H   UNL A   1      42.570  29.312  29.839  1.00  0.00     0.167 HD
ATOM     25  C   UNL A   1      42.858  25.218  28.309  1.00  0.00     0.031 A 
ATOM     26  C   UNL A   1      43.563  31.678  30.958  1.00  0.00     0.031 A 
ATOM     27  C   UNL A   1      44.187  25.567  28.747  1.00  0.00     0.049 A 
ATOM     28  C   UNL A   1      44.711  30.714  30.913  1.00  0.00     0.074 A 
ATOM     29  C   UNL A   1      45.340  24.802  28.692  1.00  0.00     0.029 A 
ATOM     30  N   UNL A   1      44.541  26.776  29.330  1.00  0.00    -0.354 N 
ATOM     31  N   UNL A   1      44.742  29.495  30.432  1.00  0.00    -0.248 NA
ATOM     32  C   UNL A   1      45.984  31.184  31.469  1.00  0.00     0.031 C 
ATOM     33  C   UNL A   1      46.373  25.521  29.304  1.00  0.00     0.029 A 
ATOM     34  C   UNL A   1      45.884  26.764  29.670  1.00  0.00     0.049 A 
ATOM     35  H   UNL A   1      43.927  27.531  29.480  1.00  0.00     0.167 HD
ATOM     36  C   UNL A   1      46.049  29.057  30.605  1.00  0.00     0.074 A 
ATOM     37  C   UNL A   1      46.778  30.153  31.215  1.00  0.00     0.031 C 
ATOM     38  C   UNL A   1      46.596  27.859  30.285  1.00  0.00     0.031 A 
BRANCH  25  39
ATOM     39  C   UNL A   1      42.624  23.817  27.794  1.00  0.00    -0.014 A 
ATOM     40  C   UNL A   1      42.271  22.760  28.654  1.00  0.00     0.010 A 
ATOM     41  C   UNL A   1      42.715  23.565  26.412  1.00  0.00     0.010 A 
ATOM     42  C   UNL A   1      42.061  21.474  28.146  1.00  0.00     0.020 A 
ATOM     43  C   UNL A   1      42.476  22.287  25.897  1.00  0.00     0.020 A 
ATOM     44  C   UNL A   1      42.169  21.244  26.771  1.00  0.00     0.054 A 
BRANCH  44  45
ATOM     45  S   UNL A   1      41.885  19.566  26.141  1.00  0.00     0.124 S 
ATOM     46  O   UNL A   1      42.725  19.548  24.946  1.00  0.00    -0.237 OA
ATOM     47  O   UNL A   1      42.346  18.729  27.245  1.00  0.00    -0.237 OA
ATOM     48  O   UNL A   1      40.446  19.527  25.891  1.00  0.00    -0.744 OA
ENDBRANCH  44  45
ENDBRANCH  25  39
BRANCH  26  49
ATOM     49  C   UNL A   1      43.724  33.053  31.503  1.00  0.00    -0.014 A 
ATOM     50  C   UNL A   1      44.203  34.092  30.689  1.00  0.00     0.010 A 
ATOM     51  C   UNL A   1      43.366  33.336  32.835  1.00  0.00     0.010 A 
ATOM     52  C   UNL A   1      44.340  35.386  31.201  1.00  0.00     0.020 A 
ATOM     53  C   UNL A   1      43.465  34.634  33.339  1.00  0.00     0.020 A 
ATOM     54  C   UNL A   1      43.964  35.649  32.522  1.00  0.00     0.054 A 
BRANCH  54  55
ATOM     55  S   UNL A   1      44.103  37.344  33.147  1.00  0.00     0.124 S 
ATOM     56  O   UNL A   1      43.824  38.133  31.951  1.00  0.00    -0.237 OA
ATOM     57  O   UNL A   1      43.076  37.381  34.185  1.00  0.00    -0.237 OA
ATOM     58  O   UNL A   1      45.477  37.416  33.640  1.00  0.00    -0.744 OA
ENDBRANCH  54  55
ENDBRANCH  26  49
BRANCH  38  59
ATOM     59  C   UNL A   1      48.069  27.688  30.548  1.00  0.00    -0.014 A 
ATOM     60  C   UNL A   1      48.544  27.166  31.764  1.00  0.00     0.010 A 
ATOM     61  C   UNL A   1      48.993  28.040  29.547  1.00  0.00     0.010 A 
ATOM     62  C   UNL A   1      49.918  27.044  31.991  1.00  0.00     0.020 A 
ATOM     63  C   UNL A   1      50.364  27.887  29.756  1.00  0.00     0.020 A 
ATOM     64  C   UNL A   1      50.819  27.407  30.985  1.00  0.00     0.054 A 
BRANCH  64  65
ATOM     65  S   UNL A   1      52.595  27.216  31.295  1.00  0.00     0.124 S 
ATOM     66  O   UNL A   1      52.719  27.707  32.665  1.00  0.00    -0.237 OA
ATOM     67  O   UNL A   1      52.798  25.781  31.120  1.00  0.00    -0.237 OA
ATOM     68  O   UNL A   1      53.217  28.057  30.275  1.00  0.00    -0.744 OA
ENDBRANCH  64  65
ENDBRANCH  38  59
ENDBRANCH  12  13
ENDBRANCH   5   7
ENDBRANCH   2   3
ENDBRANCH   1   2
BRANCH   1  69
ATOM     69  C   UNL A   1      32.656  27.530  25.013  1.00  0.00     0.023 C 
BRANCH  69  70
ATOM     70  C   UNL A   1      32.128  26.188  24.525  1.00  0.00     0.116 C 
BRANCH  70  71
ATOM     71  N   UNL A   1      32.840  25.672  23.376  1.00  0.00    -0.356 N 
ATOM     72  C   UNL A   1      33.524  24.536  23.115  1.00  0.00     0.229 C 
ATOM     73  H   UNL A   1      32.823  26.290  22.609  1.00  0.00     0.163 HD
ATOM     74  O   UNL A   1      33.776  24.373  21.913  1.00  0.00    -0.274 OA
BRANCH  72  75
ATOM     75  C   UNL A   1      34.066  23.504  24.163  1.00  0.00     0.081 C 
ATOM     76  C   UNL A   1      34.723  24.159  25.379  1.00  0.00     0.048 C 
ATOM     77  C   UNL A   1      35.217  22.749  23.508  1.00  0.00     0.177 C 
ATOM     78  C   UNL A   1      36.223  24.016  25.167  1.00  0.00     0.161 C 
ATOM     79  O   UNL A   1      36.425  23.408  23.897  1.00  0.00    -0.380 OA
BRANCH  75  80
ATOM     80  C   UNL A   1      32.826  22.600  24.579  1.00  0.00     0.052 C 
ATOM     81  C   UNL A   1      32.745  21.223  23.873  1.00  0.00     0.144 C 
ATOM     82  C   UNL A   1      32.588  22.281  26.078  1.00  0.00     0.134 C 
ATOM     83  S   UNL A   1      33.256  19.972  25.036  1.00  0.00     0.153 S 
ATOM     84  C   UNL A   1      33.316  21.009  26.474  1.00  0.00     0.169 C 
ATOM     85  O   UNL A   1      32.181  19.010  25.191  1.00  0.00    -0.229 OA
ATOM     86  O   UNL A   1      34.607  19.567  24.718  1.00  0.00    -0.229 OA
BRANCH  82  87
ATOM     87  O   UNL A   1      31.195  22.080  26.342  1.00  0.00    -0.392 OA
ATOM     88  H   UNL A   1      30.815  22.895  26.705  1.00  0.00     0.211 HD
ENDBRANCH  82  87
ENDBRANCH  75  80
ENDBRANCH  72  75
ENDBRANCH  70  71
ENDBRANCH  69  70
ENDBRANCH   1  69
TORSDOF 16
ENDMDL
MODEL 2
REMARK VINA RESULT:     -10.4      1.156      8.519
REMARK SMILES O=C(NCCCCNC(=O)[C@]1([C@H]2CS(=O)(=O)C[C@@H]2O)CCOC1)c1ccc(-c2c3nc(c(-c4ccc(S(=O)(=O)[O-])cc4)c4ccc([nH]4)c(-c4ccc(S(=O)(=O)[O-])cc4)c4nc(c(-c5ccc(S(=O)(=O)[O-])cc5)c5ccc2[nH]5)C=C4)C=C3)cc1
REMARK SMILES IDX 5 1 4 2 3 3 1 4 2 5 24 7 25 8 83 9 26 10 82 11 27 12 28 13
REMARK SMILES IDX 29 14 76 15 30 16 81 17 75 18 77 19 31 20 80 21 74 22 73 23
REMARK SMILES IDX 32 25 62 26 43 27 61 28 44 29 47 30 60 31 78 32 45 33 46 34
REMARK SMILES IDX 59 36 79 37 48 38 33 39 34 40 42 41 35 42 41 43 36 44 37 45
REMARK SMILES IDX 38 46 39 47 40 48 63 49 64 50 72 51 65 52 71 53 66 54 67 55
REMARK SMILES IDX 68 56 69 57 70 58 49 59 50 60 58 61 51 62 57 63 52 64 53 65
REMARK SMILES IDX 54 66 55 67 56 68 6 69 7 70 8 71 9 72 10 74 11 75 20 76
REMARK SMILES IDX 23 77 21 78 22 79 12 80 13 81 18 82 14 83 17 84 15 85 16 86
REMARK SMILES IDX 19 87
REMARK H PARENT 3 6 77 24 47 35 8 73 19 88
REMARK Flexibility Score: inf
ROOT
ATOM      1  C   UNL A   1      32.793  28.278  26.050  1.00  0.00     0.023 C 
ENDROOT
BRANCH   1   2
ATOM      2  C   UNL A   1      33.744  28.598  27.192  1.00  0.00     0.116 C 
BRANCH   2   3
ATOM      3  N   UNL A   1      33.630  29.958  27.712  1.00  0.00    -0.352 N 
ATOM      4  O   UNL A   1      34.385  31.811  28.786  1.00  0.00    -0.269 OA
ATOM      5  C   UNL A   1      34.617  30.700  28.327  1.00  0.00     0.251 C 
ATOM      6  H   UNL A   1      32.752  30.392  27.614  1.00  0.00     0.163 HD
BRANCH   5   7
ATOM      7  C   UNL A   1      35.952  30.084  28.449  1.00  0.00     0.039 A 
ATOM      8  C   UNL A   1      36.340  29.553  29.679  1.00  0.00     0.014 A 
ATOM      9  C   UNL A   1      36.861  30.199  27.397  1.00  0.00     0.014 A 
ATOM     10  C   UNL A   1      37.686  29.329  29.921  1.00  0.00     0.010 A 
ATOM     11  C   UNL A   1      38.197  29.848  27.610  1.00  0.00     0.010 A 
ATOM     12  C   UNL A   1      38.630  29.459  28.887  1.00  0.00    -0.014 A 
BRANCH  12  13
ATOM     13  C   UNL A   1      40.050  29.127  29.170  1.00  0.00     0.031 A 
ATOM     14  C   UNL A   1      40.959  30.086  29.893  1.00  0.00     0.074 A 
ATOM     15  C   UNL A   1      40.501  27.912  28.799  1.00  0.00     0.049 A 
ATOM     16  N   UNL A   1      42.211  29.921  30.243  1.00  0.00    -0.248 NA
ATOM     17  C   UNL A   1      40.404  31.397  30.264  1.00  0.00     0.031 C 
ATOM     18  C   UNL A   1      39.708  26.898  28.096  1.00  0.00     0.029 A 
ATOM     19  N   UNL A   1      41.715  27.306  28.987  1.00  0.00    -0.354 N 
ATOM     20  C   UNL A   1      42.604  31.114  30.840  1.00  0.00     0.074 A 
ATOM     21  C   UNL A   1      41.462  32.002  30.790  1.00  0.00     0.031 C 
ATOM     22  C   UNL A   1      40.427  25.774  27.983  1.00  0.00     0.029 A 
ATOM     23  C   UNL A   1      41.761  26.015  28.515  1.00  0.00     0.049 A 
ATOM     24  H   UNL A   1      42.481  27.752  29.416  1.00  0.00     0.167 HD
ATOM     25  C   UNL A   1      43.807  31.438  31.376  1.00  0.00     0.031 A 
ATOM     26  C   UNL A   1      42.768  25.125  28.492  1.00  0.00     0.031 A 
ATOM     27  C   UNL A   1      44.936  30.542  31.421  1.00  0.00     0.049 A 
ATOM     28  C   UNL A   1      44.097  25.524  29.059  1.00  0.00     0.074 A 
ATOM     29  C   UNL A   1      46.186  30.760  31.977  1.00  0.00     0.029 A 
ATOM     30  N   UNL A   1      44.959  29.263  30.882  1.00  0.00    -0.354 N 
ATOM     31  N   UNL A   1      44.437  26.647  29.645  1.00  0.00    -0.248 NA
ATOM     32  C   UNL A   1      45.176  24.535  28.962  1.00  0.00     0.031 C 
ATOM     33  C   UNL A   1      46.984  29.641  31.713  1.00  0.00     0.029 A 
ATOM     34  C   UNL A   1      46.210  28.694  31.062  1.00  0.00     0.049 A 
ATOM     35  H   UNL A   1      44.198  28.824  30.437  1.00  0.00     0.167 HD
ATOM     36  C   UNL A   1      45.767  26.489  30.012  1.00  0.00     0.074 A 
ATOM     37  C   UNL A   1      46.159  25.156  29.598  1.00  0.00     0.031 C 
ATOM     38  C   UNL A   1      46.589  27.368  30.638  1.00  0.00     0.031 A 
BRANCH  25  39
ATOM     39  C   UNL A   1      43.987  32.837  31.915  1.00  0.00    -0.014 A 
ATOM     40  C   UNL A   1      44.413  33.899  31.097  1.00  0.00     0.010 A 
ATOM     41  C   UNL A   1      43.679  33.102  33.264  1.00  0.00     0.010 A 
ATOM     42  C   UNL A   1      44.571  35.184  31.627  1.00  0.00     0.020 A 
ATOM     43  C   UNL A   1      43.805  34.392  33.789  1.00  0.00     0.020 A 
ATOM     44  C   UNL A   1      44.270  35.422  32.971  1.00  0.00     0.054 A 
BRANCH  44  45
ATOM     45  S   UNL A   1      44.478  37.100  33.630  1.00  0.00     0.124 S 
ATOM     46  O   UNL A   1      45.867  37.389  33.281  1.00  0.00    -0.237 OA
ATOM     47  O   UNL A   1      43.474  37.859  32.889  1.00  0.00    -0.237 OA
ATOM     48  O   UNL A   1      44.214  36.949  35.058  1.00  0.00    -0.744 OA
ENDBRANCH  44  45
ENDBRANCH  25  39
BRANCH  26  49
ATOM     49  C   UNL A   1      42.548  23.778  27.900  1.00  0.00    -0.014 A 
ATOM     50  C   UNL A   1      42.919  23.513  26.572  1.00  0.00     0.010 A 
ATOM     51  C   UNL A   1      41.993  22.743  28.676  1.00  0.00     0.010 A 
ATOM     52  C   UNL A   1      42.724  22.242  26.023  1.00  0.00     0.020 A 
ATOM     53  C   UNL A   1      41.831  21.462  28.144  1.00  0.00     0.020 A 
ATOM     54  C   UNL A   1      42.186  21.224  26.816  1.00  0.00     0.054 A 
BRANCH  54  55
ATOM     55  S   UNL A   1      41.989  19.571  26.097  1.00  0.00     0.124 S 
ATOM     56  O   UNL A   1      42.464  18.712  27.176  1.00  0.00    -0.237 OA
ATOM     57  O   UNL A   1      40.553  19.516  25.827  1.00  0.00    -0.237 OA
ATOM     58  O   UNL A   1      42.836  19.612  24.908  1.00  0.00    -0.744 OA
ENDBRANCH  54  55
ENDBRANCH  26  49
BRANCH  38  59
ATOM     59  C   UNL A   1      47.983  26.894  30.953  1.00  0.00    -0.014 A 
ATOM     60  C   UNL A   1      49.069  27.186  30.109  1.00  0.00     0.010 A 
ATOM     61  C   UNL A   1      48.210  26.159  32.131  1.00  0.00     0.010 A 
ATOM     62  C   UNL A   1      50.347  26.710  30.413  1.00  0.00     0.020 A 
ATOM     63  C   UNL A   1      49.492  25.712  32.457  1.00  0.00     0.020 A 
ATOM     64  C   UNL A   1      50.550  25.974  31.585  1.00  0.00     0.054 A 
BRANCH  64  65
ATOM     65  S   UNL A   1      52.222  25.389  31.969  1.00  0.00     0.124 S 
ATOM     66  O   UNL A   1      51.988  23.980  32.275  1.00  0.00    -0.237 OA
ATOM     67  O   UNL A   1      52.945  25.651  30.728  1.00  0.00    -0.237 OA
ATOM     68  O   UNL A   1      52.625  26.213  33.106  1.00  0.00    -0.744 OA
ENDBRANCH  64  65
ENDBRANCH  38  59
ENDBRANCH  12  13
ENDBRANCH   5   7
ENDBRANCH   2   3
ENDBRANCH   1   2
BRANCH   1  69
ATOM     69  C   UNL A   1      31.404  27.818  26.475  1.00  0.00     0.023 C 
BRANCH  69  70
ATOM     70  C   UNL A   1      30.878  26.614  25.707  1.00  0.00     0.116 C 
BRANCH  70  71
ATOM     71  N   UNL A   1      30.882  25.392  26.482  1.00  0.00    -0.356 N 
ATOM     72  C   UNL A   1      31.656  24.283  26.502  1.00  0.00     0.229 C 
ATOM     73  H   UNL A   1      30.155  25.360  27.146  1.00  0.00     0.163 HD
ATOM     74  O   UNL A   1      31.471  23.567  27.496  1.00  0.00    -0.274 OA
BRANCH  72  75
ATOM     75  C   UNL A   1      32.656  23.815  25.390  1.00  0.00     0.081 C 
ATOM     76  C   UNL A   1      33.692  24.876  25.017  1.00  0.00     0.048 C 
ATOM     77  C   UNL A   1      31.858  23.638  24.103  1.00  0.00     0.177 C 
ATOM     78  C   UNL A   1      33.228  25.460  23.691  1.00  0.00     0.161 C 
ATOM     79  O   UNL A   1      31.984  24.854  23.362  1.00  0.00    -0.380 OA
BRANCH  75  80
ATOM     80  C   UNL A   1      33.342  22.489  25.938  1.00  0.00     0.052 C 
ATOM     81  C   UNL A   1      33.825  21.498  24.850  1.00  0.00     0.144 C 
ATOM     82  C   UNL A   1      34.539  22.602  26.917  1.00  0.00     0.134 C 
ATOM     83  S   UNL A   1      35.599  21.626  24.730  1.00  0.00     0.153 S 
ATOM     84  C   UNL A   1      35.849  22.655  26.153  1.00  0.00     0.169 C 
ATOM     85  O   UNL A   1      36.180  20.321  24.981  1.00  0.00    -0.229 OA
ATOM     86  O   UNL A   1      35.929  22.398  23.553  1.00  0.00    -0.229 OA
BRANCH  82  87
ATOM     87  O   UNL A   1      34.594  21.469  27.790  1.00  0.00    -0.392 OA
ATOM     88  H   UNL A   1      35.519  21.270  28.003  1.00  0.00     0.211 HD
ENDBRANCH  82  87
ENDBRANCH  75  80
ENDBRANCH  72  75
ENDBRANCH  70  71
ENDBRANCH  69  70
ENDBRANCH   1  69
TORSDOF 16
ENDMDL
MODEL 3
REMARK VINA RESULT:     -10.3      1.067      1.985
REMARK SMILES O=C(NCCCCNC(=O)[C@]1([C@H]2CS(=O)(=O)C[C@@H]2O)CCOC1)c1ccc(-c2c3nc(c(-c4ccc(S(=O)(=O)[O-])cc4)c4ccc([nH]4)c(-c4ccc(S(=O)(=O)[O-])cc4)c4nc(c(-c5ccc(S(=O)(=O)[O-])cc5)c5ccc2[nH]5)C=C4)C=C3)cc1
REMARK SMILES IDX 5 1 4 2 3 3 1 4 2 5 24 7 25 8 83 9 26 10 82 11 27 12 28 13
REMARK SMILES IDX 29 14 76 15 30 16 81 17 75 18 77 19 31 20 80 21 74 22 73 23
REMARK SMILES IDX 32 25 62 26 43 27 61 28 44 29 47 30 60 31 78 32 45 33 46 34
REMARK SMILES IDX 59 36 79 37 48 38 33 39 34 40 42 41 35 42 41 43 36 44 37 45
REMARK SMILES IDX 38 46 39 47 40 48 63 49 64 50 72 51 65 52 71 53 66 54 67 55
REMARK SMILES IDX 68 56 69 57 70 58 49 59 50 60 58 61 51 62 57 63 52 64 53 65
REMARK SMILES IDX 54 66 55 67 56 68 6 69 7 70 8 71 9 72 10 74 11 75 20 76
REMARK SMILES IDX 23 77 21 78 22 79 12 80 13 81 18 82 14 83 17 84 15 85 16 86
REMARK SMILES IDX 19 87
REMARK H PARENT 3 6 77 24 47 35 8 73 19 88
REMARK Flexibility Score: inf
ROOT
ATOM      1  C   UNL A   1      32.620  28.078  26.209  1.00  0.00     0.023 C 
ENDROOT
BRANCH   1   2
ATOM      2  C   UNL A   1      33.693  28.504  27.199  1.00  0.00     0.116 C 
BRANCH   2   3
ATOM      3  N   UNL A   1      33.597  29.894  27.637  1.00  0.00    -0.352 N 
ATOM      4  O   UNL A   1      34.375  31.798  28.598  1.00  0.00    -0.269 OA
ATOM      5  C   UNL A   1      34.592  30.658  28.207  1.00  0.00     0.251 C 
ATOM      6  H   UNL A   1      32.724  30.333  27.511  1.00  0.00     0.163 HD
BRANCH   5   7
ATOM      7  C   UNL A   1      35.919  30.033  28.369  1.00  0.00     0.039 A 
ATOM      8  C   UNL A   1      36.279  29.526  29.617  1.00  0.00     0.014 A 
ATOM      9  C   UNL A   1      36.849  30.115  27.332  1.00  0.00     0.014 A 
ATOM     10  C   UNL A   1      37.617  29.295  29.890  1.00  0.00     0.010 A 
ATOM     11  C   UNL A   1      38.176  29.756  27.578  1.00  0.00     0.010 A 
ATOM     12  C   UNL A   1      38.582  29.392  28.872  1.00  0.00    -0.014 A 
BRANCH  12  13
ATOM     13  C   UNL A   1      39.993  29.053  29.189  1.00  0.00     0.031 A 
ATOM     14  C   UNL A   1      40.606  27.742  28.773  1.00  0.00     0.074 A 
ATOM     15  C   UNL A   1      40.737  29.977  29.829  1.00  0.00     0.049 A 
ATOM     16  N   UNL A   1      41.833  27.319  28.948  1.00  0.00    -0.248 NA
ATOM     17  C   UNL A   1      39.736  26.775  28.085  1.00  0.00     0.031 C 
ATOM     18  C   UNL A   1      40.250  31.287  30.277  1.00  0.00     0.029 A 
ATOM     19  N   UNL A   1      42.060  29.981  30.184  1.00  0.00    -0.354 N 
ATOM     20  C   UNL A   1      41.876  26.031  28.426  1.00  0.00     0.074 A 
ATOM     21  C   UNL A   1      40.544  25.732  27.943  1.00  0.00     0.031 C 
ATOM     22  C   UNL A   1      41.274  31.994  30.772  1.00  0.00     0.029 A 
ATOM     23  C   UNL A   1      42.466  31.157  30.768  1.00  0.00     0.049 A 
ATOM     24  H   UNL A   1      42.661  29.215  30.036  1.00  0.00     0.167 HD
ATOM     25  C   UNL A   1      42.927  25.177  28.361  1.00  0.00     0.031 A 
ATOM     26  C   UNL A   1      43.660  31.523  31.267  1.00  0.00     0.031 A 
ATOM     27  C   UNL A   1      44.250  25.489  28.844  1.00  0.00     0.049 A 
ATOM     28  C   UNL A   1      44.794  30.544  31.213  1.00  0.00     0.074 A 
ATOM     29  C   UNL A   1      45.393  24.708  28.788  1.00  0.00     0.029 A 
ATOM     30  N   UNL A   1      44.606  26.669  29.481  1.00  0.00    -0.354 N 
ATOM     31  N   UNL A   1      44.819  29.342  30.688  1.00  0.00    -0.248 NA
ATOM     32  C   UNL A   1      46.060  30.972  31.818  1.00  0.00     0.031 C 
ATOM     33  C   UNL A   1      46.420  25.388  29.452  1.00  0.00     0.029 A 
ATOM     34  C   UNL A   1      45.941  26.624  29.852  1.00  0.00     0.049 A 
ATOM     35  H   UNL A   1      44.000  27.428  29.644  1.00  0.00     0.167 HD
ATOM     36  C   UNL A   1      46.115  28.879  30.876  1.00  0.00     0.074 A 
ATOM     37  C   UNL A   1      46.844  29.939  31.545  1.00  0.00     0.031 C 
ATOM     38  C   UNL A   1      46.653  27.684  30.525  1.00  0.00     0.031 A 
BRANCH  25  39
ATOM     39  C   UNL A   1      42.685  23.800  27.789  1.00  0.00    -0.014 A 
ATOM     40  C   UNL A   1      42.781  23.542  26.409  1.00  0.00     0.010 A 
ATOM     41  C   UNL A   1      42.400  22.731  28.660  1.00  0.00     0.010 A 
ATOM     42  C   UNL A   1      42.550  22.256  25.910  1.00  0.00     0.020 A 
ATOM     43  C   UNL A   1      42.200  21.437  28.168  1.00  0.00     0.020 A 
ATOM     44  C   UNL A   1      42.257  21.212  26.793  1.00  0.00     0.054 A 
BRANCH  44  45
ATOM     45  S   UNL A   1      41.969  19.552  26.117  1.00  0.00     0.124 S 
ATOM     46  O   UNL A   1      40.530  19.577  25.863  1.00  0.00    -0.237 OA
ATOM     47  O   UNL A   1      42.816  19.541  24.928  1.00  0.00    -0.237 OA
ATOM     48  O   UNL A   1      42.396  18.660  27.192  1.00  0.00    -0.744 OA
ENDBRANCH  44  45
ENDBRANCH  25  39
BRANCH  26  49
ATOM     49  C   UNL A   1      43.827  32.874  31.866  1.00  0.00    -0.014 A 
ATOM     50  C   UNL A   1      43.614  33.076  33.240  1.00  0.00     0.010 A 
ATOM     51  C   UNL A   1      44.231  33.960  31.068  1.00  0.00     0.010 A 
ATOM     52  C   UNL A   1      43.786  34.345  33.802  1.00  0.00     0.020 A 
ATOM     53  C   UNL A   1      44.440  35.220  31.632  1.00  0.00     0.020 A 
ATOM     54  C   UNL A   1      44.203  35.407  32.995  1.00  0.00     0.054 A 
BRANCH  54  55
ATOM     55  S   UNL A   1      44.466  37.031  33.757  1.00  0.00     0.124 S 
ATOM     56  O   UNL A   1      43.998  36.806  35.120  1.00  0.00    -0.237 OA
ATOM     57  O   UNL A   1      45.907  37.219  33.603  1.00  0.00    -0.237 OA
ATOM     58  O   UNL A   1      43.640  37.926  32.950  1.00  0.00    -0.744 OA
ENDBRANCH  54  55
ENDBRANCH  26  49
BRANCH  38  59
ATOM     59  C   UNL A   1      48.116  27.481  30.818  1.00  0.00    -0.014 A 
ATOM     60  C   UNL A   1      48.553  26.900  32.021  1.00  0.00     0.010 A 
ATOM     61  C   UNL A   1      49.069  27.864  29.857  1.00  0.00     0.010 A 
ATOM     62  C   UNL A   1      49.918  26.748  32.277  1.00  0.00     0.020 A 
ATOM     63  C   UNL A   1      50.433  27.681  30.093  1.00  0.00     0.020 A 
ATOM     64  C   UNL A   1      50.849  27.142  31.311  1.00  0.00     0.054 A 
BRANCH  64  65
ATOM     65  S   UNL A   1      52.615  26.913  31.658  1.00  0.00     0.124 S 
ATOM     66  O   UNL A   1      53.210  28.057  30.973  1.00  0.00    -0.237 OA
ATOM     67  O   UNL A   1      52.662  26.958  33.116  1.00  0.00    -0.237 OA
ATOM     68  O   UNL A   1      52.916  25.610  31.070  1.00  0.00    -0.744 OA
ENDBRANCH  64  65
ENDBRANCH  38  59
ENDBRANCH  12  13
ENDBRANCH   5   7
ENDBRANCH   2   3
ENDBRANCH   1   2
BRANCH   1  69
ATOM     69  C   UNL A   1      31.364  27.484  26.832  1.00  0.00     0.023 C 
BRANCH  69  70
ATOM     70  C   UNL A   1      30.716  26.379  26.010  1.00  0.00     0.116 C 
BRANCH  70  71
ATOM     71  N   UNL A   1      30.688  25.100  26.687  1.00  0.00    -0.356 N 
ATOM     72  C   UNL A   1      31.420  23.967  26.604  1.00  0.00     0.229 C 
ATOM     73  H   UNL A   1      29.973  25.042  27.361  1.00  0.00     0.163 HD
ATOM     74  O   UNL A   1      31.226  23.182  27.543  1.00  0.00    -0.274 OA
BRANCH  72  75
ATOM     75  C   UNL A   1      32.382  23.553  25.438  1.00  0.00     0.081 C 
ATOM     76  C   UNL A   1      33.268  24.697  24.944  1.00  0.00     0.048 C 
ATOM     77  C   UNL A   1      31.518  23.231  24.225  1.00  0.00     0.177 C 
ATOM     78  C   UNL A   1      32.650  25.165  23.636  1.00  0.00     0.161 C 
ATOM     79  O   UNL A   1      31.458  24.417  23.428  1.00  0.00    -0.380 OA
BRANCH  75  80
ATOM     80  C   UNL A   1      33.245  22.334  25.985  1.00  0.00     0.052 C 
ATOM     81  C   UNL A   1      33.798  21.377  24.900  1.00  0.00     0.144 C 
ATOM     82  C   UNL A   1      34.458  22.616  26.908  1.00  0.00     0.134 C 
ATOM     83  S   UNL A   1      35.538  21.713  24.699  1.00  0.00     0.153 S 
ATOM     84  C   UNL A   1      35.721  22.803  26.086  1.00  0.00     0.169 C 
ATOM     85  O   UNL A   1      36.282  20.494  24.954  1.00  0.00    -0.229 OA
ATOM     86  O   UNL A   1      35.724  22.486  23.492  1.00  0.00    -0.229 OA
BRANCH  82  87
ATOM     87  O   UNL A   1      34.685  21.521  27.803  1.00  0.00    -0.392 OA
ATOM     88  H   UNL A   1      34.226  20.733  27.472  1.00  0.00     0.211 HD
ENDBRANCH  82  87
ENDBRANCH  75  80
ENDBRANCH  72  75
ENDBRANCH  70  71
ENDBRANCH  69  70
ENDBRANCH   1  69
TORSDOF 16
ENDMDL
