MODEL 1
REMARK VINA RESULT:      -9.7      0.000      0.000
REMARK SMILES CC[NH2+][C@]1(C(=O)NCCCCNC(=O)c2ccc(-c3c4nc(c(-c5ccc(S(=O)(=O)[O-])cc5)c5ccc([nH]5)c(-c5ccc(S(=O)(=O)[O-])cc5)c5nc(c(-c6ccc(S(=O)(=O)[O-])cc6)c6ccc3[nH]6)C=C5)C=C4)cc2)CC[C@H]([N@H+](C)CC[NH+]2CCCC2)C1
REMARK SMILES IDX 9 1 8 2 7 3 5 4 6 5 4 7 75 8 87 9 76 10 77 11 3 12 2 15 1 16
REMARK SMILES IDX 78 17 79 18 80 20 81 21 82 22 83 23 86 24 84 26 85 27 10 28
REMARK SMILES IDX 11 29 12 30 13 31 14 33 15 34 16 35 74 36 17 37 73 38 18 39
REMARK SMILES IDX 19 40 20 41 67 42 21 43 72 44 66 45 68 46 22 47 71 48 65 49
REMARK SMILES IDX 64 50 23 52 53 53 34 54 52 55 35 56 38 57 51 58 69 59 36 60
REMARK SMILES IDX 37 61 50 63 70 64 39 65 24 66 25 67 33 68 26 69 32 70 27 71
REMARK SMILES IDX 28 72 29 73 30 74 31 75 54 76 55 77 63 78 56 79 62 80 57 81
REMARK SMILES IDX 58 82 59 83 60 84 61 85 40 86 41 87 49 88 42 89 48 90 43 91
REMARK SMILES IDX 44 92 45 93 46 94 47 95
REMARK H PARENT 7 6 3 13 3 14 78 19 82 25 12 32 68 51 38 62
REMARK Flexibility Score: inf
ROOT
ATOM      1  C   UNL A   1      34.018  28.230  24.037  1.00  0.00     0.023 C 
ENDROOT
BRANCH   1   2
ATOM      2  C   UNL A   1      32.800  27.913  23.176  1.00  0.00     0.116 C 
BRANCH   2   3
ATOM      3  N   UNL A   1      33.100  27.119  22.002  1.00  0.00    -0.351 N 
ATOM      4  C   UNL A   1      33.046  25.777  21.764  1.00  0.00     0.281 C 
ATOM      5  O   UNL A   1      33.199  25.431  20.584  1.00  0.00    -0.268 OA
ATOM      6  H   UNL A   1      33.399  27.649  21.229  1.00  0.00     0.163 HD
BRANCH   4   7
ATOM      7  C   UNL A   1      32.933  24.699  22.891  1.00  0.00     0.181 C 
ATOM      8  C   UNL A   1      32.514  23.303  22.410  1.00  0.00     0.085 C 
ATOM      9  C   UNL A   1      34.352  24.365  23.446  1.00  0.00     0.144 C 
ATOM     10  C   UNL A   1      33.037  22.312  23.431  1.00  0.00     0.072 C 
ATOM     11  C   UNL A   1      34.343  22.909  23.961  1.00  0.00     0.191 C 
BRANCH   7  12
ATOM     12  N   UNL A   1      31.966  25.179  23.915  1.00  0.00    -0.334 N 
ATOM     13  H   UNL A   1      32.200  24.738  24.804  1.00  0.00     0.347 HD
ATOM     14  H   UNL A   1      32.050  26.195  23.941  1.00  0.00     0.347 HD
BRANCH  12  15
ATOM     15  C   UNL A   1      30.562  24.884  23.612  1.00  0.00     0.257 C 
ATOM     16  C   UNL A   1      29.699  26.132  23.760  1.00  0.00     0.071 C 
ENDBRANCH  12  15
ENDBRANCH   7  12
BRANCH  11  17
ATOM     17  N   UNL A   1      34.426  22.608  25.398  1.00  0.00    -0.330 N 
ATOM     18  C   UNL A   1      33.241  22.925  26.182  1.00  0.00     0.333 C 
ATOM     19  H   UNL A   1      34.461  21.589  25.403  1.00  0.00     0.348 HD
BRANCH  17  20
ATOM     20  C   UNL A   1      35.669  23.059  26.036  1.00  0.00     0.324 C 
BRANCH  20  21
ATOM     21  C   UNL A   1      36.917  22.165  25.758  1.00  0.00     0.324 C 
BRANCH  21  22
ATOM     22  N   UNL A   1      38.246  22.747  25.501  1.00  0.00    -0.330 N 
ATOM     23  C   UNL A   1      39.364  21.883  25.871  1.00  0.00     0.262 C 
ATOM     24  C   UNL A   1      38.514  24.049  26.116  1.00  0.00     0.262 C 
ATOM     25  H   UNL A   1      38.191  22.863  24.489  1.00  0.00     0.348 HD
ATOM     26  C   UNL A   1      39.808  22.339  27.246  1.00  0.00     0.067 C 
ATOM     27  C   UNL A   1      39.492  23.822  27.265  1.00  0.00     0.067 C 
ENDBRANCH  21  22
ENDBRANCH  20  21
ENDBRANCH  17  20
ENDBRANCH  11  17
ENDBRANCH   4   7
ENDBRANCH   2   3
ENDBRANCH   1   2
BRANCH   1  28
ATOM     28  C   UNL A   1      33.881  27.832  25.509  1.00  0.00     0.023 C 
BRANCH  28  29
ATOM     29  C   UNL A   1      34.659  28.693  26.501  1.00  0.00     0.116 C 
BRANCH  29  30
ATOM     30  N   UNL A   1      34.048  29.986  26.772  1.00  0.00    -0.352 N 
ATOM     31  C   UNL A   1      34.468  30.967  27.643  1.00  0.00     0.251 C 
ATOM     32  H   UNL A   1      33.227  30.185  26.266  1.00  0.00     0.163 HD
ATOM     33  O   UNL A   1      33.809  31.981  27.797  1.00  0.00    -0.269 OA
BRANCH  31  34
ATOM     34  C   UNL A   1      35.702  30.742  28.427  1.00  0.00     0.039 A 
ATOM     35  C   UNL A   1      35.705  29.728  29.387  1.00  0.00     0.014 A 
ATOM     36  C   UNL A   1      36.858  31.485  28.177  1.00  0.00     0.014 A 
ATOM     37  C   UNL A   1      36.892  29.413  30.048  1.00  0.00     0.010 A 
ATOM     38  C   UNL A   1      38.056  31.120  28.781  1.00  0.00     0.010 A 
ATOM     39  C   UNL A   1      38.085  30.081  29.723  1.00  0.00    -0.014 A 
BRANCH  39  40
ATOM     40  C   UNL A   1      39.370  29.690  30.355  1.00  0.00     0.031 A 
ATOM     41  C   UNL A   1      39.863  30.411  31.579  1.00  0.00     0.074 A 
ATOM     42  C   UNL A   1      40.110  28.709  29.800  1.00  0.00     0.049 A 
ATOM     43  N   UNL A   1      40.951  30.203  32.274  1.00  0.00    -0.248 NA
ATOM     44  C   UNL A   1      39.041  31.528  32.072  1.00  0.00     0.031 C 
ATOM     45  C   UNL A   1      39.766  27.976  28.578  1.00  0.00     0.029 A 
ATOM     46  N   UNL A   1      41.304  28.158  30.192  1.00  0.00    -0.354 N 
ATOM     47  C   UNL A   1      40.950  31.166  33.276  1.00  0.00     0.074 A 
ATOM     48  C   UNL A   1      39.784  31.994  33.065  1.00  0.00     0.031 C 
ATOM     49  C   UNL A   1      40.707  27.045  28.345  1.00  0.00     0.029 A 
ATOM     50  C   UNL A   1      41.733  27.136  29.379  1.00  0.00     0.049 A 
ATOM     51  H   UNL A   1      41.805  28.466  30.981  1.00  0.00     0.167 HD
ATOM     52  C   UNL A   1      41.826  31.330  34.296  1.00  0.00     0.031 A 
ATOM     53  C   UNL A   1      42.826  26.353  29.461  1.00  0.00     0.031 A 
ATOM     54  C   UNL A   1      42.980  30.497  34.508  1.00  0.00     0.049 A 
ATOM     55  C   UNL A   1      43.776  26.544  30.610  1.00  0.00     0.074 A 
ATOM     56  C   UNL A   1      43.900  30.546  35.541  1.00  0.00     0.029 A 
ATOM     57  N   UNL A   1      43.373  29.464  33.669  1.00  0.00    -0.354 N 
ATOM     58  N   UNL A   1      43.717  27.414  31.592  1.00  0.00    -0.248 NA
ATOM     59  C   UNL A   1      44.929  25.637  30.673  1.00  0.00     0.031 C 
ATOM     60  C   UNL A   1      44.874  29.570  35.303  1.00  0.00     0.029 A 
ATOM     61  C   UNL A   1      44.532  28.879  34.151  1.00  0.00     0.049 A 
ATOM     62  H   UNL A   1      42.898  29.187  32.853  1.00  0.00     0.167 HD
ATOM     63  C   UNL A   1      44.812  27.140  32.403  1.00  0.00     0.074 A 
ATOM     64  C   UNL A   1      45.502  26.014  31.808  1.00  0.00     0.031 C 
ATOM     65  C   UNL A   1      45.210  27.765  33.541  1.00  0.00     0.031 A 
BRANCH  52  66
ATOM     66  C   UNL A   1      41.563  32.457  35.260  1.00  0.00    -0.014 A 
ATOM     67  C   UNL A   1      42.015  33.762  34.990  1.00  0.00     0.010 A 
ATOM     68  C   UNL A   1      40.833  32.217  36.437  1.00  0.00     0.010 A 
ATOM     69  C   UNL A   1      41.782  34.795  35.901  1.00  0.00     0.020 A 
ATOM     70  C   UNL A   1      40.572  33.255  37.338  1.00  0.00     0.020 A 
ATOM     71  C   UNL A   1      41.064  34.534  37.072  1.00  0.00     0.054 A 
BRANCH  71  72
ATOM     72  S   UNL A   1      40.759  35.899  38.227  1.00  0.00     0.124 S 
ATOM     73  O   UNL A   1      40.181  35.200  39.372  1.00  0.00    -0.237 OA
ATOM     74  O   UNL A   1      42.096  36.447  38.436  1.00  0.00    -0.237 OA
ATOM     75  O   UNL A   1      39.838  36.769  37.499  1.00  0.00    -0.744 OA
ENDBRANCH  71  72
ENDBRANCH  52  66
BRANCH  53  76
ATOM     76  C   UNL A   1      43.060  25.293  28.441  1.00  0.00    -0.014 A 
ATOM     77  C   UNL A   1      43.485  25.633  27.144  1.00  0.00     0.010 A 
ATOM     78  C   UNL A   1      42.872  23.938  28.766  1.00  0.00     0.010 A 
ATOM     79  C   UNL A   1      43.698  24.638  26.185  1.00  0.00     0.020 A 
ATOM     80  C   UNL A   1      43.110  22.938  27.817  1.00  0.00     0.020 A 
ATOM     81  C   UNL A   1      43.511  23.296  26.529  1.00  0.00     0.054 A 
BRANCH  81  82
ATOM     82  S   UNL A   1      43.844  22.018  25.284  1.00  0.00     0.124 S 
ATOM     83  O   UNL A   1      43.757  22.776  24.040  1.00  0.00    -0.237 OA
ATOM     84  O   UNL A   1      45.180  21.557  25.654  1.00  0.00    -0.237 OA
ATOM     85  O   UNL A   1      42.775  21.045  25.501  1.00  0.00    -0.744 OA
ENDBRANCH  81  82
ENDBRANCH  53  76
BRANCH  65  86
ATOM     86  C   UNL A   1      46.435  27.221  34.228  1.00  0.00    -0.014 A 
ATOM     87  C   UNL A   1      46.338  26.202  35.193  1.00  0.00     0.010 A 
ATOM     88  C   UNL A   1      47.703  27.719  33.880  1.00  0.00     0.010 A 
ATOM     89  C   UNL A   1      47.485  25.724  35.831  1.00  0.00     0.020 A 
ATOM     90  C   UNL A   1      48.855  27.224  34.496  1.00  0.00     0.020 A 
ATOM     91  C   UNL A   1      48.736  26.243  35.482  1.00  0.00     0.054 A 
BRANCH  91  92
ATOM     92  S   UNL A   1      50.213  25.594  36.311  1.00  0.00     0.124 S 
ATOM     93  O   UNL A   1      51.260  26.473  35.796  1.00  0.00    -0.237 OA
ATOM     94  O   UNL A   1      49.889  25.765  37.725  1.00  0.00    -0.237 OA
ATOM     95  O   UNL A   1      50.285  24.208  35.857  1.00  0.00    -0.744 OA
ENDBRANCH  91  92
ENDBRANCH  65  86
ENDBRANCH  39  40
ENDBRANCH  31  34
ENDBRANCH  29  30
ENDBRANCH  28  29
ENDBRANCH   1  28
TORSDOF 20
ENDMDL
MODEL 2
REMARK VINA RESULT:      -9.4      2.909      8.709
REMARK SMILES CC[NH2+][C@]1(C(=O)NCCCCNC(=O)c2ccc(-c3c4nc(c(-c5ccc(S(=O)(=O)[O-])cc5)c5ccc([nH]5)c(-c5ccc(S(=O)(=O)[O-])cc5)c5nc(c(-c6ccc(S(=O)(=O)[O-])cc6)c6ccc3[nH]6)C=C5)C=C4)cc2)CC[C@H]([N@H+](C)CC[NH+]2CCCC2)C1
REMARK SMILES IDX 9 1 8 2 7 3 5 4 6 5 4 7 75 8 87 9 76 10 77 11 3 12 2 15 1 16
REMARK SMILES IDX 78 17 79 18 80 20 81 21 82 22 83 23 86 24 84 26 85 27 10 28
REMARK SMILES IDX 11 29 12 30 13 31 14 33 15 34 16 35 74 36 17 37 73 38 18 39
REMARK SMILES IDX 19 40 20 41 67 42 21 43 72 44 66 45 68 46 22 47 71 48 65 49
REMARK SMILES IDX 64 50 23 52 53 53 34 54 52 55 35 56 38 57 51 58 69 59 36 60
REMARK SMILES IDX 37 61 50 63 70 64 39 65 24 66 25 67 33 68 26 69 32 70 27 71
REMARK SMILES IDX 28 72 29 73 30 74 31 75 54 76 55 77 63 78 56 79 62 80 57 81
REMARK SMILES IDX 58 82 59 83 60 84 61 85 40 86 41 87 49 88 42 89 48 90 43 91
REMARK SMILES IDX 44 92 45 93 46 94 47 95
REMARK H PARENT 7 6 3 13 3 14 78 19 82 25 12 32 68 51 38 62
REMARK Flexibility Score: inf
ROOT
ATOM      1  C   UNL A   1      37.330  22.386  25.305  1.00  0.00     0.023 C 
ENDROOT
BRANCH   1   2
ATOM      2  C   UNL A   1      35.978  21.706  25.489  1.00  0.00     0.116 C 
BRANCH   2   3
ATOM      3  N   UNL A   1      35.350  21.981  26.765  1.00  0.00    -0.351 N 
ATOM      4  C   UNL A   1      34.077  22.339  27.103  1.00  0.00     0.281 C 
ATOM      5  O   UNL A   1      33.816  22.325  28.314  1.00  0.00    -0.268 OA
ATOM      6  H   UNL A   1      35.956  21.893  27.535  1.00  0.00     0.163 HD
BRANCH   4   7
ATOM      7  C   UNL A   1      33.023  22.867  26.077  1.00  0.00     0.181 C 
ATOM      8  C   UNL A   1      31.809  23.569  26.700  1.00  0.00     0.085 C 
ATOM      9  C   UNL A   1      33.623  24.059  25.269  1.00  0.00     0.144 C 
ATOM     10  C   UNL A   1      31.257  24.510  25.648  1.00  0.00     0.072 C 
ATOM     11  C   UNL A   1      32.466  24.988  24.840  1.00  0.00     0.191 C 
BRANCH   7  12
ATOM     12  N   UNL A   1      32.558  21.727  25.241  1.00  0.00    -0.334 N 
ATOM     13  H   UNL A   1      32.748  20.863  25.747  1.00  0.00     0.347 HD
ATOM     14  H   UNL A   1      31.563  21.879  25.071  1.00  0.00     0.347 HD
BRANCH  12  15
ATOM     15  C   UNL A   1      33.197  21.637  23.924  1.00  0.00     0.257 C 
ATOM     16  C   UNL A   1      32.153  21.507  22.820  1.00  0.00     0.071 C 
ENDBRANCH  12  15
ENDBRANCH   7  12
BRANCH  11  17
ATOM     17  N   UNL A   1      32.055  25.094  23.433  1.00  0.00    -0.330 N 
ATOM     18  C   UNL A   1      33.137  25.167  22.461  1.00  0.00     0.333 C 
ATOM     19  H   UNL A   1      31.631  24.182  23.261  1.00  0.00     0.348 HD
BRANCH  17  20
ATOM     20  C   UNL A   1      31.000  26.085  23.187  1.00  0.00     0.324 C 
BRANCH  20  21
ATOM     21  C   UNL A   1      31.454  27.352  22.398  1.00  0.00     0.324 C 
BRANCH  21  22
ATOM     22  N   UNL A   1      31.740  28.627  23.079  1.00  0.00    -0.330 N 
ATOM     23  C   UNL A   1      33.160  28.956  23.171  1.00  0.00     0.262 C 
ATOM     24  C   UNL A   1      31.198  28.776  24.432  1.00  0.00     0.262 C 
ATOM     25  H   UNL A   1      31.253  29.270  22.454  1.00  0.00     0.348 HD
ATOM     26  C   UNL A   1      33.605  28.513  24.549  1.00  0.00     0.067 C 
ATOM     27  C   UNL A   1      32.366  28.675  25.409  1.00  0.00     0.067 C 
ENDBRANCH  21  22
ENDBRANCH  20  21
ENDBRANCH  17  20
ENDBRANCH  11  17
ENDBRANCH   4   7
ENDBRANCH   2   3
ENDBRANCH   1   2
BRANCH   1  28
ATOM     28  C   UNL A   1      37.412  23.808  25.865  1.00  0.00     0.023 C 
BRANCH  28  29
ATOM     29  C   UNL A   1      38.587  24.083  26.802  1.00  0.00     0.116 C 
BRANCH  29  30
ATOM     30  N   UNL A   1      39.860  24.259  26.119  1.00  0.00    -0.352 N 
ATOM     31  C   UNL A   1      40.821  25.224  26.333  1.00  0.00     0.251 C 
ATOM     32  H   UNL A   1      40.061  23.605  25.412  1.00  0.00     0.163 HD
ATOM     33  O   UNL A   1      41.819  25.268  25.635  1.00  0.00    -0.269 OA
BRANCH  31  34
ATOM     34  C   UNL A   1      40.593  26.234  27.390  1.00  0.00     0.039 A 
ATOM     35  C   UNL A   1      39.739  25.910  28.446  1.00  0.00     0.014 A 
ATOM     36  C   UNL A   1      41.256  27.463  27.365  1.00  0.00     0.014 A 
ATOM     37  C   UNL A   1      39.607  26.794  29.517  1.00  0.00     0.010 A 
ATOM     38  C   UNL A   1      41.181  28.308  28.467  1.00  0.00     0.010 A 
ATOM     39  C   UNL A   1      40.356  27.983  29.554  1.00  0.00    -0.014 A 
BRANCH  39  40
ATOM     40  C   UNL A   1      40.290  28.885  30.730  1.00  0.00     0.031 A 
ATOM     41  C   UNL A   1      39.281  29.998  30.777  1.00  0.00     0.074 A 
ATOM     42  C   UNL A   1      41.171  28.723  31.739  1.00  0.00     0.049 A 
ATOM     43  N   UNL A   1      39.066  30.875  31.723  1.00  0.00    -0.248 NA
ATOM     44  C   UNL A   1      38.415  30.163  29.598  1.00  0.00     0.031 C 
ATOM     45  C   UNL A   1      42.236  27.717  31.782  1.00  0.00     0.029 A 
ATOM     46  N   UNL A   1      41.307  29.400  32.925  1.00  0.00    -0.354 N 
ATOM     47  C   UNL A   1      38.053  31.701  31.251  1.00  0.00     0.074 A 
ATOM     48  C   UNL A   1      37.735  31.256  29.912  1.00  0.00     0.031 C 
ATOM     49  C   UNL A   1      42.889  27.818  32.951  1.00  0.00     0.029 A 
ATOM     50  C   UNL A   1      42.312  28.912  33.726  1.00  0.00     0.049 A 
ATOM     51  H   UNL A   1      40.739  30.163  33.177  1.00  0.00     0.167 HD
ATOM     52  C   UNL A   1      37.426  32.721  31.883  1.00  0.00     0.031 A 
ATOM     53  C   UNL A   1      42.718  29.297  34.951  1.00  0.00     0.031 A 
ATOM     54  C   UNL A   1      37.740  33.154  33.219  1.00  0.00     0.049 A 
ATOM     55  C   UNL A   1      41.996  30.421  35.639  1.00  0.00     0.074 A 
ATOM     56  C   UNL A   1      37.127  34.142  33.971  1.00  0.00     0.029 A 
ATOM     57  N   UNL A   1      38.756  32.626  34.003  1.00  0.00    -0.354 N 
ATOM     58  N   UNL A   1      40.989  31.142  35.205  1.00  0.00    -0.248 NA
ATOM     59  C   UNL A   1      42.455  30.773  36.990  1.00  0.00     0.031 C 
ATOM     60  C   UNL A   1      37.802  34.241  35.193  1.00  0.00     0.029 A 
ATOM     61  C   UNL A   1      38.799  33.279  35.223  1.00  0.00     0.049 A 
ATOM     62  H   UNL A   1      39.356  31.895  33.731  1.00  0.00     0.167 HD
ATOM     63  C   UNL A   1      40.677  32.015  36.241  1.00  0.00     0.074 A 
ATOM     64  C   UNL A   1      41.588  31.718  37.327  1.00  0.00     0.031 C 
ATOM     65  C   UNL A   1      39.719  32.976  36.289  1.00  0.00     0.031 A 
BRANCH  52  66
ATOM     66  C   UNL A   1      36.334  33.436  31.131  1.00  0.00    -0.014 A 
ATOM     67  C   UNL A   1      36.544  33.904  29.821  1.00  0.00     0.010 A 
ATOM     68  C   UNL A   1      35.075  33.620  31.729  1.00  0.00     0.010 A 
ATOM     69  C   UNL A   1      35.530  34.583  29.140  1.00  0.00     0.020 A 
ATOM     70  C   UNL A   1      34.047  34.272  31.039  1.00  0.00     0.020 A 
ATOM     71  C   UNL A   1      34.288  34.765  29.756  1.00  0.00     0.054 A 
BRANCH  71  72
ATOM     72  S   UNL A   1      32.984  35.633  28.840  1.00  0.00     0.124 S 
ATOM     73  O   UNL A   1      32.134  36.124  29.922  1.00  0.00    -0.237 OA
ATOM     74  O   UNL A   1      33.729  36.656  28.114  1.00  0.00    -0.237 OA
ATOM     75  O   UNL A   1      32.392  34.588  28.009  1.00  0.00    -0.744 OA
ENDBRANCH  71  72
ENDBRANCH  52  66
BRANCH  53  76
ATOM     76  C   UNL A   1      43.844  28.586  35.618  1.00  0.00    -0.014 A 
ATOM     77  C   UNL A   1      43.593  27.498  36.474  1.00  0.00     0.010 A 
ATOM     78  C   UNL A   1      45.174  28.984  35.391  1.00  0.00     0.010 A 
ATOM     79  C   UNL A   1      44.649  26.835  37.106  1.00  0.00     0.020 A 
ATOM     80  C   UNL A   1      46.234  28.306  36.000  1.00  0.00     0.020 A 
ATOM     81  C   UNL A   1      45.964  27.242  36.863  1.00  0.00     0.054 A 
BRANCH  81  82
ATOM     82  S   UNL A   1      47.322  26.334  37.653  1.00  0.00     0.124 S 
ATOM     83  O   UNL A   1      48.281  26.212  36.560  1.00  0.00    -0.237 OA
ATOM     84  O   UNL A   1      47.711  27.229  38.739  1.00  0.00    -0.237 OA
ATOM     85  O   UNL A   1      46.694  25.085  38.079  1.00  0.00    -0.744 OA
ENDBRANCH  81  82
ENDBRANCH  53  76
BRANCH  65  86
ATOM     86  C   UNL A   1      39.594  33.755  37.572  1.00  0.00    -0.014 A 
ATOM     87  C   UNL A   1      40.326  34.937  37.782  1.00  0.00     0.010 A 
ATOM     88  C   UNL A   1      38.707  33.310  38.569  1.00  0.00     0.010 A 
ATOM     89  C   UNL A   1      40.208  35.635  38.986  1.00  0.00     0.020 A 
ATOM     90  C   UNL A   1      38.566  34.021  39.763  1.00  0.00     0.020 A 
ATOM     91  C   UNL A   1      39.332  35.168  39.971  1.00  0.00     0.054 A 
BRANCH  91  92
ATOM     92  S   UNL A   1      39.182  36.101  41.520  1.00  0.00     0.124 S 
ATOM     93  O   UNL A   1      39.004  37.467  41.035  1.00  0.00    -0.237 OA
ATOM     94  O   UNL A   1      38.007  35.498  42.145  1.00  0.00    -0.237 OA
ATOM     95  O   UNL A   1      40.446  35.842  42.204  1.00  0.00    -0.744 OA
ENDBRANCH  91  92
ENDBRANCH  65  86
ENDBRANCH  39  40
ENDBRANCH  31  34
ENDBRANCH  29  30
ENDBRANCH  28  29
ENDBRANCH   1  28
TORSDOF 20
ENDMDL
MODEL 3
REMARK VINA RESULT:      -9.4      5.273      9.676
REMARK SMILES CC[NH2+][C@]1(C(=O)NCCCCNC(=O)c2ccc(-c3c4nc(c(-c5ccc(S(=O)(=O)[O-])cc5)c5ccc([nH]5)c(-c5ccc(S(=O)(=O)[O-])cc5)c5nc(c(-c6ccc(S(=O)(=O)[O-])cc6)c6ccc3[nH]6)C=C5)C=C4)cc2)CC[C@H]([N@H+](C)CC[NH+]2CCCC2)C1
REMARK SMILES IDX 9 1 8 2 7 3 5 4 6 5 4 7 75 8 87 9 76 10 77 11 3 12 2 15 1 16
REMARK SMILES IDX 78 17 79 18 80 20 81 21 82 22 83 23 86 24 84 26 85 27 10 28
REMARK SMILES IDX 11 29 12 30 13 31 14 33 15 34 16 35 74 36 17 37 73 38 18 39
REMARK SMILES IDX 19 40 20 41 67 42 21 43 72 44 66 45 68 46 22 47 71 48 65 49
REMARK SMILES IDX 64 50 23 52 53 53 34 54 52 55 35 56 38 57 51 58 69 59 36 60
REMARK SMILES IDX 37 61 50 63 70 64 39 65 24 66 25 67 33 68 26 69 32 70 27 71
REMARK SMILES IDX 28 72 29 73 30 74 31 75 54 76 55 77 63 78 56 79 62 80 57 81
REMARK SMILES IDX 58 82 59 83 60 84 61 85 40 86 41 87 49 88 42 89 48 90 43 91
REMARK SMILES IDX 44 92 45 93 46 94 47 95
REMARK H PARENT 7 6 3 13 3 14 78 19 82 25 12 32 68 51 38 62
REMARK Flexibility Score: inf
ROOT
ATOM      1  C   UNL A   1      33.825  30.063  26.506  1.00  0.00     0.023 C 
ENDROOT
BRANCH   1   2
ATOM      2  C   UNL A   1      32.316  29.968  26.697  1.00  0.00     0.116 C 
BRANCH   2   3
ATOM      3  N   UNL A   1      31.556  30.139  25.476  1.00  0.00    -0.351 N 
ATOM      4  C   UNL A   1      31.154  29.258  24.514  1.00  0.00     0.281 C 
ATOM      5  O   UNL A   1      30.355  29.700  23.677  1.00  0.00    -0.268 OA
ATOM      6  H   UNL A   1      31.275  31.067  25.308  1.00  0.00     0.163 HD
BRANCH   4   7
ATOM      7  C   UNL A   1      31.737  27.816  24.361  1.00  0.00     0.181 C 
ATOM      8  C   UNL A   1      33.241  27.756  24.060  1.00  0.00     0.085 C 
ATOM      9  C   UNL A   1      31.722  27.090  25.742  1.00  0.00     0.144 C 
ATOM     10  C   UNL A   1      33.733  26.406  24.544  1.00  0.00     0.072 C 
ATOM     11  C   UNL A   1      32.875  26.063  25.764  1.00  0.00     0.191 C 
BRANCH   7  12
ATOM     12  N   UNL A   1      30.991  27.111  23.284  1.00  0.00    -0.334 N 
ATOM     13  H   UNL A   1      30.475  27.807  22.746  1.00  0.00     0.347 HD
ATOM     14  H   UNL A   1      31.685  26.612  22.728  1.00  0.00     0.347 HD
BRANCH  12  15
ATOM     15  C   UNL A   1      30.038  26.103  23.763  1.00  0.00     0.257 C 
ATOM     16  C   UNL A   1      28.621  26.664  23.792  1.00  0.00     0.071 C 
ENDBRANCH  12  15
ENDBRANCH   7  12
BRANCH  11  17
ATOM     17  N   UNL A   1      32.609  24.618  25.738  1.00  0.00    -0.330 N 
ATOM     18  C   UNL A   1      31.887  24.085  26.885  1.00  0.00     0.333 C 
ATOM     19  H   UNL A   1      31.945  24.534  24.968  1.00  0.00     0.348 HD
BRANCH  17  20
ATOM     20  C   UNL A   1      33.769  23.799  25.364  1.00  0.00     0.324 C 
BRANCH  20  21
ATOM     21  C   UNL A   1      34.511  23.120  26.557  1.00  0.00     0.324 C 
BRANCH  21  22
ATOM     22  N   UNL A   1      35.905  22.657  26.439  1.00  0.00    -0.330 N 
ATOM     23  C   UNL A   1      36.829  23.657  25.909  1.00  0.00     0.262 C 
ATOM     24  C   UNL A   1      36.120  21.442  25.649  1.00  0.00     0.262 C 
ATOM     25  H   UNL A   1      36.103  22.454  27.419  1.00  0.00     0.348 HD
ATOM     26  C   UNL A   1      36.965  23.360  24.431  1.00  0.00     0.067 C 
ATOM     27  C   UNL A   1      36.772  21.859  24.334  1.00  0.00     0.067 C 
ENDBRANCH  21  22
ENDBRANCH  20  21
ENDBRANCH  17  20
ENDBRANCH  11  17
ENDBRANCH   4   7
ENDBRANCH   2   3
ENDBRANCH   1   2
BRANCH   1  28
ATOM     28  C   UNL A   1      34.559  30.853  27.593  1.00  0.00     0.023 C 
BRANCH  28  29
ATOM     29  C   UNL A   1      35.733  30.133  28.254  1.00  0.00     0.116 C 
BRANCH  29  30
ATOM     30  N   UNL A   1      35.656  30.085  29.707  1.00  0.00    -0.352 N 
ATOM     31  C   UNL A   1      36.618  29.672  30.603  1.00  0.00     0.251 C 
ATOM     32  H   UNL A   1      34.806  30.387  30.101  1.00  0.00     0.163 HD
ATOM     33  O   UNL A   1      36.378  29.640  31.797  1.00  0.00    -0.269 OA
BRANCH  31  34
ATOM     34  C   UNL A   1      37.926  29.217  30.082  1.00  0.00     0.039 A 
ATOM     35  C   UNL A   1      38.271  29.547  28.770  1.00  0.00     0.014 A 
ATOM     36  C   UNL A   1      38.822  28.522  30.898  1.00  0.00     0.014 A 
ATOM     37  C   UNL A   1      39.548  29.241  28.299  1.00  0.00     0.010 A 
ATOM     38  C   UNL A   1      40.118  28.285  30.452  1.00  0.00     0.010 A 
ATOM     39  C   UNL A   1      40.494  28.641  29.149  1.00  0.00    -0.014 A 
BRANCH  39  40
ATOM     40  C   UNL A   1      41.881  28.394  28.684  1.00  0.00     0.031 A 
ATOM     41  C   UNL A   1      42.288  27.030  28.202  1.00  0.00     0.074 A 
ATOM     42  C   UNL A   1      42.786  29.394  28.737  1.00  0.00     0.049 A 
ATOM     43  N   UNL A   1      43.448  26.629  27.748  1.00  0.00    -0.248 NA
ATOM     44  C   UNL A   1      41.268  25.970  28.258  1.00  0.00     0.031 C 
ATOM     45  C   UNL A   1      42.527  30.745  29.241  1.00  0.00     0.029 A 
ATOM     46  N   UNL A   1      44.103  29.429  28.357  1.00  0.00    -0.354 N 
ATOM     47  C   UNL A   1      43.300  25.274  27.477  1.00  0.00     0.074 A 
ATOM     48  C   UNL A   1      41.958  24.908  27.870  1.00  0.00     0.031 C 
ATOM     49  C   UNL A   1      43.639  31.486  29.103  1.00  0.00     0.029 A 
ATOM     50  C   UNL A   1      44.695  30.658  28.531  1.00  0.00     0.049 A 
ATOM     51  H   UNL A   1      44.581  28.647  27.996  1.00  0.00     0.167 HD
ATOM     52  C   UNL A   1      44.193  24.417  26.926  1.00  0.00     0.031 A 
ATOM     53  C   UNL A   1      45.945  31.074  28.253  1.00  0.00     0.031 A 
ATOM     54  C   UNL A   1      45.525  24.788  26.528  1.00  0.00     0.049 A 
ATOM     55  C   UNL A   1      46.913  30.108  27.628  1.00  0.00     0.074 A 
ATOM     56  C   UNL A   1      46.488  24.009  25.911  1.00  0.00     0.029 A 
ATOM     57  N   UNL A   1      46.082  26.046  26.708  1.00  0.00    -0.354 N 
ATOM     58  N   UNL A   1      46.730  28.848  27.309  1.00  0.00    -0.248 NA
ATOM     59  C   UNL A   1      48.250  30.626  27.308  1.00  0.00     0.031 C 
ATOM     60  C   UNL A   1      47.643  24.783  25.758  1.00  0.00     0.029 A 
ATOM     61  C   UNL A   1      47.381  26.060  26.231  1.00  0.00     0.049 A 
ATOM     62  H   UNL A   1      45.621  26.815  27.114  1.00  0.00     0.167 HD
ATOM     63  C   UNL A   1      47.922  28.430  26.728  1.00  0.00     0.074 A 
ATOM     64  C   UNL A   1      48.808  29.576  26.721  1.00  0.00     0.031 C 
ATOM     65  C   UNL A   1      48.253  27.207  26.240  1.00  0.00     0.031 A 
BRANCH  52  66
ATOM     66  C   UNL A   1      43.750  22.991  26.723  1.00  0.00    -0.014 A 
ATOM     67  C   UNL A   1      44.081  22.291  25.549  1.00  0.00     0.010 A 
ATOM     68  C   UNL A   1      43.018  22.335  27.728  1.00  0.00     0.010 A 
ATOM     69  C   UNL A   1      43.650  20.974  25.364  1.00  0.00     0.020 A 
ATOM     70  C   UNL A   1      42.609  21.007  27.559  1.00  0.00     0.020 A 
ATOM     71  C   UNL A   1      42.913  20.342  26.370  1.00  0.00     0.054 A 
BRANCH  71  72
ATOM     72  S   UNL A   1      42.382  18.627  26.110  1.00  0.00     0.124 S 
ATOM     73  O   UNL A   1      43.300  18.184  25.063  1.00  0.00    -0.237 OA
ATOM     74  O   UNL A   1      42.590  18.024  27.422  1.00  0.00    -0.237 OA
ATOM     75  O   UNL A   1      40.986  18.756  25.700  1.00  0.00    -0.744 OA
ENDBRANCH  71  72
ENDBRANCH  52  66
BRANCH  53  76
ATOM     76  C   UNL A   1      46.339  32.482  28.531  1.00  0.00    -0.014 A 
ATOM     77  C   UNL A   1      46.159  33.480  27.556  1.00  0.00     0.010 A 
ATOM     78  C   UNL A   1      46.885  32.837  29.779  1.00  0.00     0.010 A 
ATOM     79  C   UNL A   1      46.535  34.801  27.815  1.00  0.00     0.020 A 
ATOM     80  C   UNL A   1      47.237  34.163  30.051  1.00  0.00     0.020 A 
ATOM     81  C   UNL A   1      47.070  35.134  29.062  1.00  0.00     0.054 A 
BRANCH  81  82
ATOM     82  S   UNL A   1      47.503  36.865  29.396  1.00  0.00     0.124 S 
ATOM     83  O   UNL A   1      47.626  36.873  30.849  1.00  0.00    -0.237 OA
ATOM     84  O   UNL A   1      48.751  37.027  28.654  1.00  0.00    -0.237 OA
ATOM     85  O   UNL A   1      46.367  37.610  28.858  1.00  0.00    -0.744 OA
ENDBRANCH  81  82
ENDBRANCH  53  76
BRANCH  65  86
ATOM     86  C   UNL A   1      49.623  27.058  25.635  1.00  0.00    -0.014 A 
ATOM     87  C   UNL A   1      50.739  26.735  26.426  1.00  0.00     0.010 A 
ATOM     88  C   UNL A   1      49.787  27.216  24.247  1.00  0.00     0.010 A 
ATOM     89  C   UNL A   1      52.005  26.619  25.846  1.00  0.00     0.020 A 
ATOM     90  C   UNL A   1      51.046  27.072  23.659  1.00  0.00     0.020 A 
ATOM     91  C   UNL A   1      52.150  26.794  24.466  1.00  0.00     0.054 A 
BRANCH  91  92
ATOM     92  S   UNL A   1      53.800  26.620  23.732  1.00  0.00     0.124 S 
ATOM     93  O   UNL A   1      54.370  27.947  23.951  1.00  0.00    -0.237 OA
ATOM     94  O   UNL A   1      54.392  25.544  24.522  1.00  0.00    -0.237 OA
ATOM     95  O   UNL A   1      53.525  26.283  22.338  1.00  0.00    -0.744 OA
ENDBRANCH  91  92
ENDBRANCH  65  86
ENDBRANCH  39  40
ENDBRANCH  31  34
ENDBRANCH  29  30
ENDBRANCH  28  29
ENDBRANCH   1  28
TORSDOF 20
ENDMDL
