MODEL 1
REMARK VINA RESULT:     -13.5      0.000      0.000
REMARK SMILES O=C(NCCCCNC(=O)c1ccc([C@@H]2CC(O)=Nc3c2ncn3-c2cccc(Cl)c2)cc1)c1ccc(-c2c3nc(c(-c4ccc(S(=O)(=O)[O-])cc4)c4ccc([nH]4)c(-c4ccc(S(=O)(=O)[O-])cc4)c4nc(c(-c5ccc(S(=O)(=O)[O-])cc5)c5ccc2[nH]5)C=C4)C=C3)cc1
REMARK SMILES IDX 5 1 4 2 3 3 1 4 2 5 34 7 35 8 93 9 36 10 92 11 37 12 38 13
REMARK SMILES IDX 39 14 86 15 40 16 91 17 85 18 87 19 41 20 90 21 84 22 83 23
REMARK SMILES IDX 42 25 72 26 53 27 71 28 54 29 57 30 70 31 88 32 55 33 56 34
REMARK SMILES IDX 69 36 89 37 58 38 43 39 44 40 52 41 45 42 51 43 46 44 47 45
REMARK SMILES IDX 48 46 49 47 50 48 73 49 74 50 82 51 75 52 81 53 76 54 77 55
REMARK SMILES IDX 78 56 79 57 80 58 59 59 60 60 68 61 61 62 67 63 62 64 63 65
REMARK SMILES IDX 64 66 65 67 66 68 6 69 7 70 8 71 9 72 10 74 11 75 12 76
REMARK SMILES IDX 33 77 13 78 32 79 14 80 15 81 16 82 21 83 17 84 20 85 22 86
REMARK SMILES IDX 19 87 24 88 23 89 18 90 25 92 26 93 31 94 27 95 29 96 28 97
REMARK SMILES IDX 30 98
REMARK H PARENT 3 6 87 24 57 35 8 73 18 91
REMARK Flexibility Score: inf
ROOT
ATOM      1  C   UNL A   1      35.767  23.106  25.402  1.00  0.00     0.023 C 
ENDROOT
BRANCH   1   2
ATOM      2  C   UNL A   1      36.984  22.962  24.487  1.00  0.00     0.116 C 
BRANCH   2   3
ATOM      3  N   UNL A   1      37.995  22.036  24.954  1.00  0.00    -0.352 N 
ATOM      4  O   UNL A   1      39.538  21.015  26.159  1.00  0.00    -0.269 OA
ATOM      5  C   UNL A   1      38.934  22.070  25.948  1.00  0.00     0.251 C 
ATOM      6  H   UNL A   1      38.009  21.195  24.442  1.00  0.00     0.163 HD
BRANCH   5   7
ATOM      7  C   UNL A   1      39.303  23.283  26.730  1.00  0.00     0.039 A 
ATOM      8  C   UNL A   1      38.573  24.472  26.776  1.00  0.00     0.014 A 
ATOM      9  C   UNL A   1      40.511  23.212  27.447  1.00  0.00     0.014 A 
ATOM     10  C   UNL A   1      39.082  25.596  27.417  1.00  0.00     0.010 A 
ATOM     11  C   UNL A   1      41.007  24.321  28.125  1.00  0.00     0.010 A 
ATOM     12  C   UNL A   1      40.310  25.527  28.070  1.00  0.00    -0.014 A 
BRANCH  12  13
ATOM     13  C   UNL A   1      40.785  26.725  28.759  1.00  0.00     0.031 A 
ATOM     14  C   UNL A   1      42.016  27.367  28.203  1.00  0.00     0.074 A 
ATOM     15  C   UNL A   1      40.063  27.329  29.722  1.00  0.00     0.049 A 
ATOM     16  N   UNL A   1      43.097  27.733  28.816  1.00  0.00    -0.248 NA
ATOM     17  C   UNL A   1      42.058  27.578  26.745  1.00  0.00     0.031 C 
ATOM     18  C   UNL A   1      38.698  26.998  30.143  1.00  0.00     0.029 A 
ATOM     19  N   UNL A   1      40.338  28.468  30.420  1.00  0.00    -0.354 N 
ATOM     20  C   UNL A   1      43.883  28.381  27.860  1.00  0.00     0.074 A 
ATOM     21  C   UNL A   1      43.246  28.157  26.587  1.00  0.00     0.031 C 
ATOM     22  C   UNL A   1      38.178  28.048  30.813  1.00  0.00     0.029 A 
ATOM     23  C   UNL A   1      39.210  29.059  30.973  1.00  0.00     0.049 A 
ATOM     24  H   UNL A   1      41.246  28.835  30.523  1.00  0.00     0.167 HD
ATOM     25  C   UNL A   1      44.905  29.224  28.180  1.00  0.00     0.031 A 
ATOM     26  C   UNL A   1      39.096  30.329  31.430  1.00  0.00     0.031 A 
ATOM     27  C   UNL A   1      45.372  29.044  29.526  1.00  0.00     0.049 A 
ATOM     28  C   UNL A   1      40.459  30.853  31.679  1.00  0.00     0.074 A 
ATOM     29  C   UNL A   1      45.941  28.007  30.235  1.00  0.00     0.029 A 
ATOM     30  N   UNL A   1      45.001  29.979  30.461  1.00  0.00    -0.354 N 
ATOM     31  N   UNL A   1      41.256  30.400  32.605  1.00  0.00    -0.248 NA
ATOM     32  C   UNL A   1      41.099  31.647  30.643  1.00  0.00     0.031 C 
ATOM     33  C   UNL A   1      45.461  28.160  31.567  1.00  0.00     0.029 A 
ATOM     34  C   UNL A   1      44.645  29.292  31.592  1.00  0.00     0.049 A 
ATOM     35  H   UNL A   1      44.993  30.956  30.343  1.00  0.00     0.167 HD
ATOM     36  C   UNL A   1      42.529  30.503  32.066  1.00  0.00     0.074 A 
ATOM     37  C   UNL A   1      42.381  31.386  30.914  1.00  0.00     0.031 C 
ATOM     38  C   UNL A   1      43.528  29.651  32.442  1.00  0.00     0.031 A 
BRANCH  25  39
ATOM     39  C   UNL A   1      45.239  30.460  27.376  1.00  0.00    -0.014 A 
ATOM     40  C   UNL A   1      46.592  30.801  27.161  1.00  0.00     0.010 A 
ATOM     41  C   UNL A   1      44.279  31.452  27.085  1.00  0.00     0.010 A 
ATOM     42  C   UNL A   1      46.964  32.093  26.765  1.00  0.00     0.020 A 
ATOM     43  C   UNL A   1      44.635  32.727  26.643  1.00  0.00     0.020 A 
ATOM     44  C   UNL A   1      45.979  33.055  26.532  1.00  0.00     0.054 A 
BRANCH  44  45
ATOM     45  S   UNL A   1      46.467  34.764  26.185  1.00  0.00     0.124 S 
ATOM     46  O   UNL A   1      47.414  34.584  25.089  1.00  0.00    -0.237 OA
ATOM     47  O   UNL A   1      45.196  35.386  25.828  1.00  0.00    -0.237 OA
ATOM     48  O   UNL A   1      47.045  35.217  27.447  1.00  0.00    -0.744 OA
ENDBRANCH  44  45
ENDBRANCH  25  39
BRANCH  26  49
ATOM     49  C   UNL A   1      37.900  31.202  31.325  1.00  0.00    -0.014 A 
ATOM     50  C   UNL A   1      36.635  30.763  31.753  1.00  0.00     0.010 A 
ATOM     51  C   UNL A   1      38.054  32.572  31.026  1.00  0.00     0.010 A 
ATOM     52  C   UNL A   1      35.575  31.672  31.913  1.00  0.00     0.020 A 
ATOM     53  C   UNL A   1      37.000  33.480  31.170  1.00  0.00     0.020 A 
ATOM     54  C   UNL A   1      35.769  33.029  31.633  1.00  0.00     0.054 A 
BRANCH  54  55
ATOM     55  S   UNL A   1      34.444  34.219  31.986  1.00  0.00     0.124 S 
ATOM     56  O   UNL A   1      33.617  33.487  32.940  1.00  0.00    -0.237 OA
ATOM     57  O   UNL A   1      35.177  35.359  32.528  1.00  0.00    -0.237 OA
ATOM     58  O   UNL A   1      33.828  34.447  30.679  1.00  0.00    -0.744 OA
ENDBRANCH  54  55
ENDBRANCH  26  49
BRANCH  38  59
ATOM     59  C   UNL A   1      43.318  28.789  33.666  1.00  0.00    -0.014 A 
ATOM     60  C   UNL A   1      43.383  29.295  34.978  1.00  0.00     0.010 A 
ATOM     61  C   UNL A   1      42.871  27.469  33.477  1.00  0.00     0.010 A 
ATOM     62  C   UNL A   1      43.028  28.497  36.074  1.00  0.00     0.020 A 
ATOM     63  C   UNL A   1      42.499  26.673  34.565  1.00  0.00     0.020 A 
ATOM     64  C   UNL A   1      42.583  27.189  35.859  1.00  0.00     0.054 A 
BRANCH  64  65
ATOM     65  S   UNL A   1      42.048  26.192  37.278  1.00  0.00     0.124 S 
ATOM     66  O   UNL A   1      40.740  26.759  37.590  1.00  0.00    -0.237 OA
ATOM     67  O   UNL A   1      42.032  24.835  36.734  1.00  0.00    -0.237 OA
ATOM     68  O   UNL A   1      43.084  26.433  38.282  1.00  0.00    -0.744 OA
ENDBRANCH  64  65
ENDBRANCH  38  59
ENDBRANCH  12  13
ENDBRANCH   5   7
ENDBRANCH   2   3
ENDBRANCH   1   2
BRANCH   1  69
ATOM     69  C   UNL A   1      35.291  21.817  26.071  1.00  0.00     0.023 C 
BRANCH  69  70
ATOM     70  C   UNL A   1      33.784  21.594  26.065  1.00  0.00     0.116 C 
BRANCH  70  71
ATOM     71  N   UNL A   1      33.318  20.897  24.877  1.00  0.00    -0.352 N 
ATOM     72  C   UNL A   1      32.513  21.368  23.866  1.00  0.00     0.251 C 
ATOM     73  H   UNL A   1      33.618  19.964  24.783  1.00  0.00     0.163 HD
ATOM     74  O   UNL A   1      32.147  20.640  22.959  1.00  0.00    -0.269 OA
BRANCH  72  75
ATOM     75  C   UNL A   1      32.072  22.775  23.906  1.00  0.00     0.039 A 
ATOM     76  C   UNL A   1      30.984  23.104  24.712  1.00  0.00     0.014 A 
ATOM     77  C   UNL A   1      32.749  23.761  23.183  1.00  0.00     0.014 A 
ATOM     78  C   UNL A   1      30.612  24.441  24.847  1.00  0.00     0.005 A 
ATOM     79  C   UNL A   1      32.382  25.098  23.328  1.00  0.00     0.005 A 
ATOM     80  C   UNL A   1      31.318  25.457  24.175  1.00  0.00    -0.038 A 
BRANCH  80  81
ATOM     81  C   UNL A   1      30.900  26.902  24.380  1.00  0.00     0.081 C 
ATOM     82  C   UNL A   1      31.146  27.774  23.133  1.00  0.00     0.111 C 
ATOM     83  C   UNL A   1      31.656  27.404  25.555  1.00  0.00     0.093 A 
ATOM     84  C   UNL A   1      32.247  28.814  23.277  1.00  0.00     0.188 C 
ATOM     85  C   UNL A   1      32.491  28.495  25.464  1.00  0.00     0.164 A 
ATOM     86  N   UNL A   1      31.663  26.864  26.812  1.00  0.00    -0.238 NA
ATOM     87  N   UNL A   1      32.839  29.199  24.361  1.00  0.00    -0.198 NA
ATOM     88  N   UNL A   1      33.031  28.646  26.730  1.00  0.00    -0.283 N 
ATOM     89  C   UNL A   1      32.536  27.595  27.476  1.00  0.00     0.206 A 
BRANCH  84  90
ATOM     90  O   UNL A   1      32.585  29.415  22.119  1.00  0.00    -0.496 OA
ATOM     91  H   UNL A   1      33.457  29.332  21.786  1.00  0.00     0.294 HD
ENDBRANCH  84  90
BRANCH  88  92
ATOM     92  C   UNL A   1      33.905  29.666  27.178  1.00  0.00     0.050 A 
ATOM     93  C   UNL A   1      33.410  30.943  27.469  1.00  0.00     0.027 A 
ATOM     94  C   UNL A   1      35.272  29.391  27.319  1.00  0.00     0.047 A 
ATOM     95  C   UNL A   1      34.280  31.929  27.942  1.00  0.00     0.004 A 
ATOM     96  C   UNL A   1      36.136  30.396  27.747  1.00  0.00     0.043 A 
ATOM     97  C   UNL A   1      35.644  31.659  28.073  1.00  0.00     0.020 A 
ATOM     98  Cl  UNL A   1      37.825  30.084  27.852  1.00  0.00    -0.084 Cl
ENDBRANCH  88  92
ENDBRANCH  80  81
ENDBRANCH  72  75
ENDBRANCH  70  71
ENDBRANCH  69  70
ENDBRANCH   1  69
TORSDOF 17
ENDMDL
MODEL 2
REMARK VINA RESULT:     -13.4      2.494      9.173
REMARK SMILES O=C(NCCCCNC(=O)c1ccc([C@@H]2CC(O)=Nc3c2ncn3-c2cccc(Cl)c2)cc1)c1ccc(-c2c3nc(c(-c4ccc(S(=O)(=O)[O-])cc4)c4ccc([nH]4)c(-c4ccc(S(=O)(=O)[O-])cc4)c4nc(c(-c5ccc(S(=O)(=O)[O-])cc5)c5ccc2[nH]5)C=C4)C=C3)cc1
REMARK SMILES IDX 5 1 4 2 3 3 1 4 2 5 34 7 35 8 93 9 36 10 92 11 37 12 38 13
REMARK SMILES IDX 39 14 86 15 40 16 91 17 85 18 87 19 41 20 90 21 84 22 83 23
REMARK SMILES IDX 42 25 72 26 53 27 71 28 54 29 57 30 70 31 88 32 55 33 56 34
REMARK SMILES IDX 69 36 89 37 58 38 43 39 44 40 52 41 45 42 51 43 46 44 47 45
REMARK SMILES IDX 48 46 49 47 50 48 73 49 74 50 82 51 75 52 81 53 76 54 77 55
REMARK SMILES IDX 78 56 79 57 80 58 59 59 60 60 68 61 61 62 67 63 62 64 63 65
REMARK SMILES IDX 64 66 65 67 66 68 6 69 7 70 8 71 9 72 10 74 11 75 12 76
REMARK SMILES IDX 33 77 13 78 32 79 14 80 15 81 16 82 21 83 17 84 20 85 22 86
REMARK SMILES IDX 19 87 24 88 23 89 18 90 25 92 26 93 31 94 27 95 29 96 28 97
REMARK SMILES IDX 30 98
REMARK H PARENT 3 6 87 24 57 35 8 73 18 91
REMARK Flexibility Score: inf
ROOT
ATOM      1  C   UNL A   1      31.798  28.658  26.312  1.00  0.00     0.023 C 
ENDROOT
BRANCH   1   2
ATOM      2  C   UNL A   1      32.943  29.009  27.264  1.00  0.00     0.116 C 
BRANCH   2   3
ATOM      3  N   UNL A   1      33.048  30.413  27.601  1.00  0.00    -0.352 N 
ATOM      4  O   UNL A   1      33.806  32.458  27.947  1.00  0.00    -0.269 OA
ATOM      5  C   UNL A   1      34.095  31.263  27.831  1.00  0.00     0.251 C 
ATOM      6  H   UNL A   1      32.171  30.854  27.683  1.00  0.00     0.163 HD
BRANCH   5   7
ATOM      7  C   UNL A   1      35.513  30.842  28.003  1.00  0.00     0.039 A 
ATOM      8  C   UNL A   1      35.997  29.542  27.853  1.00  0.00     0.014 A 
ATOM      9  C   UNL A   1      36.415  31.852  28.383  1.00  0.00     0.014 A 
ATOM     10  C   UNL A   1      37.310  29.227  28.183  1.00  0.00     0.010 A 
ATOM     11  C   UNL A   1      37.742  31.552  28.675  1.00  0.00     0.010 A 
ATOM     12  C   UNL A   1      38.176  30.228  28.617  1.00  0.00    -0.014 A 
BRANCH  12  13
ATOM     13  C   UNL A   1      39.556  29.854  28.918  1.00  0.00     0.031 A 
ATOM     14  C   UNL A   1      39.957  29.896  30.357  1.00  0.00     0.074 A 
ATOM     15  C   UNL A   1      40.372  29.325  27.985  1.00  0.00     0.049 A 
ATOM     16  N   UNL A   1      40.987  30.460  30.905  1.00  0.00    -0.248 NA
ATOM     17  C   UNL A   1      39.045  29.257  31.322  1.00  0.00     0.031 C 
ATOM     18  C   UNL A   1      40.015  28.930  26.619  1.00  0.00     0.029 A 
ATOM     19  N   UNL A   1      41.656  28.882  28.113  1.00  0.00    -0.354 N 
ATOM     20  C   UNL A   1      40.952  30.102  32.254  1.00  0.00     0.074 A 
ATOM     21  C   UNL A   1      39.682  29.459  32.474  1.00  0.00     0.031 C 
ATOM     22  C   UNL A   1      40.955  28.085  26.146  1.00  0.00     0.029 A 
ATOM     23  C   UNL A   1      42.029  27.987  27.120  1.00  0.00     0.049 A 
ATOM     24  H   UNL A   1      42.258  29.170  28.837  1.00  0.00     0.167 HD
ATOM     25  C   UNL A   1      42.037  30.178  33.076  1.00  0.00     0.031 A 
ATOM     26  C   UNL A   1      43.086  27.140  27.143  1.00  0.00     0.031 A 
ATOM     27  C   UNL A   1      43.060  31.046  32.565  1.00  0.00     0.049 A 
ATOM     28  C   UNL A   1      44.043  27.623  28.165  1.00  0.00     0.074 A 
ATOM     29  C   UNL A   1      43.141  32.387  32.255  1.00  0.00     0.029 A 
ATOM     30  N   UNL A   1      44.174  30.464  32.010  1.00  0.00    -0.354 N 
ATOM     31  N   UNL A   1      44.709  28.739  28.069  1.00  0.00    -0.248 NA
ATOM     32  C   UNL A   1      43.989  27.045  29.498  1.00  0.00     0.031 C 
ATOM     33  C   UNL A   1      44.033  32.460  31.148  1.00  0.00     0.029 A 
ATOM     34  C   UNL A   1      44.457  31.160  30.864  1.00  0.00     0.049 A 
ATOM     35  H   UNL A   1      44.674  29.696  32.367  1.00  0.00     0.167 HD
ATOM     36  C   UNL A   1      44.813  29.210  29.369  1.00  0.00     0.074 A 
ATOM     37  C   UNL A   1      44.462  28.071  30.211  1.00  0.00     0.031 C 
ATOM     38  C   UNL A   1      44.910  30.546  29.633  1.00  0.00     0.031 A 
BRANCH  25  39
ATOM     39  C   UNL A   1      42.314  29.176  34.175  1.00  0.00    -0.014 A 
ATOM     40  C   UNL A   1      42.629  27.844  33.832  1.00  0.00     0.010 A 
ATOM     41  C   UNL A   1      41.981  29.426  35.523  1.00  0.00     0.010 A 
ATOM     42  C   UNL A   1      42.527  26.807  34.771  1.00  0.00     0.020 A 
ATOM     43  C   UNL A   1      41.923  28.408  36.477  1.00  0.00     0.020 A 
ATOM     44  C   UNL A   1      42.149  27.097  36.083  1.00  0.00     0.054 A 
BRANCH  44  45
ATOM     45  S   UNL A   1      41.855  25.740  37.246  1.00  0.00     0.124 S 
ATOM     46  O   UNL A   1      42.836  26.028  38.289  1.00  0.00    -0.237 OA
ATOM     47  O   UNL A   1      40.458  25.943  37.617  1.00  0.00    -0.237 OA
ATOM     48  O   UNL A   1      42.117  24.545  36.450  1.00  0.00    -0.744 OA
ENDBRANCH  44  45
ENDBRANCH  25  39
BRANCH  26  49
ATOM     49  C   UNL A   1      43.131  25.768  26.577  1.00  0.00    -0.014 A 
ATOM     50  C   UNL A   1      43.483  25.542  25.235  1.00  0.00     0.010 A 
ATOM     51  C   UNL A   1      43.065  24.651  27.436  1.00  0.00     0.010 A 
ATOM     52  C   UNL A   1      43.794  24.249  24.782  1.00  0.00     0.020 A 
ATOM     53  C   UNL A   1      43.360  23.359  26.989  1.00  0.00     0.020 A 
ATOM     54  C   UNL A   1      43.744  23.167  25.666  1.00  0.00     0.054 A 
BRANCH  54  55
ATOM     55  S   UNL A   1      44.293  21.527  25.114  1.00  0.00     0.124 S 
ATOM     56  O   UNL A   1      45.531  21.346  25.865  1.00  0.00    -0.237 OA
ATOM     57  O   UNL A   1      43.181  20.668  25.509  1.00  0.00    -0.237 OA
ATOM     58  O   UNL A   1      44.464  21.688  23.670  1.00  0.00    -0.744 OA
ENDBRANCH  54  55
ENDBRANCH  26  49
BRANCH  38  59
ATOM     59  C   UNL A   1      45.204  31.488  28.488  1.00  0.00    -0.014 A 
ATOM     60  C   UNL A   1      44.210  32.263  27.860  1.00  0.00     0.010 A 
ATOM     61  C   UNL A   1      46.550  31.724  28.154  1.00  0.00     0.010 A 
ATOM     62  C   UNL A   1      44.551  33.235  26.910  1.00  0.00     0.020 A 
ATOM     63  C   UNL A   1      46.898  32.706  27.220  1.00  0.00     0.020 A 
ATOM     64  C   UNL A   1      45.897  33.454  26.599  1.00  0.00     0.054 A 
BRANCH  64  65
ATOM     65  S   UNL A   1      46.332  34.772  25.430  1.00  0.00     0.124 S 
ATOM     66  O   UNL A   1      45.521  34.442  24.262  1.00  0.00    -0.237 OA
ATOM     67  O   UNL A   1      45.941  35.984  26.146  1.00  0.00    -0.237 OA
ATOM     68  O   UNL A   1      47.775  34.611  25.247  1.00  0.00    -0.744 OA
ENDBRANCH  64  65
ENDBRANCH  38  59
ENDBRANCH  12  13
ENDBRANCH   5   7
ENDBRANCH   2   3
ENDBRANCH   1   2
BRANCH   1  69
ATOM     69  C   UNL A   1      31.465  29.718  25.263  1.00  0.00     0.023 C 
BRANCH  69  70
ATOM     70  C   UNL A   1      31.230  29.193  23.853  1.00  0.00     0.116 C 
BRANCH  70  71
ATOM     71  N   UNL A   1      29.836  28.873  23.591  1.00  0.00    -0.352 N 
ATOM     72  C   UNL A   1      29.234  27.637  23.533  1.00  0.00     0.251 C 
ATOM     73  H   UNL A   1      29.242  29.643  23.435  1.00  0.00     0.163 HD
ATOM     74  O   UNL A   1      28.059  27.520  23.233  1.00  0.00    -0.269 OA
BRANCH  72  75
ATOM     75  C   UNL A   1      30.047  26.439  23.815  1.00  0.00     0.039 A 
ATOM     76  C   UNL A   1      30.021  25.912  25.105  1.00  0.00     0.014 A 
ATOM     77  C   UNL A   1      30.796  25.825  22.808  1.00  0.00     0.014 A 
ATOM     78  C   UNL A   1      30.698  24.722  25.371  1.00  0.00     0.005 A 
ATOM     79  C   UNL A   1      31.465  24.631  23.074  1.00  0.00     0.005 A 
ATOM     80  C   UNL A   1      31.411  24.055  24.356  1.00  0.00    -0.038 A 
BRANCH  80  81
ATOM     81  C   UNL A   1      32.103  22.744  24.684  1.00  0.00     0.081 C 
ATOM     82  C   UNL A   1      31.824  22.268  26.123  1.00  0.00     0.111 C 
ATOM     83  C   UNL A   1      33.555  22.957  24.451  1.00  0.00     0.093 A 
ATOM     84  C   UNL A   1      33.017  22.317  27.064  1.00  0.00     0.188 C 
ATOM     85  C   UNL A   1      34.481  22.774  25.454  1.00  0.00     0.164 A 
ATOM     86  N   UNL A   1      34.142  23.378  23.290  1.00  0.00    -0.238 NA
ATOM     87  N   UNL A   1      34.263  22.493  26.761  1.00  0.00    -0.198 NA
ATOM     88  N   UNL A   1      35.703  23.084  24.881  1.00  0.00    -0.283 N 
ATOM     89  C   UNL A   1      35.419  23.497  23.595  1.00  0.00     0.206 A 
BRANCH  84  90
ATOM     90  O   UNL A   1      32.702  22.100  28.357  1.00  0.00    -0.496 OA
ATOM     91  H   UNL A   1      32.097  21.420  28.583  1.00  0.00     0.294 HD
ENDBRANCH  84  90
BRANCH  88  92
ATOM     92  C   UNL A   1      36.983  22.994  25.480  1.00  0.00     0.050 A 
ATOM     93  C   UNL A   1      37.725  21.811  25.385  1.00  0.00     0.027 A 
ATOM     94  C   UNL A   1      37.497  24.096  26.177  1.00  0.00     0.047 A 
ATOM     95  C   UNL A   1      39.001  21.750  25.952  1.00  0.00     0.004 A 
ATOM     96  C   UNL A   1      38.750  24.005  26.778  1.00  0.00     0.043 A 
ATOM     97  C   UNL A   1      39.510  22.843  26.656  1.00  0.00     0.020 A 
ATOM     98  Cl  UNL A   1      39.356  25.330  27.696  1.00  0.00    -0.084 Cl
ENDBRANCH  88  92
ENDBRANCH  80  81
ENDBRANCH  72  75
ENDBRANCH  70  71
ENDBRANCH  69  70
ENDBRANCH   1  69
TORSDOF 17
ENDMDL
MODEL 3
REMARK VINA RESULT:     -12.1      2.363      3.643
REMARK SMILES O=C(NCCCCNC(=O)c1ccc([C@@H]2CC(O)=Nc3c2ncn3-c2cccc(Cl)c2)cc1)c1ccc(-c2c3nc(c(-c4ccc(S(=O)(=O)[O-])cc4)c4ccc([nH]4)c(-c4ccc(S(=O)(=O)[O-])cc4)c4nc(c(-c5ccc(S(=O)(=O)[O-])cc5)c5ccc2[nH]5)C=C4)C=C3)cc1
REMARK SMILES IDX 5 1 4 2 3 3 1 4 2 5 34 7 35 8 93 9 36 10 92 11 37 12 38 13
REMARK SMILES IDX 39 14 86 15 40 16 91 17 85 18 87 19 41 20 90 21 84 22 83 23
REMARK SMILES IDX 42 25 72 26 53 27 71 28 54 29 57 30 70 31 88 32 55 33 56 34
REMARK SMILES IDX 69 36 89 37 58 38 43 39 44 40 52 41 45 42 51 43 46 44 47 45
REMARK SMILES IDX 48 46 49 47 50 48 73 49 74 50 82 51 75 52 81 53 76 54 77 55
REMARK SMILES IDX 78 56 79 57 80 58 59 59 60 60 68 61 61 62 67 63 62 64 63 65
REMARK SMILES IDX 64 66 65 67 66 68 6 69 7 70 8 71 9 72 10 74 11 75 12 76
REMARK SMILES IDX 33 77 13 78 32 79 14 80 15 81 16 82 21 83 17 84 20 85 22 86
REMARK SMILES IDX 19 87 24 88 23 89 18 90 25 92 26 93 31 94 27 95 29 96 28 97
REMARK SMILES IDX 30 98
REMARK H PARENT 3 6 87 24 57 35 8 73 18 91
REMARK Flexibility Score: inf
ROOT
ATOM      1  C   UNL A   1      39.477  20.379  25.822  1.00  0.00     0.023 C 
ENDROOT
BRANCH   1   2
ATOM      2  C   UNL A   1      40.790  20.912  26.398  1.00  0.00     0.116 C 
BRANCH   2   3
ATOM      3  N   UNL A   1      41.793  21.260  25.414  1.00  0.00    -0.352 N 
ATOM      4  O   UNL A   1      43.516  22.169  24.374  1.00  0.00    -0.269 OA
ATOM      5  C   UNL A   1      42.698  22.278  25.293  1.00  0.00     0.251 C 
ATOM      6  H   UNL A   1      41.831  20.621  24.665  1.00  0.00     0.163 HD
BRANCH   5   7
ATOM      7  C   UNL A   1      42.721  23.503  26.138  1.00  0.00     0.039 A 
ATOM      8  C   UNL A   1      43.391  23.637  27.355  1.00  0.00     0.014 A 
ATOM      9  C   UNL A   1      41.968  24.594  25.667  1.00  0.00     0.014 A 
ATOM     10  C   UNL A   1      43.226  24.773  28.139  1.00  0.00     0.010 A 
ATOM     11  C   UNL A   1      41.831  25.750  26.427  1.00  0.00     0.010 A 
ATOM     12  C   UNL A   1      42.426  25.819  27.686  1.00  0.00    -0.014 A 
BRANCH  12  13
ATOM     13  C   UNL A   1      42.313  27.007  28.530  1.00  0.00     0.031 A 
ATOM     14  C   UNL A   1      43.455  27.970  28.477  1.00  0.00     0.074 A 
ATOM     15  C   UNL A   1      41.173  27.317  29.178  1.00  0.00     0.049 A 
ATOM     16  N   UNL A   1      44.126  28.500  29.451  1.00  0.00    -0.248 NA
ATOM     17  C   UNL A   1      43.945  28.352  27.141  1.00  0.00     0.031 C 
ATOM     18  C   UNL A   1      39.878  26.638  29.064  1.00  0.00     0.029 A 
ATOM     19  N   UNL A   1      40.891  28.401  29.956  1.00  0.00    -0.354 N 
ATOM     20  C   UNL A   1      45.003  29.414  28.864  1.00  0.00     0.074 A 
ATOM     21  C   UNL A   1      44.926  29.199  27.442  1.00  0.00     0.031 C 
ATOM     22  C   UNL A   1      38.911  27.458  29.523  1.00  0.00     0.029 A 
ATOM     23  C   UNL A   1      39.530  28.652  30.073  1.00  0.00     0.049 A 
ATOM     24  H   UNL A   1      41.582  28.950  30.392  1.00  0.00     0.167 HD
ATOM     25  C   UNL A   1      45.601  30.425  29.556  1.00  0.00     0.031 A 
ATOM     26  C   UNL A   1      38.948  29.803  30.489  1.00  0.00     0.031 A 
ATOM     27  C   UNL A   1      45.601  30.204  30.973  1.00  0.00     0.049 A 
ATOM     28  C   UNL A   1      39.959  30.591  31.230  1.00  0.00     0.074 A 
ATOM     29  C   UNL A   1      46.131  29.249  31.816  1.00  0.00     0.029 A 
ATOM     30  N   UNL A   1      44.704  30.917  31.732  1.00  0.00    -0.354 N 
ATOM     31  N   UNL A   1      40.472  30.227  32.371  1.00  0.00    -0.248 NA
ATOM     32  C   UNL A   1      40.696  31.623  30.519  1.00  0.00     0.031 C 
ATOM     33  C   UNL A   1      45.197  29.135  32.885  1.00  0.00     0.029 A 
ATOM     34  C   UNL A   1      44.164  30.042  32.638  1.00  0.00     0.049 A 
ATOM     35  H   UNL A   1      44.491  31.874  31.643  1.00  0.00     0.167 HD
ATOM     36  C   UNL A   1      41.783  30.678  32.337  1.00  0.00     0.074 A 
ATOM     37  C   UNL A   1      41.825  31.630  31.233  1.00  0.00     0.031 C 
ATOM     38  C   UNL A   1      42.770  30.038  33.031  1.00  0.00     0.031 A 
BRANCH  25  39
ATOM     39  C   UNL A   1      45.869  31.789  28.959  1.00  0.00    -0.014 A 
ATOM     40  C   UNL A   1      44.783  32.643  28.670  1.00  0.00     0.010 A 
ATOM     41  C   UNL A   1      47.117  32.136  28.401  1.00  0.00     0.010 A 
ATOM     42  C   UNL A   1      44.923  33.729  27.795  1.00  0.00     0.020 A 
ATOM     43  C   UNL A   1      47.279  33.243  27.567  1.00  0.00     0.020 A 
ATOM     44  C   UNL A   1      46.170  34.005  27.231  1.00  0.00     0.054 A 
BRANCH  44  45
ATOM     45  S   UNL A   1      46.311  35.303  25.975  1.00  0.00     0.124 S 
ATOM     46  O   UNL A   1      47.273  34.713  25.048  1.00  0.00    -0.237 OA
ATOM     47  O   UNL A   1      44.942  35.412  25.481  1.00  0.00    -0.237 OA
ATOM     48  O   UNL A   1      46.791  36.457  26.729  1.00  0.00    -0.744 OA
ENDBRANCH  44  45
ENDBRANCH  25  39
BRANCH  26  49
ATOM     49  C   UNL A   1      37.683  30.387  29.976  1.00  0.00    -0.014 A 
ATOM     50  C   UNL A   1      36.733  30.951  30.844  1.00  0.00     0.010 A 
ATOM     51  C   UNL A   1      37.523  30.612  28.592  1.00  0.00     0.010 A 
ATOM     52  C   UNL A   1      35.684  31.743  30.346  1.00  0.00     0.020 A 
ATOM     53  C   UNL A   1      36.474  31.387  28.088  1.00  0.00     0.020 A 
ATOM     54  C   UNL A   1      35.569  31.967  28.971  1.00  0.00     0.054 A 
BRANCH  54  55
ATOM     55  S   UNL A   1      34.306  33.113  28.348  1.00  0.00     0.124 S 
ATOM     56  O   UNL A   1      33.401  32.217  27.635  1.00  0.00    -0.237 OA
ATOM     57  O   UNL A   1      33.778  33.702  29.574  1.00  0.00    -0.237 OA
ATOM     58  O   UNL A   1      35.063  34.032  27.498  1.00  0.00    -0.744 OA
ENDBRANCH  54  55
ENDBRANCH  26  49
BRANCH  38  59
ATOM     59  C   UNL A   1      42.374  29.016  34.072  1.00  0.00    -0.014 A 
ATOM     60  C   UNL A   1      42.146  27.661  33.766  1.00  0.00     0.010 A 
ATOM     61  C   UNL A   1      42.404  29.403  35.423  1.00  0.00     0.010 A 
ATOM     62  C   UNL A   1      41.935  26.721  34.783  1.00  0.00     0.020 A 
ATOM     63  C   UNL A   1      42.211  28.466  36.444  1.00  0.00     0.020 A 
ATOM     64  C   UNL A   1      41.973  27.130  36.119  1.00  0.00     0.054 A 
BRANCH  64  65
ATOM     65  S   UNL A   1      41.781  25.891  37.431  1.00  0.00     0.124 S 
ATOM     66  O   UNL A   1      42.817  26.273  38.385  1.00  0.00    -0.237 OA
ATOM     67  O   UNL A   1      40.405  26.101  37.877  1.00  0.00    -0.237 OA
ATOM     68  O   UNL A   1      42.011  24.619  36.744  1.00  0.00    -0.744 OA
ENDBRANCH  64  65
ENDBRANCH  38  59
ENDBRANCH  12  13
ENDBRANCH   5   7
ENDBRANCH   2   3
ENDBRANCH   1   2
BRANCH   1  69
ATOM     69  C   UNL A   1      38.318  21.375  25.794  1.00  0.00     0.023 C 
BRANCH  69  70
ATOM     70  C   UNL A   1      37.394  21.272  24.588  1.00  0.00     0.116 C 
BRANCH  70  71
ATOM     71  N   UNL A   1      36.195  20.494  24.856  1.00  0.00    -0.352 N 
ATOM     72  C   UNL A   1      34.909  20.938  25.060  1.00  0.00     0.251 C 
ATOM     73  H   UNL A   1      36.320  19.518  24.896  1.00  0.00     0.163 HD
ATOM     74  O   UNL A   1      34.011  20.164  25.344  1.00  0.00    -0.269 OA
BRANCH  72  75
ATOM     75  C   UNL A   1      34.633  22.383  24.957  1.00  0.00     0.039 A 
ATOM     76  C   UNL A   1      34.287  23.075  26.116  1.00  0.00     0.014 A 
ATOM     77  C   UNL A   1      34.750  23.051  23.734  1.00  0.00     0.014 A 
ATOM     78  C   UNL A   1      34.123  24.458  26.063  1.00  0.00     0.005 A 
ATOM     79  C   UNL A   1      34.593  24.435  23.686  1.00  0.00     0.005 A 
ATOM     80  C   UNL A   1      34.293  25.160  24.854  1.00  0.00    -0.038 A 
BRANCH  80  81
ATOM     81  C   UNL A   1      34.138  26.670  24.851  1.00  0.00     0.081 C 
ATOM     82  C   UNL A   1      33.777  27.232  26.241  1.00  0.00     0.111 C 
ATOM     83  C   UNL A   1      33.094  26.992  23.844  1.00  0.00     0.093 A 
ATOM     84  C   UNL A   1      32.371  27.797  26.365  1.00  0.00     0.188 C 
ATOM     85  C   UNL A   1      31.948  27.675  24.185  1.00  0.00     0.164 A 
ATOM     86  N   UNL A   1      33.101  26.643  22.523  1.00  0.00    -0.238 NA
ATOM     87  N   UNL A   1      31.533  28.062  25.415  1.00  0.00    -0.198 NA
ATOM     88  N   UNL A   1      31.217  27.765  23.013  1.00  0.00    -0.283 N 
ATOM     89  C   UNL A   1      31.941  27.071  22.065  1.00  0.00     0.206 A 
BRANCH  84  90
ATOM     90  O   UNL A   1      32.009  28.086  27.631  1.00  0.00    -0.496 OA
ATOM     91  H   UNL A   1      31.235  27.701  27.996  1.00  0.00     0.294 HD
ENDBRANCH  84  90
BRANCH  88  92
ATOM     92  C   UNL A   1      29.984  28.433  22.816  1.00  0.00     0.050 A 
ATOM     93  C   UNL A   1      29.945  29.657  22.138  1.00  0.00     0.027 A 
ATOM     94  C   UNL A   1      28.804  27.864  23.314  1.00  0.00     0.047 A 
ATOM     95  C   UNL A   1      28.716  30.286  21.922  1.00  0.00     0.004 A 
ATOM     96  C   UNL A   1      27.591  28.525  23.133  1.00  0.00     0.043 A 
ATOM     97  C   UNL A   1      27.541  29.726  22.427  1.00  0.00     0.020 A 
ATOM     98  Cl  UNL A   1      26.150  27.866  23.805  1.00  0.00    -0.084 Cl
ENDBRANCH  88  92
ENDBRANCH  80  81
ENDBRANCH  72  75
ENDBRANCH  70  71
ENDBRANCH  69  70
ENDBRANCH   1  69
TORSDOF 17
ENDMDL
