MODEL 1
REMARK VINA RESULT:     -11.6      0.000      0.000
REMARK SMILES O=C(NCCCCNC(=O)[C@@H]1CCCC[C@@H]1NS(=O)(=O)c1ccc2ccccc2c1)c1ccc(-c2c3nc(c(-c4ccc(S(=O)(=O)[O-])cc4)c4ccc([nH]4)c(-c4ccc(S(=O)(=O)[O-])cc4)c4nc(c(-c5ccc(S(=O)(=O)[O-])cc5)c5ccc2[nH]5)C=C4)C=C3)cc1
REMARK SMILES IDX 5 1 4 2 3 3 1 4 2 5 31 7 32 8 90 9 33 10 89 11 34 12 35 13
REMARK SMILES IDX 36 14 83 15 37 16 88 17 82 18 84 19 38 20 87 21 81 22 80 23
REMARK SMILES IDX 39 25 69 26 50 27 68 28 51 29 54 30 67 31 85 32 52 33 53 34
REMARK SMILES IDX 66 36 86 37 55 38 40 39 41 40 49 41 42 42 48 43 43 44 44 45
REMARK SMILES IDX 45 46 46 47 47 48 70 49 71 50 79 51 72 52 78 53 73 54 74 55
REMARK SMILES IDX 75 56 76 57 77 58 56 59 57 60 65 61 58 62 64 63 59 64 60 65
REMARK SMILES IDX 61 66 62 67 63 68 6 69 7 70 8 71 9 72 10 74 11 75 12 76
REMARK SMILES IDX 16 77 13 78 15 79 14 80 17 81 18 83 19 84 20 85 21 86 22 87
REMARK SMILES IDX 30 88 23 89 29 90 24 91 28 92 25 93 27 94 26 95
REMARK H PARENT 3 6 84 24 54 35 8 73 17 82
REMARK Flexibility Score: inf
ROOT
ATOM      1  C   UNL A   1      32.112  27.619  26.800  1.00  0.00     0.023 C 
ENDROOT
BRANCH   1   2
ATOM      2  C   UNL A   1      33.404  28.293  27.252  1.00  0.00     0.116 C 
BRANCH   2   3
ATOM      3  N   UNL A   1      33.260  29.709  27.562  1.00  0.00    -0.352 N 
ATOM      4  O   UNL A   1      33.939  31.727  28.329  1.00  0.00    -0.269 OA
ATOM      5  C   UNL A   1      34.222  30.569  28.044  1.00  0.00     0.251 C 
ATOM      6  H   UNL A   1      32.369  30.097  27.410  1.00  0.00     0.163 HD
BRANCH   5   7
ATOM      7  C   UNL A   1      35.591  30.053  28.257  1.00  0.00     0.039 A 
ATOM      8  C   UNL A   1      35.988  29.624  29.525  1.00  0.00     0.014 A 
ATOM      9  C   UNL A   1      36.503  30.081  27.200  1.00  0.00     0.014 A 
ATOM     10  C   UNL A   1      37.332  29.378  29.773  1.00  0.00     0.010 A 
ATOM     11  C   UNL A   1      37.840  29.753  27.434  1.00  0.00     0.010 A 
ATOM     12  C   UNL A   1      38.275  29.447  28.733  1.00  0.00    -0.014 A 
BRANCH  12  13
ATOM     13  C   UNL A   1      39.702  29.173  29.037  1.00  0.00     0.031 A 
ATOM     14  C   UNL A   1      40.343  27.866  28.654  1.00  0.00     0.074 A 
ATOM     15  C   UNL A   1      40.437  30.144  29.612  1.00  0.00     0.049 A 
ATOM     16  N   UNL A   1      41.592  27.496  28.784  1.00  0.00    -0.248 NA
ATOM     17  C   UNL A   1      39.475  26.839  28.055  1.00  0.00     0.031 C 
ATOM     18  C   UNL A   1      39.924  31.453  30.027  1.00  0.00     0.029 A 
ATOM     19  N   UNL A   1      41.773  30.200  29.913  1.00  0.00    -0.354 N 
ATOM     20  C   UNL A   1      41.655  26.187  28.317  1.00  0.00     0.074 A 
ATOM     21  C   UNL A   1      40.315  25.822  27.909  1.00  0.00     0.031 C 
ATOM     22  C   UNL A   1      40.945  32.206  30.464  1.00  0.00     0.029 A 
ATOM     23  C   UNL A   1      42.170  31.415  30.417  1.00  0.00     0.049 A 
ATOM     24  H   UNL A   1      42.389  29.443  29.780  1.00  0.00     0.167 HD
ATOM     25  C   UNL A   1      42.730  25.366  28.235  1.00  0.00     0.031 A 
ATOM     26  C   UNL A   1      43.383  31.850  30.803  1.00  0.00     0.031 A 
ATOM     27  C   UNL A   1      44.065  25.739  28.626  1.00  0.00     0.049 A 
ATOM     28  C   UNL A   1      44.558  30.923  30.697  1.00  0.00     0.074 A 
ATOM     29  C   UNL A   1      45.227  24.990  28.545  1.00  0.00     0.029 A 
ATOM     30  N   UNL A   1      44.418  26.965  29.171  1.00  0.00    -0.354 N 
ATOM     31  N   UNL A   1      44.596  29.697  30.232  1.00  0.00    -0.248 NA
ATOM     32  C   UNL A   1      45.848  31.437  31.171  1.00  0.00     0.031 C 
ATOM     33  C   UNL A   1      46.275  25.749  29.081  1.00  0.00     0.029 A 
ATOM     34  C   UNL A   1      45.775  26.987  29.450  1.00  0.00     0.049 A 
ATOM     35  H   UNL A   1      43.796  27.710  29.334  1.00  0.00     0.167 HD
ATOM     36  C   UNL A   1      45.921  29.296  30.345  1.00  0.00     0.074 A 
ATOM     37  C   UNL A   1      46.653  30.416  30.904  1.00  0.00     0.031 C 
ATOM     38  C   UNL A   1      46.483  28.105  30.018  1.00  0.00     0.031 A 
BRANCH  25  39
ATOM     39  C   UNL A   1      42.500  23.963  27.735  1.00  0.00    -0.014 A 
ATOM     40  C   UNL A   1      42.612  23.643  26.370  1.00  0.00     0.010 A 
ATOM     41  C   UNL A   1      42.209  22.941  28.657  1.00  0.00     0.010 A 
ATOM     42  C   UNL A   1      42.393  22.332  25.932  1.00  0.00     0.020 A 
ATOM     43  C   UNL A   1      42.012  21.625  28.225  1.00  0.00     0.020 A 
ATOM     44  C   UNL A   1      42.087  21.333  26.862  1.00  0.00     0.054 A 
BRANCH  44  45
ATOM     45  S   UNL A   1      41.820  19.638  26.270  1.00  0.00     0.124 S 
ATOM     46  O   UNL A   1      42.289  18.848  27.405  1.00  0.00    -0.237 OA
ATOM     47  O   UNL A   1      40.381  19.602  26.031  1.00  0.00    -0.237 OA
ATOM     48  O   UNL A   1      42.650  19.558  25.070  1.00  0.00    -0.744 OA
ENDBRANCH  44  45
ENDBRANCH  25  39
BRANCH  26  49
ATOM     49  C   UNL A   1      43.537  33.236  31.315  1.00  0.00    -0.014 A 
ATOM     50  C   UNL A   1      43.413  33.505  32.690  1.00  0.00     0.010 A 
ATOM     51  C   UNL A   1      43.854  34.286  30.435  1.00  0.00     0.010 A 
ATOM     52  C   UNL A   1      43.597  34.803  33.173  1.00  0.00     0.020 A 
ATOM     53  C   UNL A   1      44.065  35.580  30.919  1.00  0.00     0.020 A 
ATOM     54  C   UNL A   1      43.927  35.831  32.285  1.00  0.00     0.054 A 
BRANCH  54  55
ATOM     55  S   UNL A   1      44.237  37.493  32.941  1.00  0.00     0.124 S 
ATOM     56  O   UNL A   1      45.586  37.359  33.483  1.00  0.00    -0.237 OA
ATOM     57  O   UNL A   1      44.112  38.334  31.754  1.00  0.00    -0.237 OA
ATOM     58  O   UNL A   1      43.176  37.669  33.932  1.00  0.00    -0.744 OA
ENDBRANCH  54  55
ENDBRANCH  26  49
BRANCH  38  59
ATOM     59  C   UNL A   1      47.963  27.969  30.238  1.00  0.00    -0.014 A 
ATOM     60  C   UNL A   1      48.473  27.476  31.452  1.00  0.00     0.010 A 
ATOM     61  C   UNL A   1      48.854  28.322  29.208  1.00  0.00     0.010 A 
ATOM     62  C   UNL A   1      49.853  27.377  31.648  1.00  0.00     0.020 A 
ATOM     63  C   UNL A   1      50.234  28.202  29.393  1.00  0.00     0.020 A 
ATOM     64  C   UNL A   1      50.724  27.748  30.619  1.00  0.00     0.054 A 
BRANCH  64  65
ATOM     65  S   UNL A   1      52.512  27.594  30.886  1.00  0.00     0.124 S 
ATOM     66  O   UNL A   1      52.568  26.895  32.166  1.00  0.00    -0.237 OA
ATOM     67  O   UNL A   1      52.948  26.819  29.727  1.00  0.00    -0.237 OA
ATOM     68  O   UNL A   1      52.976  28.979  30.910  1.00  0.00    -0.744 OA
ENDBRANCH  64  65
ENDBRANCH  38  59
ENDBRANCH  12  13
ENDBRANCH   5   7
ENDBRANCH   2   3
ENDBRANCH   1   2
BRANCH   1  69
ATOM     69  C   UNL A   1      32.228  26.127  26.484  1.00  0.00     0.023 C 
BRANCH  69  70
ATOM     70  C   UNL A   1      30.918  25.348  26.580  1.00  0.00     0.116 C 
BRANCH  70  71
ATOM     71  N   UNL A   1      30.474  24.823  25.300  1.00  0.00    -0.356 N 
ATOM     72  C   UNL A   1      30.185  25.380  24.099  1.00  0.00     0.224 C 
ATOM     73  H   UNL A   1      30.355  23.846  25.308  1.00  0.00     0.163 HD
ATOM     74  O   UNL A   1      29.955  24.583  23.178  1.00  0.00    -0.275 OA
BRANCH  72  75
ATOM     75  C   UNL A   1      30.069  26.880  23.807  1.00  0.00     0.096 C 
ATOM     76  C   UNL A   1      28.813  27.406  23.112  1.00  0.00     0.015 C 
ATOM     77  C   UNL A   1      31.379  27.413  23.159  1.00  0.00     0.082 C 
ATOM     78  C   UNL A   1      28.806  28.928  23.014  1.00  0.00     0.001 C 
ATOM     79  C   UNL A   1      31.315  28.940  23.008  1.00  0.00     0.021 C 
ATOM     80  C   UNL A   1      30.055  29.428  22.301  1.00  0.00     0.002 C 
BRANCH  77  81
ATOM     81  N   UNL A   1      31.611  26.737  21.875  1.00  0.00    -0.207 NA
ATOM     82  H   UNL A   1      31.369  27.425  21.163  1.00  0.00     0.141 HD
BRANCH  81  83
ATOM     83  S   UNL A   1      33.056  26.069  21.369  1.00  0.00     0.240 S 
ATOM     84  O   UNL A   1      32.791  25.571  20.039  1.00  0.00    -0.207 OA
ATOM     85  O   UNL A   1      34.102  27.043  21.604  1.00  0.00    -0.207 OA
BRANCH  83  86
ATOM     86  C   UNL A   1      33.391  24.665  22.393  1.00  0.00     0.083 A 
ATOM     87  C   UNL A   1      32.903  23.394  22.101  1.00  0.00     0.022 A 
ATOM     88  C   UNL A   1      34.120  24.888  23.568  1.00  0.00     0.030 A 
ATOM     89  C   UNL A   1      33.089  22.357  23.019  1.00  0.00     0.010 A 
ATOM     90  C   UNL A   1      34.339  23.846  24.481  1.00  0.00    -0.017 A 
ATOM     91  C   UNL A   1      33.796  22.568  24.215  1.00  0.00    -0.018 A 
ATOM     92  C   UNL A   1      35.079  24.049  25.656  1.00  0.00     0.009 A 
ATOM     93  C   UNL A   1      33.980  21.538  25.152  1.00  0.00     0.009 A 
ATOM     94  C   UNL A   1      35.265  23.011  26.570  1.00  0.00     0.001 A 
ATOM     95  C   UNL A   1      34.708  21.760  26.323  1.00  0.00     0.001 A 
ENDBRANCH  83  86
ENDBRANCH  81  83
ENDBRANCH  77  81
ENDBRANCH  72  75
ENDBRANCH  70  71
ENDBRANCH  69  70
ENDBRANCH   1  69
TORSDOF 17
ENDMDL
MODEL 2
REMARK VINA RESULT:     -11.5      1.568      8.744
REMARK SMILES O=C(NCCCCNC(=O)[C@@H]1CCCC[C@@H]1NS(=O)(=O)c1ccc2ccccc2c1)c1ccc(-c2c3nc(c(-c4ccc(S(=O)(=O)[O-])cc4)c4ccc([nH]4)c(-c4ccc(S(=O)(=O)[O-])cc4)c4nc(c(-c5ccc(S(=O)(=O)[O-])cc5)c5ccc2[nH]5)C=C4)C=C3)cc1
REMARK SMILES IDX 5 1 4 2 3 3 1 4 2 5 31 7 32 8 90 9 33 10 89 11 34 12 35 13
REMARK SMILES IDX 36 14 83 15 37 16 88 17 82 18 84 19 38 20 87 21 81 22 80 23
REMARK SMILES IDX 39 25 69 26 50 27 68 28 51 29 54 30 67 31 85 32 52 33 53 34
REMARK SMILES IDX 66 36 86 37 55 38 40 39 41 40 49 41 42 42 48 43 43 44 44 45
REMARK SMILES IDX 45 46 46 47 47 48 70 49 71 50 79 51 72 52 78 53 73 54 74 55
REMARK SMILES IDX 75 56 76 57 77 58 56 59 57 60 65 61 58 62 64 63 59 64 60 65
REMARK SMILES IDX 61 66 62 67 63 68 6 69 7 70 8 71 9 72 10 74 11 75 12 76
REMARK SMILES IDX 16 77 13 78 15 79 14 80 17 81 18 83 19 84 20 85 21 86 22 87
REMARK SMILES IDX 30 88 23 89 29 90 24 91 28 92 25 93 27 94 26 95
REMARK H PARENT 3 6 84 24 54 35 8 73 17 82
REMARK Flexibility Score: inf
ROOT
ATOM      1  C   UNL A   1      32.831  28.157  26.000  1.00  0.00     0.023 C 
ENDROOT
BRANCH   1   2
ATOM      2  C   UNL A   1      33.631  28.500  27.253  1.00  0.00     0.116 C 
BRANCH   2   3
ATOM      3  N   UNL A   1      33.551  29.900  27.646  1.00  0.00    -0.352 N 
ATOM      4  O   UNL A   1      34.317  31.836  28.533  1.00  0.00    -0.269 OA
ATOM      5  C   UNL A   1      34.548  30.685  28.180  1.00  0.00     0.251 C 
ATOM      6  H   UNL A   1      32.679  30.338  27.514  1.00  0.00     0.163 HD
BRANCH   5   7
ATOM      7  C   UNL A   1      35.891  30.095  28.366  1.00  0.00     0.039 A 
ATOM      8  C   UNL A   1      36.264  29.583  29.610  1.00  0.00     0.014 A 
ATOM      9  C   UNL A   1      36.805  30.132  27.311  1.00  0.00     0.014 A 
ATOM     10  C   UNL A   1      37.594  29.262  29.845  1.00  0.00     0.010 A 
ATOM     11  C   UNL A   1      38.125  29.730  27.528  1.00  0.00     0.010 A 
ATOM     12  C   UNL A   1      38.542  29.338  28.809  1.00  0.00    -0.014 A 
BRANCH  12  13
ATOM     13  C   UNL A   1      39.954  28.982  29.098  1.00  0.00     0.031 A 
ATOM     14  C   UNL A   1      40.848  29.912  29.874  1.00  0.00     0.074 A 
ATOM     15  C   UNL A   1      40.409  27.777  28.705  1.00  0.00     0.049 A 
ATOM     16  N   UNL A   1      42.081  29.723  30.271  1.00  0.00    -0.248 NA
ATOM     17  C   UNL A   1      40.295  31.223  30.248  1.00  0.00     0.031 C 
ATOM     18  C   UNL A   1      39.632  26.791  27.947  1.00  0.00     0.029 A 
ATOM     19  N   UNL A   1      41.615  27.160  28.916  1.00  0.00    -0.354 N 
ATOM     20  C   UNL A   1      42.463  30.898  30.910  1.00  0.00     0.074 A 
ATOM     21  C   UNL A   1      41.334  31.800  30.839  1.00  0.00     0.031 C 
ATOM     22  C   UNL A   1      40.356  25.670  27.816  1.00  0.00     0.029 A 
ATOM     23  C   UNL A   1      41.665  25.877  28.426  1.00  0.00     0.049 A 
ATOM     24  H   UNL A   1      42.370  27.593  29.374  1.00  0.00     0.167 HD
ATOM     25  C   UNL A   1      43.646  31.195  31.501  1.00  0.00     0.031 A 
ATOM     26  C   UNL A   1      42.654  24.964  28.460  1.00  0.00     0.031 A 
ATOM     27  C   UNL A   1      44.761  30.289  31.584  1.00  0.00     0.049 A 
ATOM     28  C   UNL A   1      43.950  25.319  29.125  1.00  0.00     0.074 A 
ATOM     29  C   UNL A   1      45.988  30.485  32.196  1.00  0.00     0.029 A 
ATOM     30  N   UNL A   1      44.788  29.013  31.040  1.00  0.00    -0.354 N 
ATOM     31  N   UNL A   1      44.281  26.428  29.742  1.00  0.00    -0.248 NA
ATOM     32  C   UNL A   1      45.006  24.300  29.095  1.00  0.00     0.031 C 
ATOM     33  C   UNL A   1      46.770  29.343  31.984  1.00  0.00     0.029 A 
ATOM     34  C   UNL A   1      46.015  28.418  31.283  1.00  0.00     0.049 A 
ATOM     35  H   UNL A   1      44.043  28.592  30.553  1.00  0.00     0.167 HD
ATOM     36  C   UNL A   1      45.582  26.236  30.186  1.00  0.00     0.074 A 
ATOM     37  C   UNL A   1      45.970  24.898  29.784  1.00  0.00     0.031 C 
ATOM     38  C   UNL A   1      46.387  27.091  30.865  1.00  0.00     0.031 A 
BRANCH  25  39
ATOM     39  C   UNL A   1      43.809  32.579  32.075  1.00  0.00    -0.014 A 
ATOM     40  C   UNL A   1      43.518  32.854  33.423  1.00  0.00     0.010 A 
ATOM     41  C   UNL A   1      44.303  33.612  31.257  1.00  0.00     0.010 A 
ATOM     42  C   UNL A   1      43.678  34.148  33.931  1.00  0.00     0.020 A 
ATOM     43  C   UNL A   1      44.486  34.902  31.768  1.00  0.00     0.020 A 
ATOM     44  C   UNL A   1      44.154  35.165  33.097  1.00  0.00     0.054 A 
BRANCH  44  45
ATOM     45  S   UNL A   1      44.365  36.832  33.784  1.00  0.00     0.124 S 
ATOM     46  O   UNL A   1      43.419  36.819  34.896  1.00  0.00    -0.237 OA
ATOM     47  O   UNL A   1      45.776  36.852  34.159  1.00  0.00    -0.237 OA
ATOM     48  O   UNL A   1      44.008  37.710  32.672  1.00  0.00    -0.744 OA
ENDBRANCH  44  45
ENDBRANCH  25  39
BRANCH  26  49
ATOM     49  C   UNL A   1      42.439  23.628  27.849  1.00  0.00    -0.014 A 
ATOM     50  C   UNL A   1      42.850  23.374  26.529  1.00  0.00     0.010 A 
ATOM     51  C   UNL A   1      41.862  22.588  28.602  1.00  0.00     0.010 A 
ATOM     52  C   UNL A   1      42.682  22.104  25.971  1.00  0.00     0.020 A 
ATOM     53  C   UNL A   1      41.718  21.311  28.055  1.00  0.00     0.020 A 
ATOM     54  C   UNL A   1      42.122  21.079  26.738  1.00  0.00     0.054 A 
BRANCH  54  55
ATOM     55  S   UNL A   1      41.982  19.419  26.021  1.00  0.00     0.124 S 
ATOM     56  O   UNL A   1      40.547  19.315  25.774  1.00  0.00    -0.237 OA
ATOM     57  O   UNL A   1      42.825  19.513  24.832  1.00  0.00    -0.237 OA
ATOM     58  O   UNL A   1      42.502  18.550  27.075  1.00  0.00    -0.744 OA
ENDBRANCH  54  55
ENDBRANCH  26  49
BRANCH  38  59
ATOM     59  C   UNL A   1      47.756  26.590  31.231  1.00  0.00    -0.014 A 
ATOM     60  C   UNL A   1      47.985  25.934  32.453  1.00  0.00     0.010 A 
ATOM     61  C   UNL A   1      48.822  26.762  30.330  1.00  0.00     0.010 A 
ATOM     62  C   UNL A   1      49.269  25.494  32.787  1.00  0.00     0.020 A 
ATOM     63  C   UNL A   1      50.102  26.303  30.650  1.00  0.00     0.020 A 
ATOM     64  C   UNL A   1      50.320  25.688  31.885  1.00  0.00     0.054 A 
BRANCH  64  65
ATOM     65  S   UNL A   1      51.976  25.093  32.329  1.00  0.00     0.124 S 
ATOM     66  O   UNL A   1      52.794  25.649  31.256  1.00  0.00    -0.237 OA
ATOM     67  O   UNL A   1      52.188  25.679  33.650  1.00  0.00    -0.237 OA
ATOM     68  O   UNL A   1      51.832  23.639  32.315  1.00  0.00    -0.744 OA
ENDBRANCH  64  65
ENDBRANCH  38  59
ENDBRANCH  12  13
ENDBRANCH   5   7
ENDBRANCH   2   3
ENDBRANCH   1   2
BRANCH   1  69
ATOM     69  C   UNL A   1      32.329  26.715  25.917  1.00  0.00     0.023 C 
BRANCH  69  70
ATOM     70  C   UNL A   1      33.426  25.652  25.937  1.00  0.00     0.116 C 
BRANCH  70  71
ATOM     71  N   UNL A   1      33.036  24.446  26.647  1.00  0.00    -0.356 N 
ATOM     72  C   UNL A   1      33.643  23.261  26.902  1.00  0.00     0.224 C 
ATOM     73  H   UNL A   1      32.130  24.502  27.027  1.00  0.00     0.163 HD
ATOM     74  O   UNL A   1      33.037  22.500  27.670  1.00  0.00    -0.275 OA
BRANCH  72  75
ATOM     75  C   UNL A   1      34.960  22.774  26.288  1.00  0.00     0.096 C 
ATOM     76  C   UNL A   1      36.107  23.768  26.107  1.00  0.00     0.015 C 
ATOM     77  C   UNL A   1      34.688  21.934  25.007  1.00  0.00     0.082 C 
ATOM     78  C   UNL A   1      37.378  23.092  25.603  1.00  0.00     0.001 C 
ATOM     79  C   UNL A   1      35.995  21.324  24.483  1.00  0.00     0.021 C 
ATOM     80  C   UNL A   1      37.113  22.346  24.304  1.00  0.00     0.002 C 
BRANCH  77  81
ATOM     81  N   UNL A   1      34.019  22.767  23.998  1.00  0.00    -0.207 NA
ATOM     82  H   UNL A   1      34.573  22.654  23.149  1.00  0.00     0.141 HD
BRANCH  81  83
ATOM     83  S   UNL A   1      32.428  22.623  23.508  1.00  0.00     0.240 S 
ATOM     84  O   UNL A   1      32.481  21.838  22.297  1.00  0.00    -0.207 OA
ATOM     85  O   UNL A   1      31.651  22.181  24.648  1.00  0.00    -0.207 OA
BRANCH  83  86
ATOM     86  C   UNL A   1      31.853  24.236  23.060  1.00  0.00     0.083 A 
ATOM     87  C   UNL A   1      32.623  25.121  22.310  1.00  0.00     0.022 A 
ATOM     88  C   UNL A   1      30.601  24.629  23.551  1.00  0.00     0.030 A 
ATOM     89  C   UNL A   1      32.167  26.426  22.103  1.00  0.00     0.010 A 
ATOM     90  C   UNL A   1      30.122  25.928  23.323  1.00  0.00    -0.017 A 
ATOM     91  C   UNL A   1      30.926  26.847  22.610  1.00  0.00    -0.018 A 
ATOM     92  C   UNL A   1      28.864  26.334  23.796  1.00  0.00     0.009 A 
ATOM     93  C   UNL A   1      30.461  28.159  22.422  1.00  0.00     0.009 A 
ATOM     94  C   UNL A   1      28.411  27.637  23.587  1.00  0.00     0.001 A 
ATOM     95  C   UNL A   1      29.212  28.552  22.910  1.00  0.00     0.001 A 
ENDBRANCH  83  86
ENDBRANCH  81  83
ENDBRANCH  77  81
ENDBRANCH  72  75
ENDBRANCH  70  71
ENDBRANCH  69  70
ENDBRANCH   1  69
TORSDOF 17
ENDMDL
MODEL 3
REMARK VINA RESULT:     -11.5      2.525      8.017
REMARK SMILES O=C(NCCCCNC(=O)[C@@H]1CCCC[C@@H]1NS(=O)(=O)c1ccc2ccccc2c1)c1ccc(-c2c3nc(c(-c4ccc(S(=O)(=O)[O-])cc4)c4ccc([nH]4)c(-c4ccc(S(=O)(=O)[O-])cc4)c4nc(c(-c5ccc(S(=O)(=O)[O-])cc5)c5ccc2[nH]5)C=C4)C=C3)cc1
REMARK SMILES IDX 5 1 4 2 3 3 1 4 2 5 31 7 32 8 90 9 33 10 89 11 34 12 35 13
REMARK SMILES IDX 36 14 83 15 37 16 88 17 82 18 84 19 38 20 87 21 81 22 80 23
REMARK SMILES IDX 39 25 69 26 50 27 68 28 51 29 54 30 67 31 85 32 52 33 53 34
REMARK SMILES IDX 66 36 86 37 55 38 40 39 41 40 49 41 42 42 48 43 43 44 44 45
REMARK SMILES IDX 45 46 46 47 47 48 70 49 71 50 79 51 72 52 78 53 73 54 74 55
REMARK SMILES IDX 75 56 76 57 77 58 56 59 57 60 65 61 58 62 64 63 59 64 60 65
REMARK SMILES IDX 61 66 62 67 63 68 6 69 7 70 8 71 9 72 10 74 11 75 12 76
REMARK SMILES IDX 16 77 13 78 15 79 14 80 17 81 18 83 19 84 20 85 21 86 22 87
REMARK SMILES IDX 30 88 23 89 29 90 24 91 28 92 25 93 27 94 26 95
REMARK H PARENT 3 6 84 24 54 35 8 73 17 82
REMARK Flexibility Score: inf
ROOT
ATOM      1  C   UNL A   1      35.715  23.089  25.393  1.00  0.00     0.023 C 
ENDROOT
BRANCH   1   2
ATOM      2  C   UNL A   1      37.107  23.642  25.102  1.00  0.00     0.116 C 
BRANCH   2   3
ATOM      3  N   UNL A   1      38.188  22.705  25.374  1.00  0.00    -0.352 N 
ATOM      4  O   UNL A   1      40.194  22.061  26.202  1.00  0.00    -0.269 OA
ATOM      5  C   UNL A   1      39.328  22.925  26.116  1.00  0.00     0.251 C 
ATOM      6  H   UNL A   1      38.094  21.808  24.981  1.00  0.00     0.163 HD
BRANCH   5   7
ATOM      7  C   UNL A   1      39.509  24.240  26.764  1.00  0.00     0.039 A 
ATOM      8  C   UNL A   1      40.220  25.250  26.113  1.00  0.00     0.014 A 
ATOM      9  C   UNL A   1      39.036  24.432  28.064  1.00  0.00     0.014 A 
ATOM     10  C   UNL A   1      40.597  26.384  26.818  1.00  0.00     0.010 A 
ATOM     11  C   UNL A   1      39.347  25.611  28.744  1.00  0.00     0.010 A 
ATOM     12  C   UNL A   1      40.171  26.576  28.144  1.00  0.00    -0.014 A 
BRANCH  12  13
ATOM     13  C   UNL A   1      40.592  27.804  28.865  1.00  0.00     0.031 A 
ATOM     14  C   UNL A   1      42.002  27.969  29.366  1.00  0.00     0.074 A 
ATOM     15  C   UNL A   1      39.700  28.804  29.011  1.00  0.00     0.049 A 
ATOM     16  N   UNL A   1      42.549  29.005  29.950  1.00  0.00    -0.248 NA
ATOM     17  C   UNL A   1      42.915  26.827  29.197  1.00  0.00     0.031 C 
ATOM     18  C   UNL A   1      38.305  28.757  28.565  1.00  0.00     0.029 A 
ATOM     19  N   UNL A   1      39.840  30.061  29.539  1.00  0.00    -0.354 N 
ATOM     20  C   UNL A   1      43.855  28.631  30.250  1.00  0.00     0.074 A 
ATOM     21  C   UNL A   1      44.016  27.268  29.791  1.00  0.00     0.031 C 
ATOM     22  C   UNL A   1      37.738  29.954  28.776  1.00  0.00     0.029 A 
ATOM     23  C   UNL A   1      38.707  30.830  29.424  1.00  0.00     0.049 A 
ATOM     24  H   UNL A   1      40.671  30.381  29.959  1.00  0.00     0.167 HD
ATOM     25  C   UNL A   1      44.828  29.358  30.850  1.00  0.00     0.031 A 
ATOM     26  C   UNL A   1      38.469  32.100  29.799  1.00  0.00     0.031 A 
ATOM     27  C   UNL A   1      44.668  30.720  31.289  1.00  0.00     0.049 A 
ATOM     28  C   UNL A   1      39.566  32.884  30.458  1.00  0.00     0.074 A 
ATOM     29  C   UNL A   1      45.607  31.553  31.874  1.00  0.00     0.029 A 
ATOM     30  N   UNL A   1      43.493  31.451  31.193  1.00  0.00    -0.354 N 
ATOM     31  N   UNL A   1      40.800  32.517  30.710  1.00  0.00    -0.248 NA
ATOM     32  C   UNL A   1      39.236  34.249  30.883  1.00  0.00     0.031 C 
ATOM     33  C   UNL A   1      44.987  32.773  32.169  1.00  0.00     0.029 A 
ATOM     34  C   UNL A   1      43.676  32.717  31.724  1.00  0.00     0.049 A 
ATOM     35  H   UNL A   1      42.652  31.119  30.802  1.00  0.00     0.167 HD
ATOM     36  C   UNL A   1      41.400  33.614  31.314  1.00  0.00     0.074 A 
ATOM     37  C   UNL A   1      40.400  34.662  31.371  1.00  0.00     0.031 C 
ATOM     38  C   UNL A   1      42.666  33.742  31.783  1.00  0.00     0.031 A 
BRANCH  25  39
ATOM     39  C   UNL A   1      46.149  28.679  31.103  1.00  0.00    -0.014 A 
ATOM     40  C   UNL A   1      46.411  28.010  32.312  1.00  0.00     0.010 A 
ATOM     41  C   UNL A   1      47.130  28.678  30.095  1.00  0.00     0.010 A 
ATOM     42  C   UNL A   1      47.646  27.388  32.523  1.00  0.00     0.020 A 
ATOM     43  C   UNL A   1      48.358  28.037  30.293  1.00  0.00     0.020 A 
ATOM     44  C   UNL A   1      48.614  27.412  31.514  1.00  0.00     0.054 A 
BRANCH  44  45
ATOM     45  S   UNL A   1      50.204  26.587  31.807  1.00  0.00     0.124 S 
ATOM     46  O   UNL A   1      51.073  27.716  32.127  1.00  0.00    -0.237 OA
ATOM     47  O   UNL A   1      49.904  25.690  32.919  1.00  0.00    -0.237 OA
ATOM     48  O   UNL A   1      50.487  25.924  30.536  1.00  0.00    -0.744 OA
ENDBRANCH  44  45
ENDBRANCH  25  39
BRANCH  26  49
ATOM     49  C   UNL A   1      37.134  32.701  29.548  1.00  0.00    -0.014 A 
ATOM     50  C   UNL A   1      36.170  32.749  30.570  1.00  0.00     0.010 A 
ATOM     51  C   UNL A   1      36.837  33.271  28.296  1.00  0.00     0.010 A 
ATOM     52  C   UNL A   1      34.930  33.351  30.342  1.00  0.00     0.020 A 
ATOM     53  C   UNL A   1      35.608  33.896  28.073  1.00  0.00     0.020 A 
ATOM     54  C   UNL A   1      34.659  33.924  29.097  1.00  0.00     0.054 A 
BRANCH  54  55
ATOM     55  S   UNL A   1      33.072  34.767  28.844  1.00  0.00     0.124 S 
ATOM     56  O   UNL A   1      32.432  33.915  27.847  1.00  0.00    -0.237 OA
ATOM     57  O   UNL A   1      32.479  34.737  30.178  1.00  0.00    -0.237 OA
ATOM     58  O   UNL A   1      33.465  36.095  28.377  1.00  0.00    -0.744 OA
ENDBRANCH  54  55
ENDBRANCH  26  49
BRANCH  38  59
ATOM     59  C   UNL A   1      43.039  35.072  32.376  1.00  0.00    -0.014 A 
ATOM     60  C   UNL A   1      42.777  35.363  33.726  1.00  0.00     0.010 A 
ATOM     61  C   UNL A   1      43.679  36.034  31.575  1.00  0.00     0.010 A 
ATOM     62  C   UNL A   1      43.111  36.613  34.255  1.00  0.00     0.020 A 
ATOM     63  C   UNL A   1      44.035  37.276  32.106  1.00  0.00     0.020 A 
ATOM     64  C   UNL A   1      43.731  37.563  33.439  1.00  0.00     0.054 A 
BRANCH  64  65
ATOM     65  S   UNL A   1      44.174  39.173  34.149  1.00  0.00     0.124 S 
ATOM     66  O   UNL A   1      45.379  39.514  33.398  1.00  0.00    -0.237 OA
ATOM     67  O   UNL A   1      42.999  39.990  33.858  1.00  0.00    -0.237 OA
ATOM     68  O   UNL A   1      44.383  38.878  35.565  1.00  0.00    -0.744 OA
ENDBRANCH  64  65
ENDBRANCH  38  59
ENDBRANCH  12  13
ENDBRANCH   5   7
ENDBRANCH   2   3
ENDBRANCH   1   2
BRANCH   1  69
ATOM     69  C   UNL A   1      35.004  23.707  26.598  1.00  0.00     0.023 C 
BRANCH  69  70
ATOM     70  C   UNL A   1      34.140  22.737  27.401  1.00  0.00     0.116 C 
BRANCH  70  71
ATOM     71  N   UNL A   1      32.752  23.154  27.493  1.00  0.00    -0.356 N 
ATOM     72  C   UNL A   1      31.632  22.876  26.782  1.00  0.00     0.224 C 
ATOM     73  H   UNL A   1      32.589  23.779  28.237  1.00  0.00     0.163 HD
ATOM     74  O   UNL A   1      30.575  23.327  27.246  1.00  0.00    -0.275 OA
BRANCH  72  75
ATOM     75  C   UNL A   1      31.575  22.113  25.455  1.00  0.00     0.096 C 
ATOM     76  C   UNL A   1      32.611  21.023  25.179  1.00  0.00     0.015 C 
ATOM     77  C   UNL A   1      31.413  23.101  24.264  1.00  0.00     0.082 C 
ATOM     78  C   UNL A   1      32.332  20.283  23.875  1.00  0.00     0.001 C 
ATOM     79  C   UNL A   1      31.204  22.327  22.954  1.00  0.00     0.021 C 
ATOM     80  C   UNL A   1      32.263  21.257  22.707  1.00  0.00     0.002 C 
BRANCH  77  81
ATOM     81  N   UNL A   1      32.575  23.998  24.200  1.00  0.00    -0.207 NA
ATOM     82  H   UNL A   1      33.357  23.404  23.926  1.00  0.00     0.141 HD
BRANCH  81  83
ATOM     83  S   UNL A   1      32.705  25.365  23.247  1.00  0.00     0.240 S 
ATOM     84  O   UNL A   1      34.075  25.371  22.790  1.00  0.00    -0.207 OA
ATOM     85  O   UNL A   1      31.605  25.354  22.304  1.00  0.00    -0.207 OA
BRANCH  83  86
ATOM     86  C   UNL A   1      32.499  26.776  24.295  1.00  0.00     0.083 A 
ATOM     87  C   UNL A   1      31.337  27.543  24.295  1.00  0.00     0.022 A 
ATOM     88  C   UNL A   1      33.589  27.146  25.093  1.00  0.00     0.030 A 
ATOM     89  C   UNL A   1      31.288  28.720  25.046  1.00  0.00     0.010 A 
ATOM     90  C   UNL A   1      33.538  28.310  25.875  1.00  0.00    -0.017 A 
ATOM     91  C   UNL A   1      32.381  29.122  25.832  1.00  0.00    -0.018 A 
ATOM     92  C   UNL A   1      34.617  28.688  26.690  1.00  0.00     0.009 A 
ATOM     93  C   UNL A   1      32.352  30.309  26.582  1.00  0.00     0.009 A 
ATOM     94  C   UNL A   1      34.565  29.863  27.441  1.00  0.00     0.001 A 
ATOM     95  C   UNL A   1      33.438  30.678  27.379  1.00  0.00     0.001 A 
ENDBRANCH  83  86
ENDBRANCH  81  83
ENDBRANCH  77  81
ENDBRANCH  72  75
ENDBRANCH  70  71
ENDBRANCH  69  70
ENDBRANCH   1  69
TORSDOF 17
ENDMDL
