MODEL 1
REMARK VINA RESULT:     -11.0      0.000      0.000
REMARK SMILES O=C(NCCCCNC(=O)c1ccc(-c2c3nc(c(-c4ccc(S(=O)(=O)[O-])cc4)c4ccc([nH]4)c(-c4ccc(S(=O)(=O)[O-])cc4)c4nc(c(-c5ccc(S(=O)(=O)[O-])cc5)c5ccc2[nH]5)C=C4)C=C3)cc1)c1ccc(N/C=C\C(=O)c2ccco2)cc1
REMARK SMILES IDX 5 1 4 2 3 3 1 4 2 5 71 7 72 8 86 9 73 10 85 11 74 12 75 13
REMARK SMILES IDX 76 15 77 16 78 17 79 18 80 19 81 20 84 21 82 22 83 23 6 24
REMARK SMILES IDX 7 25 8 26 9 27 10 29 11 30 12 31 70 32 13 33 69 34 14 35
REMARK SMILES IDX 15 36 16 37 63 38 17 39 68 40 62 41 64 42 18 43 67 44 61 45
REMARK SMILES IDX 60 46 19 48 49 49 30 50 48 51 31 52 34 53 47 54 65 55 32 56
REMARK SMILES IDX 33 57 46 59 66 60 35 61 20 62 21 63 29 64 22 65 28 66 23 67
REMARK SMILES IDX 24 68 25 69 26 70 27 71 50 72 51 73 59 74 52 75 58 76 53 77
REMARK SMILES IDX 54 78 55 79 56 80 57 81 36 82 37 83 45 84 38 85 44 86 39 87
REMARK SMILES IDX 40 88 41 89 42 90 43 91
REMARK H PARENT 3 6 75 14 8 28 64 47 34 58
REMARK Flexibility Score: inf
ROOT
ATOM      1  C   UNL A   1      31.509  29.677  25.765  1.00  0.00     0.023 C 
ENDROOT
BRANCH   1   2
ATOM      2  C   UNL A   1      32.052  29.450  24.357  1.00  0.00     0.116 C 
BRANCH   2   3
ATOM      3  N   UNL A   1      31.050  29.629  23.319  1.00  0.00    -0.352 N 
ATOM      4  O   UNL A   1      29.679  28.984  21.634  1.00  0.00    -0.269 OA
ATOM      5  C   UNL A   1      30.452  28.674  22.534  1.00  0.00     0.251 C 
ATOM      6  H   UNL A   1      30.763  30.557  23.158  1.00  0.00     0.163 HD
BRANCH   5   7
ATOM      7  C   UNL A   1      30.788  27.253  22.750  1.00  0.00     0.039 A 
ATOM      8  C   UNL A   1      31.786  26.625  22.001  1.00  0.00     0.016 A 
ATOM      9  C   UNL A   1      30.053  26.534  23.690  1.00  0.00     0.016 A 
ATOM     10  C   UNL A   1      31.976  25.247  22.121  1.00  0.00     0.027 A 
ATOM     11  C   UNL A   1      30.268  25.163  23.822  1.00  0.00     0.027 A 
ATOM     12  C   UNL A   1      31.214  24.496  23.024  1.00  0.00     0.038 A 
BRANCH  12  13
ATOM     13  N   UNL A   1      31.262  23.094  23.093  1.00  0.00    -0.362 N 
ATOM     14  H   UNL A   1      30.464  22.657  23.469  1.00  0.00     0.166 HD
BRANCH  13  15
ATOM     15  C   UNL A   1      32.274  22.256  22.703  1.00  0.00     0.087 C 
ATOM     16  C   UNL A   1      32.864  21.253  23.371  1.00  0.00     0.074 C 
BRANCH  16  17
ATOM     17  C   UNL A   1      32.542  20.766  24.745  1.00  0.00     0.222 C 
ATOM     18  O   UNL A   1      31.889  19.726  24.835  1.00  0.00    -0.286 OA
BRANCH  17  19
ATOM     19  C   UNL A   1      32.992  21.531  25.888  1.00  0.00     0.173 A 
ATOM     20  C   UNL A   1      34.205  21.593  26.553  1.00  0.00     0.054 A 
ATOM     21  O   UNL A   1      32.085  22.332  26.530  1.00  0.00    -0.461 OA
ATOM     22  C   UNL A   1      34.016  22.446  27.668  1.00  0.00     0.043 A 
ATOM     23  C   UNL A   1      32.709  22.865  27.609  1.00  0.00     0.196 A 
ENDBRANCH  17  19
ENDBRANCH  16  17
ENDBRANCH  13  15
ENDBRANCH  12  13
ENDBRANCH   5   7
ENDBRANCH   2   3
ENDBRANCH   1   2
BRANCH   1  24
ATOM     24  C   UNL A   1      32.077  28.762  26.848  1.00  0.00     0.023 C 
BRANCH  24  25
ATOM     25  C   UNL A   1      33.506  29.060  27.285  1.00  0.00     0.116 C 
BRANCH  25  26
ATOM     26  N   UNL A   1      33.759  30.479  27.501  1.00  0.00    -0.352 N 
ATOM     27  C   UNL A   1      34.878  31.101  28.005  1.00  0.00     0.251 C 
ATOM     28  H   UNL A   1      33.021  31.080  27.251  1.00  0.00     0.163 HD
ATOM     29  O   UNL A   1      34.866  32.311  28.210  1.00  0.00    -0.269 OA
BRANCH  27  30
ATOM     30  C   UNL A   1      36.077  30.302  28.338  1.00  0.00     0.039 A 
ATOM     31  C   UNL A   1      37.120  30.236  27.411  1.00  0.00     0.014 A 
ATOM     32  C   UNL A   1      36.192  29.668  29.577  1.00  0.00     0.014 A 
ATOM     33  C   UNL A   1      38.324  29.626  27.770  1.00  0.00     0.010 A 
ATOM     34  C   UNL A   1      37.413  29.117  29.957  1.00  0.00     0.010 A 
ATOM     35  C   UNL A   1      38.498  29.114  29.067  1.00  0.00    -0.014 A 
BRANCH  35  36
ATOM     36  C   UNL A   1      39.824  28.638  29.538  1.00  0.00     0.031 A 
ATOM     37  C   UNL A   1      40.733  29.548  30.310  1.00  0.00     0.074 A 
ATOM     38  C   UNL A   1      40.252  27.414  29.169  1.00  0.00     0.049 A 
ATOM     39  N   UNL A   1      41.963  29.340  30.707  1.00  0.00    -0.248 NA
ATOM     40  C   UNL A   1      40.201  30.874  30.660  1.00  0.00     0.031 C 
ATOM     41  C   UNL A   1      39.488  26.455  28.367  1.00  0.00     0.029 A 
ATOM     42  N   UNL A   1      41.447  26.778  29.396  1.00  0.00    -0.354 N 
ATOM     43  C   UNL A   1      42.361  30.513  31.335  1.00  0.00     0.074 A 
ATOM     44  C   UNL A   1      41.253  31.441  31.233  1.00  0.00     0.031 C 
ATOM     45  C   UNL A   1      40.229  25.353  28.174  1.00  0.00     0.029 A 
ATOM     46  C   UNL A   1      41.533  25.541  28.803  1.00  0.00     0.049 A 
ATOM     47  H   UNL A   1      42.172  27.170  29.934  1.00  0.00     0.167 HD
ATOM     48  C   UNL A   1      43.535  30.789  31.951  1.00  0.00     0.031 A 
ATOM     49  C   UNL A   1      42.551  24.660  28.749  1.00  0.00     0.031 A 
ATOM     50  C   UNL A   1      44.634  29.868  32.053  1.00  0.00     0.049 A 
ATOM     51  C   UNL A   1      43.844  24.985  29.435  1.00  0.00     0.074 A 
ATOM     52  C   UNL A   1      45.835  30.030  32.721  1.00  0.00     0.029 A 
ATOM     53  N   UNL A   1      44.672  28.615  31.461  1.00  0.00    -0.354 N 
ATOM     54  N   UNL A   1      44.173  26.069  30.095  1.00  0.00    -0.248 NA
ATOM     55  C   UNL A   1      44.904  23.968  29.374  1.00  0.00     0.031 C 
ATOM     56  C   UNL A   1      46.618  28.891  32.495  1.00  0.00     0.029 A 
ATOM     57  C   UNL A   1      45.887  28.004  31.722  1.00  0.00     0.049 A 
ATOM     58  H   UNL A   1      43.942  28.217  30.933  1.00  0.00     0.167 HD
ATOM     59  C   UNL A   1      45.476  25.866  30.533  1.00  0.00     0.074 A 
ATOM     60  C   UNL A   1      45.868  24.546  30.078  1.00  0.00     0.031 C 
ATOM     61  C   UNL A   1      46.274  26.698  31.245  1.00  0.00     0.031 A 
BRANCH  48  62
ATOM     62  C   UNL A   1      43.684  32.163  32.550  1.00  0.00    -0.014 A 
ATOM     63  C   UNL A   1      43.321  32.413  33.887  1.00  0.00     0.010 A 
ATOM     64  C   UNL A   1      44.184  33.217  31.766  1.00  0.00     0.010 A 
ATOM     65  C   UNL A   1      43.396  33.706  34.409  1.00  0.00     0.020 A 
ATOM     66  C   UNL A   1      44.285  34.507  32.293  1.00  0.00     0.020 A 
ATOM     67  C   UNL A   1      43.865  34.748  33.604  1.00  0.00     0.054 A 
BRANCH  67  68
ATOM     68  S   UNL A   1      43.931  36.424  34.294  1.00  0.00     0.124 S 
ATOM     69  O   UNL A   1      45.211  36.908  33.783  1.00  0.00    -0.237 OA
ATOM     70  O   UNL A   1      42.747  37.059  33.720  1.00  0.00    -0.237 OA
ATOM     71  O   UNL A   1      43.877  36.206  35.737  1.00  0.00    -0.744 OA
ENDBRANCH  67  68
ENDBRANCH  48  62
BRANCH  49  72
ATOM     72  C   UNL A   1      42.369  23.386  28.006  1.00  0.00    -0.014 A 
ATOM     73  C   UNL A   1      43.055  23.161  26.801  1.00  0.00     0.010 A 
ATOM     74  C   UNL A   1      41.564  22.363  28.541  1.00  0.00     0.010 A 
ATOM     75  C   UNL A   1      42.947  21.930  26.147  1.00  0.00     0.020 A 
ATOM     76  C   UNL A   1      41.468  21.126  27.900  1.00  0.00     0.020 A 
ATOM     77  C   UNL A   1      42.160  20.917  26.704  1.00  0.00     0.054 A 
BRANCH  77  78
ATOM     78  S   UNL A   1      42.117  19.293  25.897  1.00  0.00     0.124 S 
ATOM     79  O   UNL A   1      42.958  19.513  24.725  1.00  0.00    -0.237 OA
ATOM     80  O   UNL A   1      42.676  18.413  26.920  1.00  0.00    -0.237 OA
ATOM     81  O   UNL A   1      40.697  19.087  25.622  1.00  0.00    -0.744 OA
ENDBRANCH  77  78
ENDBRANCH  49  72
BRANCH  61  82
ATOM     82  C   UNL A   1      47.658  26.212  31.575  1.00  0.00    -0.014 A 
ATOM     83  C   UNL A   1      47.902  25.482  32.751  1.00  0.00     0.010 A 
ATOM     84  C   UNL A   1      48.712  26.436  30.672  1.00  0.00     0.010 A 
ATOM     85  C   UNL A   1      49.183  24.998  33.029  1.00  0.00     0.020 A 
ATOM     86  C   UNL A   1      49.991  25.936  30.936  1.00  0.00     0.020 A 
ATOM     87  C   UNL A   1      50.220  25.228  32.118  1.00  0.00     0.054 A 
BRANCH  87  88
ATOM     88  S   UNL A   1      51.862  24.543  32.471  1.00  0.00     0.124 S 
ATOM     89  O   UNL A   1      52.023  24.851  33.890  1.00  0.00    -0.237 OA
ATOM     90  O   UNL A   1      51.696  23.127  32.150  1.00  0.00    -0.237 OA
ATOM     91  O   UNL A   1      52.745  25.280  31.569  1.00  0.00    -0.744 OA
ENDBRANCH  87  88
ENDBRANCH  61  82
ENDBRANCH  35  36
ENDBRANCH  27  30
ENDBRANCH  25  26
ENDBRANCH  24  25
ENDBRANCH   1  24
TORSDOF 18
ENDMDL
MODEL 2
REMARK VINA RESULT:     -10.9      3.905      8.554
REMARK SMILES O=C(NCCCCNC(=O)c1ccc(-c2c3nc(c(-c4ccc(S(=O)(=O)[O-])cc4)c4ccc([nH]4)c(-c4ccc(S(=O)(=O)[O-])cc4)c4nc(c(-c5ccc(S(=O)(=O)[O-])cc5)c5ccc2[nH]5)C=C4)C=C3)cc1)c1ccc(N/C=C\C(=O)c2ccco2)cc1
REMARK SMILES IDX 5 1 4 2 3 3 1 4 2 5 71 7 72 8 86 9 73 10 85 11 74 12 75 13
REMARK SMILES IDX 76 15 77 16 78 17 79 18 80 19 81 20 84 21 82 22 83 23 6 24
REMARK SMILES IDX 7 25 8 26 9 27 10 29 11 30 12 31 70 32 13 33 69 34 14 35
REMARK SMILES IDX 15 36 16 37 63 38 17 39 68 40 62 41 64 42 18 43 67 44 61 45
REMARK SMILES IDX 60 46 19 48 49 49 30 50 48 51 31 52 34 53 47 54 65 55 32 56
REMARK SMILES IDX 33 57 46 59 66 60 35 61 20 62 21 63 29 64 22 65 28 66 23 67
REMARK SMILES IDX 24 68 25 69 26 70 27 71 50 72 51 73 59 74 52 75 58 76 53 77
REMARK SMILES IDX 54 78 55 79 56 80 57 81 36 82 37 83 45 84 38 85 44 86 39 87
REMARK SMILES IDX 40 88 41 89 42 90 43 91
REMARK H PARENT 3 6 75 14 8 28 64 47 34 58
REMARK Flexibility Score: inf
ROOT
ATOM      1  C   UNL A   1      36.779  20.479  25.007  1.00  0.00     0.023 C 
ENDROOT
BRANCH   1   2
ATOM      2  C   UNL A   1      35.370  20.930  25.377  1.00  0.00     0.116 C 
BRANCH   2   3
ATOM      3  N   UNL A   1      34.403  19.845  25.387  1.00  0.00    -0.352 N 
ATOM      4  O   UNL A   1      32.345  18.906  25.258  1.00  0.00    -0.269 OA
ATOM      5  C   UNL A   1      33.056  19.897  25.127  1.00  0.00     0.251 C 
ATOM      6  H   UNL A   1      34.762  18.956  25.612  1.00  0.00     0.163 HD
BRANCH   5   7
ATOM      7  C   UNL A   1      32.450  21.183  24.731  1.00  0.00     0.039 A 
ATOM      8  C   UNL A   1      31.753  21.967  25.653  1.00  0.00     0.016 A 
ATOM      9  C   UNL A   1      32.548  21.579  23.399  1.00  0.00     0.016 A 
ATOM     10  C   UNL A   1      31.063  23.100  25.216  1.00  0.00     0.027 A 
ATOM     11  C   UNL A   1      31.878  22.727  22.977  1.00  0.00     0.027 A 
ATOM     12  C   UNL A   1      31.108  23.489  23.872  1.00  0.00     0.038 A 
BRANCH  12  13
ATOM     13  N   UNL A   1      30.330  24.534  23.347  1.00  0.00    -0.362 N 
ATOM     14  H   UNL A   1      30.176  24.505  22.375  1.00  0.00     0.166 HD
BRANCH  13  15
ATOM     15  C   UNL A   1      29.756  25.585  24.011  1.00  0.00     0.087 C 
ATOM     16  C   UNL A   1      30.317  26.701  24.501  1.00  0.00     0.074 C 
BRANCH  16  17
ATOM     17  C   UNL A   1      31.753  27.102  24.425  1.00  0.00     0.222 C 
ATOM     18  O   UNL A   1      32.369  26.798  23.403  1.00  0.00    -0.286 OA
BRANCH  17  19
ATOM     19  C   UNL A   1      32.350  27.805  25.540  1.00  0.00     0.173 A 
ATOM     20  C   UNL A   1      31.806  28.513  26.599  1.00  0.00     0.054 A 
ATOM     21  O   UNL A   1      33.715  27.880  25.603  1.00  0.00    -0.461 OA
ATOM     22  C   UNL A   1      32.891  29.069  27.319  1.00  0.00     0.043 A 
ATOM     23  C   UNL A   1      34.030  28.657  26.669  1.00  0.00     0.196 A 
ENDBRANCH  17  19
ENDBRANCH  16  17
ENDBRANCH  13  15
ENDBRANCH  12  13
ENDBRANCH   5   7
ENDBRANCH   2   3
ENDBRANCH   1   2
BRANCH   1  24
ATOM     24  C   UNL A   1      37.847  21.572  25.015  1.00  0.00     0.023 C 
BRANCH  24  25
ATOM     25  C   UNL A   1      38.915  21.445  26.095  1.00  0.00     0.116 C 
BRANCH  25  26
ATOM     26  N   UNL A   1      39.668  20.200  26.020  1.00  0.00    -0.352 N 
ATOM     27  C   UNL A   1      41.024  19.990  26.121  1.00  0.00     0.251 C 
ATOM     28  H   UNL A   1      39.128  19.391  25.873  1.00  0.00     0.163 HD
ATOM     29  O   UNL A   1      41.487  18.870  25.927  1.00  0.00    -0.269 OA
BRANCH  27  30
ATOM     30  C   UNL A   1      41.923  21.125  26.421  1.00  0.00     0.039 A 
ATOM     31  C   UNL A   1      42.356  21.935  25.369  1.00  0.00     0.014 A 
ATOM     32  C   UNL A   1      42.291  21.419  27.736  1.00  0.00     0.014 A 
ATOM     33  C   UNL A   1      43.069  23.104  25.646  1.00  0.00     0.010 A 
ATOM     34  C   UNL A   1      42.944  22.616  28.016  1.00  0.00     0.010 A 
ATOM     35  C   UNL A   1      43.317  23.482  26.976  1.00  0.00    -0.014 A 
BRANCH  35  36
ATOM     36  C   UNL A   1      43.896  24.808  27.308  1.00  0.00     0.031 A 
ATOM     37  C   UNL A   1      43.023  25.921  27.810  1.00  0.00     0.074 A 
ATOM     38  C   UNL A   1      45.198  25.041  27.045  1.00  0.00     0.049 A 
ATOM     39  N   UNL A   1      43.336  27.169  28.046  1.00  0.00    -0.248 NA
ATOM     40  C   UNL A   1      41.611  25.594  28.055  1.00  0.00     0.031 C 
ATOM     41  C   UNL A   1      46.141  24.062  26.499  1.00  0.00     0.029 A 
ATOM     42  N   UNL A   1      45.948  26.183  27.178  1.00  0.00    -0.354 N 
ATOM     43  C   UNL A   1      42.157  27.784  28.448  1.00  0.00     0.074 A 
ATOM     44  C   UNL A   1      41.116  26.778  28.387  1.00  0.00     0.031 C 
ATOM     45  C   UNL A   1      47.341  24.642  26.347  1.00  0.00     0.029 A 
ATOM     46  C   UNL A   1      47.246  26.043  26.748  1.00  0.00     0.049 A 
ATOM     47  H   UNL A   1      45.590  27.023  27.547  1.00  0.00     0.167 HD
ATOM     48  C   UNL A   1      41.959  29.064  28.843  1.00  0.00     0.031 A 
ATOM     49  C   UNL A   1      48.247  26.941  26.663  1.00  0.00     0.031 A 
ATOM     50  C   UNL A   1      42.992  30.063  28.905  1.00  0.00     0.049 A 
ATOM     51  C   UNL A   1      48.008  28.355  27.103  1.00  0.00     0.074 A 
ATOM     52  C   UNL A   1      42.905  31.366  29.362  1.00  0.00     0.029 A 
ATOM     53  N   UNL A   1      44.300  29.873  28.485  1.00  0.00    -0.354 N 
ATOM     54  N   UNL A   1      46.904  28.897  27.558  1.00  0.00    -0.248 NA
ATOM     55  C   UNL A   1      49.149  29.278  27.023  1.00  0.00     0.031 C 
ATOM     56  C   UNL A   1      44.151  31.979  29.177  1.00  0.00     0.029 A 
ATOM     57  C   UNL A   1      45.024  31.044  28.644  1.00  0.00     0.049 A 
ATOM     58  H   UNL A   1      44.662  29.030  28.127  1.00  0.00     0.167 HD
ATOM     59  C   UNL A   1      47.216  30.225  27.823  1.00  0.00     0.074 A 
ATOM     60  C   UNL A   1      48.618  30.398  27.496  1.00  0.00     0.031 C 
ATOM     61  C   UNL A   1      46.413  31.210  28.294  1.00  0.00     0.031 A 
BRANCH  48  62
ATOM     62  C   UNL A   1      40.555  29.451  29.225  1.00  0.00    -0.014 A 
ATOM     63  C   UNL A   1      39.583  29.708  28.241  1.00  0.00     0.010 A 
ATOM     64  C   UNL A   1      40.206  29.568  30.582  1.00  0.00     0.010 A 
ATOM     65  C   UNL A   1      38.304  30.136  28.606  1.00  0.00     0.020 A 
ATOM     66  C   UNL A   1      38.920  29.971  30.952  1.00  0.00     0.020 A 
ATOM     67  C   UNL A   1      37.985  30.278  29.960  1.00  0.00     0.054 A 
BRANCH  67  68
ATOM     68  S   UNL A   1      36.327  30.859  30.411  1.00  0.00     0.124 S 
ATOM     69  O   UNL A   1      35.588  30.647  29.169  1.00  0.00    -0.237 OA
ATOM     70  O   UNL A   1      35.963  29.974  31.515  1.00  0.00    -0.237 OA
ATOM     71  O   UNL A   1      36.539  32.256  30.781  1.00  0.00    -0.744 OA
ENDBRANCH  67  68
ENDBRANCH  48  62
BRANCH  49  72
ATOM     72  C   UNL A   1      49.565  26.509  26.131  1.00  0.00    -0.014 A 
ATOM     73  C   UNL A   1      49.982  26.910  24.851  1.00  0.00     0.010 A 
ATOM     74  C   UNL A   1      50.440  25.755  26.935  1.00  0.00     0.010 A 
ATOM     75  C   UNL A   1      51.255  26.572  24.386  1.00  0.00     0.020 A 
ATOM     76  C   UNL A   1      51.721  25.431  26.480  1.00  0.00     0.020 A 
ATOM     77  C   UNL A   1      52.120  25.841  25.206  1.00  0.00     0.054 A 
BRANCH  77  78
ATOM     78  S   UNL A   1      53.807  25.504  24.625  1.00  0.00     0.124 S 
ATOM     79  O   UNL A   1      53.741  25.935  23.234  1.00  0.00    -0.237 OA
ATOM     80  O   UNL A   1      54.619  26.337  25.508  1.00  0.00    -0.237 OA
ATOM     81  O   UNL A   1      53.956  24.065  24.832  1.00  0.00    -0.744 OA
ENDBRANCH  77  78
ENDBRANCH  49  72
BRANCH  61  82
ATOM     82  C   UNL A   1      47.026  32.570  28.479  1.00  0.00    -0.014 A 
ATOM     83  C   UNL A   1      46.930  33.545  27.472  1.00  0.00     0.010 A 
ATOM     84  C   UNL A   1      47.653  32.895  29.696  1.00  0.00     0.010 A 
ATOM     85  C   UNL A   1      47.466  34.821  27.671  1.00  0.00     0.020 A 
ATOM     86  C   UNL A   1      48.173  34.175  29.906  1.00  0.00     0.020 A 
ATOM     87  C   UNL A   1      48.085  35.127  28.887  1.00  0.00     0.054 A 
BRANCH  87  88
ATOM     88  S   UNL A   1      48.724  36.806  29.145  1.00  0.00     0.124 S 
ATOM     89  O   UNL A   1      47.651  37.424  29.920  1.00  0.00    -0.237 OA
ATOM     90  O   UNL A   1      49.969  36.569  29.871  1.00  0.00    -0.237 OA
ATOM     91  O   UNL A   1      48.891  37.324  27.788  1.00  0.00    -0.744 OA
ENDBRANCH  87  88
ENDBRANCH  61  82
ENDBRANCH  35  36
ENDBRANCH  27  30
ENDBRANCH  25  26
ENDBRANCH  24  25
ENDBRANCH   1  24
TORSDOF 18
ENDMDL
MODEL 3
REMARK VINA RESULT:     -10.8      4.097      6.860
REMARK SMILES O=C(NCCCCNC(=O)c1ccc(-c2c3nc(c(-c4ccc(S(=O)(=O)[O-])cc4)c4ccc([nH]4)c(-c4ccc(S(=O)(=O)[O-])cc4)c4nc(c(-c5ccc(S(=O)(=O)[O-])cc5)c5ccc2[nH]5)C=C4)C=C3)cc1)c1ccc(N/C=C\C(=O)c2ccco2)cc1
REMARK SMILES IDX 5 1 4 2 3 3 1 4 2 5 71 7 72 8 86 9 73 10 85 11 74 12 75 13
REMARK SMILES IDX 76 15 77 16 78 17 79 18 80 19 81 20 84 21 82 22 83 23 6 24
REMARK SMILES IDX 7 25 8 26 9 27 10 29 11 30 12 31 70 32 13 33 69 34 14 35
REMARK SMILES IDX 15 36 16 37 63 38 17 39 68 40 62 41 64 42 18 43 67 44 61 45
REMARK SMILES IDX 60 46 19 48 49 49 30 50 48 51 31 52 34 53 47 54 65 55 32 56
REMARK SMILES IDX 33 57 46 59 66 60 35 61 20 62 21 63 29 64 22 65 28 66 23 67
REMARK SMILES IDX 24 68 25 69 26 70 27 71 50 72 51 73 59 74 52 75 58 76 53 77
REMARK SMILES IDX 54 78 55 79 56 80 57 81 36 82 37 83 45 84 38 85 44 86 39 87
REMARK SMILES IDX 40 88 41 89 42 90 43 91
REMARK H PARENT 3 6 75 14 8 28 64 47 34 58
REMARK Flexibility Score: inf
ROOT
ATOM      1  C   UNL A   1      34.063  35.443  29.046  1.00  0.00     0.023 C 
ENDROOT
BRANCH   1   2
ATOM      2  C   UNL A   1      33.512  34.954  30.382  1.00  0.00     0.116 C 
BRANCH   2   3
ATOM      3  N   UNL A   1      33.676  35.917  31.458  1.00  0.00    -0.352 N 
ATOM      4  O   UNL A   1      34.471  36.702  33.430  1.00  0.00    -0.269 OA
ATOM      5  C   UNL A   1      34.502  35.844  32.553  1.00  0.00     0.251 C 
ATOM      6  H   UNL A   1      33.121  36.728  31.394  1.00  0.00     0.163 HD
BRANCH   5   7
ATOM      7  C   UNL A   1      35.405  34.687  32.695  1.00  0.00     0.039 A 
ATOM      8  C   UNL A   1      34.904  33.408  32.951  1.00  0.00     0.016 A 
ATOM      9  C   UNL A   1      36.779  34.904  32.616  1.00  0.00     0.016 A 
ATOM     10  C   UNL A   1      35.787  32.363  33.231  1.00  0.00     0.027 A 
ATOM     11  C   UNL A   1      37.653  33.848  32.870  1.00  0.00     0.027 A 
ATOM     12  C   UNL A   1      37.171  32.570  33.205  1.00  0.00     0.038 A 
BRANCH  12  13
ATOM     13  N   UNL A   1      38.104  31.601  33.609  1.00  0.00    -0.362 N 
ATOM     14  H   UNL A   1      38.660  31.840  34.386  1.00  0.00     0.166 HD
BRANCH  13  15
ATOM     15  C   UNL A   1      38.339  30.366  33.064  1.00  0.00     0.087 C 
ATOM     16  C   UNL A   1      39.355  29.515  33.270  1.00  0.00     0.074 C 
BRANCH  16  17
ATOM     17  C   UNL A   1      40.515  29.695  34.193  1.00  0.00     0.222 C 
ATOM     18  O   UNL A   1      40.364  30.466  35.142  1.00  0.00    -0.286 OA
BRANCH  17  19
ATOM     19  C   UNL A   1      41.744  28.980  33.931  1.00  0.00     0.173 A 
ATOM     20  C   UNL A   1      43.055  29.196  34.323  1.00  0.00     0.054 A 
ATOM     21  O   UNL A   1      41.698  27.897  33.095  1.00  0.00    -0.461 OA
ATOM     22  C   UNL A   1      43.844  28.219  33.669  1.00  0.00     0.043 A 
ATOM     23  C   UNL A   1      42.971  27.456  32.932  1.00  0.00     0.196 A 
ENDBRANCH  17  19
ENDBRANCH  16  17
ENDBRANCH  13  15
ENDBRANCH  12  13
ENDBRANCH   5   7
ENDBRANCH   2   3
ENDBRANCH   1   2
BRANCH   1  24
ATOM     24  C   UNL A   1      35.095  34.532  28.384  1.00  0.00     0.023 C 
BRANCH  24  25
ATOM     25  C   UNL A   1      35.200  33.123  28.957  1.00  0.00     0.116 C 
BRANCH  25  26
ATOM     26  N   UNL A   1      34.233  32.194  28.387  1.00  0.00    -0.352 N 
ATOM     27  C   UNL A   1      34.393  30.877  28.025  1.00  0.00     0.251 C 
ATOM     28  H   UNL A   1      33.333  32.564  28.238  1.00  0.00     0.163 HD
ATOM     29  O   UNL A   1      33.481  30.281  27.460  1.00  0.00    -0.269 OA
BRANCH  27  30
ATOM     30  C   UNL A   1      35.681  30.196  28.279  1.00  0.00     0.039 A 
ATOM     31  C   UNL A   1      36.629  30.147  27.254  1.00  0.00     0.014 A 
ATOM     32  C   UNL A   1      35.972  29.660  29.536  1.00  0.00     0.014 A 
ATOM     33  C   UNL A   1      37.909  29.657  27.521  1.00  0.00     0.010 A 
ATOM     34  C   UNL A   1      37.267  29.233  29.819  1.00  0.00     0.010 A 
ATOM     35  C   UNL A   1      38.254  29.251  28.821  1.00  0.00    -0.014 A 
BRANCH  35  36
ATOM     36  C   UNL A   1      39.655  28.912  29.179  1.00  0.00     0.031 A 
ATOM     37  C   UNL A   1      40.565  29.947  29.774  1.00  0.00     0.074 A 
ATOM     38  C   UNL A   1      40.139  27.695  28.860  1.00  0.00     0.049 A 
ATOM     39  N   UNL A   1      41.841  29.860  30.048  1.00  0.00    -0.248 NA
ATOM     40  C   UNL A   1      39.968  31.256  30.077  1.00  0.00     0.031 C 
ATOM     41  C   UNL A   1      39.374  26.619  28.223  1.00  0.00     0.029 A 
ATOM     42  N   UNL A   1      41.397  27.166  29.003  1.00  0.00    -0.354 N 
ATOM     43  C   UNL A   1      42.208  31.108  30.537  1.00  0.00     0.074 A 
ATOM     44  C   UNL A   1      41.025  31.943  30.486  1.00  0.00     0.031 C 
ATOM     45  C   UNL A   1      40.177  25.560  28.035  1.00  0.00     0.029 A 
ATOM     46  C   UNL A   1      41.520  25.893  28.500  1.00  0.00     0.049 A 
ATOM     47  H   UNL A   1      42.141  27.653  29.426  1.00  0.00     0.167 HD
ATOM     48  C   UNL A   1      43.414  31.518  30.997  1.00  0.00     0.031 A 
ATOM     49  C   UNL A   1      42.593  25.085  28.403  1.00  0.00     0.031 A 
ATOM     50  C   UNL A   1      44.588  30.689  31.048  1.00  0.00     0.049 A 
ATOM     51  C   UNL A   1      43.921  25.558  28.916  1.00  0.00     0.074 A 
ATOM     52  C   UNL A   1      45.835  30.992  31.565  1.00  0.00     0.029 A 
ATOM     53  N   UNL A   1      44.663  29.396  30.553  1.00  0.00    -0.354 N 
ATOM     54  N   UNL A   1      44.229  26.715  29.450  1.00  0.00    -0.248 NA
ATOM     55  C   UNL A   1      45.046  24.617  28.816  1.00  0.00     0.031 C 
ATOM     56  C   UNL A   1      46.678  29.897  31.342  1.00  0.00     0.029 A 
ATOM     57  C   UNL A   1      45.944  28.897  30.725  1.00  0.00     0.049 A 
ATOM     58  H   UNL A   1      43.916  28.904  30.140  1.00  0.00     0.167 HD
ATOM     59  C   UNL A   1      45.583  26.642  29.756  1.00  0.00     0.074 A 
ATOM     60  C   UNL A   1      46.029  25.320  29.364  1.00  0.00     0.031 C 
ATOM     61  C   UNL A   1      46.382  27.587  30.310  1.00  0.00     0.031 A 
BRANCH  48  62
ATOM     62  C   UNL A   1      43.514  32.945  31.468  1.00  0.00    -0.014 A 
ATOM     63  C   UNL A   1      43.797  33.987  30.564  1.00  0.00     0.010 A 
ATOM     64  C   UNL A   1      43.333  33.247  32.829  1.00  0.00     0.010 A 
ATOM     65  C   UNL A   1      43.959  35.296  31.024  1.00  0.00     0.020 A 
ATOM     66  C   UNL A   1      43.469  34.560  33.288  1.00  0.00     0.020 A 
ATOM     67  C   UNL A   1      43.808  35.572  32.386  1.00  0.00     0.054 A 
BRANCH  67  68
ATOM     68  S   UNL A   1      44.047  37.274  32.965  1.00  0.00     0.124 S 
ATOM     69  O   UNL A   1      43.947  38.030  31.719  1.00  0.00    -0.237 OA
ATOM     70  O   UNL A   1      42.940  37.458  33.900  1.00  0.00    -0.237 OA
ATOM     71  O   UNL A   1      45.375  37.249  33.574  1.00  0.00    -0.744 OA
ENDBRANCH  67  68
ENDBRANCH  48  62
BRANCH  49  72
ATOM     72  C   UNL A   1      42.438  23.742  27.784  1.00  0.00    -0.014 A 
ATOM     73  C   UNL A   1      42.606  23.573  26.401  1.00  0.00     0.010 A 
ATOM     74  C   UNL A   1      42.192  22.616  28.592  1.00  0.00     0.010 A 
ATOM     75  C   UNL A   1      42.541  22.297  25.834  1.00  0.00     0.020 A 
ATOM     76  C   UNL A   1      42.144  21.338  28.030  1.00  0.00     0.020 A 
ATOM     77  C   UNL A   1      42.318  21.186  26.653  1.00  0.00     0.054 A 
BRANCH  77  78
ATOM     78  S   UNL A   1      42.342  19.529  25.913  1.00  0.00     0.124 S 
ATOM     79  O   UNL A   1      43.405  19.654  24.922  1.00  0.00    -0.237 OA
ATOM     80  O   UNL A   1      42.642  18.673  27.058  1.00  0.00    -0.237 OA
ATOM     81  O   UNL A   1      40.993  19.378  25.372  1.00  0.00    -0.744 OA
ENDBRANCH  77  78
ENDBRANCH  49  72
BRANCH  61  82
ATOM     82  C   UNL A   1      47.827  27.230  30.523  1.00  0.00    -0.014 A 
ATOM     83  C   UNL A   1      48.788  27.508  29.536  1.00  0.00     0.010 A 
ATOM     84  C   UNL A   1      48.236  26.665  31.744  1.00  0.00     0.010 A 
ATOM     85  C   UNL A   1      50.135  27.211  29.760  1.00  0.00     0.020 A 
ATOM     86  C   UNL A   1      49.585  26.384  31.979  1.00  0.00     0.020 A 
ATOM     87  C   UNL A   1      50.525  26.651  30.981  1.00  0.00     0.054 A 
BRANCH  87  88
ATOM     88  S   UNL A   1      52.286  26.325  31.271  1.00  0.00     0.124 S 
ATOM     89  O   UNL A   1      52.650  27.410  32.180  1.00  0.00    -0.237 OA
ATOM     90  O   UNL A   1      52.274  24.989  31.861  1.00  0.00    -0.237 OA
ATOM     91  O   UNL A   1      52.877  26.405  29.937  1.00  0.00    -0.744 OA
ENDBRANCH  87  88
ENDBRANCH  61  82
ENDBRANCH  35  36
ENDBRANCH  27  30
ENDBRANCH  25  26
ENDBRANCH  24  25
ENDBRANCH   1  24
TORSDOF 18
ENDMDL
