MODEL 1
REMARK VINA RESULT:      -9.9      0.000      0.000
REMARK SMILES COc1cccc2cc(/C=C/c3cc(C(=O)NCCCCNC(=O)c4ccc(-c5c6nc(c(-c7ccc(S(=O)(=O)[O-])cc7)c7ccc([nH]7)c(-c7ccc(S(=O)(=O)[O-])cc7)c7nc(c(-c8ccc(S(=O)(=O)[O-])cc8)c8ccc5[nH]8)C=C7)C=C6)cc4)ncn3)oc12
REMARK SMILES IDX 19 1 18 2 17 3 15 4 16 5 14 7 12 8 13 9 87 10 86 11 85 12
REMARK SMILES IDX 11 13 10 14 9 15 3 16 4 17 89 18 5 19 7 20 88 21 6 22 8 23
REMARK SMILES IDX 2 24 1 25 20 26 21 27 22 28 23 29 24 31 25 32 26 33 84 34
REMARK SMILES IDX 27 35 83 36 28 37 29 38 30 39 77 40 31 41 82 42 76 43 78 44
REMARK SMILES IDX 32 45 81 46 75 47 74 48 33 50 63 51 44 52 62 53 45 54 48 55
REMARK SMILES IDX 61 56 79 57 46 58 47 59 60 61 80 62 49 63 34 64 35 65 43 66
REMARK SMILES IDX 36 67 42 68 37 69 38 70 39 71 40 72 41 73 64 74 65 75 73 76
REMARK SMILES IDX 66 77 72 78 67 79 68 80 69 81 70 82 71 83 50 84 51 85 59 86
REMARK SMILES IDX 52 87 58 88 53 89 54 90 55 91 56 92 57 93
REMARK H PARENT 17 6 22 30 78 49 48 60
REMARK Flexibility Score: inf
ROOT
ATOM      1  C   UNL A   1      34.835  32.471  30.568  1.00  0.00     0.023 C 
ENDROOT
BRANCH   1   2
ATOM      2  C   UNL A   1      35.811  33.306  31.403  1.00  0.00     0.116 C 
BRANCH   2   3
ATOM      3  N   UNL A   1      35.399  33.344  32.796  1.00  0.00    -0.351 N 
ATOM      4  C   UNL A   1      36.109  33.436  33.974  1.00  0.00     0.270 C 
ATOM      5  O   UNL A   1      35.454  33.489  35.017  1.00  0.00    -0.268 OA
ATOM      6  H   UNL A   1      34.424  33.294  32.922  1.00  0.00     0.163 HD
BRANCH   4   7
ATOM      7  C   UNL A   1      37.610  33.505  34.037  1.00  0.00     0.132 A 
ATOM      8  C   UNL A   1      39.768  32.603  34.135  1.00  0.00     0.067 A 
ATOM      9  C   UNL A   1      38.406  32.400  34.210  1.00  0.00     0.062 A 
ATOM     10  N   UNL A   1      40.323  33.820  34.045  1.00  0.00    -0.237 NA
ATOM     11  C   UNL A   1      39.463  34.843  33.956  1.00  0.00     0.223 A 
ATOM     12  N   UNL A   1      38.130  34.748  33.923  1.00  0.00    -0.231 NA
BRANCH   8  13
ATOM     13  C   UNL A   1      40.691  31.466  34.131  1.00  0.00     0.032 C 
ATOM     14  C   UNL A   1      40.243  30.218  33.912  1.00  0.00     0.049 C 
BRANCH  14  15
ATOM     15  C   UNL A   1      41.072  29.065  33.937  1.00  0.00     0.128 A 
ATOM     16  C   UNL A   1      41.749  25.798  35.247  1.00  0.00     0.162 A 
ATOM     17  C   UNL A   1      42.867  24.994  34.983  1.00  0.00     0.050 A 
ATOM     18  C   UNL A   1      41.717  27.036  34.595  1.00  0.00     0.176 A 
ATOM     19  C   UNL A   1      43.890  25.429  34.131  1.00  0.00     0.005 A 
ATOM     20  C   UNL A   1      42.708  27.495  33.742  1.00  0.00     0.025 A 
ATOM     21  O   UNL A   1      40.738  27.974  34.708  1.00  0.00    -0.453 OA
ATOM     22  C   UNL A   1      43.825  26.678  33.501  1.00  0.00     0.012 A 
ATOM     23  C   UNL A   1      42.282  28.781  33.315  1.00  0.00     0.059 A 
BRANCH  16  24
ATOM     24  O   UNL A   1      40.696  25.422  36.037  1.00  0.00    -0.493 OA
ATOM     25  C   UNL A   1      40.859  25.717  37.421  1.00  0.00     0.278 C 
ENDBRANCH  16  24
ENDBRANCH  14  15
ENDBRANCH   8  13
ENDBRANCH   4   7
ENDBRANCH   2   3
ENDBRANCH   1   2
BRANCH   1  26
ATOM     26  C   UNL A   1      34.275  33.196  29.341  1.00  0.00     0.023 C 
BRANCH  26  27
ATOM     27  C   UNL A   1      34.648  32.569  28.001  1.00  0.00     0.116 C 
BRANCH  27  28
ATOM     28  N   UNL A   1      33.989  31.295  27.757  1.00  0.00    -0.352 N 
ATOM     29  C   UNL A   1      34.537  30.033  27.794  1.00  0.00     0.251 C 
ATOM     30  H   UNL A   1      33.030  31.341  27.540  1.00  0.00     0.163 HD
ATOM     31  O   UNL A   1      33.872  29.060  27.467  1.00  0.00    -0.269 OA
BRANCH  29  32
ATOM     32  C   UNL A   1      35.954  29.877  28.185  1.00  0.00     0.039 A 
ATOM     33  C   UNL A   1      36.250  29.502  29.497  1.00  0.00     0.014 A 
ATOM     34  C   UNL A   1      36.977  30.052  27.249  1.00  0.00     0.014 A 
ATOM     35  C   UNL A   1      37.572  29.227  29.853  1.00  0.00     0.010 A 
ATOM     36  C   UNL A   1      38.284  29.719  27.589  1.00  0.00     0.010 A 
ATOM     37  C   UNL A   1      38.592  29.296  28.890  1.00  0.00    -0.014 A 
BRANCH  37  38
ATOM     38  C   UNL A   1      39.986  28.904  29.218  1.00  0.00     0.031 A 
ATOM     39  C   UNL A   1      40.921  29.896  29.850  1.00  0.00     0.074 A 
ATOM     40  C   UNL A   1      40.429  27.679  28.871  1.00  0.00     0.049 A 
ATOM     41  N   UNL A   1      42.190  29.763  30.138  1.00  0.00    -0.248 NA
ATOM     42  C   UNL A   1      40.365  31.220  30.176  1.00  0.00     0.031 C 
ATOM     43  C   UNL A   1      39.630  26.643  28.210  1.00  0.00     0.029 A 
ATOM     44  N   UNL A   1      41.665  27.102  29.016  1.00  0.00    -0.354 N 
ATOM     45  C   UNL A   1      42.589  30.986  30.660  1.00  0.00     0.074 A 
ATOM     46  C   UNL A   1      41.438  31.863  30.612  1.00  0.00     0.031 C 
ATOM     47  C   UNL A   1      40.392  25.553  28.024  1.00  0.00     0.029 A 
ATOM     48  C   UNL A   1      41.738  25.823  28.519  1.00  0.00     0.049 A 
ATOM     49  H   UNL A   1      42.428  27.562  29.437  1.00  0.00     0.167 HD
ATOM     50  C   UNL A   1      43.800  31.345  31.151  1.00  0.00     0.031 A 
ATOM     51  C   UNL A   1      42.775  24.964  28.461  1.00  0.00     0.031 A 
ATOM     52  C   UNL A   1      44.938  30.468  31.211  1.00  0.00     0.049 A 
ATOM     53  C   UNL A   1      44.107  25.381  29.019  1.00  0.00     0.074 A 
ATOM     54  C   UNL A   1      46.189  30.718  31.746  1.00  0.00     0.029 A 
ATOM     55  N   UNL A   1      44.964  29.172  30.719  1.00  0.00    -0.354 N 
ATOM     56  N   UNL A   1      44.446  26.522  29.570  1.00  0.00    -0.248 NA
ATOM     57  C   UNL A   1      45.192  24.392  28.956  1.00  0.00     0.031 C 
ATOM     58  C   UNL A   1      46.985  29.586  31.542  1.00  0.00     0.029 A 
ATOM     59  C   UNL A   1      46.215  28.615  30.922  1.00  0.00     0.049 A 
ATOM     60  H   UNL A   1      44.204  28.715  30.290  1.00  0.00     0.167 HD
ATOM     61  C   UNL A   1      45.778  26.380  29.939  1.00  0.00     0.074 A 
ATOM     62  C   UNL A   1      46.179  25.040  29.561  1.00  0.00     0.031 C 
ATOM     63  C   UNL A   1      46.597  27.280  30.538  1.00  0.00     0.031 A 
BRANCH  50  64
ATOM     64  C   UNL A   1      43.949  32.754  31.659  1.00  0.00    -0.014 A 
ATOM     65  C   UNL A   1      43.718  33.064  33.012  1.00  0.00     0.010 A 
ATOM     66  C   UNL A   1      44.352  33.775  30.781  1.00  0.00     0.010 A 
ATOM     67  C   UNL A   1      43.842  34.379  33.467  1.00  0.00     0.020 A 
ATOM     68  C   UNL A   1      44.500  35.088  31.237  1.00  0.00     0.020 A 
ATOM     69  C   UNL A   1      44.225  35.384  32.574  1.00  0.00     0.054 A 
BRANCH  69  70
ATOM     70  S   UNL A   1      44.386  37.083  33.193  1.00  0.00     0.124 S 
ATOM     71  O   UNL A   1      43.060  37.323  33.757  1.00  0.00    -0.237 OA
ATOM     72  O   UNL A   1      45.470  36.970  34.165  1.00  0.00    -0.237 OA
ATOM     73  O   UNL A   1      44.705  37.857  31.996  1.00  0.00    -0.744 OA
ENDBRANCH  69  70
ENDBRANCH  50  64
BRANCH  51  74
ATOM     74  C   UNL A   1      42.585  23.615  27.863  1.00  0.00    -0.014 A 
ATOM     75  C   UNL A   1      42.957  23.370  26.530  1.00  0.00     0.010 A 
ATOM     76  C   UNL A   1      42.052  22.563  28.631  1.00  0.00     0.010 A 
ATOM     77  C   UNL A   1      42.789  22.100  25.970  1.00  0.00     0.020 A 
ATOM     78  C   UNL A   1      41.903  21.287  28.081  1.00  0.00     0.020 A 
ATOM     79  C   UNL A   1      42.263  21.066  26.750  1.00  0.00     0.054 A 
BRANCH  79  80
ATOM     80  S   UNL A   1      42.109  19.411  26.022  1.00  0.00     0.124 S 
ATOM     81  O   UNL A   1      42.932  19.530  24.822  1.00  0.00    -0.237 OA
ATOM     82  O   UNL A   1      42.643  18.550  27.073  1.00  0.00    -0.237 OA
ATOM     83  O   UNL A   1      40.672  19.276  25.788  1.00  0.00    -0.744 OA
ENDBRANCH  79  80
ENDBRANCH  51  74
BRANCH  63  84
ATOM     84  C   UNL A   1      48.001  26.838  30.848  1.00  0.00    -0.014 A 
ATOM     85  C   UNL A   1      49.037  27.006  29.912  1.00  0.00     0.010 A 
ATOM     86  C   UNL A   1      48.296  26.303  32.115  1.00  0.00     0.010 A 
ATOM     87  C   UNL A   1      50.343  26.625  30.231  1.00  0.00     0.020 A 
ATOM     88  C   UNL A   1      49.605  25.942  32.445  1.00  0.00     0.020 A 
ATOM     89  C   UNL A   1      50.619  26.095  31.496  1.00  0.00     0.054 A 
BRANCH  89  90
ATOM     90  S   UNL A   1      52.330  25.655  31.907  1.00  0.00     0.124 S 
ATOM     91  O   UNL A   1      52.218  24.228  32.189  1.00  0.00    -0.237 OA
ATOM     92  O   UNL A   1      53.053  25.999  30.684  1.00  0.00    -0.237 OA
ATOM     93  O   UNL A   1      52.636  26.498  33.061  1.00  0.00    -0.744 OA
ENDBRANCH  89  90
ENDBRANCH  63  84
ENDBRANCH  37  38
ENDBRANCH  29  32
ENDBRANCH  27  28
ENDBRANCH  26  27
ENDBRANCH   1  26
TORSDOF 17
ENDMDL
MODEL 2
REMARK VINA RESULT:      -8.9      0.979      8.150
REMARK SMILES COc1cccc2cc(/C=C/c3cc(C(=O)NCCCCNC(=O)c4ccc(-c5c6nc(c(-c7ccc(S(=O)(=O)[O-])cc7)c7ccc([nH]7)c(-c7ccc(S(=O)(=O)[O-])cc7)c7nc(c(-c8ccc(S(=O)(=O)[O-])cc8)c8ccc5[nH]8)C=C7)C=C6)cc4)ncn3)oc12
REMARK SMILES IDX 19 1 18 2 17 3 15 4 16 5 14 7 12 8 13 9 87 10 86 11 85 12
REMARK SMILES IDX 11 13 10 14 9 15 3 16 4 17 89 18 5 19 7 20 88 21 6 22 8 23
REMARK SMILES IDX 2 24 1 25 20 26 21 27 22 28 23 29 24 31 25 32 26 33 84 34
REMARK SMILES IDX 27 35 83 36 28 37 29 38 30 39 77 40 31 41 82 42 76 43 78 44
REMARK SMILES IDX 32 45 81 46 75 47 74 48 33 50 63 51 44 52 62 53 45 54 48 55
REMARK SMILES IDX 61 56 79 57 46 58 47 59 60 61 80 62 49 63 34 64 35 65 43 66
REMARK SMILES IDX 36 67 42 68 37 69 38 70 39 71 40 72 41 73 64 74 65 75 73 76
REMARK SMILES IDX 66 77 72 78 67 79 68 80 69 81 70 82 71 83 50 84 51 85 59 86
REMARK SMILES IDX 52 87 58 88 53 89 54 90 55 91 56 92 57 93
REMARK H PARENT 17 6 22 30 78 49 48 60
REMARK Flexibility Score: inf
ROOT
ATOM      1  C   UNL A   1      34.903  32.653  30.421  1.00  0.00     0.023 C 
ENDROOT
BRANCH   1   2
ATOM      2  C   UNL A   1      36.017  33.660  30.723  1.00  0.00     0.116 C 
BRANCH   2   3
ATOM      3  N   UNL A   1      35.500  34.800  31.458  1.00  0.00    -0.351 N 
ATOM      4  C   UNL A   1      35.542  35.144  32.793  1.00  0.00     0.270 C 
ATOM      5  O   UNL A   1      35.035  36.223  33.107  1.00  0.00    -0.268 OA
ATOM      6  H   UNL A   1      35.027  35.454  30.895  1.00  0.00     0.163 HD
BRANCH   4   7
ATOM      7  C   UNL A   1      36.191  34.294  33.851  1.00  0.00     0.132 A 
ATOM      8  C   UNL A   1      37.844  32.875  34.705  1.00  0.00     0.067 A 
ATOM      9  C   UNL A   1      37.292  33.509  33.613  1.00  0.00     0.062 A 
ATOM     10  N   UNL A   1      37.279  32.884  35.921  1.00  0.00    -0.237 NA
ATOM     11  C   UNL A   1      36.165  33.619  36.035  1.00  0.00     0.223 A 
ATOM     12  N   UNL A   1      35.602  34.348  35.066  1.00  0.00    -0.231 NA
BRANCH   8  13
ATOM     13  C   UNL A   1      39.116  32.158  34.586  1.00  0.00     0.032 C 
ATOM     14  C   UNL A   1      39.140  30.825  34.420  1.00  0.00     0.049 C 
BRANCH  14  15
ATOM     15  C   UNL A   1      40.334  30.060  34.340  1.00  0.00     0.128 A 
ATOM     16  C   UNL A   1      42.018  26.935  34.841  1.00  0.00     0.162 A 
ATOM     17  C   UNL A   1      43.382  26.669  34.661  1.00  0.00     0.050 A 
ATOM     18  C   UNL A   1      41.606  28.243  34.564  1.00  0.00     0.176 A 
ATOM     19  C   UNL A   1      44.269  27.671  34.248  1.00  0.00     0.005 A 
ATOM     20  C   UNL A   1      42.455  29.257  34.148  1.00  0.00     0.025 A 
ATOM     21  O   UNL A   1      40.338  28.724  34.675  1.00  0.00    -0.453 OA
ATOM     22  C   UNL A   1      43.821  28.972  33.986  1.00  0.00     0.012 A 
ATOM     23  C   UNL A   1      41.635  30.406  33.992  1.00  0.00     0.059 A 
BRANCH  16  24
ATOM     24  O   UNL A   1      41.089  25.998  35.206  1.00  0.00    -0.493 OA
ATOM     25  C   UNL A   1      41.634  24.737  35.583  1.00  0.00     0.278 C 
ENDBRANCH  16  24
ENDBRANCH  14  15
ENDBRANCH   8  13
ENDBRANCH   4   7
ENDBRANCH   2   3
ENDBRANCH   1   2
BRANCH   1  26
ATOM     26  C   UNL A   1      34.082  32.978  29.170  1.00  0.00     0.023 C 
BRANCH  26  27
ATOM     27  C   UNL A   1      34.515  32.239  27.908  1.00  0.00     0.116 C 
BRANCH  27  28
ATOM     28  N   UNL A   1      33.951  30.902  27.801  1.00  0.00    -0.352 N 
ATOM     29  C   UNL A   1      34.602  29.693  27.900  1.00  0.00     0.251 C 
ATOM     30  H   UNL A   1      32.981  30.856  27.637  1.00  0.00     0.163 HD
ATOM     31  O   UNL A   1      34.002  28.648  27.687  1.00  0.00    -0.269 OA
BRANCH  29  32
ATOM     32  C   UNL A   1      36.045  29.679  28.218  1.00  0.00     0.039 A 
ATOM     33  C   UNL A   1      36.442  29.356  29.517  1.00  0.00     0.014 A 
ATOM     34  C   UNL A   1      36.997  29.934  27.227  1.00  0.00     0.014 A 
ATOM     35  C   UNL A   1      37.801  29.215  29.806  1.00  0.00     0.010 A 
ATOM     36  C   UNL A   1      38.346  29.733  27.502  1.00  0.00     0.010 A 
ATOM     37  C   UNL A   1      38.759  29.363  28.791  1.00  0.00    -0.014 A 
BRANCH  37  38
ATOM     38  C   UNL A   1      40.199  29.111  29.049  1.00  0.00     0.031 A 
ATOM     39  C   UNL A   1      40.805  27.777  28.714  1.00  0.00     0.074 A 
ATOM     40  C   UNL A   1      40.939  30.059  29.659  1.00  0.00     0.049 A 
ATOM     41  N   UNL A   1      42.020  27.347  28.935  1.00  0.00    -0.248 NA
ATOM     42  C   UNL A   1      39.924  26.789  28.070  1.00  0.00     0.031 C 
ATOM     43  C   UNL A   1      40.453  31.377  30.076  1.00  0.00     0.029 A 
ATOM     44  N   UNL A   1      42.255  30.054  30.045  1.00  0.00    -0.354 N 
ATOM     45  C   UNL A   1      42.046  26.036  28.478  1.00  0.00     0.074 A 
ATOM     46  C   UNL A   1      40.713  25.728  28.003  1.00  0.00     0.031 C 
ATOM     47  C   UNL A   1      41.462  32.058  30.643  1.00  0.00     0.029 A 
ATOM     48  C   UNL A   1      42.654  31.216  30.661  1.00  0.00     0.049 A 
ATOM     49  H   UNL A   1      42.858  29.289  29.895  1.00  0.00     0.167 HD
ATOM     50  C   UNL A   1      43.087  25.170  28.440  1.00  0.00     0.031 A 
ATOM     51  C   UNL A   1      43.843  31.563  31.189  1.00  0.00     0.031 A 
ATOM     52  C   UNL A   1      44.413  25.484  28.899  1.00  0.00     0.049 A 
ATOM     53  C   UNL A   1      44.987  30.590  31.129  1.00  0.00     0.074 A 
ATOM     54  C   UNL A   1      45.550  24.696  28.846  1.00  0.00     0.029 A 
ATOM     55  N   UNL A   1      44.782  26.681  29.494  1.00  0.00    -0.354 N 
ATOM     56  N   UNL A   1      45.008  29.377  30.631  1.00  0.00    -0.248 NA
ATOM     57  C   UNL A   1      46.269  31.036  31.693  1.00  0.00     0.031 C 
ATOM     58  C   UNL A   1      46.598  25.402  29.447  1.00  0.00     0.029 A 
ATOM     59  C   UNL A   1      46.124  26.647  29.830  1.00  0.00     0.049 A 
ATOM     60  H   UNL A   1      44.178  27.442  29.652  1.00  0.00     0.167 HD
ATOM     61  C   UNL A   1      46.309  28.921  30.802  1.00  0.00     0.074 A 
ATOM     62  C   UNL A   1      47.049  29.993  31.436  1.00  0.00     0.031 C 
ATOM     63  C   UNL A   1      46.845  27.722  30.463  1.00  0.00     0.031 A 
BRANCH  50  64
ATOM     64  C   UNL A   1      42.824  23.797  27.883  1.00  0.00    -0.014 A 
ATOM     65  C   UNL A   1      43.048  23.512  26.524  1.00  0.00     0.010 A 
ATOM     66  C   UNL A   1      42.373  22.772  28.734  1.00  0.00     0.010 A 
ATOM     67  C   UNL A   1      42.781  22.238  26.016  1.00  0.00     0.020 A 
ATOM     68  C   UNL A   1      42.129  21.489  28.235  1.00  0.00     0.020 A 
ATOM     69  C   UNL A   1      42.316  21.236  26.873  1.00  0.00     0.054 A 
BRANCH  69  70
ATOM     70  S   UNL A   1      41.986  19.589  26.189  1.00  0.00     0.124 S 
ATOM     71  O   UNL A   1      40.531  19.602  26.064  1.00  0.00    -0.237 OA
ATOM     72  O   UNL A   1      42.725  19.609  24.929  1.00  0.00    -0.237 OA
ATOM     73  O   UNL A   1      42.516  18.681  27.203  1.00  0.00    -0.744 OA
ENDBRANCH  69  70
ENDBRANCH  50  64
BRANCH  51  74
ATOM     74  C   UNL A   1      44.014  32.906  31.807  1.00  0.00    -0.014 A 
ATOM     75  C   UNL A   1      43.649  33.122  33.148  1.00  0.00     0.010 A 
ATOM     76  C   UNL A   1      44.565  33.967  31.066  1.00  0.00     0.010 A 
ATOM     77  C   UNL A   1      43.818  34.381  33.732  1.00  0.00     0.020 A 
ATOM     78  C   UNL A   1      44.757  35.221  31.654  1.00  0.00     0.020 A 
ATOM     79  C   UNL A   1      44.372  35.422  32.981  1.00  0.00     0.054 A 
BRANCH  79  80
ATOM     80  S   UNL A   1      44.639  37.031  33.778  1.00  0.00     0.124 S 
ATOM     81  O   UNL A   1      45.914  36.824  34.459  1.00  0.00    -0.237 OA
ATOM     82  O   UNL A   1      44.669  37.948  32.643  1.00  0.00    -0.237 OA
ATOM     83  O   UNL A   1      43.476  37.173  34.652  1.00  0.00    -0.744 OA
ENDBRANCH  79  80
ENDBRANCH  51  74
BRANCH  63  84
ATOM     84  C   UNL A   1      48.307  27.513  30.746  1.00  0.00    -0.014 A 
ATOM     85  C   UNL A   1      48.732  26.841  31.906  1.00  0.00     0.010 A 
ATOM     86  C   UNL A   1      49.263  27.943  29.809  1.00  0.00     0.010 A 
ATOM     87  C   UNL A   1      50.093  26.622  32.133  1.00  0.00     0.020 A 
ATOM     88  C   UNL A   1      50.623  27.705  30.023  1.00  0.00     0.020 A 
ATOM     89  C   UNL A   1      51.031  27.056  31.191  1.00  0.00     0.054 A 
BRANCH  89  90
ATOM     90  S   UNL A   1      52.788  26.715  31.482  1.00  0.00     0.124 S 
ATOM     91  O   UNL A   1      52.735  25.779  32.601  1.00  0.00    -0.237 OA
ATOM     92  O   UNL A   1      53.222  26.147  30.207  1.00  0.00    -0.237 OA
ATOM     93  O   UNL A   1      53.348  28.028  31.793  1.00  0.00    -0.744 OA
ENDBRANCH  89  90
ENDBRANCH  63  84
ENDBRANCH  37  38
ENDBRANCH  29  32
ENDBRANCH  27  28
ENDBRANCH  26  27
ENDBRANCH   1  26
TORSDOF 17
ENDMDL
MODEL 3
REMARK VINA RESULT:      -8.9      7.685     13.163
REMARK SMILES COc1cccc2cc(/C=C/c3cc(C(=O)NCCCCNC(=O)c4ccc(-c5c6nc(c(-c7ccc(S(=O)(=O)[O-])cc7)c7ccc([nH]7)c(-c7ccc(S(=O)(=O)[O-])cc7)c7nc(c(-c8ccc(S(=O)(=O)[O-])cc8)c8ccc5[nH]8)C=C7)C=C6)cc4)ncn3)oc12
REMARK SMILES IDX 19 1 18 2 17 3 15 4 16 5 14 7 12 8 13 9 87 10 86 11 85 12
REMARK SMILES IDX 11 13 10 14 9 15 3 16 4 17 89 18 5 19 7 20 88 21 6 22 8 23
REMARK SMILES IDX 2 24 1 25 20 26 21 27 22 28 23 29 24 31 25 32 26 33 84 34
REMARK SMILES IDX 27 35 83 36 28 37 29 38 30 39 77 40 31 41 82 42 76 43 78 44
REMARK SMILES IDX 32 45 81 46 75 47 74 48 33 50 63 51 44 52 62 53 45 54 48 55
REMARK SMILES IDX 61 56 79 57 46 58 47 59 60 61 80 62 49 63 34 64 35 65 43 66
REMARK SMILES IDX 36 67 42 68 37 69 38 70 39 71 40 72 41 73 64 74 65 75 73 76
REMARK SMILES IDX 66 77 72 78 67 79 68 80 69 81 70 82 71 83 50 84 51 85 59 86
REMARK SMILES IDX 52 87 58 88 53 89 54 90 55 91 56 92 57 93
REMARK H PARENT 17 6 22 30 78 49 48 60
REMARK Flexibility Score: inf
ROOT
ATOM      1  C   UNL A   1      44.341  38.679  28.166  1.00  0.00     0.023 C 
ENDROOT
BRANCH   1   2
ATOM      2  C   UNL A   1      43.708  38.533  26.779  1.00  0.00     0.116 C 
BRANCH   2   3
ATOM      3  N   UNL A   1      42.358  39.068  26.766  1.00  0.00    -0.351 N 
ATOM      4  C   UNL A   1      41.832  40.257  26.306  1.00  0.00     0.270 C 
ATOM      5  O   UNL A   1      40.611  40.401  26.403  1.00  0.00    -0.268 OA
ATOM      6  H   UNL A   1      41.689  38.465  27.164  1.00  0.00     0.163 HD
BRANCH   4   7
ATOM      7  C   UNL A   1      42.659  41.344  25.677  1.00  0.00     0.132 A 
ATOM      8  C   UNL A   1      43.195  42.902  24.015  1.00  0.00     0.067 A 
ATOM      9  C   UNL A   1      42.428  41.828  24.413  1.00  0.00     0.062 A 
ATOM     10  N   UNL A   1      44.218  43.380  24.738  1.00  0.00    -0.237 NA
ATOM     11  C   UNL A   1      44.410  42.793  25.926  1.00  0.00     0.223 A 
ATOM     12  N   UNL A   1      43.666  41.812  26.448  1.00  0.00    -0.231 NA
BRANCH   8  13
ATOM     13  C   UNL A   1      42.908  43.597  22.758  1.00  0.00     0.032 C 
ATOM     14  C   UNL A   1      43.005  42.957  21.581  1.00  0.00     0.049 C 
BRANCH  14  15
ATOM     15  C   UNL A   1      42.783  43.576  20.323  1.00  0.00     0.128 A 
ATOM     16  C   UNL A   1      43.748  46.035  17.898  1.00  0.00     0.162 A 
ATOM     17  C   UNL A   1      43.088  46.349  16.702  1.00  0.00     0.050 A 
ATOM     18  C   UNL A   1      43.170  45.020  18.668  1.00  0.00     0.176 A 
ATOM     19  C   UNL A   1      41.911  45.691  16.327  1.00  0.00     0.005 A 
ATOM     20  C   UNL A   1      42.009  44.343  18.324  1.00  0.00     0.025 A 
ATOM     21  O   UNL A   1      43.633  44.558  19.861  1.00  0.00    -0.453 OA
ATOM     22  C   UNL A   1      41.358  44.684  17.127  1.00  0.00     0.012 A 
ATOM     23  C   UNL A   1      41.779  43.416  19.375  1.00  0.00     0.059 A 
BRANCH  16  24
ATOM     24  O   UNL A   1      44.921  46.610  18.309  1.00  0.00    -0.493 OA
ATOM     25  C   UNL A   1      46.095  46.027  17.753  1.00  0.00     0.278 C 
ENDBRANCH  16  24
ENDBRANCH  14  15
ENDBRANCH   8  13
ENDBRANCH   4   7
ENDBRANCH   2   3
ENDBRANCH   1   2
BRANCH   1  26
ATOM     26  C   UNL A   1      43.627  37.894  29.270  1.00  0.00     0.023 C 
BRANCH  26  27
ATOM     27  C   UNL A   1      44.552  37.149  30.228  1.00  0.00     0.116 C 
BRANCH  27  28
ATOM     28  N   UNL A   1      45.893  37.712  30.289  1.00  0.00    -0.352 N 
ATOM     29  C   UNL A   1      47.087  37.101  29.982  1.00  0.00     0.251 C 
ATOM     30  H   UNL A   1      45.953  38.649  30.588  1.00  0.00     0.163 HD
ATOM     31  O   UNL A   1      48.147  37.680  30.180  1.00  0.00    -0.269 OA
BRANCH  29  32
ATOM     32  C   UNL A   1      47.072  35.720  29.458  1.00  0.00     0.039 A 
ATOM     33  C   UNL A   1      47.262  34.662  30.350  1.00  0.00     0.014 A 
ATOM     34  C   UNL A   1      46.824  35.472  28.105  1.00  0.00     0.014 A 
ATOM     35  C   UNL A   1      47.126  33.348  29.897  1.00  0.00     0.010 A 
ATOM     36  C   UNL A   1      46.629  34.164  27.670  1.00  0.00     0.010 A 
ATOM     37  C   UNL A   1      46.770  33.092  28.564  1.00  0.00    -0.014 A 
BRANCH  37  38
ATOM     38  C   UNL A   1      46.514  31.710  28.088  1.00  0.00     0.031 A 
ATOM     39  C   UNL A   1      45.137  31.117  28.189  1.00  0.00     0.074 A 
ATOM     40  C   UNL A   1      47.543  30.962  27.638  1.00  0.00     0.049 A 
ATOM     41  N   UNL A   1      44.738  29.907  27.897  1.00  0.00    -0.248 NA
ATOM     42  C   UNL A   1      44.074  31.992  28.712  1.00  0.00     0.031 C 
ATOM     43  C   UNL A   1      48.935  31.409  27.536  1.00  0.00     0.029 A 
ATOM     44  N   UNL A   1      47.577  29.665  27.194  1.00  0.00    -0.354 N 
ATOM     45  C   UNL A   1      43.387  29.866  28.217  1.00  0.00     0.074 A 
ATOM     46  C   UNL A   1      43.043  31.161  28.763  1.00  0.00     0.031 C 
ATOM     47  C   UNL A   1      49.682  30.408  27.042  1.00  0.00     0.029 A 
ATOM     48  C   UNL A   1      48.832  29.241  26.827  1.00  0.00     0.049 A 
ATOM     49  H   UNL A   1      46.778  29.092  27.143  1.00  0.00     0.167 HD
ATOM     50  C   UNL A   1      42.507  28.849  28.055  1.00  0.00     0.031 A 
ATOM     51  C   UNL A   1      49.255  28.045  26.374  1.00  0.00     0.031 A 
ATOM     52  C   UNL A   1      42.849  27.568  27.499  1.00  0.00     0.049 A 
ATOM     53  C   UNL A   1      48.259  26.933  26.196  1.00  0.00     0.074 A 
ATOM     54  C   UNL A   1      42.015  26.494  27.238  1.00  0.00     0.029 A 
ATOM     55  N   UNL A   1      44.126  27.186  27.116  1.00  0.00    -0.354 N 
ATOM     56  N   UNL A   1      46.971  26.936  26.443  1.00  0.00    -0.248 NA
ATOM     57  C   UNL A   1      48.772  25.661  25.670  1.00  0.00     0.031 C 
ATOM     58  C   UNL A   1      42.797  25.448  26.735  1.00  0.00     0.029 A 
ATOM     59  C   UNL A   1      44.107  25.887  26.639  1.00  0.00     0.049 A 
ATOM     60  H   UNL A   1      44.927  27.756  27.175  1.00  0.00     0.167 HD
ATOM     61  C   UNL A   1      46.515  25.674  26.081  1.00  0.00     0.074 A 
ATOM     62  C   UNL A   1      47.661  24.939  25.587  1.00  0.00     0.031 C 
ATOM     63  C   UNL A   1      45.258  25.169  26.152  1.00  0.00     0.031 A 
BRANCH  50  64
ATOM     64  C   UNL A   1      41.087  29.088  28.494  1.00  0.00    -0.014 A 
ATOM     65  C   UNL A   1      40.740  29.079  29.857  1.00  0.00     0.010 A 
ATOM     66  C   UNL A   1      40.094  29.349  27.534  1.00  0.00     0.010 A 
ATOM     67  C   UNL A   1      39.415  29.283  30.249  1.00  0.00     0.020 A 
ATOM     68  C   UNL A   1      38.771  29.578  27.924  1.00  0.00     0.020 A 
ATOM     69  C   UNL A   1      38.437  29.524  29.280  1.00  0.00     0.054 A 
BRANCH  69  70
ATOM     70  S   UNL A   1      36.725  29.793  29.817  1.00  0.00     0.124 S 
ATOM     71  O   UNL A   1      36.670  29.009  31.048  1.00  0.00    -0.237 OA
ATOM     72  O   UNL A   1      36.667  31.242  29.993  1.00  0.00    -0.237 OA
ATOM     73  O   UNL A   1      35.929  29.271  28.709  1.00  0.00    -0.744 OA
ENDBRANCH  69  70
ENDBRANCH  50  64
BRANCH  51  74
ATOM     74  C   UNL A   1      50.691  27.845  26.042  1.00  0.00    -0.014 A 
ATOM     75  C   UNL A   1      51.603  27.456  27.040  1.00  0.00     0.010 A 
ATOM     76  C   UNL A   1      51.150  28.019  24.724  1.00  0.00     0.010 A 
ATOM     77  C   UNL A   1      52.951  27.258  26.727  1.00  0.00     0.020 A 
ATOM     78  C   UNL A   1      52.493  27.800  24.403  1.00  0.00     0.020 A 
ATOM     79  C   UNL A   1      53.387  27.431  25.410  1.00  0.00     0.054 A 
BRANCH  79  80
ATOM     80  S   UNL A   1      55.129  27.110  25.015  1.00  0.00     0.124 S 
ATOM     81  O   UNL A   1      55.035  25.921  24.173  1.00  0.00    -0.237 OA
ATOM     82  O   UNL A   1      55.533  28.338  24.335  1.00  0.00    -0.237 OA
ATOM     83  O   UNL A   1      55.741  26.904  26.326  1.00  0.00    -0.744 OA
ENDBRANCH  79  80
ENDBRANCH  51  74
BRANCH  63  84
ATOM     84  C   UNL A   1      45.049  23.764  25.659  1.00  0.00    -0.014 A 
ATOM     85  C   UNL A   1      44.673  23.511  24.328  1.00  0.00     0.010 A 
ATOM     86  C   UNL A   1      45.291  22.682  26.525  1.00  0.00     0.010 A 
ATOM     87  C   UNL A   1      44.521  22.198  23.877  1.00  0.00     0.020 A 
ATOM     88  C   UNL A   1      45.162  21.368  26.071  1.00  0.00     0.020 A 
ATOM     89  C   UNL A   1      44.766  21.133  24.752  1.00  0.00     0.054 A 
BRANCH  89  90
ATOM     90  S   UNL A   1      44.612  19.436  24.130  1.00  0.00     0.124 S 
ATOM     91  O   UNL A   1      44.480  19.650  22.692  1.00  0.00    -0.237 OA
ATOM     92  O   UNL A   1      45.865  18.820  24.562  1.00  0.00    -0.237 OA
ATOM     93  O   UNL A   1      43.414  18.930  24.798  1.00  0.00    -0.744 OA
ENDBRANCH  89  90
ENDBRANCH  63  84
ENDBRANCH  37  38
ENDBRANCH  29  32
ENDBRANCH  27  28
ENDBRANCH  26  27
ENDBRANCH   1  26
TORSDOF 17
ENDMDL
