MODEL 1
REMARK VINA RESULT:     -12.3      0.000      0.000
REMARK SMILES O=C(C[NH+]1CCN(c2cc(-c3ccccc3)nc(-c3ccccc3F)n2)CC1)NCCCCNC(=O)c1ccc(-c2c3nc(c(-c4ccc(S(=O)(=O)[O-])cc4)c4ccc([nH]4)c(-c4ccc(S(=O)(=O)[O-])cc4)c4nc(c(-c5ccc(S(=O)(=O)[O-])cc5)c5ccc2[nH]5)C=C4)C=C3)cc1
REMARK SMILES IDX 31 1 30 2 29 3 1 4 2 5 3 7 4 8 5 9 28 10 6 12 27 13 7 14
REMARK SMILES IDX 8 15 9 16 26 17 10 18 18 19 17 20 11 21 12 22 16 23 13 24
REMARK SMILES IDX 15 25 14 26 19 27 20 28 24 29 21 30 23 31 25 32 22 33 32 34
REMARK SMILES IDX 33 35 34 36 35 37 36 39 37 40 38 41 96 42 39 43 95 44 40 45
REMARK SMILES IDX 41 46 42 47 89 48 43 49 94 50 88 51 90 52 44 53 93 54 87 55
REMARK SMILES IDX 86 56 45 58 75 59 56 60 74 61 57 62 60 63 73 64 91 65 58 66
REMARK SMILES IDX 59 67 72 69 92 70 61 71 46 72 47 73 55 74 48 75 54 76 49 77
REMARK SMILES IDX 50 78 51 79 52 80 53 81 76 82 77 83 85 84 78 85 84 86 79 87
REMARK SMILES IDX 80 88 81 89 82 90 83 91 62 92 63 93 71 94 64 95 70 96 65 97
REMARK SMILES IDX 66 98 67 99 68 100 69 101
REMARK H PARENT 29 6 4 11 34 38 90 57 60 68
REMARK Flexibility Score: inf
ROOT
ATOM      1  C   UNL A   1      33.011  30.120  27.252  1.00  0.00     0.023 C 
ENDROOT
BRANCH   1   2
ATOM      2  C   UNL A   1      32.007  30.244  26.106  1.00  0.00     0.116 C 
BRANCH   2   3
ATOM      3  N   UNL A   1      32.379  29.433  24.967  1.00  0.00    -0.351 N 
ATOM      4  O   UNL A   1      30.332  29.511  23.932  1.00  0.00    -0.269 OA
ATOM      5  C   UNL A   1      31.494  29.109  23.964  1.00  0.00     0.275 C 
ATOM      6  H   UNL A   1      33.302  29.101  24.907  1.00  0.00     0.163 HD
BRANCH   5   7
ATOM      7  C   UNL A   1      32.014  28.111  22.923  1.00  0.00     0.363 C 
BRANCH   7   8
ATOM      8  N   UNL A   1      31.223  26.854  22.911  1.00  0.00    -0.324 N 
ATOM      9  C   UNL A   1      31.778  25.879  21.930  1.00  0.00     0.284 C 
ATOM     10  C   UNL A   1      31.247  26.217  24.258  1.00  0.00     0.284 C 
ATOM     11  H   UNL A   1      30.268  27.099  22.649  1.00  0.00     0.348 HD
ATOM     12  C   UNL A   1      33.167  25.286  22.282  1.00  0.00     0.179 C 
ATOM     13  C   UNL A   1      32.612  25.622  24.692  1.00  0.00     0.179 C 
ATOM     14  N   UNL A   1      33.122  24.755  23.637  1.00  0.00    -0.345 N 
BRANCH  14  15
ATOM     15  C   UNL A   1      33.870  23.637  23.924  1.00  0.00     0.133 A 
ATOM     16  C   UNL A   1      35.168  23.807  24.351  1.00  0.00     0.076 A 
ATOM     17  N   UNL A   1      33.286  22.431  23.921  1.00  0.00    -0.211 NA
ATOM     18  C   UNL A   1      35.831  22.699  24.831  1.00  0.00     0.076 A 
ATOM     19  C   UNL A   1      34.021  21.393  24.368  1.00  0.00     0.165 A 
ATOM     20  N   UNL A   1      35.287  21.469  24.809  1.00  0.00    -0.228 NA
BRANCH  18  21
ATOM     21  C   UNL A   1      37.143  22.829  25.477  1.00  0.00     0.000 A 
ATOM     22  C   UNL A   1      37.523  24.012  26.123  1.00  0.00     0.010 A 
ATOM     23  C   UNL A   1      38.049  21.752  25.472  1.00  0.00     0.010 A 
ATOM     24  C   UNL A   1      38.760  24.108  26.765  1.00  0.00     0.001 A 
ATOM     25  C   UNL A   1      39.289  21.849  26.107  1.00  0.00     0.001 A 
ATOM     26  C   UNL A   1      39.640  23.027  26.758  1.00  0.00     0.000 A 
ENDBRANCH  18  21
BRANCH  19  27
ATOM     27  C   UNL A   1      33.374  20.085  24.377  1.00  0.00     0.055 A 
ATOM     28  C   UNL A   1      32.946  19.473  23.184  1.00  0.00     0.015 A 
ATOM     29  C   UNL A   1      33.135  19.408  25.578  1.00  0.00     0.134 A 
ATOM     30  C   UNL A   1      32.313  18.225  23.201  1.00  0.00     0.001 A 
ATOM     31  C   UNL A   1      32.495  18.168  25.604  1.00  0.00     0.040 A 
ATOM     32  F   UNL A   1      33.490  19.956  26.750  1.00  0.00    -0.206 F 
ATOM     33  C   UNL A   1      32.085  17.574  24.412  1.00  0.00     0.003 A 
ENDBRANCH  19  27
ENDBRANCH  14  15
ENDBRANCH   7   8
ENDBRANCH   5   7
ENDBRANCH   2   3
ENDBRANCH   1   2
BRANCH   1  34
ATOM     34  C   UNL A   1      34.176  29.163  26.990  1.00  0.00     0.023 C 
BRANCH  34  35
ATOM     35  C   UNL A   1      35.511  29.564  27.612  1.00  0.00     0.116 C 
BRANCH  35  36
ATOM     36  N   UNL A   1      35.439  29.752  29.053  1.00  0.00    -0.352 N 
ATOM     37  C   UNL A   1      36.445  29.736  29.990  1.00  0.00     0.251 C 
ATOM     38  H   UNL A   1      34.536  29.914  29.410  1.00  0.00     0.163 HD
ATOM     39  O   UNL A   1      36.164  29.793  31.185  1.00  0.00    -0.269 OA
BRANCH  37  40
ATOM     40  C   UNL A   1      37.859  29.616  29.568  1.00  0.00     0.039 A 
ATOM     41  C   UNL A   1      38.831  29.351  30.537  1.00  0.00     0.014 A 
ATOM     42  C   UNL A   1      38.233  29.761  28.229  1.00  0.00     0.014 A 
ATOM     43  C   UNL A   1      40.161  29.156  30.154  1.00  0.00     0.010 A 
ATOM     44  C   UNL A   1      39.544  29.493  27.840  1.00  0.00     0.010 A 
ATOM     45  C   UNL A   1      40.522  29.184  28.798  1.00  0.00    -0.014 A 
BRANCH  45  46
ATOM     46  C   UNL A   1      41.911  28.876  28.362  1.00  0.00     0.031 A 
ATOM     47  C   UNL A   1      42.293  27.474  27.968  1.00  0.00     0.074 A 
ATOM     48  C   UNL A   1      42.848  29.846  28.383  1.00  0.00     0.049 A 
ATOM     49  N   UNL A   1      43.466  27.006  27.623  1.00  0.00    -0.248 NA
ATOM     50  C   UNL A   1      41.225  26.463  27.985  1.00  0.00     0.031 C 
ATOM     51  C   UNL A   1      42.619  31.237  28.782  1.00  0.00     0.029 A 
ATOM     52  N   UNL A   1      44.184  29.810  28.068  1.00  0.00    -0.354 N 
ATOM     53  C   UNL A   1      43.280  25.647  27.393  1.00  0.00     0.074 A 
ATOM     54  C   UNL A   1      41.893  25.357  27.691  1.00  0.00     0.031 C 
ATOM     55  C   UNL A   1      43.766  31.924  28.666  1.00  0.00     0.029 A 
ATOM     56  C   UNL A   1      44.824  31.018  28.228  1.00  0.00     0.049 A 
ATOM     57  H   UNL A   1      44.641  28.996  27.757  1.00  0.00     0.167 HD
ATOM     58  C   UNL A   1      44.173  24.728  26.957  1.00  0.00     0.031 A 
ATOM     59  C   UNL A   1      46.115  31.360  28.056  1.00  0.00     0.031 A 
ATOM     60  C   UNL A   1      45.551  25.019  26.659  1.00  0.00     0.049 A 
ATOM     61  C   UNL A   1      47.095  30.316  27.590  1.00  0.00     0.074 A 
ATOM     62  C   UNL A   1      46.524  24.164  26.166  1.00  0.00     0.029 A 
ATOM     63  N   UNL A   1      46.156  26.255  26.827  1.00  0.00    -0.354 N 
ATOM     64  N   UNL A   1      46.883  29.051  27.320  1.00  0.00    -0.248 NA
ATOM     65  C   UNL A   1      48.485  30.751  27.393  1.00  0.00     0.031 C 
ATOM     66  C   UNL A   1      47.729  24.870  26.091  1.00  0.00     0.029 A 
ATOM     67  C   UNL A   1      47.493  26.181  26.472  1.00  0.00     0.049 A 
ATOM     68  H   UNL A   1      45.702  27.067  27.150  1.00  0.00     0.167 HD
ATOM     69  C   UNL A   1      48.107  28.545  26.895  1.00  0.00     0.074 A 
ATOM     70  C   UNL A   1      49.049  29.645  26.928  1.00  0.00     0.031 C 
ATOM     71  C   UNL A   1      48.422  27.283  26.510  1.00  0.00     0.031 A 
BRANCH  58  72
ATOM     72  C   UNL A   1      43.686  23.312  26.778  1.00  0.00    -0.014 A 
ATOM     73  C   UNL A   1      43.544  22.749  25.497  1.00  0.00     0.010 A 
ATOM     74  C   UNL A   1      43.408  22.519  27.907  1.00  0.00     0.010 A 
ATOM     75  C   UNL A   1      43.089  21.437  25.346  1.00  0.00     0.020 A 
ATOM     76  C   UNL A   1      42.983  21.195  27.761  1.00  0.00     0.020 A 
ATOM     77  C   UNL A   1      42.809  20.668  26.479  1.00  0.00     0.054 A 
BRANCH  77  78
ATOM     78  S   UNL A   1      42.239  18.962  26.252  1.00  0.00     0.124 S 
ATOM     79  O   UNL A   1      42.294  18.442  27.616  1.00  0.00    -0.237 OA
ATOM     80  O   UNL A   1      40.898  19.143  25.703  1.00  0.00    -0.237 OA
ATOM     81  O   UNL A   1      43.215  18.389  25.329  1.00  0.00    -0.744 OA
ENDBRANCH  77  78
ENDBRANCH  58  72
BRANCH  59  82
ATOM     82  C   UNL A   1      46.556  32.758  28.320  1.00  0.00    -0.014 A 
ATOM     83  C   UNL A   1      47.015  33.137  29.594  1.00  0.00     0.010 A 
ATOM     84  C   UNL A   1      46.529  33.717  27.290  1.00  0.00     0.010 A 
ATOM     85  C   UNL A   1      47.419  34.453  29.839  1.00  0.00     0.020 A 
ATOM     86  C   UNL A   1      46.962  35.025  27.523  1.00  0.00     0.020 A 
ATOM     87  C   UNL A   1      47.394  35.388  28.800  1.00  0.00     0.054 A 
BRANCH  87  88
ATOM     88  S   UNL A   1      47.973  37.076  29.128  1.00  0.00     0.124 S 
ATOM     89  O   UNL A   1      46.728  37.768  29.447  1.00  0.00    -0.237 OA
ATOM     90  O   UNL A   1      48.894  36.881  30.245  1.00  0.00    -0.237 OA
ATOM     91  O   UNL A   1      48.606  37.471  27.872  1.00  0.00    -0.744 OA
ENDBRANCH  87  88
ENDBRANCH  59  82
BRANCH  71  92
ATOM     92  C   UNL A   1      49.836  27.025  26.057  1.00  0.00    -0.014 A 
ATOM     93  C   UNL A   1      50.833  26.619  26.961  1.00  0.00     0.010 A 
ATOM     94  C   UNL A   1      50.156  27.140  24.691  1.00  0.00     0.010 A 
ATOM     95  C   UNL A   1      52.132  26.363  26.513  1.00  0.00     0.020 A 
ATOM     96  C   UNL A   1      51.445  26.854  24.234  1.00  0.00     0.020 A 
ATOM     97  C   UNL A   1      52.429  26.481  25.151  1.00  0.00     0.054 A 
BRANCH  97  98
ATOM     98  S   UNL A   1      54.110  26.098  24.589  1.00  0.00     0.124 S 
ATOM     99  O   UNL A   1      54.244  24.693  24.964  1.00  0.00    -0.237 OA
ATOM    100  O   UNL A   1      54.035  26.361  23.154  1.00  0.00    -0.237 OA
ATOM    101  O   UNL A   1      54.949  27.026  25.343  1.00  0.00    -0.744 OA
ENDBRANCH  97  98
ENDBRANCH  71  92
ENDBRANCH  45  46
ENDBRANCH  37  40
ENDBRANCH  35  36
ENDBRANCH  34  35
ENDBRANCH   1  34
TORSDOF 18
ENDMDL
MODEL 2
REMARK VINA RESULT:     -12.3      4.705      9.170
REMARK SMILES O=C(C[NH+]1CCN(c2cc(-c3ccccc3)nc(-c3ccccc3F)n2)CC1)NCCCCNC(=O)c1ccc(-c2c3nc(c(-c4ccc(S(=O)(=O)[O-])cc4)c4ccc([nH]4)c(-c4ccc(S(=O)(=O)[O-])cc4)c4nc(c(-c5ccc(S(=O)(=O)[O-])cc5)c5ccc2[nH]5)C=C4)C=C3)cc1
REMARK SMILES IDX 31 1 30 2 29 3 1 4 2 5 3 7 4 8 5 9 28 10 6 12 27 13 7 14
REMARK SMILES IDX 8 15 9 16 26 17 10 18 18 19 17 20 11 21 12 22 16 23 13 24
REMARK SMILES IDX 15 25 14 26 19 27 20 28 24 29 21 30 23 31 25 32 22 33 32 34
REMARK SMILES IDX 33 35 34 36 35 37 36 39 37 40 38 41 96 42 39 43 95 44 40 45
REMARK SMILES IDX 41 46 42 47 89 48 43 49 94 50 88 51 90 52 44 53 93 54 87 55
REMARK SMILES IDX 86 56 45 58 75 59 56 60 74 61 57 62 60 63 73 64 91 65 58 66
REMARK SMILES IDX 59 67 72 69 92 70 61 71 46 72 47 73 55 74 48 75 54 76 49 77
REMARK SMILES IDX 50 78 51 79 52 80 53 81 76 82 77 83 85 84 78 85 84 86 79 87
REMARK SMILES IDX 80 88 81 89 82 90 83 91 62 92 63 93 71 94 64 95 70 96 65 97
REMARK SMILES IDX 66 98 67 99 68 100 69 101
REMARK H PARENT 29 6 4 11 34 38 90 57 60 68
REMARK Flexibility Score: inf
ROOT
ATOM      1  C   UNL A   1      31.459  28.812  25.974  1.00  0.00     0.023 C 
ENDROOT
BRANCH   1   2
ATOM      2  C   UNL A   1      31.142  28.995  24.490  1.00  0.00     0.116 C 
BRANCH   2   3
ATOM      3  N   UNL A   1      31.916  28.103  23.655  1.00  0.00    -0.351 N 
ATOM      4  O   UNL A   1      30.332  27.872  22.010  1.00  0.00    -0.269 OA
ATOM      5  C   UNL A   1      31.436  27.587  22.472  1.00  0.00     0.275 C 
ATOM      6  H   UNL A   1      32.822  27.854  23.943  1.00  0.00     0.163 HD
BRANCH   5   7
ATOM      7  C   UNL A   1      32.326  26.535  21.801  1.00  0.00     0.363 C 
BRANCH   7   8
ATOM      8  N   UNL A   1      31.696  25.190  21.800  1.00  0.00    -0.324 N 
ATOM      9  C   UNL A   1      32.628  24.160  21.260  1.00  0.00     0.284 C 
ATOM     10  C   UNL A   1      31.325  24.793  23.188  1.00  0.00     0.284 C 
ATOM     11  H   UNL A   1      30.866  25.245  21.210  1.00  0.00     0.348 HD
ATOM     12  C   UNL A   1      33.866  23.844  22.139  1.00  0.00     0.179 C 
ATOM     13  C   UNL A   1      32.512  24.485  24.135  1.00  0.00     0.179 C 
ATOM     14  N   UNL A   1      33.417  23.541  23.491  1.00  0.00    -0.345 N 
BRANCH  14  15
ATOM     15  C   UNL A   1      34.121  22.609  24.216  1.00  0.00     0.133 A 
ATOM     16  C   UNL A   1      33.608  21.336  24.324  1.00  0.00     0.076 A 
ATOM     17  N   UNL A   1      35.344  22.913  24.674  1.00  0.00    -0.211 NA
ATOM     18  C   UNL A   1      34.421  20.366  24.871  1.00  0.00     0.076 A 
ATOM     19  C   UNL A   1      36.054  21.914  25.233  1.00  0.00     0.165 A 
ATOM     20  N   UNL A   1      35.637  20.645  25.372  1.00  0.00    -0.228 NA
BRANCH  18  21
ATOM     21  C   UNL A   1      34.024  18.953  24.850  1.00  0.00     0.000 A 
ATOM     22  C   UNL A   1      32.802  18.531  25.390  1.00  0.00     0.010 A 
ATOM     23  C   UNL A   1      34.864  17.986  24.268  1.00  0.00     0.010 A 
ATOM     24  C   UNL A   1      32.421  17.188  25.329  1.00  0.00     0.001 A 
ATOM     25  C   UNL A   1      34.488  16.642  24.213  1.00  0.00     0.001 A 
ATOM     26  C   UNL A   1      33.263  16.247  24.739  1.00  0.00     0.000 A 
ENDBRANCH  18  21
BRANCH  19  27
ATOM     27  C   UNL A   1      37.391  22.247  25.716  1.00  0.00     0.055 A 
ATOM     28  C   UNL A   1      37.681  23.519  26.243  1.00  0.00     0.015 A 
ATOM     29  C   UNL A   1      38.435  21.318  25.645  1.00  0.00     0.134 A 
ATOM     30  C   UNL A   1      38.969  23.839  26.690  1.00  0.00     0.001 A 
ATOM     31  C   UNL A   1      39.723  21.632  26.080  1.00  0.00     0.040 A 
ATOM     32  F   UNL A   1      38.228  20.101  25.122  1.00  0.00    -0.206 F 
ATOM     33  C   UNL A   1      39.991  22.894  26.606  1.00  0.00     0.003 A 
ENDBRANCH  19  27
ENDBRANCH  14  15
ENDBRANCH   7   8
ENDBRANCH   5   7
ENDBRANCH   2   3
ENDBRANCH   1   2
BRANCH   1  34
ATOM     34  C   UNL A   1      32.692  27.955  26.271  1.00  0.00     0.023 C 
BRANCH  34  35
ATOM     35  C   UNL A   1      34.014  28.713  26.360  1.00  0.00     0.116 C 
BRANCH  35  36
ATOM     36  N   UNL A   1      33.851  30.110  26.733  1.00  0.00    -0.352 N 
ATOM     37  C   UNL A   1      34.606  30.883  27.583  1.00  0.00     0.251 C 
ATOM     38  H   UNL A   1      33.086  30.568  26.317  1.00  0.00     0.163 HD
ATOM     39  O   UNL A   1      34.231  32.018  27.867  1.00  0.00    -0.269 OA
BRANCH  37  40
ATOM     40  C   UNL A   1      35.848  30.343  28.182  1.00  0.00     0.039 A 
ATOM     41  C   UNL A   1      37.050  30.483  27.482  1.00  0.00     0.014 A 
ATOM     42  C   UNL A   1      35.837  29.703  29.424  1.00  0.00     0.014 A 
ATOM     43  C   UNL A   1      38.247  30.051  28.060  1.00  0.00     0.010 A 
ATOM     44  C   UNL A   1      37.039  29.342  30.031  1.00  0.00     0.010 A 
ATOM     45  C   UNL A   1      38.257  29.514  29.357  1.00  0.00    -0.014 A 
BRANCH  45  46
ATOM     46  C   UNL A   1      39.532  29.146  30.031  1.00  0.00     0.031 A 
ATOM     47  C   UNL A   1      40.020  29.930  31.220  1.00  0.00     0.074 A 
ATOM     48  C   UNL A   1      40.285  28.144  29.533  1.00  0.00     0.049 A 
ATOM     49  N   UNL A   1      41.134  29.796  31.895  1.00  0.00    -0.248 NA
ATOM     50  C   UNL A   1      39.156  31.021  31.699  1.00  0.00     0.031 C 
ATOM     51  C   UNL A   1      39.946  27.331  28.362  1.00  0.00     0.029 A 
ATOM     52  N   UNL A   1      41.496  27.643  29.942  1.00  0.00    -0.354 N 
ATOM     53  C   UNL A   1      41.110  30.789  32.868  1.00  0.00     0.074 A 
ATOM     54  C   UNL A   1      39.897  31.551  32.661  1.00  0.00     0.031 C 
ATOM     55  C   UNL A   1      40.912  26.420  28.163  1.00  0.00     0.029 A 
ATOM     56  C   UNL A   1      41.961  26.610  29.160  1.00  0.00     0.049 A 
ATOM     57  H   UNL A   1      41.985  27.990  30.722  1.00  0.00     0.167 HD
ATOM     58  C   UNL A   1      42.004  31.033  33.855  1.00  0.00     0.031 A 
ATOM     59  C   UNL A   1      43.104  25.902  29.227  1.00  0.00     0.031 A 
ATOM     60  C   UNL A   1      43.209  30.272  34.061  1.00  0.00     0.049 A 
ATOM     61  C   UNL A   1      44.093  26.205  30.321  1.00  0.00     0.074 A 
ATOM     62  C   UNL A   1      44.155  30.414  35.062  1.00  0.00     0.029 A 
ATOM     63  N   UNL A   1      43.638  29.231  33.252  1.00  0.00    -0.354 N 
ATOM     64  N   UNL A   1      44.021  27.109  31.268  1.00  0.00    -0.248 NA
ATOM     65  C   UNL A   1      45.311  25.384  30.361  1.00  0.00     0.031 C 
ATOM     66  C   UNL A   1      45.183  29.495  34.826  1.00  0.00     0.029 A 
ATOM     67  C   UNL A   1      44.846  28.737  33.716  1.00  0.00     0.049 A 
ATOM     68  H   UNL A   1      43.155  28.891  32.464  1.00  0.00     0.167 HD
ATOM     69  C   UNL A   1      45.171  26.946  32.034  1.00  0.00     0.074 A 
ATOM     70  C   UNL A   1      45.912  25.847  31.449  1.00  0.00     0.031 C 
ATOM     71  C   UNL A   1      45.575  27.643  33.125  1.00  0.00     0.031 A 
BRANCH  58  72
ATOM     72  C   UNL A   1      41.713  32.179  34.792  1.00  0.00    -0.014 A 
ATOM     73  C   UNL A   1      42.156  33.483  34.504  1.00  0.00     0.010 A 
ATOM     74  C   UNL A   1      40.951  31.957  35.953  1.00  0.00     0.010 A 
ATOM     75  C   UNL A   1      41.881  34.534  35.382  1.00  0.00     0.020 A 
ATOM     76  C   UNL A   1      40.646  33.013  36.819  1.00  0.00     0.020 A 
ATOM     77  C   UNL A   1      41.129  34.292  36.536  1.00  0.00     0.054 A 
BRANCH  77  78
ATOM     78  S   UNL A   1      40.772  35.680  37.646  1.00  0.00     0.124 S 
ATOM     79  O   UNL A   1      40.122  35.009  38.768  1.00  0.00    -0.237 OA
ATOM     80  O   UNL A   1      42.101  36.219  37.923  1.00  0.00    -0.237 OA
ATOM     81  O   UNL A   1      39.905  36.547  36.852  1.00  0.00    -0.744 OA
ENDBRANCH  77  78
ENDBRANCH  58  72
BRANCH  59  82
ATOM     82  C   UNL A   1      43.374  24.830  28.229  1.00  0.00    -0.014 A 
ATOM     83  C   UNL A   1      43.944  25.138  26.981  1.00  0.00     0.010 A 
ATOM     84  C   UNL A   1      43.071  23.488  28.528  1.00  0.00     0.010 A 
ATOM     85  C   UNL A   1      44.188  24.129  26.044  1.00  0.00     0.020 A 
ATOM     86  C   UNL A   1      43.342  22.473  27.606  1.00  0.00     0.020 A 
ATOM     87  C   UNL A   1      43.888  22.802  26.365  1.00  0.00     0.054 A 
BRANCH  87  88
ATOM     88  S   UNL A   1      44.261  21.504  25.153  1.00  0.00     0.124 S 
ATOM     89  O   UNL A   1      44.149  22.226  23.890  1.00  0.00    -0.237 OA
ATOM     90  O   UNL A   1      45.612  21.097  25.533  1.00  0.00    -0.237 OA
ATOM     91  O   UNL A   1      43.227  20.501  25.397  1.00  0.00    -0.744 OA
ENDBRANCH  87  88
ENDBRANCH  59  82
BRANCH  71  92
ATOM     92  C   UNL A   1      46.862  27.219  33.785  1.00  0.00    -0.014 A 
ATOM     93  C   UNL A   1      46.883  26.230  34.784  1.00  0.00     0.010 A 
ATOM     94  C   UNL A   1      48.078  27.783  33.355  1.00  0.00     0.010 A 
ATOM     95  C   UNL A   1      48.091  25.836  35.363  1.00  0.00     0.020 A 
ATOM     96  C   UNL A   1      49.292  27.369  33.910  1.00  0.00     0.020 A 
ATOM     97  C   UNL A   1      49.289  26.407  34.922  1.00  0.00     0.054 A 
BRANCH  97  98
ATOM     98  S   UNL A   1      50.849  25.845  35.658  1.00  0.00     0.124 S 
ATOM     99  O   UNL A   1      51.365  27.075  36.252  1.00  0.00    -0.237 OA
ATOM    100  O   UNL A   1      50.405  24.827  36.607  1.00  0.00    -0.237 OA
ATOM    101  O   UNL A   1      51.608  25.337  34.518  1.00  0.00    -0.744 OA
ENDBRANCH  97  98
ENDBRANCH  71  92
ENDBRANCH  45  46
ENDBRANCH  37  40
ENDBRANCH  35  36
ENDBRANCH  34  35
ENDBRANCH   1  34
TORSDOF 18
ENDMDL
MODEL 3
REMARK VINA RESULT:     -12.2      4.935      8.959
REMARK SMILES O=C(C[NH+]1CCN(c2cc(-c3ccccc3)nc(-c3ccccc3F)n2)CC1)NCCCCNC(=O)c1ccc(-c2c3nc(c(-c4ccc(S(=O)(=O)[O-])cc4)c4ccc([nH]4)c(-c4ccc(S(=O)(=O)[O-])cc4)c4nc(c(-c5ccc(S(=O)(=O)[O-])cc5)c5ccc2[nH]5)C=C4)C=C3)cc1
REMARK SMILES IDX 31 1 30 2 29 3 1 4 2 5 3 7 4 8 5 9 28 10 6 12 27 13 7 14
REMARK SMILES IDX 8 15 9 16 26 17 10 18 18 19 17 20 11 21 12 22 16 23 13 24
REMARK SMILES IDX 15 25 14 26 19 27 20 28 24 29 21 30 23 31 25 32 22 33 32 34
REMARK SMILES IDX 33 35 34 36 35 37 36 39 37 40 38 41 96 42 39 43 95 44 40 45
REMARK SMILES IDX 41 46 42 47 89 48 43 49 94 50 88 51 90 52 44 53 93 54 87 55
REMARK SMILES IDX 86 56 45 58 75 59 56 60 74 61 57 62 60 63 73 64 91 65 58 66
REMARK SMILES IDX 59 67 72 69 92 70 61 71 46 72 47 73 55 74 48 75 54 76 49 77
REMARK SMILES IDX 50 78 51 79 52 80 53 81 76 82 77 83 85 84 78 85 84 86 79 87
REMARK SMILES IDX 80 88 81 89 82 90 83 91 62 92 63 93 71 94 64 95 70 96 65 97
REMARK SMILES IDX 66 98 67 99 68 100 69 101
REMARK H PARENT 29 6 4 11 34 38 90 57 60 68
REMARK Flexibility Score: inf
ROOT
ATOM      1  C   UNL A   1      31.539  29.744  25.505  1.00  0.00     0.023 C 
ENDROOT
BRANCH   1   2
ATOM      2  C   UNL A   1      30.990  29.645  24.082  1.00  0.00     0.116 C 
BRANCH   2   3
ATOM      3  N   UNL A   1      31.239  28.348  23.492  1.00  0.00    -0.351 N 
ATOM      4  O   UNL A   1      29.114  27.532  23.788  1.00  0.00    -0.269 OA
ATOM      5  C   UNL A   1      30.273  27.371  23.408  1.00  0.00     0.275 C 
ATOM      6  H   UNL A   1      32.135  28.155  23.137  1.00  0.00     0.163 HD
BRANCH   5   7
ATOM      7  C   UNL A   1      30.756  26.007  22.903  1.00  0.00     0.363 C 
BRANCH   7   8
ATOM      8  N   UNL A   1      30.366  24.903  23.817  1.00  0.00    -0.324 N 
ATOM      9  C   UNL A   1      30.540  23.575  23.162  1.00  0.00     0.284 C 
ATOM     10  C   UNL A   1      31.211  24.926  25.044  1.00  0.00     0.284 C 
ATOM     11  H   UNL A   1      29.384  25.041  24.057  1.00  0.00     0.348 HD
ATOM     12  C   UNL A   1      32.005  23.149  22.883  1.00  0.00     0.179 C 
ATOM     13  C   UNL A   1      32.698  24.536  24.839  1.00  0.00     0.179 C 
ATOM     14  N   UNL A   1      32.773  23.273  24.113  1.00  0.00    -0.345 N 
BRANCH  14  15
ATOM     15  C   UNL A   1      33.786  22.372  24.342  1.00  0.00     0.133 A 
ATOM     16  C   UNL A   1      35.031  22.852  24.681  1.00  0.00     0.076 A 
ATOM     17  N   UNL A   1      33.509  21.060  24.372  1.00  0.00    -0.211 NA
ATOM     18  C   UNL A   1      35.971  21.940  25.109  1.00  0.00     0.076 A 
ATOM     19  C   UNL A   1      34.500  20.234  24.762  1.00  0.00     0.165 A 
ATOM     20  N   UNL A   1      35.738  20.616  25.117  1.00  0.00    -0.228 NA
BRANCH  18  21
ATOM     21  C   UNL A   1      37.253  22.388  25.665  1.00  0.00     0.000 A 
ATOM     22  C   UNL A   1      38.347  21.519  25.766  1.00  0.00     0.010 A 
ATOM     23  C   UNL A   1      37.416  23.716  26.101  1.00  0.00     0.010 A 
ATOM     24  C   UNL A   1      39.573  21.969  26.264  1.00  0.00     0.001 A 
ATOM     25  C   UNL A   1      38.638  24.165  26.606  1.00  0.00     0.001 A 
ATOM     26  C   UNL A   1      39.717  23.291  26.680  1.00  0.00     0.000 A 
ENDBRANCH  18  21
BRANCH  19  27
ATOM     27  C   UNL A   1      34.189  18.809  24.808  1.00  0.00     0.055 A 
ATOM     28  C   UNL A   1      35.091  17.848  24.315  1.00  0.00     0.015 A 
ATOM     29  C   UNL A   1      32.968  18.353  25.320  1.00  0.00     0.134 A 
ATOM     30  C   UNL A   1      34.781  16.483  24.348  1.00  0.00     0.001 A 
ATOM     31  C   UNL A   1      32.647  16.996  25.346  1.00  0.00     0.040 A 
ATOM     32  F   UNL A   1      32.054  19.224  25.772  1.00  0.00    -0.206 F 
ATOM     33  C   UNL A   1      33.557  16.058  24.862  1.00  0.00     0.003 A 
ENDBRANCH  19  27
ENDBRANCH  14  15
ENDBRANCH   7   8
ENDBRANCH   5   7
ENDBRANCH   2   3
ENDBRANCH   1   2
BRANCH   1  34
ATOM     34  C   UNL A   1      32.608  28.709  25.860  1.00  0.00     0.023 C 
BRANCH  34  35
ATOM     35  C   UNL A   1      33.834  29.252  26.590  1.00  0.00     0.116 C 
BRANCH  35  36
ATOM     36  N   UNL A   1      33.704  30.651  26.966  1.00  0.00    -0.352 N 
ATOM     37  C   UNL A   1      34.496  31.413  27.792  1.00  0.00     0.251 C 
ATOM     38  H   UNL A   1      32.936  31.122  26.570  1.00  0.00     0.163 HD
ATOM     39  O   UNL A   1      34.148  32.555  28.084  1.00  0.00    -0.269 OA
BRANCH  37  40
ATOM     40  C   UNL A   1      35.745  30.854  28.357  1.00  0.00     0.039 A 
ATOM     41  C   UNL A   1      36.963  31.455  28.026  1.00  0.00     0.014 A 
ATOM     42  C   UNL A   1      35.724  29.745  29.208  1.00  0.00     0.014 A 
ATOM     43  C   UNL A   1      38.147  30.994  28.607  1.00  0.00     0.010 A 
ATOM     44  C   UNL A   1      36.895  29.336  29.844  1.00  0.00     0.010 A 
ATOM     45  C   UNL A   1      38.119  29.957  29.553  1.00  0.00    -0.014 A 
BRANCH  45  46
ATOM     46  C   UNL A   1      39.354  29.523  30.260  1.00  0.00     0.031 A 
ATOM     47  C   UNL A   1      39.822  30.250  31.493  1.00  0.00     0.074 A 
ATOM     48  C   UNL A   1      40.093  28.514  29.756  1.00  0.00     0.049 A 
ATOM     49  N   UNL A   1      40.905  30.055  32.203  1.00  0.00    -0.248 NA
ATOM     50  C   UNL A   1      38.977  31.352  31.977  1.00  0.00     0.031 C 
ATOM     51  C   UNL A   1      39.772  27.752  28.545  1.00  0.00     0.029 A 
ATOM     52  N   UNL A   1      41.270  27.958  30.192  1.00  0.00    -0.354 N 
ATOM     53  C   UNL A   1      40.877  31.014  33.209  1.00  0.00     0.074 A 
ATOM     54  C   UNL A   1      39.698  31.824  32.984  1.00  0.00     0.031 C 
ATOM     55  C   UNL A   1      40.715  26.816  28.350  1.00  0.00     0.029 A 
ATOM     56  C   UNL A   1      41.730  26.937  29.392  1.00  0.00     0.049 A 
ATOM     57  H   UNL A   1      41.741  28.261  31.001  1.00  0.00     0.167 HD
ATOM     58  C   UNL A   1      41.740  31.195  34.237  1.00  0.00     0.031 A 
ATOM     59  C   UNL A   1      42.847  26.188  29.476  1.00  0.00     0.031 A 
ATOM     60  C   UNL A   1      42.910  30.387  34.460  1.00  0.00     0.049 A 
ATOM     61  C   UNL A   1      43.803  26.420  30.616  1.00  0.00     0.074 A 
ATOM     62  C   UNL A   1      43.822  30.462  35.501  1.00  0.00     0.029 A 
ATOM     63  N   UNL A   1      43.335  29.359  33.632  1.00  0.00    -0.354 N 
ATOM     64  N   UNL A   1      43.724  27.293  31.591  1.00  0.00    -0.248 NA
ATOM     65  C   UNL A   1      44.991  25.557  30.672  1.00  0.00     0.031 C 
ATOM     66  C   UNL A   1      44.827  29.518  35.270  1.00  0.00     0.029 A 
ATOM     67  C   UNL A   1      44.507  28.809  34.123  1.00  0.00     0.049 A 
ATOM     68  H   UNL A   1      42.872  29.063  32.815  1.00  0.00     0.167 HD
ATOM     69  C   UNL A   1      44.838  27.066  32.392  1.00  0.00     0.074 A 
ATOM     70  C   UNL A   1      45.564  25.962  31.797  1.00  0.00     0.031 C 
ATOM     71  C   UNL A   1      45.223  27.712  33.521  1.00  0.00     0.031 A 
BRANCH  58  72
ATOM     72  C   UNL A   1      41.451  32.317  35.201  1.00  0.00    -0.014 A 
ATOM     73  C   UNL A   1      40.683  32.101  36.359  1.00  0.00     0.010 A 
ATOM     74  C   UNL A   1      41.990  33.596  34.969  1.00  0.00     0.010 A 
ATOM     75  C   UNL A   1      40.421  33.151  37.243  1.00  0.00     0.020 A 
ATOM     76  C   UNL A   1      41.757  34.642  35.867  1.00  0.00     0.020 A 
ATOM     77  C   UNL A   1      40.958  34.417  36.990  1.00  0.00     0.054 A 
BRANCH  77  78
ATOM     78  S   UNL A   1      40.617  35.755  38.165  1.00  0.00     0.124 S 
ATOM     79  O   UNL A   1      41.963  36.154  38.566  1.00  0.00    -0.237 OA
ATOM     80  O   UNL A   1      39.893  36.723  37.345  1.00  0.00    -0.237 OA
ATOM     81  O   UNL A   1      39.823  35.109  39.207  1.00  0.00    -0.744 OA
ENDBRANCH  77  78
ENDBRANCH  58  72
BRANCH  59  82
ATOM     82  C   UNL A   1      43.119  25.142  28.451  1.00  0.00    -0.014 A 
ATOM     83  C   UNL A   1      42.802  23.795  28.699  1.00  0.00     0.010 A 
ATOM     84  C   UNL A   1      43.690  25.492  27.214  1.00  0.00     0.010 A 
ATOM     85  C   UNL A   1      43.068  22.815  27.737  1.00  0.00     0.020 A 
ATOM     86  C   UNL A   1      43.928  24.520  26.238  1.00  0.00     0.020 A 
ATOM     87  C   UNL A   1      43.626  23.185  26.510  1.00  0.00     0.054 A 
BRANCH  87  88
ATOM     88  S   UNL A   1      43.914  21.904  25.258  1.00  0.00     0.124 S 
ATOM     89  O   UNL A   1      45.285  21.499  25.548  1.00  0.00    -0.237 OA
ATOM     90  O   UNL A   1      42.881  20.919  25.572  1.00  0.00    -0.237 OA
ATOM     91  O   UNL A   1      43.723  22.613  23.995  1.00  0.00    -0.744 OA
ENDBRANCH  87  88
ENDBRANCH  59  82
BRANCH  71  92
ATOM     92  C   UNL A   1      46.469  27.221  34.213  1.00  0.00    -0.014 A 
ATOM     93  C   UNL A   1      46.417  26.208  35.186  1.00  0.00     0.010 A 
ATOM     94  C   UNL A   1      47.720  27.749  33.840  1.00  0.00     0.010 A 
ATOM     95  C   UNL A   1      47.589  25.753  35.795  1.00  0.00     0.020 A 
ATOM     96  C   UNL A   1      48.897  27.275  34.425  1.00  0.00     0.020 A 
ATOM     97  C   UNL A   1      48.823  26.289  35.410  1.00  0.00     0.054 A 
BRANCH  97  98
ATOM     98  S   UNL A   1      50.333  25.649  36.184  1.00  0.00     0.124 S 
ATOM     99  O   UNL A   1      51.374  26.211  35.329  1.00  0.00    -0.237 OA
ATOM    100  O   UNL A   1      50.260  26.203  37.533  1.00  0.00    -0.237 OA
ATOM    101  O   UNL A   1      50.177  24.199  36.104  1.00  0.00    -0.744 OA
ENDBRANCH  97  98
ENDBRANCH  71  92
ENDBRANCH  45  46
ENDBRANCH  37  40
ENDBRANCH  35  36
ENDBRANCH  34  35
ENDBRANCH   1  34
TORSDOF 18
ENDMDL
