MODEL 1
REMARK VINA RESULT:     -10.5      0.000      0.000
REMARK SMILES COc1ccccc1[C@H](C)Nc1nc(C)c(C(=O)NCCCCNC(=O)c2ccc(-c3c4nc(c(-c5ccc(S(=O)(=O)[O-])cc5)c5ccc([nH]5)c(-c5ccc(S(=O)(=O)[O-])cc5)c5nc(c(-c6ccc(S(=O)(=O)[O-])cc6)c6ccc3[nH]6)C=C5)C=C4)cc2)s1
REMARK SMILES IDX 21 1 20 2 19 3 17 4 18 5 16 7 12 8 13 9 87 10 14 11 15 12
REMARK SMILES IDX 11 13 9 15 10 16 8 17 3 18 4 19 5 20 7 21 6 22 2 23 1 24
REMARK SMILES IDX 22 25 23 26 24 27 25 28 26 30 27 31 28 32 86 33 29 34 85 35
REMARK SMILES IDX 30 36 31 37 32 38 79 39 33 40 84 41 78 42 80 43 34 44 83 45
REMARK SMILES IDX 77 46 76 47 35 49 65 50 46 51 64 52 47 53 50 54 63 55 81 56
REMARK SMILES IDX 48 57 49 58 62 60 82 61 51 62 36 63 37 64 45 65 38 66 44 67
REMARK SMILES IDX 39 68 40 69 41 70 42 71 43 72 66 73 67 74 75 75 68 76 74 77
REMARK SMILES IDX 69 78 70 79 71 80 72 81 73 82 52 83 53 84 61 85 54 86 60 87
REMARK SMILES IDX 55 88 56 89 57 90 58 91 59 92
REMARK H PARENT 19 6 11 14 24 29 80 48 50 59
REMARK Flexibility Score: inf
ROOT
ATOM      1  C   UNL A   1      35.992  22.618  23.652  1.00  0.00     0.023 C 
ENDROOT
BRANCH   1   2
ATOM      2  C   UNL A   1      34.587  22.908  23.127  1.00  0.00     0.116 C 
BRANCH   2   3
ATOM      3  N   UNL A   1      33.674  21.883  23.553  1.00  0.00    -0.351 N 
ATOM      4  C   UNL A   1      32.733  21.811  24.543  1.00  0.00     0.263 C 
ATOM      5  O   UNL A   1      32.199  20.695  24.597  1.00  0.00    -0.268 OA
ATOM      6  H   UNL A   1      33.740  21.059  23.020  1.00  0.00     0.163 HD
BRANCH   4   7
ATOM      7  C   UNL A   1      32.347  22.903  25.438  1.00  0.00     0.117 A 
ATOM      8  C   UNL A   1      31.210  24.996  26.098  1.00  0.00     0.184 A 
ATOM      9  N   UNL A   1      31.864  24.490  27.105  1.00  0.00    -0.225 NA
ATOM     10  S   UNL A   1      31.427  24.153  24.637  1.00  0.00    -0.092 S 
ATOM     11  C   UNL A   1      32.445  23.268  26.781  1.00  0.00     0.063 A 
ATOM     12  C   UNL A   1      33.004  22.587  27.974  1.00  0.00     0.068 C 
BRANCH   8  13
ATOM     13  N   UNL A   1      30.453  26.098  26.254  1.00  0.00    -0.355 N 
ATOM     14  H   UNL A   1      29.481  25.993  26.368  1.00  0.00     0.163 HD
BRANCH  13  15
ATOM     15  C   UNL A   1      31.017  27.438  26.262  1.00  0.00     0.112 C 
ATOM     16  C   UNL A   1      31.747  27.673  27.591  1.00  0.00     0.036 C 
BRANCH  15  17
ATOM     17  C   UNL A   1      31.761  27.650  24.958  1.00  0.00     0.016 A 
ATOM     18  C   UNL A   1      31.198  27.663  23.674  1.00  0.00     0.124 A 
ATOM     19  C   UNL A   1      31.998  27.865  22.540  1.00  0.00     0.047 A 
ATOM     20  C   UNL A   1      33.362  28.116  22.668  1.00  0.00     0.004 A 
ATOM     21  C   UNL A   1      33.144  27.926  25.059  1.00  0.00     0.010 A 
ATOM     22  C   UNL A   1      33.935  28.156  23.933  1.00  0.00     0.001 A 
BRANCH  18  23
ATOM     23  O   UNL A   1      29.872  27.410  23.449  1.00  0.00    -0.496 OA
ATOM     24  C   UNL A   1      29.163  28.619  23.172  1.00  0.00     0.278 C 
ENDBRANCH  18  23
ENDBRANCH  15  17
ENDBRANCH  13  15
ENDBRANCH   8  13
ENDBRANCH   4   7
ENDBRANCH   2   3
ENDBRANCH   1   2
BRANCH   1  25
ATOM     25  C   UNL A   1      36.606  23.746  24.479  1.00  0.00     0.023 C 
BRANCH  25  26
ATOM     26  C   UNL A   1      36.949  23.358  25.911  1.00  0.00     0.116 C 
BRANCH  26  27
ATOM     27  N   UNL A   1      38.136  22.521  26.023  1.00  0.00    -0.352 N 
ATOM     28  C   UNL A   1      39.374  22.871  26.511  1.00  0.00     0.251 C 
ATOM     29  H   UNL A   1      38.040  21.592  25.713  1.00  0.00     0.163 HD
ATOM     30  O   UNL A   1      40.307  22.084  26.470  1.00  0.00    -0.269 OA
BRANCH  28  31
ATOM     31  C   UNL A   1      39.556  24.241  27.029  1.00  0.00     0.039 A 
ATOM     32  C   UNL A   1      39.192  24.513  28.349  1.00  0.00     0.014 A 
ATOM     33  C   UNL A   1      40.170  25.215  26.239  1.00  0.00     0.014 A 
ATOM     34  C   UNL A   1      39.515  25.750  28.904  1.00  0.00     0.010 A 
ATOM     35  C   UNL A   1      40.556  26.417  26.816  1.00  0.00     0.010 A 
ATOM     36  C   UNL A   1      40.237  26.695  28.154  1.00  0.00    -0.014 A 
BRANCH  36  37
ATOM     37  C   UNL A   1      40.669  27.984  28.745  1.00  0.00     0.031 A 
ATOM     38  C   UNL A   1      42.056  28.117  29.306  1.00  0.00     0.074 A 
ATOM     39  C   UNL A   1      39.788  28.998  28.852  1.00  0.00     0.049 A 
ATOM     40  N   UNL A   1      42.591  29.121  29.950  1.00  0.00    -0.248 NA
ATOM     41  C   UNL A   1      42.950  26.958  29.148  1.00  0.00     0.031 C 
ATOM     42  C   UNL A   1      38.399  28.972  28.385  1.00  0.00     0.029 A 
ATOM     43  N   UNL A   1      39.929  30.248  29.398  1.00  0.00    -0.354 N 
ATOM     44  C   UNL A   1      43.871  28.706  30.296  1.00  0.00     0.074 A 
ATOM     45  C   UNL A   1      44.017  27.344  29.831  1.00  0.00     0.031 C 
ATOM     46  C   UNL A   1      37.824  30.158  28.646  1.00  0.00     0.029 A 
ATOM     47  C   UNL A   1      38.788  31.013  29.330  1.00  0.00     0.049 A 
ATOM     48  H   UNL A   1      40.768  30.567  29.802  1.00  0.00     0.167 HD
ATOM     49  C   UNL A   1      44.845  29.403  30.927  1.00  0.00     0.031 A 
ATOM     50  C   UNL A   1      38.545  32.261  29.775  1.00  0.00     0.031 A 
ATOM     51  C   UNL A   1      44.703  30.764  31.366  1.00  0.00     0.049 A 
ATOM     52  C   UNL A   1      39.648  33.021  30.460  1.00  0.00     0.074 A 
ATOM     53  C   UNL A   1      45.648  31.578  31.965  1.00  0.00     0.029 A 
ATOM     54  N   UNL A   1      43.543  31.515  31.249  1.00  0.00    -0.354 N 
ATOM     55  N   UNL A   1      40.872  32.631  30.729  1.00  0.00    -0.248 NA
ATOM     56  C   UNL A   1      39.341  34.392  30.890  1.00  0.00     0.031 C 
ATOM     57  C   UNL A   1      45.047  32.810  32.244  1.00  0.00     0.029 A 
ATOM     58  C   UNL A   1      43.743  32.778  31.775  1.00  0.00     0.049 A 
ATOM     59  H   UNL A   1      42.701  31.195  30.850  1.00  0.00     0.167 HD
ATOM     60  C   UNL A   1      41.489  33.719  31.335  1.00  0.00     0.074 A 
ATOM     61  C   UNL A   1      40.508  34.785  31.383  1.00  0.00     0.031 C 
ATOM     62  C   UNL A   1      42.756  33.826  31.807  1.00  0.00     0.031 A 
BRANCH  49  63
ATOM     63  C   UNL A   1      46.150  28.696  31.176  1.00  0.00    -0.014 A 
ATOM     64  C   UNL A   1      47.134  28.618  30.174  1.00  0.00     0.010 A 
ATOM     65  C   UNL A   1      46.404  28.121  32.434  1.00  0.00     0.010 A 
ATOM     66  C   UNL A   1      48.331  27.938  30.410  1.00  0.00     0.020 A 
ATOM     67  C   UNL A   1      47.613  27.463  32.683  1.00  0.00     0.020 A 
ATOM     68  C   UNL A   1      48.560  27.359  31.662  1.00  0.00     0.054 A 
BRANCH  68  69
ATOM     69  S   UNL A   1      50.129  26.494  31.946  1.00  0.00     0.124 S 
ATOM     70  O   UNL A   1      51.034  27.218  31.059  1.00  0.00    -0.237 OA
ATOM     71  O   UNL A   1      50.354  26.697  33.375  1.00  0.00    -0.237 OA
ATOM     72  O   UNL A   1      49.840  25.116  31.554  1.00  0.00    -0.744 OA
ENDBRANCH  68  69
ENDBRANCH  49  63
BRANCH  50  73
ATOM     73  C   UNL A   1      37.209  32.879  29.564  1.00  0.00    -0.014 A 
ATOM     74  C   UNL A   1      36.293  32.973  30.627  1.00  0.00     0.010 A 
ATOM     75  C   UNL A   1      36.848  33.390  28.304  1.00  0.00     0.010 A 
ATOM     76  C   UNL A   1      35.035  33.549  30.431  1.00  0.00     0.020 A 
ATOM     77  C   UNL A   1      35.600  33.990  28.110  1.00  0.00     0.020 A 
ATOM     78  C   UNL A   1      34.697  34.054  29.173  1.00  0.00     0.054 A 
BRANCH  78  79
ATOM     79  S   UNL A   1      33.079  34.845  28.953  1.00  0.00     0.124 S 
ATOM     80  O   UNL A   1      32.447  33.974  27.967  1.00  0.00    -0.237 OA
ATOM     81  O   UNL A   1      32.514  34.791  30.299  1.00  0.00    -0.237 OA
ATOM     82  O   UNL A   1      33.417  36.186  28.481  1.00  0.00    -0.744 OA
ENDBRANCH  78  79
ENDBRANCH  50  73
BRANCH  62  83
ATOM     83  C   UNL A   1      43.169  35.155  32.380  1.00  0.00    -0.014 A 
ATOM     84  C   UNL A   1      43.820  36.118  31.590  1.00  0.00     0.010 A 
ATOM     85  C   UNL A   1      42.843  35.463  33.713  1.00  0.00     0.010 A 
ATOM     86  C   UNL A   1      44.159  37.360  32.133  1.00  0.00     0.020 A 
ATOM     87  C   UNL A   1      43.158  36.712  34.251  1.00  0.00     0.020 A 
ATOM     88  C   UNL A   1      43.827  37.649  33.460  1.00  0.00     0.054 A 
BRANCH  88  89
ATOM     89  S   UNL A   1      44.231  39.286  34.127  1.00  0.00     0.124 S 
ATOM     90  O   UNL A   1      43.001  40.031  33.867  1.00  0.00    -0.237 OA
ATOM     91  O   UNL A   1      44.508  39.002  35.534  1.00  0.00    -0.237 OA
ATOM     92  O   UNL A   1      45.390  39.703  33.342  1.00  0.00    -0.744 OA
ENDBRANCH  88  89
ENDBRANCH  62  83
ENDBRANCH  36  37
ENDBRANCH  28  31
ENDBRANCH  26  27
ENDBRANCH  25  26
ENDBRANCH   1  25
TORSDOF 18
ENDMDL
MODEL 2
REMARK VINA RESULT:     -10.2      3.626      4.916
REMARK SMILES COc1ccccc1[C@H](C)Nc1nc(C)c(C(=O)NCCCCNC(=O)c2ccc(-c3c4nc(c(-c5ccc(S(=O)(=O)[O-])cc5)c5ccc([nH]5)c(-c5ccc(S(=O)(=O)[O-])cc5)c5nc(c(-c6ccc(S(=O)(=O)[O-])cc6)c6ccc3[nH]6)C=C5)C=C4)cc2)s1
REMARK SMILES IDX 21 1 20 2 19 3 17 4 18 5 16 7 12 8 13 9 87 10 14 11 15 12
REMARK SMILES IDX 11 13 9 15 10 16 8 17 3 18 4 19 5 20 7 21 6 22 2 23 1 24
REMARK SMILES IDX 22 25 23 26 24 27 25 28 26 30 27 31 28 32 86 33 29 34 85 35
REMARK SMILES IDX 30 36 31 37 32 38 79 39 33 40 84 41 78 42 80 43 34 44 83 45
REMARK SMILES IDX 77 46 76 47 35 49 65 50 46 51 64 52 47 53 50 54 63 55 81 56
REMARK SMILES IDX 48 57 49 58 62 60 82 61 51 62 36 63 37 64 45 65 38 66 44 67
REMARK SMILES IDX 39 68 40 69 41 70 42 71 43 72 66 73 67 74 75 75 68 76 74 77
REMARK SMILES IDX 69 78 70 79 71 80 72 81 73 82 52 83 53 84 61 85 54 86 60 87
REMARK SMILES IDX 55 88 56 89 57 90 58 91 59 92
REMARK H PARENT 19 6 11 14 24 29 80 48 50 59
REMARK Flexibility Score: inf
ROOT
ATOM      1  C   UNL A   1      36.980  20.594  25.081  1.00  0.00     0.023 C 
ENDROOT
BRANCH   1   2
ATOM      2  C   UNL A   1      35.597  21.134  24.723  1.00  0.00     0.116 C 
BRANCH   2   3
ATOM      3  N   UNL A   1      34.579  20.411  25.435  1.00  0.00    -0.351 N 
ATOM      4  C   UNL A   1      33.251  20.636  25.668  1.00  0.00     0.263 C 
ATOM      5  O   UNL A   1      32.752  19.766  26.395  1.00  0.00    -0.268 OA
ATOM      6  H   UNL A   1      34.908  19.576  25.840  1.00  0.00     0.163 HD
BRANCH   4   7
ATOM      7  C   UNL A   1      32.461  21.742  25.123  1.00  0.00     0.117 A 
ATOM      8  C   UNL A   1      31.066  23.780  25.200  1.00  0.00     0.184 A 
ATOM      9  N   UNL A   1      31.296  23.426  23.967  1.00  0.00    -0.225 NA
ATOM     10  S   UNL A   1      31.676  22.695  26.358  1.00  0.00    -0.092 S 
ATOM     11  C   UNL A   1      32.148  22.327  23.897  1.00  0.00     0.063 A 
ATOM     12  C   UNL A   1      32.584  22.054  22.506  1.00  0.00     0.068 C 
BRANCH   8  13
ATOM     13  N   UNL A   1      30.389  24.911  25.474  1.00  0.00    -0.355 N 
ATOM     14  H   UNL A   1      29.835  24.946  26.288  1.00  0.00     0.163 HD
BRANCH  13  15
ATOM     15  C   UNL A   1      30.446  26.084  24.617  1.00  0.00     0.112 C 
ATOM     16  C   UNL A   1      29.043  26.387  24.078  1.00  0.00     0.036 C 
BRANCH  15  17
ATOM     17  C   UNL A   1      31.212  27.170  25.348  1.00  0.00     0.016 A 
ATOM     18  C   UNL A   1      32.003  28.166  24.761  1.00  0.00     0.124 A 
ATOM     19  C   UNL A   1      32.670  29.115  25.550  1.00  0.00     0.047 A 
ATOM     20  C   UNL A   1      32.512  29.125  26.934  1.00  0.00     0.004 A 
ATOM     21  C   UNL A   1      31.056  27.216  26.753  1.00  0.00     0.010 A 
ATOM     22  C   UNL A   1      31.694  28.177  27.537  1.00  0.00     0.001 A 
BRANCH  18  23
ATOM     23  O   UNL A   1      32.230  28.227  23.413  1.00  0.00    -0.496 OA
ATOM     24  C   UNL A   1      33.368  29.041  23.124  1.00  0.00     0.278 C 
ENDBRANCH  18  23
ENDBRANCH  15  17
ENDBRANCH  13  15
ENDBRANCH   8  13
ENDBRANCH   4   7
ENDBRANCH   2   3
ENDBRANCH   1   2
BRANCH   1  25
ATOM     25  C   UNL A   1      38.084  21.648  25.113  1.00  0.00     0.023 C 
BRANCH  25  26
ATOM     26  C   UNL A   1      39.097  21.461  26.235  1.00  0.00     0.116 C 
BRANCH  26  27
ATOM     27  N   UNL A   1      39.931  20.277  26.079  1.00  0.00    -0.352 N 
ATOM     28  C   UNL A   1      41.304  20.199  26.120  1.00  0.00     0.251 C 
ATOM     29  H   UNL A   1      39.454  19.430  25.927  1.00  0.00     0.163 HD
ATOM     30  O   UNL A   1      41.877  19.145  25.892  1.00  0.00    -0.269 OA
BRANCH  28  31
ATOM     31  C   UNL A   1      42.064  21.435  26.390  1.00  0.00     0.039 A 
ATOM     32  C   UNL A   1      42.336  22.300  25.329  1.00  0.00     0.014 A 
ATOM     33  C   UNL A   1      42.417  21.771  27.699  1.00  0.00     0.014 A 
ATOM     34  C   UNL A   1      42.900  23.548  25.594  1.00  0.00     0.010 A 
ATOM     35  C   UNL A   1      42.908  23.041  27.967  1.00  0.00     0.010 A 
ATOM     36  C   UNL A   1      43.151  23.943  26.919  1.00  0.00    -0.014 A 
BRANCH  36  37
ATOM     37  C   UNL A   1      43.669  25.294  27.238  1.00  0.00     0.031 A 
ATOM     38  C   UNL A   1      45.122  25.606  27.014  1.00  0.00     0.074 A 
ATOM     39  C   UNL A   1      42.855  26.205  27.807  1.00  0.00     0.049 A 
ATOM     40  N   UNL A   1      45.789  26.687  27.319  1.00  0.00    -0.248 NA
ATOM     41  C   UNL A   1      45.938  24.550  26.391  1.00  0.00     0.031 C 
ATOM     42  C   UNL A   1      41.437  26.004  28.116  1.00  0.00     0.029 A 
ATOM     43  N   UNL A   1      43.109  27.483  28.236  1.00  0.00    -0.354 N 
ATOM     44  C   UNL A   1      47.105  26.434  26.951  1.00  0.00     0.074 A 
ATOM     45  C   UNL A   1      47.151  25.080  26.442  1.00  0.00     0.031 C 
ATOM     46  C   UNL A   1      40.942  27.126  28.664  1.00  0.00     0.029 A 
ATOM     47  C   UNL A   1      42.012  28.110  28.781  1.00  0.00     0.049 A 
ATOM     48  H   UNL A   1      43.992  27.911  28.162  1.00  0.00     0.167 HD
ATOM     49  C   UNL A   1      48.175  27.260  27.013  1.00  0.00     0.031 A 
ATOM     50  C   UNL A   1      41.887  29.339  29.319  1.00  0.00     0.031 A 
ATOM     51  C   UNL A   1      48.119  28.612  27.497  1.00  0.00     0.049 A 
ATOM     52  C   UNL A   1      43.087  30.244  29.363  1.00  0.00     0.074 A 
ATOM     53  C   UNL A   1      49.135  29.550  27.549  1.00  0.00     0.029 A 
ATOM     54  N   UNL A   1      46.984  29.221  28.009  1.00  0.00    -0.354 N 
ATOM     55  N   UNL A   1      44.312  30.006  28.958  1.00  0.00    -0.248 NA
ATOM     56  C   UNL A   1      42.885  31.587  29.924  1.00  0.00     0.031 C 
ATOM     57  C   UNL A   1      48.621  30.716  28.127  1.00  0.00     0.029 A 
ATOM     58  C   UNL A   1      47.275  30.518  28.391  1.00  0.00     0.049 A 
ATOM     59  H   UNL A   1      46.100  28.793  28.089  1.00  0.00     0.167 HD
ATOM     60  C   UNL A   1      45.020  31.180  29.190  1.00  0.00     0.074 A 
ATOM     61  C   UNL A   1      44.085  32.128  29.761  1.00  0.00     0.031 C 
ATOM     62  C   UNL A   1      46.328  31.448  28.950  1.00  0.00     0.031 A 
BRANCH  49  63
ATOM     63  C   UNL A   1      49.496  26.716  26.541  1.00  0.00    -0.014 A 
ATOM     64  C   UNL A   1      49.949  26.948  25.229  1.00  0.00     0.010 A 
ATOM     65  C   UNL A   1      50.306  25.981  27.426  1.00  0.00     0.010 A 
ATOM     66  C   UNL A   1      51.166  26.416  24.796  1.00  0.00     0.020 A 
ATOM     67  C   UNL A   1      51.538  25.470  27.004  1.00  0.00     0.020 A 
ATOM     68  C   UNL A   1      51.949  25.676  25.685  1.00  0.00     0.054 A 
BRANCH  68  69
ATOM     69  S   UNL A   1      53.532  25.008  25.102  1.00  0.00     0.124 S 
ATOM     70  O   UNL A   1      53.595  25.535  23.741  1.00  0.00    -0.237 OA
ATOM     71  O   UNL A   1      54.491  25.583  26.042  1.00  0.00    -0.237 OA
ATOM     72  O   UNL A   1      53.357  23.562  25.202  1.00  0.00    -0.744 OA
ENDBRANCH  68  69
ENDBRANCH  49  63
BRANCH  50  73
ATOM     73  C   UNL A   1      40.569  29.793  29.838  1.00  0.00    -0.014 A 
ATOM     74  C   UNL A   1      40.317  29.812  31.221  1.00  0.00     0.010 A 
ATOM     75  C   UNL A   1      39.562  30.222  28.953  1.00  0.00     0.010 A 
ATOM     76  C   UNL A   1      39.078  30.234  31.711  1.00  0.00     0.020 A 
ATOM     77  C   UNL A   1      38.330  30.668  29.441  1.00  0.00     0.020 A 
ATOM     78  C   UNL A   1      38.092  30.660  30.817  1.00  0.00     0.054 A 
BRANCH  78  79
ATOM     79  S   UNL A   1      36.509  31.252  31.476  1.00  0.00     0.124 S 
ATOM     80  O   UNL A   1      36.048  30.099  32.243  1.00  0.00    -0.237 OA
ATOM     81  O   UNL A   1      36.910  32.416  32.264  1.00  0.00    -0.237 OA
ATOM     82  O   UNL A   1      35.734  31.559  30.276  1.00  0.00    -0.744 OA
ENDBRANCH  78  79
ENDBRANCH  50  73
BRANCH  62  83
ATOM     83  C   UNL A   1      46.818  32.835  29.265  1.00  0.00    -0.014 A 
ATOM     84  C   UNL A   1      47.378  33.143  30.517  1.00  0.00     0.010 A 
ATOM     85  C   UNL A   1      46.773  33.826  28.268  1.00  0.00     0.010 A 
ATOM     86  C   UNL A   1      47.863  34.428  30.774  1.00  0.00     0.020 A 
ATOM     87  C   UNL A   1      47.280  35.104  28.513  1.00  0.00     0.020 A 
ATOM     88  C   UNL A   1      47.810  35.401  29.771  1.00  0.00     0.054 A 
BRANCH  88  89
ATOM     89  S   UNL A   1      48.493  37.045  30.110  1.00  0.00     0.124 S 
ATOM     90  O   UNL A   1      47.798  37.871  29.125  1.00  0.00    -0.237 OA
ATOM     91  O   UNL A   1      48.111  37.273  31.502  1.00  0.00    -0.237 OA
ATOM     92  O   UNL A   1      49.927  36.878  29.884  1.00  0.00    -0.744 OA
ENDBRANCH  88  89
ENDBRANCH  62  83
ENDBRANCH  36  37
ENDBRANCH  28  31
ENDBRANCH  26  27
ENDBRANCH  25  26
ENDBRANCH   1  25
TORSDOF 18
ENDMDL
MODEL 3
REMARK VINA RESULT:     -10.1      2.048      2.596
REMARK SMILES COc1ccccc1[C@H](C)Nc1nc(C)c(C(=O)NCCCCNC(=O)c2ccc(-c3c4nc(c(-c5ccc(S(=O)(=O)[O-])cc5)c5ccc([nH]5)c(-c5ccc(S(=O)(=O)[O-])cc5)c5nc(c(-c6ccc(S(=O)(=O)[O-])cc6)c6ccc3[nH]6)C=C5)C=C4)cc2)s1
REMARK SMILES IDX 21 1 20 2 19 3 17 4 18 5 16 7 12 8 13 9 87 10 14 11 15 12
REMARK SMILES IDX 11 13 9 15 10 16 8 17 3 18 4 19 5 20 7 21 6 22 2 23 1 24
REMARK SMILES IDX 22 25 23 26 24 27 25 28 26 30 27 31 28 32 86 33 29 34 85 35
REMARK SMILES IDX 30 36 31 37 32 38 79 39 33 40 84 41 78 42 80 43 34 44 83 45
REMARK SMILES IDX 77 46 76 47 35 49 65 50 46 51 64 52 47 53 50 54 63 55 81 56
REMARK SMILES IDX 48 57 49 58 62 60 82 61 51 62 36 63 37 64 45 65 38 66 44 67
REMARK SMILES IDX 39 68 40 69 41 70 42 71 43 72 66 73 67 74 75 75 68 76 74 77
REMARK SMILES IDX 69 78 70 79 71 80 72 81 73 82 52 83 53 84 61 85 54 86 60 87
REMARK SMILES IDX 55 88 56 89 57 90 58 91 59 92
REMARK H PARENT 19 6 11 14 24 29 80 48 50 59
REMARK Flexibility Score: inf
ROOT
ATOM      1  C   UNL A   1      35.760  22.425  23.887  1.00  0.00     0.023 C 
ENDROOT
BRANCH   1   2
ATOM      2  C   UNL A   1      34.401  22.607  23.215  1.00  0.00     0.116 C 
BRANCH   2   3
ATOM      3  N   UNL A   1      33.476  21.611  23.682  1.00  0.00    -0.351 N 
ATOM      4  C   UNL A   1      32.557  21.579  24.695  1.00  0.00     0.263 C 
ATOM      5  O   UNL A   1      32.001  20.476  24.783  1.00  0.00    -0.268 OA
ATOM      6  H   UNL A   1      33.511  20.775  23.163  1.00  0.00     0.163 HD
BRANCH   4   7
ATOM      7  C   UNL A   1      32.216  22.696  25.577  1.00  0.00     0.117 A 
ATOM      8  C   UNL A   1      31.088  24.790  26.246  1.00  0.00     0.184 A 
ATOM      9  N   UNL A   1      31.826  24.335  27.218  1.00  0.00    -0.225 NA
ATOM     10  S   UNL A   1      31.212  23.898  24.804  1.00  0.00    -0.092 S 
ATOM     11  C   UNL A   1      32.408  23.112  26.894  1.00  0.00     0.063 A 
ATOM     12  C   UNL A   1      33.069  22.487  28.065  1.00  0.00     0.068 C 
BRANCH   8  13
ATOM     13  N   UNL A   1      30.321  25.884  26.419  1.00  0.00    -0.355 N 
ATOM     14  H   UNL A   1      29.387  25.766  26.707  1.00  0.00     0.163 HD
BRANCH  13  15
ATOM     15  C   UNL A   1      30.822  27.232  26.200  1.00  0.00     0.112 C 
ATOM     16  C   UNL A   1      31.498  27.735  27.481  1.00  0.00     0.036 C 
BRANCH  15  17
ATOM     17  C   UNL A   1      31.595  27.246  24.896  1.00  0.00     0.016 A 
ATOM     18  C   UNL A   1      31.047  27.250  23.606  1.00  0.00     0.124 A 
ATOM     19  C   UNL A   1      31.872  27.258  22.473  1.00  0.00     0.047 A 
ATOM     20  C   UNL A   1      33.258  27.324  22.604  1.00  0.00     0.004 A 
ATOM     21  C   UNL A   1      33.002  27.331  24.999  1.00  0.00     0.010 A 
ATOM     22  C   UNL A   1      33.824  27.370  23.872  1.00  0.00     0.001 A 
BRANCH  18  23
ATOM     23  O   UNL A   1      29.699  27.171  23.379  1.00  0.00    -0.496 OA
ATOM     24  C   UNL A   1      29.186  28.423  22.923  1.00  0.00     0.278 C 
ENDBRANCH  18  23
ENDBRANCH  15  17
ENDBRANCH  13  15
ENDBRANCH   8  13
ENDBRANCH   4   7
ENDBRANCH   2   3
ENDBRANCH   1   2
BRANCH   1  25
ATOM     25  C   UNL A   1      36.176  23.579  24.797  1.00  0.00     0.023 C 
BRANCH  25  26
ATOM     26  C   UNL A   1      36.722  23.144  26.151  1.00  0.00     0.116 C 
BRANCH  26  27
ATOM     27  N   UNL A   1      37.827  22.199  26.060  1.00  0.00    -0.352 N 
ATOM     28  C   UNL A   1      39.156  22.425  26.333  1.00  0.00     0.251 C 
ATOM     29  H   UNL A   1      37.593  21.288  25.770  1.00  0.00     0.163 HD
ATOM     30  O   UNL A   1      39.991  21.555  26.135  1.00  0.00    -0.269 OA
BRANCH  28  31
ATOM     31  C   UNL A   1      39.551  23.763  26.815  1.00  0.00     0.039 A 
ATOM     32  C   UNL A   1      39.971  23.902  28.138  1.00  0.00     0.014 A 
ATOM     33  C   UNL A   1      39.593  24.844  25.931  1.00  0.00     0.014 A 
ATOM     34  C   UNL A   1      40.507  25.119  28.559  1.00  0.00     0.010 A 
ATOM     35  C   UNL A   1      40.195  26.028  26.331  1.00  0.00     0.010 A 
ATOM     36  C   UNL A   1      40.662  26.176  27.646  1.00  0.00    -0.014 A 
BRANCH  36  37
ATOM     37  C   UNL A   1      41.307  27.451  28.042  1.00  0.00     0.031 A 
ATOM     38  C   UNL A   1      42.799  27.591  27.944  1.00  0.00     0.074 A 
ATOM     39  C   UNL A   1      40.560  28.443  28.566  1.00  0.00     0.049 A 
ATOM     40  N   UNL A   1      43.561  28.580  28.331  1.00  0.00    -0.248 NA
ATOM     41  C   UNL A   1      43.535  26.456  27.362  1.00  0.00     0.031 C 
ATOM     42  C   UNL A   1      39.107  28.406  28.753  1.00  0.00     0.029 A 
ATOM     43  N   UNL A   1      40.925  29.674  29.048  1.00  0.00    -0.354 N 
ATOM     44  C   UNL A   1      44.864  28.179  28.065  1.00  0.00     0.074 A 
ATOM     45  C   UNL A   1      44.793  26.838  27.526  1.00  0.00     0.031 C 
ATOM     46  C   UNL A   1      38.703  29.570  29.289  1.00  0.00     0.029 A 
ATOM     47  C   UNL A   1      39.867  30.418  29.518  1.00  0.00     0.049 A 
ATOM     48  H   UNL A   1      41.855  29.995  29.057  1.00  0.00     0.167 HD
ATOM     49  C   UNL A   1      46.015  28.871  28.234  1.00  0.00     0.031 A 
ATOM     50  C   UNL A   1      39.842  31.644  30.076  1.00  0.00     0.031 A 
ATOM     51  C   UNL A   1      46.077  30.212  28.748  1.00  0.00     0.049 A 
ATOM     52  C   UNL A   1      41.132  32.399  30.241  1.00  0.00     0.074 A 
ATOM     53  C   UNL A   1      47.187  31.022  28.907  1.00  0.00     0.029 A 
ATOM     54  N   UNL A   1      44.982  30.943  29.182  1.00  0.00    -0.354 N 
ATOM     55  N   UNL A   1      42.350  32.024  29.931  1.00  0.00    -0.248 NA
ATOM     56  C   UNL A   1      41.042  33.747  30.819  1.00  0.00     0.031 C 
ATOM     57  C   UNL A   1      46.767  32.231  29.472  1.00  0.00     0.029 A 
ATOM     58  C   UNL A   1      45.390  32.190  29.620  1.00  0.00     0.049 A 
ATOM     59  H   UNL A   1      44.051  30.622  29.179  1.00  0.00     0.167 HD
ATOM     60  C   UNL A   1      43.169  33.101  30.251  1.00  0.00     0.074 A 
ATOM     61  C   UNL A   1      42.307  34.145  30.768  1.00  0.00     0.031 C 
ATOM     62  C   UNL A   1      44.515  33.216  30.125  1.00  0.00     0.031 A 
BRANCH  49  63
ATOM     63  C   UNL A   1      47.298  28.181  27.857  1.00  0.00    -0.014 A 
ATOM     64  C   UNL A   1      48.016  27.422  28.799  1.00  0.00     0.010 A 
ATOM     65  C   UNL A   1      47.781  28.275  26.540  1.00  0.00     0.010 A 
ATOM     66  C   UNL A   1      49.218  26.807  28.442  1.00  0.00     0.020 A 
ATOM     67  C   UNL A   1      48.970  27.637  26.172  1.00  0.00     0.020 A 
ATOM     68  C   UNL A   1      49.690  26.924  27.132  1.00  0.00     0.054 A 
BRANCH  68  69
ATOM     69  S   UNL A   1      51.247  26.103  26.692  1.00  0.00     0.124 S 
ATOM     70  O   UNL A   1      52.216  26.856  27.484  1.00  0.00    -0.237 OA
ATOM     71  O   UNL A   1      51.019  24.727  27.124  1.00  0.00    -0.237 OA
ATOM     72  O   UNL A   1      51.342  26.292  25.247  1.00  0.00    -0.744 OA
ENDBRANCH  68  69
ENDBRANCH  49  63
BRANCH  50  73
ATOM     73  C   UNL A   1      38.547  32.242  30.498  1.00  0.00    -0.014 A 
ATOM     74  C   UNL A   1      37.788  33.005  29.593  1.00  0.00     0.010 A 
ATOM     75  C   UNL A   1      38.059  32.042  31.802  1.00  0.00     0.010 A 
ATOM     76  C   UNL A   1      36.573  33.571  29.989  1.00  0.00     0.020 A 
ATOM     77  C   UNL A   1      36.832  32.586  32.194  1.00  0.00     0.020 A 
ATOM     78  C   UNL A   1      36.103  33.358  31.287  1.00  0.00     0.054 A 
BRANCH  78  79
ATOM     79  S   UNL A   1      34.499  34.059  31.764  1.00  0.00     0.124 S 
ATOM     80  O   UNL A   1      33.840  34.217  30.472  1.00  0.00    -0.237 OA
ATOM     81  O   UNL A   1      33.946  33.024  32.634  1.00  0.00    -0.237 OA
ATOM     82  O   UNL A   1      34.859  35.304  32.441  1.00  0.00    -0.744 OA
ENDBRANCH  78  79
ENDBRANCH  50  73
BRANCH  62  83
ATOM     83  C   UNL A   1      45.135  34.530  30.515  1.00  0.00    -0.014 A 
ATOM     84  C   UNL A   1      45.252  35.583  29.591  1.00  0.00     0.010 A 
ATOM     85  C   UNL A   1      45.548  34.731  31.844  1.00  0.00     0.010 A 
ATOM     86  C   UNL A   1      45.796  36.808  29.986  1.00  0.00     0.020 A 
ATOM     87  C   UNL A   1      46.069  35.962  32.248  1.00  0.00     0.020 A 
ATOM     88  C   UNL A   1      46.202  36.990  31.312  1.00  0.00     0.054 A 
BRANCH  88  89
ATOM     89  S   UNL A   1      46.855  38.604  31.814  1.00  0.00     0.124 S 
ATOM     90  O   UNL A   1      45.633  39.382  32.002  1.00  0.00    -0.237 OA
ATOM     91  O   UNL A   1      47.593  38.289  33.035  1.00  0.00    -0.237 OA
ATOM     92  O   UNL A   1      47.684  39.010  30.681  1.00  0.00    -0.744 OA
ENDBRANCH  88  89
ENDBRANCH  62  83
ENDBRANCH  36  37
ENDBRANCH  28  31
ENDBRANCH  26  27
ENDBRANCH  25  26
ENDBRANCH   1  25
TORSDOF 18
ENDMDL
