MODEL 1
REMARK VINA RESULT:     -10.5      0.000      0.000
REMARK SMILES CCc1ncc(CC(=O)NCCCCNC(=O)c2ccc(-c3c4nc(c(-c5ccc(S(=O)(=O)[O-])cc5)c5ccc([nH]5)c(-c5ccc(S(=O)(=O)[O-])cc5)c5nc(c(-c6ccc(S(=O)(=O)[O-])cc6)c6ccc3[nH]6)C=C5)C=C4)cc2)c(=O)[nH]1
REMARK SMILES IDX 13 1 12 2 11 3 10 4 8 5 9 6 7 8 6 9 3 10 4 11 80 12 5 13
REMARK SMILES IDX 78 14 79 16 2 17 1 18 14 19 15 20 16 21 17 23 18 24 19 25
REMARK SMILES IDX 77 26 20 27 76 28 21 29 22 30 23 31 70 32 24 33 75 34 69 35
REMARK SMILES IDX 71 36 25 37 74 38 68 39 67 40 26 42 56 43 37 44 55 45 38 46
REMARK SMILES IDX 41 47 54 48 72 49 39 50 40 51 53 53 73 54 42 55 27 56 28 57
REMARK SMILES IDX 36 58 29 59 35 60 30 61 31 62 32 63 33 64 34 65 57 66 58 67
REMARK SMILES IDX 66 68 59 69 65 70 60 71 61 72 62 73 63 74 64 75 43 76 44 77
REMARK SMILES IDX 52 78 45 79 51 80 46 81 47 82 48 83 49 84 50 85
REMARK H PARENT 10 7 80 15 15 22 71 41 41 52
REMARK Flexibility Score: inf
ROOT
ATOM      1  C   UNL A   1      32.860  27.383  25.701  1.00  0.00     0.023 C 
ENDROOT
BRANCH   1   2
ATOM      2  C   UNL A   1      31.439  27.163  26.227  1.00  0.00     0.023 C 
BRANCH   2   3
ATOM      3  C   UNL A   1      30.676  26.037  25.525  1.00  0.00     0.116 C 
BRANCH   3   4
ATOM      4  N   UNL A   1      30.242  25.025  26.469  1.00  0.00    -0.356 N 
ATOM      5  C   UNL A   1      30.854  23.854  26.812  1.00  0.00     0.224 C 
ATOM      6  O   UNL A   1      30.261  23.071  27.555  1.00  0.00    -0.275 OA
ATOM      7  H   UNL A   1      29.388  25.207  26.925  1.00  0.00     0.163 HD
BRANCH   5   8
ATOM      8  C   UNL A   1      32.251  23.540  26.295  1.00  0.00     0.143 C 
BRANCH   8   9
ATOM      9  C   UNL A   1      32.419  22.085  25.990  1.00  0.00     0.045 A 
ATOM     10  C   UNL A   1      32.920  19.467  25.363  1.00  0.00     0.108 A 
ATOM     11  N   UNL A   1      32.056  20.115  24.649  1.00  0.00    -0.243 NA
ATOM     12  N   UNL A   1      33.580  20.026  26.418  1.00  0.00    -0.310 N 
ATOM     13  C   UNL A   1      31.843  21.431  24.970  1.00  0.00     0.123 A 
ATOM     14  C   UNL A   1      33.329  21.294  26.844  1.00  0.00     0.254 A 
ATOM     15  H   UNL A   1      34.261  19.492  26.889  1.00  0.00     0.171 HD
ATOM     16  O   UNL A   1      33.848  21.744  27.859  1.00  0.00    -0.269 OA
BRANCH  10  17
ATOM     17  C   UNL A   1      33.265  18.032  25.040  1.00  0.00     0.072 C 
ATOM     18  C   UNL A   1      33.044  17.701  23.573  1.00  0.00     0.012 C 
ENDBRANCH  10  17
ENDBRANCH   8   9
ENDBRANCH   5   8
ENDBRANCH   3   4
ENDBRANCH   2   3
ENDBRANCH   1   2
BRANCH   1  19
ATOM     19  C   UNL A   1      33.827  28.000  26.704  1.00  0.00     0.116 C 
BRANCH  19  20
ATOM     20  N   UNL A   1      33.486  29.370  27.050  1.00  0.00    -0.352 N 
ATOM     21  C   UNL A   1      34.236  30.298  27.730  1.00  0.00     0.251 C 
ATOM     22  H   UNL A   1      32.597  29.675  26.756  1.00  0.00     0.163 HD
ATOM     23  O   UNL A   1      33.727  31.365  28.067  1.00  0.00    -0.269 OA
BRANCH  21  24
ATOM     24  C   UNL A   1      35.641  29.998  28.080  1.00  0.00     0.039 A 
ATOM     25  C   UNL A   1      35.940  29.584  29.381  1.00  0.00     0.014 A 
ATOM     26  C   UNL A   1      36.662  30.122  27.133  1.00  0.00     0.014 A 
ATOM     27  C   UNL A   1      37.254  29.256  29.717  1.00  0.00     0.010 A 
ATOM     28  C   UNL A   1      37.954  29.711  27.446  1.00  0.00     0.010 A 
ATOM     29  C   UNL A   1      38.269  29.292  28.746  1.00  0.00    -0.014 A 
BRANCH  29  30
ATOM     30  C   UNL A   1      39.669  28.924  29.086  1.00  0.00     0.031 A 
ATOM     31  C   UNL A   1      40.570  29.926  29.761  1.00  0.00     0.074 A 
ATOM     32  C   UNL A   1      40.142  27.708  28.754  1.00  0.00     0.049 A 
ATOM     33  N   UNL A   1      41.822  29.797  30.120  1.00  0.00    -0.248 NA
ATOM     34  C   UNL A   1      39.998  31.251  30.046  1.00  0.00     0.031 C 
ATOM     35  C   UNL A   1      39.386  26.667  28.052  1.00  0.00     0.029 A 
ATOM     36  N   UNL A   1      41.374  27.140  28.961  1.00  0.00    -0.354 N 
ATOM     37  C   UNL A   1      42.187  31.023  30.664  1.00  0.00     0.074 A 
ATOM     38  C   UNL A   1      41.047  31.903  30.523  1.00  0.00     0.031 C 
ATOM     39  C   UNL A   1      40.161  25.579  27.914  1.00  0.00     0.029 A 
ATOM     40  C   UNL A   1      41.478  25.856  28.481  1.00  0.00     0.049 A 
ATOM     41  H   UNL A   1      42.114  27.608  29.412  1.00  0.00     0.167 HD
ATOM     42  C   UNL A   1      43.352  31.381  31.256  1.00  0.00     0.031 A 
ATOM     43  C   UNL A   1      42.516  24.997  28.489  1.00  0.00     0.031 A 
ATOM     44  C   UNL A   1      44.485  30.503  31.393  1.00  0.00     0.049 A 
ATOM     45  C   UNL A   1      43.806  25.414  29.143  1.00  0.00     0.074 A 
ATOM     46  C   UNL A   1      45.698  30.753  32.008  1.00  0.00     0.029 A 
ATOM     47  N   UNL A   1      44.545  29.206  30.905  1.00  0.00    -0.354 N 
ATOM     48  N   UNL A   1      44.110  26.558  29.710  1.00  0.00    -0.248 NA
ATOM     49  C   UNL A   1      44.883  24.417  29.177  1.00  0.00     0.031 C 
ATOM     50  C   UNL A   1      46.512  29.627  31.844  1.00  0.00     0.029 A 
ATOM     51  C   UNL A   1      45.781  28.650  31.188  1.00  0.00     0.049 A 
ATOM     52  H   UNL A   1      43.815  28.748  30.427  1.00  0.00     0.167 HD
ATOM     53  C   UNL A   1      45.406  26.408  30.195  1.00  0.00     0.074 A 
ATOM     54  C   UNL A   1      45.817  25.057  29.868  1.00  0.00     0.031 C 
ATOM     55  C   UNL A   1      46.181  27.305  30.853  1.00  0.00     0.031 A 
BRANCH  42  56
ATOM     56  C   UNL A   1      43.453  32.786  31.795  1.00  0.00    -0.014 A 
ATOM     57  C   UNL A   1      43.925  33.840  30.990  1.00  0.00     0.010 A 
ATOM     58  C   UNL A   1      43.058  33.061  33.116  1.00  0.00     0.010 A 
ATOM     59  C   UNL A   1      44.051  35.130  31.512  1.00  0.00     0.020 A 
ATOM     60  C   UNL A   1      43.150  34.358  33.632  1.00  0.00     0.020 A 
ATOM     61  C   UNL A   1      43.666  35.379  32.833  1.00  0.00     0.054 A 
BRANCH  61  62
ATOM     62  S   UNL A   1      43.836  37.065  33.481  1.00  0.00     0.124 S 
ATOM     63  O   UNL A   1      43.872  37.856  32.254  1.00  0.00    -0.237 OA
ATOM     64  O   UNL A   1      42.632  37.219  34.292  1.00  0.00    -0.237 OA
ATOM     65  O   UNL A   1      45.089  37.023  34.231  1.00  0.00    -0.744 OA
ENDBRANCH  61  62
ENDBRANCH  42  56
BRANCH  43  66
ATOM     66  C   UNL A   1      42.366  23.651  27.870  1.00  0.00    -0.014 A 
ATOM     67  C   UNL A   1      42.875  23.387  26.585  1.00  0.00     0.010 A 
ATOM     68  C   UNL A   1      41.734  22.613  28.580  1.00  0.00     0.010 A 
ATOM     69  C   UNL A   1      42.741  22.116  26.018  1.00  0.00     0.020 A 
ATOM     70  C   UNL A   1      41.625  21.334  28.029  1.00  0.00     0.020 A 
ATOM     71  C   UNL A   1      42.122  21.095  26.746  1.00  0.00     0.054 A 
BRANCH  71  72
ATOM     72  S   UNL A   1      42.018  19.438  26.015  1.00  0.00     0.124 S 
ATOM     73  O   UNL A   1      42.859  19.574  24.831  1.00  0.00    -0.237 OA
ATOM     74  O   UNL A   1      42.552  18.591  27.078  1.00  0.00    -0.237 OA
ATOM     75  O   UNL A   1      40.589  19.269  25.754  1.00  0.00    -0.744 OA
ENDBRANCH  71  72
ENDBRANCH  43  66
BRANCH  55  76
ATOM     76  C   UNL A   1      47.544  26.845  31.303  1.00  0.00    -0.014 A 
ATOM     77  C   UNL A   1      47.737  26.222  32.549  1.00  0.00     0.010 A 
ATOM     78  C   UNL A   1      48.644  27.004  30.440  1.00  0.00     0.010 A 
ATOM     79  C   UNL A   1      49.013  25.808  32.942  1.00  0.00     0.020 A 
ATOM     80  C   UNL A   1      49.915  26.561  30.815  1.00  0.00     0.020 A 
ATOM     81  C   UNL A   1      50.094  25.982  32.072  1.00  0.00     0.054 A 
BRANCH  81  82
ATOM     82  S   UNL A   1      51.735  25.413  32.595  1.00  0.00     0.124 S 
ATOM     83  O   UNL A   1      51.673  23.987  32.291  1.00  0.00    -0.237 OA
ATOM     84  O   UNL A   1      52.632  26.199  31.749  1.00  0.00    -0.237 OA
ATOM     85  O   UNL A   1      51.782  25.746  34.018  1.00  0.00    -0.744 OA
ENDBRANCH  81  82
ENDBRANCH  55  76
ENDBRANCH  29  30
ENDBRANCH  21  24
ENDBRANCH  19  20
ENDBRANCH   1  19
TORSDOF 16
ENDMDL
MODEL 2
REMARK VINA RESULT:     -10.4      4.057     10.909
REMARK SMILES CCc1ncc(CC(=O)NCCCCNC(=O)c2ccc(-c3c4nc(c(-c5ccc(S(=O)(=O)[O-])cc5)c5ccc([nH]5)c(-c5ccc(S(=O)(=O)[O-])cc5)c5nc(c(-c6ccc(S(=O)(=O)[O-])cc6)c6ccc3[nH]6)C=C5)C=C4)cc2)c(=O)[nH]1
REMARK SMILES IDX 13 1 12 2 11 3 10 4 8 5 9 6 7 8 6 9 3 10 4 11 80 12 5 13
REMARK SMILES IDX 78 14 79 16 2 17 1 18 14 19 15 20 16 21 17 23 18 24 19 25
REMARK SMILES IDX 77 26 20 27 76 28 21 29 22 30 23 31 70 32 24 33 75 34 69 35
REMARK SMILES IDX 71 36 25 37 74 38 68 39 67 40 26 42 56 43 37 44 55 45 38 46
REMARK SMILES IDX 41 47 54 48 72 49 39 50 40 51 53 53 73 54 42 55 27 56 28 57
REMARK SMILES IDX 36 58 29 59 35 60 30 61 31 62 32 63 33 64 34 65 57 66 58 67
REMARK SMILES IDX 66 68 59 69 65 70 60 71 61 72 62 73 63 74 64 75 43 76 44 77
REMARK SMILES IDX 52 78 45 79 51 80 46 81 47 82 48 83 49 84 50 85
REMARK H PARENT 10 7 80 15 15 22 71 41 41 52
REMARK Flexibility Score: inf
ROOT
ATOM      1  C   UNL A   1      40.847  20.227  27.082  1.00  0.00     0.023 C 
ENDROOT
BRANCH   1   2
ATOM      2  C   UNL A   1      42.235  19.585  27.166  1.00  0.00     0.023 C 
BRANCH   2   3
ATOM      3  C   UNL A   1      42.742  19.007  25.843  1.00  0.00     0.116 C 
BRANCH   3   4
ATOM      4  N   UNL A   1      44.166  18.736  25.897  1.00  0.00    -0.356 N 
ATOM      5  C   UNL A   1      45.179  19.336  25.206  1.00  0.00     0.224 C 
ATOM      6  O   UNL A   1      46.319  18.879  25.310  1.00  0.00    -0.275 OA
ATOM      7  H   UNL A   1      44.440  18.021  26.515  1.00  0.00     0.163 HD
BRANCH   5   8
ATOM      8  C   UNL A   1      44.899  20.557  24.342  1.00  0.00     0.143 C 
BRANCH   8   9
ATOM      9  C   UNL A   1      45.017  21.830  25.118  1.00  0.00     0.045 A 
ATOM     10  C   UNL A   1      45.301  24.252  26.365  1.00  0.00     0.108 A 
ATOM     11  N   UNL A   1      46.113  23.297  26.686  1.00  0.00    -0.243 NA
ATOM     12  N   UNL A   1      44.305  24.102  25.445  1.00  0.00    -0.310 N 
ATOM     13  C   UNL A   1      45.964  22.103  26.029  1.00  0.00     0.123 A 
ATOM     14  C   UNL A   1      44.047  22.910  24.841  1.00  0.00     0.254 A 
ATOM     15  H   UNL A   1      43.753  24.883  25.210  1.00  0.00     0.171 HD
ATOM     16  O   UNL A   1      43.080  22.762  24.101  1.00  0.00    -0.269 OA
BRANCH  10  17
ATOM     17  C   UNL A   1      45.435  25.620  26.991  1.00  0.00     0.072 C 
ATOM     18  C   UNL A   1      46.880  25.976  27.299  1.00  0.00     0.012 C 
ENDBRANCH  10  17
ENDBRANCH   8   9
ENDBRANCH   5   8
ENDBRANCH   3   4
ENDBRANCH   2   3
ENDBRANCH   1   2
BRANCH   1  19
ATOM     19  C   UNL A   1      40.826  21.639  26.510  1.00  0.00     0.116 C 
BRANCH  19  20
ATOM     20  N   UNL A   1      39.585  21.952  25.820  1.00  0.00    -0.352 N 
ATOM     21  C   UNL A   1      38.805  23.078  25.920  1.00  0.00     0.251 C 
ATOM     22  H   UNL A   1      39.260  21.264  25.196  1.00  0.00     0.163 HD
ATOM     23  O   UNL A   1      37.705  23.108  25.374  1.00  0.00    -0.269 OA
BRANCH  21  24
ATOM     24  C   UNL A   1      39.280  24.236  26.708  1.00  0.00     0.039 A 
ATOM     25  C   UNL A   1      40.105  25.179  26.090  1.00  0.00     0.014 A 
ATOM     26  C   UNL A   1      38.916  24.395  28.048  1.00  0.00     0.014 A 
ATOM     27  C   UNL A   1      40.528  26.301  26.806  1.00  0.00     0.010 A 
ATOM     28  C   UNL A   1      39.266  25.555  28.731  1.00  0.00     0.010 A 
ATOM     29  C   UNL A   1      40.093  26.512  28.124  1.00  0.00    -0.014 A 
BRANCH  29  30
ATOM     30  C   UNL A   1      40.519  27.713  28.890  1.00  0.00     0.031 A 
ATOM     31  C   UNL A   1      41.869  27.743  29.558  1.00  0.00     0.074 A 
ATOM     32  C   UNL A   1      39.681  28.760  29.018  1.00  0.00     0.049 A 
ATOM     33  N   UNL A   1      42.410  28.690  30.281  1.00  0.00    -0.248 NA
ATOM     34  C   UNL A   1      42.709  26.542  29.417  1.00  0.00     0.031 C 
ATOM     35  C   UNL A   1      38.327  28.834  28.462  1.00  0.00     0.029 A 
ATOM     36  N   UNL A   1      39.842  29.962  29.658  1.00  0.00    -0.354 N 
ATOM     37  C   UNL A   1      43.646  28.197  30.686  1.00  0.00     0.074 A 
ATOM     38  C   UNL A   1      43.744  26.843  30.188  1.00  0.00     0.031 C 
ATOM     39  C   UNL A   1      37.795  30.029  28.760  1.00  0.00     0.029 A 
ATOM     40  C   UNL A   1      38.750  30.792  29.560  1.00  0.00     0.049 A 
ATOM     41  H   UNL A   1      40.663  30.209  30.142  1.00  0.00     0.167 HD
ATOM     42  C   UNL A   1      44.626  28.821  31.383  1.00  0.00     0.031 A 
ATOM     43  C   UNL A   1      38.536  32.024  30.059  1.00  0.00     0.031 A 
ATOM     44  C   UNL A   1      44.524  30.169  31.879  1.00  0.00     0.049 A 
ATOM     45  C   UNL A   1      39.632  32.699  30.837  1.00  0.00     0.074 A 
ATOM     46  C   UNL A   1      45.473  30.908  32.563  1.00  0.00     0.029 A 
ATOM     47  N   UNL A   1      43.406  30.979  31.747  1.00  0.00    -0.354 N 
ATOM     48  N   UNL A   1      40.820  32.240  31.154  1.00  0.00    -0.248 NA
ATOM     49  C   UNL A   1      39.368  34.065  31.306  1.00  0.00     0.031 C 
ATOM     50  C   UNL A   1      44.909  32.145  32.893  1.00  0.00     0.029 A 
ATOM     51  C   UNL A   1      43.634  32.203  32.352  1.00  0.00     0.049 A 
ATOM     52  H   UNL A   1      42.573  30.722  31.288  1.00  0.00     0.167 HD
ATOM     53  C   UNL A   1      41.456  33.273  31.836  1.00  0.00     0.074 A 
ATOM     54  C   UNL A   1      40.525  34.384  31.868  1.00  0.00     0.031 C 
ATOM     55  C   UNL A   1      42.697  33.300  32.382  1.00  0.00     0.031 A 
BRANCH  42  56
ATOM     56  C   UNL A   1      45.890  28.043  31.649  1.00  0.00    -0.014 A 
ATOM     57  C   UNL A   1      46.038  27.275  32.820  1.00  0.00     0.010 A 
ATOM     58  C   UNL A   1      46.938  28.065  30.711  1.00  0.00     0.010 A 
ATOM     59  C   UNL A   1      47.229  26.590  33.073  1.00  0.00     0.020 A 
ATOM     60  C   UNL A   1      48.119  27.353  30.945  1.00  0.00     0.020 A 
ATOM     61  C   UNL A   1      48.265  26.637  32.135  1.00  0.00     0.054 A 
BRANCH  61  62
ATOM     62  S   UNL A   1      49.797  25.734  32.490  1.00  0.00     0.124 S 
ATOM     63  O   UNL A   1      50.573  26.733  33.220  1.00  0.00    -0.237 OA
ATOM     64  O   UNL A   1      49.325  24.603  33.284  1.00  0.00    -0.237 OA
ATOM     65  O   UNL A   1      50.312  25.391  31.167  1.00  0.00    -0.744 OA
ENDBRANCH  61  62
ENDBRANCH  42  56
BRANCH  43  66
ATOM     66  C   UNL A   1      37.231  32.702  29.819  1.00  0.00    -0.014 A 
ATOM     67  C   UNL A   1      36.169  32.567  30.731  1.00  0.00     0.010 A 
ATOM     68  C   UNL A   1      37.055  33.515  28.683  1.00  0.00     0.010 A 
ATOM     69  C   UNL A   1      34.953  33.218  30.504  1.00  0.00     0.020 A 
ATOM     70  C   UNL A   1      35.852  34.191  28.469  1.00  0.00     0.020 A 
ATOM     71  C   UNL A   1      34.804  34.032  29.376  1.00  0.00     0.054 A 
BRANCH  71  72
ATOM     72  S   UNL A   1      33.239  34.918  29.138  1.00  0.00     0.124 S 
ATOM     73  O   UNL A   1      33.697  36.236  28.712  1.00  0.00    -0.237 OA
ATOM     74  O   UNL A   1      32.577  34.115  28.113  1.00  0.00    -0.237 OA
ATOM     75  O   UNL A   1      32.613  34.867  30.458  1.00  0.00    -0.744 OA
ENDBRANCH  71  72
ENDBRANCH  43  66
BRANCH  55  76
ATOM     76  C   UNL A   1      43.143  34.587  33.028  1.00  0.00    -0.014 A 
ATOM     77  C   UNL A   1      43.761  35.609  32.285  1.00  0.00     0.010 A 
ATOM     78  C   UNL A   1      42.899  34.790  34.399  1.00  0.00     0.010 A 
ATOM     79  C   UNL A   1      44.166  36.791  32.911  1.00  0.00     0.020 A 
ATOM     80  C   UNL A   1      43.273  35.984  35.022  1.00  0.00     0.020 A 
ATOM     81  C   UNL A   1      43.921  36.969  34.276  1.00  0.00     0.054 A 
BRANCH  81  82
ATOM     82  S   UNL A   1      44.435  38.523  35.060  1.00  0.00     0.124 S 
ATOM     83  O   UNL A   1      44.107  38.279  36.461  1.00  0.00    -0.237 OA
ATOM     84  O   UNL A   1      45.862  38.582  34.748  1.00  0.00    -0.237 OA
ATOM     85  O   UNL A   1      43.616  39.534  34.394  1.00  0.00    -0.744 OA
ENDBRANCH  81  82
ENDBRANCH  55  76
ENDBRANCH  29  30
ENDBRANCH  21  24
ENDBRANCH  19  20
ENDBRANCH   1  19
TORSDOF 16
ENDMDL
MODEL 3
REMARK VINA RESULT:     -10.3      3.850      6.254
REMARK SMILES CCc1ncc(CC(=O)NCCCCNC(=O)c2ccc(-c3c4nc(c(-c5ccc(S(=O)(=O)[O-])cc5)c5ccc([nH]5)c(-c5ccc(S(=O)(=O)[O-])cc5)c5nc(c(-c6ccc(S(=O)(=O)[O-])cc6)c6ccc3[nH]6)C=C5)C=C4)cc2)c(=O)[nH]1
REMARK SMILES IDX 13 1 12 2 11 3 10 4 8 5 9 6 7 8 6 9 3 10 4 11 80 12 5 13
REMARK SMILES IDX 78 14 79 16 2 17 1 18 14 19 15 20 16 21 17 23 18 24 19 25
REMARK SMILES IDX 77 26 20 27 76 28 21 29 22 30 23 31 70 32 24 33 75 34 69 35
REMARK SMILES IDX 71 36 25 37 74 38 68 39 67 40 26 42 56 43 37 44 55 45 38 46
REMARK SMILES IDX 41 47 54 48 72 49 39 50 40 51 53 53 73 54 42 55 27 56 28 57
REMARK SMILES IDX 36 58 29 59 35 60 30 61 31 62 32 63 33 64 34 65 57 66 58 67
REMARK SMILES IDX 66 68 59 69 65 70 60 71 61 72 62 73 63 74 64 75 43 76 44 77
REMARK SMILES IDX 52 78 45 79 51 80 46 81 47 82 48 83 49 84 50 85
REMARK H PARENT 10 7 80 15 15 22 71 41 41 52
REMARK Flexibility Score: inf
ROOT
ATOM      1  C   UNL A   1      34.731  33.004  30.173  1.00  0.00     0.023 C 
ENDROOT
BRANCH   1   2
ATOM      2  C   UNL A   1      36.053  33.417  30.826  1.00  0.00     0.023 C 
BRANCH   2   3
ATOM      3  C   UNL A   1      35.897  34.366  32.016  1.00  0.00     0.116 C 
BRANCH   3   4
ATOM      4  N   UNL A   1      37.184  34.859  32.471  1.00  0.00    -0.356 N 
ATOM      5  C   UNL A   1      37.949  34.424  33.514  1.00  0.00     0.224 C 
ATOM      6  O   UNL A   1      38.964  35.056  33.808  1.00  0.00    -0.275 OA
ATOM      7  H   UNL A   1      37.556  35.611  31.956  1.00  0.00     0.163 HD
BRANCH   5   8
ATOM      8  C   UNL A   1      37.555  33.171  34.282  1.00  0.00     0.143 C 
BRANCH   8   9
ATOM      9  C   UNL A   1      38.434  32.009  33.943  1.00  0.00     0.045 A 
ATOM     10  C   UNL A   1      39.951  29.777  33.478  1.00  0.00     0.108 A 
ATOM     11  N   UNL A   1      40.533  30.824  33.968  1.00  0.00    -0.243 NA
ATOM     12  N   UNL A   1      38.622  29.741  33.173  1.00  0.00    -0.310 N 
ATOM     13  C   UNL A   1      39.745  31.918  34.214  1.00  0.00     0.123 A 
ATOM     14  C   UNL A   1      37.817  30.831  33.298  1.00  0.00     0.254 A 
ATOM     15  H   UNL A   1      38.231  28.897  32.850  1.00  0.00     0.171 HD
ATOM     16  O   UNL A   1      36.652  30.816  32.916  1.00  0.00    -0.269 OA
BRANCH  10  17
ATOM     17  C   UNL A   1      40.729  28.504  33.237  1.00  0.00     0.072 C 
ATOM     18  C   UNL A   1      42.202  28.654  33.581  1.00  0.00     0.012 C 
ENDBRANCH  10  17
ENDBRANCH   8   9
ENDBRANCH   5   8
ENDBRANCH   3   4
ENDBRANCH   2   3
ENDBRANCH   1   2
BRANCH   1  19
ATOM     19  C   UNL A   1      34.797  32.796  28.665  1.00  0.00     0.116 C 
BRANCH  19  20
ATOM     20  N   UNL A   1      33.992  31.673  28.213  1.00  0.00    -0.352 N 
ATOM     21  C   UNL A   1      34.387  30.386  27.940  1.00  0.00     0.251 C 
ATOM     22  H   UNL A   1      33.034  31.860  28.086  1.00  0.00     0.163 HD
ATOM     23  O   UNL A   1      33.595  29.603  27.420  1.00  0.00    -0.269 OA
BRANCH  21  24
ATOM     24  C   UNL A   1      35.769  29.958  28.246  1.00  0.00     0.039 A 
ATOM     25  C   UNL A   1      36.741  30.052  27.247  1.00  0.00     0.014 A 
ATOM     26  C   UNL A   1      36.108  29.466  29.510  1.00  0.00     0.014 A 
ATOM     27  C   UNL A   1      38.060  29.693  27.530  1.00  0.00     0.010 A 
ATOM     28  C   UNL A   1      37.437  29.191  29.814  1.00  0.00     0.010 A 
ATOM     29  C   UNL A   1      38.425  29.282  28.824  1.00  0.00    -0.014 A 
BRANCH  29  30
ATOM     30  C   UNL A   1      39.830  28.917  29.143  1.00  0.00     0.031 A 
ATOM     31  C   UNL A   1      40.736  29.916  29.816  1.00  0.00     0.074 A 
ATOM     32  C   UNL A   1      40.304  27.705  28.795  1.00  0.00     0.049 A 
ATOM     33  N   UNL A   1      41.993  29.789  30.158  1.00  0.00    -0.248 NA
ATOM     34  C   UNL A   1      40.163  31.237  30.119  1.00  0.00     0.031 C 
ATOM     35  C   UNL A   1      39.544  26.667  28.093  1.00  0.00     0.029 A 
ATOM     36  N   UNL A   1      41.541  27.140  28.982  1.00  0.00    -0.354 N 
ATOM     37  C   UNL A   1      42.360  31.013  30.708  1.00  0.00     0.074 A 
ATOM     38  C   UNL A   1      41.216  31.889  30.589  1.00  0.00     0.031 C 
ATOM     39  C   UNL A   1      40.321  25.584  27.937  1.00  0.00     0.029 A 
ATOM     40  C   UNL A   1      41.644  25.861  28.490  1.00  0.00     0.049 A 
ATOM     41  H   UNL A   1      42.284  27.607  29.427  1.00  0.00     0.167 HD
ATOM     42  C   UNL A   1      43.532  31.369  31.288  1.00  0.00     0.031 A 
ATOM     43  C   UNL A   1      42.685  25.006  28.477  1.00  0.00     0.031 A 
ATOM     44  C   UNL A   1      44.669  30.495  31.403  1.00  0.00     0.049 A 
ATOM     45  C   UNL A   1      43.981  25.422  29.119  1.00  0.00     0.074 A 
ATOM     46  C   UNL A   1      45.889  30.745  32.006  1.00  0.00     0.029 A 
ATOM     47  N   UNL A   1      44.728  29.202  30.904  1.00  0.00    -0.354 N 
ATOM     48  N   UNL A   1      44.288  26.562  29.692  1.00  0.00    -0.248 NA
ATOM     49  C   UNL A   1      45.062  24.430  29.132  1.00  0.00     0.031 C 
ATOM     50  C   UNL A   1      46.705  29.623  31.822  1.00  0.00     0.029 A 
ATOM     51  C   UNL A   1      45.969  28.648  31.167  1.00  0.00     0.049 A 
ATOM     52  H   UNL A   1      43.994  28.745  30.431  1.00  0.00     0.167 HD
ATOM     53  C   UNL A   1      45.590  26.413  30.159  1.00  0.00     0.074 A 
ATOM     54  C   UNL A   1      46.002  25.067  29.816  1.00  0.00     0.031 C 
ATOM     55  C   UNL A   1      46.371  27.308  30.815  1.00  0.00     0.031 A 
BRANCH  42  56
ATOM     56  C   UNL A   1      43.634  32.770  31.838  1.00  0.00    -0.014 A 
ATOM     57  C   UNL A   1      44.015  33.847  31.015  1.00  0.00     0.010 A 
ATOM     58  C   UNL A   1      43.331  33.018  33.188  1.00  0.00     0.010 A 
ATOM     59  C   UNL A   1      44.144  35.134  31.544  1.00  0.00     0.020 A 
ATOM     60  C   UNL A   1      43.425  34.311  33.714  1.00  0.00     0.020 A 
ATOM     61  C   UNL A   1      43.852  35.356  32.893  1.00  0.00     0.054 A 
BRANCH  61  62
ATOM     62  S   UNL A   1      44.024  37.038  33.551  1.00  0.00     0.124 S 
ATOM     63  O   UNL A   1      42.687  37.291  34.081  1.00  0.00    -0.237 OA
ATOM     64  O   UNL A   1      45.076  36.885  34.551  1.00  0.00    -0.237 OA
ATOM     65  O   UNL A   1      44.390  37.832  32.381  1.00  0.00    -0.744 OA
ENDBRANCH  61  62
ENDBRANCH  42  56
BRANCH  43  66
ATOM     66  C   UNL A   1      42.532  23.665  27.849  1.00  0.00    -0.014 A 
ATOM     67  C   UNL A   1      42.907  23.448  26.511  1.00  0.00     0.010 A 
ATOM     68  C   UNL A   1      42.033  22.584  28.601  1.00  0.00     0.010 A 
ATOM     69  C   UNL A   1      42.773  22.181  25.933  1.00  0.00     0.020 A 
ATOM     70  C   UNL A   1      41.927  21.311  28.037  1.00  0.00     0.020 A 
ATOM     71  C   UNL A   1      42.288  21.119  26.703  1.00  0.00     0.054 A 
BRANCH  71  72
ATOM     72  S   UNL A   1      42.184  19.471  25.951  1.00  0.00     0.124 S 
ATOM     73  O   UNL A   1      43.068  19.606  24.798  1.00  0.00    -0.237 OA
ATOM     74  O   UNL A   1      42.667  18.605  27.023  1.00  0.00    -0.237 OA
ATOM     75  O   UNL A   1      40.763  19.328  25.638  1.00  0.00    -0.744 OA
ENDBRANCH  71  72
ENDBRANCH  43  66
BRANCH  55  76
ATOM     76  C   UNL A   1      47.740  26.849  31.245  1.00  0.00    -0.014 A 
ATOM     77  C   UNL A   1      47.949  26.205  32.477  1.00  0.00     0.010 A 
ATOM     78  C   UNL A   1      48.832  27.033  30.375  1.00  0.00     0.010 A 
ATOM     79  C   UNL A   1      49.231  25.793  32.851  1.00  0.00     0.020 A 
ATOM     80  C   UNL A   1      50.109  26.592  30.730  1.00  0.00     0.020 A 
ATOM     81  C   UNL A   1      50.304  25.991  31.975  1.00  0.00     0.054 A 
BRANCH  81  82
ATOM     82  S   UNL A   1      51.953  25.424  32.473  1.00  0.00     0.124 S 
ATOM     83  O   UNL A   1      52.185  26.196  33.690  1.00  0.00    -0.237 OA
ATOM     84  O   UNL A   1      51.754  23.989  32.666  1.00  0.00    -0.237 OA
ATOM     85  O   UNL A   1      52.801  25.782  31.337  1.00  0.00    -0.744 OA
ENDBRANCH  81  82
ENDBRANCH  55  76
ENDBRANCH  29  30
ENDBRANCH  21  24
ENDBRANCH  19  20
ENDBRANCH   1  19
TORSDOF 16
ENDMDL
