MODEL 1
REMARK VINA RESULT:     -11.9      0.000      0.000
REMARK SMILES Cc1nsc(N[C@H](C)c2cccc(Br)c2)c1C(=O)NCCCCNC(=O)c1ccc(-c2c3nc(c(-c4ccc(S(=O)(=O)[O-])cc4)c4ccc([nH]4)c(-c4ccc(S(=O)(=O)[O-])cc4)c4nc(c(-c5ccc(S(=O)(=O)[O-])cc5)c5ccc2[nH]5)C=C4)C=C3)cc1
REMARK SMILES IDX 21 1 20 2 19 3 17 4 18 5 16 7 1 8 2 9 3 10 4 11 5 12 6 13
REMARK SMILES IDX 7 15 8 16 9 17 10 18 15 19 11 20 13 21 12 22 14 23 22 24
REMARK SMILES IDX 23 25 24 26 25 27 26 29 27 30 28 31 86 32 29 33 85 34 30 35
REMARK SMILES IDX 31 36 32 37 79 38 33 39 84 40 78 41 80 42 34 43 83 44 77 45
REMARK SMILES IDX 76 46 35 48 65 49 46 50 64 51 47 52 50 53 63 54 81 55 48 56
REMARK SMILES IDX 49 57 62 59 82 60 51 61 36 62 37 63 45 64 38 65 44 66 39 67
REMARK SMILES IDX 40 68 41 69 42 70 43 71 66 72 67 73 75 74 68 75 74 76 69 77
REMARK SMILES IDX 70 78 71 79 72 80 73 81 52 82 53 83 61 84 54 85 60 86 55 87
REMARK SMILES IDX 56 88 57 89 58 90 59 91
REMARK H PARENT 19 6 6 14 24 28 80 47 50 58
REMARK Flexibility Score: inf
ROOT
ATOM      1  C   UNL A   1      36.042  21.138  25.347  1.00  0.00     0.023 C 
ENDROOT
BRANCH   1   2
ATOM      2  C   UNL A   1      35.343  22.311  26.028  1.00  0.00     0.116 C 
BRANCH   2   3
ATOM      3  N   UNL A   1      33.912  22.321  25.889  1.00  0.00    -0.352 N 
ATOM      4  C   UNL A   1      33.001  22.995  25.117  1.00  0.00     0.256 C 
ATOM      5  O   UNL A   1      31.850  22.567  25.298  1.00  0.00    -0.269 OA
ATOM      6  H   UNL A   1      33.477  21.685  26.502  1.00  0.00     0.163 HD
BRANCH   4   7
ATOM      7  C   UNL A   1      33.237  24.139  24.197  1.00  0.00     0.097 A 
ATOM      8  C   UNL A   1      33.278  23.328  21.617  1.00  0.00     0.069 C 
ATOM      9  C   UNL A   1      33.385  24.295  22.744  1.00  0.00     0.066 A 
ATOM     10  N   UNL A   1      33.649  25.528  22.304  1.00  0.00    -0.195 NA
ATOM     11  S   UNL A   1      33.603  26.584  23.539  1.00  0.00    -0.018 S 
ATOM     12  C   UNL A   1      33.301  25.434  24.769  1.00  0.00     0.123 A 
BRANCH  12  13
ATOM     13  N   UNL A   1      33.155  25.759  26.088  1.00  0.00    -0.368 N 
ATOM     14  H   UNL A   1      33.785  25.347  26.722  1.00  0.00     0.162 HD
BRANCH  13  15
ATOM     15  C   UNL A   1      32.153  26.658  26.644  1.00  0.00     0.107 C 
ATOM     16  C   UNL A   1      30.948  26.650  25.696  1.00  0.00     0.036 C 
BRANCH  15  17
ATOM     17  C   UNL A   1      32.679  28.075  26.851  1.00  0.00    -0.025 A 
ATOM     18  C   UNL A   1      31.783  29.159  26.769  1.00  0.00     0.006 A 
ATOM     19  C   UNL A   1      34.028  28.358  27.124  1.00  0.00     0.021 A 
ATOM     20  C   UNL A   1      32.221  30.477  26.930  1.00  0.00     0.002 A 
ATOM     21  C   UNL A   1      34.459  29.676  27.296  1.00  0.00     0.018 A 
ATOM     22  C   UNL A   1      33.564  30.737  27.192  1.00  0.00     0.016 A 
ATOM     23  Br  UNL A   1      36.277  30.022  27.683  1.00  0.00    -0.051 Br
ENDBRANCH  15  17
ENDBRANCH  13  15
ENDBRANCH  12  13
ENDBRANCH   4   7
ENDBRANCH   2   3
ENDBRANCH   1   2
BRANCH   1  24
ATOM     24  C   UNL A   1      37.476  21.396  24.871  1.00  0.00     0.023 C 
BRANCH  24  25
ATOM     25  C   UNL A   1      38.411  22.001  25.915  1.00  0.00     0.116 C 
BRANCH  25  26
ATOM     26  N   UNL A   1      39.808  21.611  25.747  1.00  0.00    -0.352 N 
ATOM     27  C   UNL A   1      40.919  22.423  25.926  1.00  0.00     0.251 C 
ATOM     28  H   UNL A   1      39.980  20.679  25.481  1.00  0.00     0.163 HD
ATOM     29  O   UNL A   1      41.977  22.174  25.374  1.00  0.00    -0.269 OA
BRANCH  27  30
ATOM     30  C   UNL A   1      40.784  23.591  26.818  1.00  0.00     0.039 A 
ATOM     31  C   UNL A   1      41.428  23.641  28.055  1.00  0.00     0.014 A 
ATOM     32  C   UNL A   1      40.036  24.674  26.355  1.00  0.00     0.014 A 
ATOM     33  C   UNL A   1      41.391  24.833  28.778  1.00  0.00     0.010 A 
ATOM     34  C   UNL A   1      40.096  25.881  27.013  1.00  0.00     0.010 A 
ATOM     35  C   UNL A   1      40.752  25.965  28.236  1.00  0.00    -0.014 A 
BRANCH  35  36
ATOM     36  C   UNL A   1      40.951  27.285  28.841  1.00  0.00     0.031 A 
ATOM     37  C   UNL A   1      42.053  28.051  28.200  1.00  0.00     0.074 A 
ATOM     38  C   UNL A   1      40.112  27.860  29.733  1.00  0.00     0.049 A 
ATOM     39  N   UNL A   1      43.256  28.198  28.645  1.00  0.00    -0.248 NA
ATOM     40  C   UNL A   1      41.877  28.528  26.815  1.00  0.00     0.031 C 
ATOM     41  C   UNL A   1      38.826  27.337  30.212  1.00  0.00     0.029 A 
ATOM     42  N   UNL A   1      40.170  29.088  30.333  1.00  0.00    -0.354 N 
ATOM     43  C   UNL A   1      43.879  29.057  27.747  1.00  0.00     0.074 A 
ATOM     44  C   UNL A   1      43.092  29.010  26.543  1.00  0.00     0.031 C 
ATOM     45  C   UNL A   1      38.125  28.323  30.817  1.00  0.00     0.029 A 
ATOM     46  C   UNL A   1      38.978  29.491  30.936  1.00  0.00     0.049 A 
ATOM     47  H   UNL A   1      40.985  29.640  30.338  1.00  0.00     0.167 HD
ATOM     48  C   UNL A   1      44.742  30.011  28.199  1.00  0.00     0.031 A 
ATOM     49  C   UNL A   1      38.703  30.691  31.512  1.00  0.00     0.031 A 
ATOM     50  C   UNL A   1      45.067  29.789  29.587  1.00  0.00     0.049 A 
ATOM     51  C   UNL A   1      39.999  31.283  31.904  1.00  0.00     0.074 A 
ATOM     52  C   UNL A   1      45.764  28.861  30.327  1.00  0.00     0.029 A 
ATOM     53  N   UNL A   1      44.225  30.452  30.442  1.00  0.00    -0.354 N 
ATOM     54  N   UNL A   1      40.770  30.756  32.814  1.00  0.00    -0.248 NA
ATOM     55  C   UNL A   1      40.639  32.254  31.028  1.00  0.00     0.031 C 
ATOM     56  C   UNL A   1      45.149  28.851  31.615  1.00  0.00     0.029 A 
ATOM     57  C   UNL A   1      44.143  29.817  31.648  1.00  0.00     0.049 A 
ATOM     58  H   UNL A   1      43.741  31.279  30.216  1.00  0.00     0.167 HD
ATOM     59  C   UNL A   1      42.051  30.973  32.342  1.00  0.00     0.074 A 
ATOM     60  C   UNL A   1      41.917  32.037  31.354  1.00  0.00     0.031 C 
ATOM     61  C   UNL A   1      43.037  30.053  32.556  1.00  0.00     0.031 A 
BRANCH  48  62
ATOM     62  C   UNL A   1      44.822  31.416  27.629  1.00  0.00    -0.014 A 
ATOM     63  C   UNL A   1      46.042  31.835  27.053  1.00  0.00     0.010 A 
ATOM     64  C   UNL A   1      43.881  32.425  27.921  1.00  0.00     0.010 A 
ATOM     65  C   UNL A   1      46.323  33.192  26.838  1.00  0.00     0.020 A 
ATOM     66  C   UNL A   1      44.136  33.776  27.677  1.00  0.00     0.020 A 
ATOM     67  C   UNL A   1      45.366  34.154  27.159  1.00  0.00     0.054 A 
BRANCH  67  68
ATOM     68  S   UNL A   1      45.756  35.908  26.937  1.00  0.00     0.124 S 
ATOM     69  O   UNL A   1      46.402  36.236  28.203  1.00  0.00    -0.237 OA
ATOM     70  O   UNL A   1      46.628  35.880  25.765  1.00  0.00    -0.237 OA
ATOM     71  O   UNL A   1      44.449  36.521  26.719  1.00  0.00    -0.744 OA
ENDBRANCH  67  68
ENDBRANCH  48  62
BRANCH  49  72
ATOM     72  C   UNL A   1      37.429  31.453  31.569  1.00  0.00    -0.014 A 
ATOM     73  C   UNL A   1      36.689  31.568  32.763  1.00  0.00     0.010 A 
ATOM     74  C   UNL A   1      37.095  32.325  30.512  1.00  0.00     0.010 A 
ATOM     75  C   UNL A   1      35.698  32.557  32.917  1.00  0.00     0.020 A 
ATOM     76  C   UNL A   1      36.110  33.312  30.657  1.00  0.00     0.020 A 
ATOM     77  C   UNL A   1      35.430  33.440  31.867  1.00  0.00     0.054 A 
BRANCH  77  78
ATOM     78  S   UNL A   1      34.276  34.825  32.129  1.00  0.00     0.124 S 
ATOM     79  O   UNL A   1      33.948  35.220  30.763  1.00  0.00    -0.237 OA
ATOM     80  O   UNL A   1      33.192  34.200  32.882  1.00  0.00    -0.237 OA
ATOM     81  O   UNL A   1      35.068  35.795  32.882  1.00  0.00    -0.744 OA
ENDBRANCH  77  78
ENDBRANCH  49  72
BRANCH  61  82
ATOM     82  C   UNL A   1      42.911  29.139  33.743  1.00  0.00    -0.014 A 
ATOM     83  C   UNL A   1      43.310  29.455  35.054  1.00  0.00     0.010 A 
ATOM     84  C   UNL A   1      42.266  27.911  33.509  1.00  0.00     0.010 A 
ATOM     85  C   UNL A   1      43.084  28.547  36.102  1.00  0.00     0.020 A 
ATOM     86  C   UNL A   1      42.021  27.016  34.547  1.00  0.00     0.020 A 
ATOM     87  C   UNL A   1      42.441  27.331  35.838  1.00  0.00     0.054 A 
BRANCH  87  88
ATOM     88  S   UNL A   1      42.127  26.166  37.192  1.00  0.00     0.124 S 
ATOM     89  O   UNL A   1      43.113  26.566  38.191  1.00  0.00    -0.237 OA
ATOM     90  O   UNL A   1      40.733  26.438  37.537  1.00  0.00    -0.237 OA
ATOM     91  O   UNL A   1      42.360  24.855  36.584  1.00  0.00    -0.744 OA
ENDBRANCH  87  88
ENDBRANCH  61  82
ENDBRANCH  35  36
ENDBRANCH  27  30
ENDBRANCH  25  26
ENDBRANCH  24  25
ENDBRANCH   1  24
TORSDOF 17
ENDMDL
MODEL 2
REMARK VINA RESULT:     -11.9      2.672      9.420
REMARK SMILES Cc1nsc(N[C@H](C)c2cccc(Br)c2)c1C(=O)NCCCCNC(=O)c1ccc(-c2c3nc(c(-c4ccc(S(=O)(=O)[O-])cc4)c4ccc([nH]4)c(-c4ccc(S(=O)(=O)[O-])cc4)c4nc(c(-c5ccc(S(=O)(=O)[O-])cc5)c5ccc2[nH]5)C=C4)C=C3)cc1
REMARK SMILES IDX 21 1 20 2 19 3 17 4 18 5 16 7 1 8 2 9 3 10 4 11 5 12 6 13
REMARK SMILES IDX 7 15 8 16 9 17 10 18 15 19 11 20 13 21 12 22 14 23 22 24
REMARK SMILES IDX 23 25 24 26 25 27 26 29 27 30 28 31 86 32 29 33 85 34 30 35
REMARK SMILES IDX 31 36 32 37 79 38 33 39 84 40 78 41 80 42 34 43 83 44 77 45
REMARK SMILES IDX 76 46 35 48 65 49 46 50 64 51 47 52 50 53 63 54 81 55 48 56
REMARK SMILES IDX 49 57 62 59 82 60 51 61 36 62 37 63 45 64 38 65 44 66 39 67
REMARK SMILES IDX 40 68 41 69 42 70 43 71 66 72 67 73 75 74 68 75 74 76 69 77
REMARK SMILES IDX 70 78 71 79 72 80 73 81 52 82 53 83 61 84 54 85 60 86 55 87
REMARK SMILES IDX 56 88 57 89 58 90 59 91
REMARK H PARENT 19 6 6 14 24 28 80 47 50 58
REMARK Flexibility Score: inf
ROOT
ATOM      1  C   UNL A   1      31.850  28.290  26.172  1.00  0.00     0.023 C 
ENDROOT
BRANCH   1   2
ATOM      2  C   UNL A   1      31.071  27.166  26.850  1.00  0.00     0.116 C 
BRANCH   2   3
ATOM      3  N   UNL A   1      31.739  25.892  26.855  1.00  0.00    -0.352 N 
ATOM      4  C   UNL A   1      32.293  25.065  25.913  1.00  0.00     0.256 C 
ATOM      5  O   UNL A   1      32.857  24.092  26.439  1.00  0.00    -0.269 OA
ATOM      6  H   UNL A   1      31.816  25.521  27.764  1.00  0.00     0.163 HD
BRANCH   4   7
ATOM      7  C   UNL A   1      32.236  25.185  24.432  1.00  0.00     0.097 A 
ATOM      8  C   UNL A   1      29.909  26.305  23.628  1.00  0.00     0.069 C 
ATOM      9  C   UNL A   1      31.245  25.670  23.462  1.00  0.00     0.066 A 
ATOM     10  N   UNL A   1      31.571  25.554  22.172  1.00  0.00    -0.195 NA
ATOM     11  S   UNL A   1      33.095  25.006  22.028  1.00  0.00    -0.018 S 
ATOM     12  C   UNL A   1      33.391  24.810  23.702  1.00  0.00     0.123 A 
BRANCH  12  13
ATOM     13  N   UNL A   1      34.575  24.356  24.212  1.00  0.00    -0.368 N 
ATOM     14  H   UNL A   1      35.022  24.926  24.879  1.00  0.00     0.162 HD
BRANCH  13  15
ATOM     15  C   UNL A   1      35.237  23.107  23.861  1.00  0.00     0.107 C 
ATOM     16  C   UNL A   1      34.227  21.973  24.070  1.00  0.00     0.036 C 
BRANCH  15  17
ATOM     17  C   UNL A   1      36.510  22.864  24.666  1.00  0.00    -0.025 A 
ATOM     18  C   UNL A   1      37.153  21.614  24.574  1.00  0.00     0.006 A 
ATOM     19  C   UNL A   1      37.082  23.836  25.504  1.00  0.00     0.021 A 
ATOM     20  C   UNL A   1      38.309  21.337  25.309  1.00  0.00     0.002 A 
ATOM     21  C   UNL A   1      38.244  23.558  26.228  1.00  0.00     0.018 A 
ATOM     22  C   UNL A   1      38.855  22.310  26.141  1.00  0.00     0.016 A 
ATOM     23  Br  UNL A   1      38.999  24.894  27.332  1.00  0.00    -0.051 Br
ENDBRANCH  15  17
ENDBRANCH  13  15
ENDBRANCH  12  13
ENDBRANCH   4   7
ENDBRANCH   2   3
ENDBRANCH   1   2
BRANCH   1  24
ATOM     24  C   UNL A   1      32.156  29.513  27.043  1.00  0.00     0.023 C 
BRANCH  24  25
ATOM     25  C   UNL A   1      33.638  29.781  27.294  1.00  0.00     0.116 C 
BRANCH  25  26
ATOM     26  N   UNL A   1      34.045  31.152  26.995  1.00  0.00    -0.352 N 
ATOM     27  C   UNL A   1      35.090  31.849  27.585  1.00  0.00     0.251 C 
ATOM     28  H   UNL A   1      33.527  31.629  26.307  1.00  0.00     0.163 HD
ATOM     29  O   UNL A   1      35.100  33.068  27.607  1.00  0.00    -0.269 OA
BRANCH  27  30
ATOM     30  C   UNL A   1      36.197  31.069  28.172  1.00  0.00     0.039 A 
ATOM     31  C   UNL A   1      36.348  29.707  27.908  1.00  0.00     0.014 A 
ATOM     32  C   UNL A   1      37.125  31.755  28.954  1.00  0.00     0.014 A 
ATOM     33  C   UNL A   1      37.499  29.064  28.361  1.00  0.00     0.010 A 
ATOM     34  C   UNL A   1      38.311  31.150  29.301  1.00  0.00     0.010 A 
ATOM     35  C   UNL A   1      38.498  29.799  29.029  1.00  0.00    -0.014 A 
BRANCH  35  36
ATOM     36  C   UNL A   1      39.822  29.210  29.252  1.00  0.00     0.031 A 
ATOM     37  C   UNL A   1      40.104  28.957  30.691  1.00  0.00     0.074 A 
ATOM     38  C   UNL A   1      40.632  28.738  28.276  1.00  0.00     0.049 A 
ATOM     39  N   UNL A   1      40.825  29.683  31.478  1.00  0.00    -0.248 NA
ATOM     40  C   UNL A   1      39.337  27.911  31.394  1.00  0.00     0.031 C 
ATOM     41  C   UNL A   1      40.336  28.646  26.841  1.00  0.00     0.029 A 
ATOM     42  N   UNL A   1      41.858  28.140  28.362  1.00  0.00    -0.354 N 
ATOM     43  C   UNL A   1      40.856  28.997  32.686  1.00  0.00     0.074 A 
ATOM     44  C   UNL A   1      39.742  28.087  32.655  1.00  0.00     0.031 C 
ATOM     45  C   UNL A   1      41.225  27.823  26.240  1.00  0.00     0.029 A 
ATOM     46  C   UNL A   1      42.259  27.479  27.199  1.00  0.00     0.049 A 
ATOM     47  H   UNL A   1      42.412  28.173  29.174  1.00  0.00     0.167 HD
ATOM     48  C   UNL A   1      42.004  28.959  33.423  1.00  0.00     0.031 A 
ATOM     49  C   UNL A   1      43.367  26.714  27.019  1.00  0.00     0.031 A 
ATOM     50  C   UNL A   1      42.970  29.899  32.911  1.00  0.00     0.049 A 
ATOM     51  C   UNL A   1      44.351  27.143  28.035  1.00  0.00     0.074 A 
ATOM     52  C   UNL A   1      43.108  31.267  32.834  1.00  0.00     0.029 A 
ATOM     53  N   UNL A   1      43.806  29.346  31.976  1.00  0.00    -0.354 N 
ATOM     54  N   UNL A   1      44.885  28.333  28.044  1.00  0.00    -0.248 NA
ATOM     55  C   UNL A   1      44.473  26.393  29.278  1.00  0.00     0.031 C 
ATOM     56  C   UNL A   1      43.899  31.512  31.671  1.00  0.00     0.029 A 
ATOM     57  C   UNL A   1      44.278  30.291  31.111  1.00  0.00     0.049 A 
ATOM     58  H   UNL A   1      44.038  28.390  31.933  1.00  0.00     0.167 HD
ATOM     59  C   UNL A   1      44.993  28.647  29.386  1.00  0.00     0.074 A 
ATOM     60  C   UNL A   1      44.897  27.371  30.084  1.00  0.00     0.031 C 
ATOM     61  C   UNL A   1      44.820  29.931  29.815  1.00  0.00     0.031 A 
BRANCH  48  62
ATOM     62  C   UNL A   1      42.484  27.731  34.177  1.00  0.00    -0.014 A 
ATOM     63  C   UNL A   1      42.406  27.741  35.587  1.00  0.00     0.010 A 
ATOM     64  C   UNL A   1      43.289  26.731  33.594  1.00  0.00     0.010 A 
ATOM     65  C   UNL A   1      43.139  26.835  36.367  1.00  0.00     0.020 A 
ATOM     66  C   UNL A   1      43.994  25.801  34.360  1.00  0.00     0.020 A 
ATOM     67  C   UNL A   1      43.935  25.875  35.745  1.00  0.00     0.054 A 
BRANCH  67  68
ATOM     68  S   UNL A   1      44.927  24.748  36.756  1.00  0.00     0.124 S 
ATOM     69  O   UNL A   1      44.614  23.453  36.159  1.00  0.00    -0.237 OA
ATOM     70  O   UNL A   1      46.282  25.243  36.527  1.00  0.00    -0.237 OA
ATOM     71  O   UNL A   1      44.411  24.960  38.106  1.00  0.00    -0.744 OA
ENDBRANCH  67  68
ENDBRANCH  48  62
BRANCH  49  72
ATOM     72  C   UNL A   1      43.569  25.510  26.173  1.00  0.00    -0.014 A 
ATOM     73  C   UNL A   1      44.791  25.266  25.514  1.00  0.00     0.010 A 
ATOM     74  C   UNL A   1      42.653  24.441  26.257  1.00  0.00     0.010 A 
ATOM     75  C   UNL A   1      45.110  23.987  25.016  1.00  0.00     0.020 A 
ATOM     76  C   UNL A   1      42.963  23.166  25.764  1.00  0.00     0.020 A 
ATOM     77  C   UNL A   1      44.201  22.937  25.165  1.00  0.00     0.054 A 
BRANCH  77  78
ATOM     78  S   UNL A   1      44.687  21.250  24.680  1.00  0.00     0.124 S 
ATOM     79  O   UNL A   1      43.621  20.439  25.261  1.00  0.00    -0.237 OA
ATOM     80  O   UNL A   1      44.695  21.326  23.222  1.00  0.00    -0.237 OA
ATOM     81  O   UNL A   1      46.002  21.080  25.294  1.00  0.00    -0.744 OA
ENDBRANCH  77  78
ENDBRANCH  49  72
BRANCH  61  82
ATOM     82  C   UNL A   1      45.091  31.048  28.846  1.00  0.00    -0.014 A 
ATOM     83  C   UNL A   1      46.369  31.481  28.447  1.00  0.00     0.010 A 
ATOM     84  C   UNL A   1      43.961  31.631  28.246  1.00  0.00     0.010 A 
ATOM     85  C   UNL A   1      46.504  32.493  27.482  1.00  0.00     0.020 A 
ATOM     86  C   UNL A   1      44.089  32.620  27.274  1.00  0.00     0.020 A 
ATOM     87  C   UNL A   1      45.360  33.056  26.903  1.00  0.00     0.054 A 
BRANCH  87  88
ATOM     88  S   UNL A   1      45.532  34.347  25.640  1.00  0.00     0.124 S 
ATOM     89  O   UNL A   1      46.977  34.423  25.457  1.00  0.00    -0.237 OA
ATOM     90  O   UNL A   1      44.781  33.798  24.513  1.00  0.00    -0.237 OA
ATOM     91  O   UNL A   1      44.924  35.525  26.261  1.00  0.00    -0.744 OA
ENDBRANCH  87  88
ENDBRANCH  61  82
ENDBRANCH  35  36
ENDBRANCH  27  30
ENDBRANCH  25  26
ENDBRANCH  24  25
ENDBRANCH   1  24
TORSDOF 17
ENDMDL
MODEL 3
REMARK VINA RESULT:     -11.8      1.410      1.877
REMARK SMILES Cc1nsc(N[C@H](C)c2cccc(Br)c2)c1C(=O)NCCCCNC(=O)c1ccc(-c2c3nc(c(-c4ccc(S(=O)(=O)[O-])cc4)c4ccc([nH]4)c(-c4ccc(S(=O)(=O)[O-])cc4)c4nc(c(-c5ccc(S(=O)(=O)[O-])cc5)c5ccc2[nH]5)C=C4)C=C3)cc1
REMARK SMILES IDX 21 1 20 2 19 3 17 4 18 5 16 7 1 8 2 9 3 10 4 11 5 12 6 13
REMARK SMILES IDX 7 15 8 16 9 17 10 18 15 19 11 20 13 21 12 22 14 23 22 24
REMARK SMILES IDX 23 25 24 26 25 27 26 29 27 30 28 31 86 32 29 33 85 34 30 35
REMARK SMILES IDX 31 36 32 37 79 38 33 39 84 40 78 41 80 42 34 43 83 44 77 45
REMARK SMILES IDX 76 46 35 48 65 49 46 50 64 51 47 52 50 53 63 54 81 55 48 56
REMARK SMILES IDX 49 57 62 59 82 60 51 61 36 62 37 63 45 64 38 65 44 66 39 67
REMARK SMILES IDX 40 68 41 69 42 70 43 71 66 72 67 73 75 74 68 75 74 76 69 77
REMARK SMILES IDX 70 78 71 79 72 80 73 81 52 82 53 83 61 84 54 85 60 86 55 87
REMARK SMILES IDX 56 88 57 89 58 90 59 91
REMARK H PARENT 19 6 6 14 24 28 80 47 50 58
REMARK Flexibility Score: inf
ROOT
ATOM      1  C   UNL A   1      37.204  21.658  24.458  1.00  0.00     0.023 C 
ENDROOT
BRANCH   1   2
ATOM      2  C   UNL A   1      36.423  20.449  24.968  1.00  0.00     0.116 C 
BRANCH   2   3
ATOM      3  N   UNL A   1      35.413  20.755  25.944  1.00  0.00    -0.352 N 
ATOM      4  C   UNL A   1      34.103  21.157  25.915  1.00  0.00     0.256 C 
ATOM      5  O   UNL A   1      33.614  21.192  27.055  1.00  0.00    -0.269 OA
ATOM      6  H   UNL A   1      35.746  20.651  26.865  1.00  0.00     0.163 HD
BRANCH   4   7
ATOM      7  C   UNL A   1      33.293  21.577  24.741  1.00  0.00     0.097 A 
ATOM      8  C   UNL A   1      32.374  19.434  23.369  1.00  0.00     0.069 C 
ATOM      9  C   UNL A   1      32.590  20.879  23.655  1.00  0.00     0.066 A 
ATOM     10  N   UNL A   1      32.005  21.650  22.736  1.00  0.00    -0.195 NA
ATOM     11  S   UNL A   1      32.123  23.215  23.161  1.00  0.00    -0.018 S 
ATOM     12  C   UNL A   1      33.047  22.963  24.579  1.00  0.00     0.123 A 
BRANCH  12  13
ATOM     13  N   UNL A   1      33.465  23.974  25.398  1.00  0.00    -0.368 N 
ATOM     14  H   UNL A   1      34.424  24.195  25.380  1.00  0.00     0.162 HD
BRANCH  13  15
ATOM     15  C   UNL A   1      32.623  24.754  26.295  1.00  0.00     0.107 C 
ATOM     16  C   UNL A   1      31.242  24.091  26.326  1.00  0.00     0.036 C 
BRANCH  15  17
ATOM     17  C   UNL A   1      32.520  26.220  25.886  1.00  0.00    -0.025 A 
ATOM     18  C   UNL A   1      31.790  27.110  26.698  1.00  0.00     0.006 A 
ATOM     19  C   UNL A   1      33.124  26.734  24.726  1.00  0.00     0.021 A 
ATOM     20  C   UNL A   1      31.649  28.457  26.353  1.00  0.00     0.002 A 
ATOM     21  C   UNL A   1      32.990  28.084  24.392  1.00  0.00     0.018 A 
ATOM     22  C   UNL A   1      32.249  28.946  25.195  1.00  0.00     0.016 A 
ATOM     23  Br  UNL A   1      33.831  28.749  22.835  1.00  0.00    -0.051 Br
ENDBRANCH  15  17
ENDBRANCH  13  15
ENDBRANCH  12  13
ENDBRANCH   4   7
ENDBRANCH   2   3
ENDBRANCH   1   2
BRANCH   1  24
ATOM     24  C   UNL A   1      36.894  22.994  25.142  1.00  0.00     0.023 C 
BRANCH  24  25
ATOM     25  C   UNL A   1      37.836  23.378  26.280  1.00  0.00     0.116 C 
BRANCH  25  26
ATOM     26  N   UNL A   1      38.926  22.428  26.485  1.00  0.00    -0.352 N 
ATOM     27  C   UNL A   1      40.278  22.728  26.564  1.00  0.00     0.251 C 
ATOM     28  H   UNL A   1      38.677  21.480  26.578  1.00  0.00     0.163 HD
ATOM     29  O   UNL A   1      41.126  21.890  26.309  1.00  0.00    -0.269 OA
BRANCH  27  30
ATOM     30  C   UNL A   1      40.660  24.092  26.980  1.00  0.00     0.039 A 
ATOM     31  C   UNL A   1      40.112  25.221  26.369  1.00  0.00     0.014 A 
ATOM     32  C   UNL A   1      41.547  24.216  28.049  1.00  0.00     0.014 A 
ATOM     33  C   UNL A   1      40.390  26.474  26.912  1.00  0.00     0.010 A 
ATOM     34  C   UNL A   1      41.729  25.439  28.652  1.00  0.00     0.010 A 
ATOM     35  C   UNL A   1      41.174  26.577  28.078  1.00  0.00    -0.014 A 
BRANCH  35  36
ATOM     36  C   UNL A   1      41.235  27.842  28.816  1.00  0.00     0.031 A 
ATOM     37  C   UNL A   1      42.328  28.733  28.341  1.00  0.00     0.074 A 
ATOM     38  C   UNL A   1      40.293  28.276  29.685  1.00  0.00     0.049 A 
ATOM     39  N   UNL A   1      43.480  28.909  28.895  1.00  0.00    -0.248 NA
ATOM     40  C   UNL A   1      42.225  29.331  26.996  1.00  0.00     0.031 C 
ATOM     41  C   UNL A   1      39.013  27.631  30.005  1.00  0.00     0.029 A 
ATOM     42  N   UNL A   1      40.221  29.441  30.397  1.00  0.00    -0.354 N 
ATOM     43  C   UNL A   1      44.110  29.887  28.135  1.00  0.00     0.074 A 
ATOM     44  C   UNL A   1      43.422  29.910  26.870  1.00  0.00     0.031 C 
ATOM     45  C   UNL A   1      38.202  28.509  30.638  1.00  0.00     0.029 A 
ATOM     46  C   UNL A   1      38.961  29.710  30.935  1.00  0.00     0.049 A 
ATOM     47  H   UNL A   1      40.992  30.038  30.520  1.00  0.00     0.167 HD
ATOM     48  C   UNL A   1      44.868  30.844  28.742  1.00  0.00     0.031 A 
ATOM     49  C   UNL A   1      38.561  30.829  31.594  1.00  0.00     0.031 A 
ATOM     50  C   UNL A   1      45.100  30.509  30.125  1.00  0.00     0.049 A 
ATOM     51  C   UNL A   1      39.780  31.458  32.144  1.00  0.00     0.074 A 
ATOM     52  C   UNL A   1      45.800  29.558  30.832  1.00  0.00     0.029 A 
ATOM     53  N   UNL A   1      44.152  31.034  30.965  1.00  0.00    -0.354 N 
ATOM     54  N   UNL A   1      40.513  30.894  33.062  1.00  0.00    -0.248 NA
ATOM     55  C   UNL A   1      40.417  32.547  31.416  1.00  0.00     0.031 C 
ATOM     56  C   UNL A   1      45.091  29.385  32.059  1.00  0.00     0.029 A 
ATOM     57  C   UNL A   1      44.021  30.281  32.097  1.00  0.00     0.049 A 
ATOM     58  H   UNL A   1      43.631  31.847  30.778  1.00  0.00     0.167 HD
ATOM     59  C   UNL A   1      41.809  31.234  32.719  1.00  0.00     0.074 A 
ATOM     60  C   UNL A   1      41.677  32.378  31.825  1.00  0.00     0.031 C 
ATOM     61  C   UNL A   1      42.836  30.359  32.929  1.00  0.00     0.031 A 
BRANCH  48  62
ATOM     62  C   UNL A   1      44.895  32.301  28.312  1.00  0.00    -0.014 A 
ATOM     63  C   UNL A   1      46.146  32.951  28.231  1.00  0.00     0.010 A 
ATOM     64  C   UNL A   1      43.751  33.125  28.302  1.00  0.00     0.010 A 
ATOM     65  C   UNL A   1      46.244  34.349  28.201  1.00  0.00     0.020 A 
ATOM     66  C   UNL A   1      43.837  34.518  28.235  1.00  0.00     0.020 A 
ATOM     67  C   UNL A   1      45.085  35.123  28.210  1.00  0.00     0.054 A 
BRANCH  67  68
ATOM     68  S   UNL A   1      45.218  36.928  28.232  1.00  0.00     0.124 S 
ATOM     69  O   UNL A   1      44.766  37.246  29.583  1.00  0.00    -0.237 OA
ATOM     70  O   UNL A   1      46.640  37.133  27.972  1.00  0.00    -0.237 OA
ATOM     71  O   UNL A   1      44.326  37.348  27.155  1.00  0.00    -0.744 OA
ENDBRANCH  67  68
ENDBRANCH  48  62
BRANCH  49  72
ATOM     72  C   UNL A   1      37.237  31.503  31.614  1.00  0.00    -0.014 A 
ATOM     73  C   UNL A   1      36.525  31.695  32.815  1.00  0.00     0.010 A 
ATOM     74  C   UNL A   1      36.811  32.229  30.483  1.00  0.00     0.010 A 
ATOM     75  C   UNL A   1      35.470  32.625  32.898  1.00  0.00     0.020 A 
ATOM     76  C   UNL A   1      35.761  33.156  30.558  1.00  0.00     0.020 A 
ATOM     77  C   UNL A   1      35.108  33.367  31.771  1.00  0.00     0.054 A 
BRANCH  77  78
ATOM     78  S   UNL A   1      33.865  34.689  31.925  1.00  0.00     0.124 S 
ATOM     79  O   UNL A   1      34.666  35.819  32.386  1.00  0.00    -0.237 OA
ATOM     80  O   UNL A   1      33.345  34.800  30.565  1.00  0.00    -0.237 OA
ATOM     81  O   UNL A   1      32.917  34.159  32.904  1.00  0.00    -0.744 OA
ENDBRANCH  77  78
ENDBRANCH  49  72
BRANCH  61  82
ATOM     82  C   UNL A   1      42.683  29.329  34.012  1.00  0.00    -0.014 A 
ATOM     83  C   UNL A   1      43.002  29.525  35.368  1.00  0.00     0.010 A 
ATOM     84  C   UNL A   1      42.096  28.110  33.625  1.00  0.00     0.010 A 
ATOM     85  C   UNL A   1      42.756  28.511  36.308  1.00  0.00     0.020 A 
ATOM     86  C   UNL A   1      41.831  27.109  34.555  1.00  0.00     0.020 A 
ATOM     87  C   UNL A   1      42.172  27.308  35.892  1.00  0.00     0.054 A 
BRANCH  87  88
ATOM     88  S   UNL A   1      41.832  26.004  37.107  1.00  0.00     0.124 S 
ATOM     89  O   UNL A   1      40.458  26.293  37.506  1.00  0.00    -0.237 OA
ATOM     90  O   UNL A   1      42.020  24.781  36.330  1.00  0.00    -0.237 OA
ATOM     91  O   UNL A   1      42.837  26.226  38.147  1.00  0.00    -0.744 OA
ENDBRANCH  87  88
ENDBRANCH  61  82
ENDBRANCH  35  36
ENDBRANCH  27  30
ENDBRANCH  25  26
ENDBRANCH  24  25
ENDBRANCH   1  24
TORSDOF 17
ENDMDL
