MODEL 1
REMARK VINA RESULT:     -11.5      0.000      0.000
REMARK SMILES O=C(CSc1nnc(Cc2ccncc2)n1-c1ccccc1Cl)NCCCCNC(=O)c1ccc(-c2c3nc(c(-c4ccc(S(=O)(=O)[O-])cc4)c4ccc([nH]4)c(-c4ccc(S(=O)(=O)[O-])cc4)c4nc(c(-c5ccc(S(=O)(=O)[O-])cc5)c5ccc2[nH]5)C=C4)C=C3)cc1
REMARK SMILES IDX 26 1 25 2 24 3 1 4 2 5 3 7 4 8 5 9 6 10 16 11 7 12 8 13
REMARK SMILES IDX 17 14 18 15 22 16 19 17 21 18 23 19 20 20 9 21 10 22 11 23
REMARK SMILES IDX 15 24 12 25 14 26 13 27 27 28 28 29 29 30 30 31 31 33 32 34
REMARK SMILES IDX 33 35 91 36 34 37 90 38 35 39 36 40 37 41 84 42 38 43 89 44
REMARK SMILES IDX 83 45 85 46 39 47 88 48 82 49 81 50 40 52 70 53 51 54 69 55
REMARK SMILES IDX 52 56 55 57 68 58 86 59 53 60 54 61 67 63 87 64 56 65 41 66
REMARK SMILES IDX 42 67 50 68 43 69 49 70 44 71 45 72 46 73 47 74 48 75 71 76
REMARK SMILES IDX 72 77 80 78 73 79 79 80 74 81 75 82 76 83 77 84 78 85 57 86
REMARK SMILES IDX 58 87 66 88 59 89 65 90 60 91 61 92 62 93 63 94 64 95
REMARK H PARENT 24 6 29 32 85 51 55 62
REMARK Flexibility Score: inf
ROOT
ATOM      1  C   UNL A   1      39.024  23.614  27.058  1.00  0.00     0.023 C 
ENDROOT
BRANCH   1   2
ATOM      2  C   UNL A   1      37.983  24.055  26.022  1.00  0.00     0.116 C 
BRANCH   2   3
ATOM      3  N   UNL A   1      36.641  23.569  26.284  1.00  0.00    -0.355 N 
ATOM      4  O   UNL A   1      36.814  21.730  24.929  1.00  0.00    -0.274 OA
ATOM      5  C   UNL A   1      36.177  22.371  25.765  1.00  0.00     0.230 C 
ATOM      6  H   UNL A   1      36.040  24.107  26.850  1.00  0.00     0.163 HD
BRANCH   5   7
ATOM      7  C   UNL A   1      34.765  21.964  26.160  1.00  0.00     0.178 C 
BRANCH   7   8
ATOM      8  S   UNL A   1      33.540  22.236  24.871  1.00  0.00    -0.076 SA
BRANCH   8   9
ATOM      9  C   UNL A   1      32.294  23.149  25.678  1.00  0.00     0.196 A 
ATOM     10  N   UNL A   1      31.874  22.993  26.909  1.00  0.00    -0.123 NA
ATOM     11  N   UNL A   1      31.729  24.285  25.121  1.00  0.00    -0.272 N 
ATOM     12  N   UNL A   1      31.068  24.067  27.212  1.00  0.00    -0.134 NA
ATOM     13  C   UNL A   1      31.009  24.868  26.159  1.00  0.00     0.142 A 
BRANCH  11  14
ATOM     14  C   UNL A   1      32.181  24.872  23.924  1.00  0.00     0.068 A 
ATOM     15  C   UNL A   1      31.315  24.844  22.831  1.00  0.00     0.028 A 
ATOM     16  C   UNL A   1      33.345  25.658  23.893  1.00  0.00     0.065 A 
ATOM     17  C   UNL A   1      31.639  25.601  21.710  1.00  0.00     0.002 A 
ATOM     18  C   UNL A   1      33.681  26.349  22.724  1.00  0.00     0.023 A 
ATOM     19  Cl  UNL A   1      34.409  25.794  25.242  1.00  0.00    -0.082 Cl
ATOM     20  C   UNL A   1      32.825  26.320  21.629  1.00  0.00     0.002 A 
ENDBRANCH  11  14
BRANCH  13  21
ATOM     21  C   UNL A   1      30.353  26.223  26.129  1.00  0.00     0.113 C 
BRANCH  21  22
ATOM     22  C   UNL A   1      31.288  27.414  26.166  1.00  0.00    -0.037 A 
ATOM     23  C   UNL A   1      32.109  27.680  27.265  1.00  0.00     0.024 A 
ATOM     24  C   UNL A   1      31.416  28.258  25.058  1.00  0.00     0.024 A 
ATOM     25  C   UNL A   1      32.972  28.768  27.213  1.00  0.00     0.111 A 
ATOM     26  C   UNL A   1      32.276  29.347  25.111  1.00  0.00     0.111 A 
ATOM     27  N   UNL A   1      33.080  29.605  26.163  1.00  0.00    -0.265 NA
ENDBRANCH  21  22
ENDBRANCH  13  21
ENDBRANCH   8   9
ENDBRANCH   7   8
ENDBRANCH   5   7
ENDBRANCH   2   3
ENDBRANCH   1   2
BRANCH   1  28
ATOM     28  C   UNL A   1      39.642  22.221  26.870  1.00  0.00     0.023 C 
BRANCH  28  29
ATOM     29  C   UNL A   1      41.042  22.041  27.447  1.00  0.00     0.116 C 
BRANCH  29  30
ATOM     30  N   UNL A   1      42.092  21.922  26.436  1.00  0.00    -0.352 N 
ATOM     31  C   UNL A   1      42.659  22.939  25.677  1.00  0.00     0.251 C 
ATOM     32  H   UNL A   1      42.439  21.015  26.275  1.00  0.00     0.163 HD
ATOM     33  O   UNL A   1      43.214  22.691  24.619  1.00  0.00    -0.269 OA
BRANCH  31  34
ATOM     34  C   UNL A   1      42.589  24.329  26.181  1.00  0.00     0.039 A 
ATOM     35  C   UNL A   1      41.803  25.307  25.564  1.00  0.00     0.014 A 
ATOM     36  C   UNL A   1      43.338  24.648  27.306  1.00  0.00     0.014 A 
ATOM     37  C   UNL A   1      41.698  26.571  26.159  1.00  0.00     0.010 A 
ATOM     38  C   UNL A   1      43.137  25.844  27.955  1.00  0.00     0.010 A 
ATOM     39  C   UNL A   1      42.344  26.830  27.382  1.00  0.00    -0.014 A 
BRANCH  39  40
ATOM     40  C   UNL A   1      42.067  28.054  28.147  1.00  0.00     0.031 A 
ATOM     41  C   UNL A   1      43.004  29.179  27.856  1.00  0.00     0.074 A 
ATOM     42  C   UNL A   1      40.948  28.280  28.879  1.00  0.00     0.049 A 
ATOM     43  N   UNL A   1      43.906  29.644  28.651  1.00  0.00    -0.248 NA
ATOM     44  C   UNL A   1      43.054  29.760  26.503  1.00  0.00     0.031 C 
ATOM     45  C   UNL A   1      39.772  27.412  29.043  1.00  0.00     0.029 A 
ATOM     46  N   UNL A   1      40.541  29.429  29.496  1.00  0.00    -0.354 N 
ATOM     47  C   UNL A   1      44.478  30.732  28.002  1.00  0.00     0.074 A 
ATOM     48  C   UNL A   1      44.056  30.637  26.627  1.00  0.00     0.031 C 
ATOM     49  C   UNL A   1      38.716  28.147  29.473  1.00  0.00     0.029 A 
ATOM     50  C   UNL A   1      39.176  29.485  29.804  1.00  0.00     0.049 A 
ATOM     51  H   UNL A   1      41.161  30.164  29.709  1.00  0.00     0.167 HD
ATOM     52  C   UNL A   1      45.046  31.751  28.709  1.00  0.00     0.031 A 
ATOM     53  C   UNL A   1      38.487  30.558  30.289  1.00  0.00     0.031 A 
ATOM     54  C   UNL A   1      45.195  31.400  30.103  1.00  0.00     0.049 A 
ATOM     55  C   UNL A   1      39.475  31.431  30.957  1.00  0.00     0.074 A 
ATOM     56  C   UNL A   1      45.827  30.380  30.791  1.00  0.00     0.029 A 
ATOM     57  N   UNL A   1      44.268  31.921  30.978  1.00  0.00    -0.354 N 
ATOM     58  N   UNL A   1      40.124  31.062  32.021  1.00  0.00    -0.248 NA
ATOM     59  C   UNL A   1      40.075  32.513  30.196  1.00  0.00     0.031 C 
ATOM     60  C   UNL A   1      44.913  30.017  31.826  1.00  0.00     0.029 A 
ATOM     61  C   UNL A   1      43.828  30.893  31.773  1.00  0.00     0.049 A 
ATOM     62  H   UNL A   1      43.973  32.859  31.024  1.00  0.00     0.167 HD
ATOM     63  C   UNL A   1      41.418  31.500  31.799  1.00  0.00     0.074 A 
ATOM     64  C   UNL A   1      41.301  32.494  30.731  1.00  0.00     0.031 C 
ATOM     65  C   UNL A   1      42.483  30.800  32.293  1.00  0.00     0.031 A 
BRANCH  52  66
ATOM     66  C   UNL A   1      45.076  33.191  28.256  1.00  0.00    -0.014 A 
ATOM     67  C   UNL A   1      46.325  33.773  27.949  1.00  0.00     0.010 A 
ATOM     68  C   UNL A   1      43.980  34.068  28.389  1.00  0.00     0.010 A 
ATOM     69  C   UNL A   1      46.484  35.163  27.877  1.00  0.00     0.020 A 
ATOM     70  C   UNL A   1      44.120  35.453  28.275  1.00  0.00     0.020 A 
ATOM     71  C   UNL A   1      45.380  35.994  28.057  1.00  0.00     0.054 A 
BRANCH  71  72
ATOM     72  S   UNL A   1      45.616  37.787  28.073  1.00  0.00     0.124 S 
ATOM     73  O   UNL A   1      44.537  38.220  28.955  1.00  0.00    -0.237 OA
ATOM     74  O   UNL A   1      46.966  37.915  28.612  1.00  0.00    -0.237 OA
ATOM     75  O   UNL A   1      45.470  38.162  26.669  1.00  0.00    -0.744 OA
ENDBRANCH  71  72
ENDBRANCH  52  66
BRANCH  53  76
ATOM     76  C   UNL A   1      37.133  31.072  29.954  1.00  0.00    -0.014 A 
ATOM     77  C   UNL A   1      36.378  31.866  30.839  1.00  0.00     0.010 A 
ATOM     78  C   UNL A   1      36.736  31.069  28.611  1.00  0.00     0.010 A 
ATOM     79  C   UNL A   1      35.308  32.663  30.376  1.00  0.00     0.020 A 
ATOM     80  C   UNL A   1      35.704  31.886  28.134  1.00  0.00     0.020 A 
ATOM     81  C   UNL A   1      34.998  32.690  29.016  1.00  0.00     0.054 A 
BRANCH  81  82
ATOM     82  S   UNL A   1      33.674  33.768  28.393  1.00  0.00     0.124 S 
ATOM     83  O   UNL A   1      32.861  32.830  27.625  1.00  0.00    -0.237 OA
ATOM     84  O   UNL A   1      33.077  34.271  29.625  1.00  0.00    -0.237 OA
ATOM     85  O   UNL A   1      34.392  34.762  27.600  1.00  0.00    -0.744 OA
ENDBRANCH  81  82
ENDBRANCH  53  76
BRANCH  65  86
ATOM     86  C   UNL A   1      42.202  29.699  33.295  1.00  0.00    -0.014 A 
ATOM     87  C   UNL A   1      41.738  28.410  32.951  1.00  0.00     0.010 A 
ATOM     88  C   UNL A   1      42.513  29.951  34.641  1.00  0.00     0.010 A 
ATOM     89  C   UNL A   1      41.534  27.428  33.932  1.00  0.00     0.020 A 
ATOM     90  C   UNL A   1      42.331  28.971  35.621  1.00  0.00     0.020 A 
ATOM     91  C   UNL A   1      41.824  27.721  35.266  1.00  0.00     0.054 A 
BRANCH  91  92
ATOM     92  S   UNL A   1      41.540  26.459  36.538  1.00  0.00     0.124 S 
ATOM     93  O   UNL A   1      40.521  27.079  37.378  1.00  0.00    -0.237 OA
ATOM     94  O   UNL A   1      41.095  25.307  35.756  1.00  0.00    -0.237 OA
ATOM     95  O   UNL A   1      42.850  26.301  37.169  1.00  0.00    -0.744 OA
ENDBRANCH  91  92
ENDBRANCH  65  86
ENDBRANCH  39  40
ENDBRANCH  31  34
ENDBRANCH  29  30
ENDBRANCH  28  29
ENDBRANCH   1  28
TORSDOF 19
ENDMDL
MODEL 2
REMARK VINA RESULT:     -11.2      2.294      3.080
REMARK SMILES O=C(CSc1nnc(Cc2ccncc2)n1-c1ccccc1Cl)NCCCCNC(=O)c1ccc(-c2c3nc(c(-c4ccc(S(=O)(=O)[O-])cc4)c4ccc([nH]4)c(-c4ccc(S(=O)(=O)[O-])cc4)c4nc(c(-c5ccc(S(=O)(=O)[O-])cc5)c5ccc2[nH]5)C=C4)C=C3)cc1
REMARK SMILES IDX 26 1 25 2 24 3 1 4 2 5 3 7 4 8 5 9 6 10 16 11 7 12 8 13
REMARK SMILES IDX 17 14 18 15 22 16 19 17 21 18 23 19 20 20 9 21 10 22 11 23
REMARK SMILES IDX 15 24 12 25 14 26 13 27 27 28 28 29 29 30 30 31 31 33 32 34
REMARK SMILES IDX 33 35 91 36 34 37 90 38 35 39 36 40 37 41 84 42 38 43 89 44
REMARK SMILES IDX 83 45 85 46 39 47 88 48 82 49 81 50 40 52 70 53 51 54 69 55
REMARK SMILES IDX 52 56 55 57 68 58 86 59 53 60 54 61 67 63 87 64 56 65 41 66
REMARK SMILES IDX 42 67 50 68 43 69 49 70 44 71 45 72 46 73 47 74 48 75 71 76
REMARK SMILES IDX 72 77 80 78 73 79 79 80 74 81 75 82 76 83 77 84 78 85 57 86
REMARK SMILES IDX 58 87 66 88 59 89 65 90 60 91 61 92 62 93 63 94 64 95
REMARK H PARENT 24 6 29 32 85 51 55 62
REMARK Flexibility Score: inf
ROOT
ATOM      1  C   UNL A   1      41.040  21.303  27.665  1.00  0.00     0.023 C 
ENDROOT
BRANCH   1   2
ATOM      2  C   UNL A   1      40.619  22.309  26.586  1.00  0.00     0.116 C 
BRANCH   2   3
ATOM      3  N   UNL A   1      39.212  22.664  26.622  1.00  0.00    -0.355 N 
ATOM      4  O   UNL A   1      38.550  21.054  25.132  1.00  0.00    -0.274 OA
ATOM      5  C   UNL A   1      38.252  21.939  25.934  1.00  0.00     0.230 C 
ATOM      6  H   UNL A   1      38.930  23.444  27.152  1.00  0.00     0.163 HD
BRANCH   5   7
ATOM      7  C   UNL A   1      36.811  22.398  26.099  1.00  0.00     0.178 C 
BRANCH   7   8
ATOM      8  S   UNL A   1      35.592  21.140  25.691  1.00  0.00    -0.076 SA
BRANCH   8   9
ATOM      9  C   UNL A   1      34.143  21.705  26.477  1.00  0.00     0.196 A 
ATOM     10  N   UNL A   1      33.995  21.990  27.748  1.00  0.00    -0.123 NA
ATOM     11  N   UNL A   1      33.014  22.083  25.769  1.00  0.00    -0.272 N 
ATOM     12  N   UNL A   1      32.782  22.626  27.892  1.00  0.00    -0.134 NA
ATOM     13  C   UNL A   1      32.206  22.722  26.704  1.00  0.00     0.142 A 
BRANCH  11  14
ATOM     14  C   UNL A   1      32.967  22.160  24.364  1.00  0.00     0.068 A 
ATOM     15  C   UNL A   1      32.175  21.224  23.698  1.00  0.00     0.028 A 
ATOM     16  C   UNL A   1      33.495  23.265  23.677  1.00  0.00     0.065 A 
ATOM     17  C   UNL A   1      31.934  21.407  22.340  1.00  0.00     0.002 A 
ATOM     18  C   UNL A   1      33.297  23.382  22.298  1.00  0.00     0.023 A 
ATOM     19  Cl  UNL A   1      34.412  24.495  24.465  1.00  0.00    -0.082 Cl
ATOM     20  C   UNL A   1      32.514  22.450  21.627  1.00  0.00     0.002 A 
ENDBRANCH  11  14
BRANCH  13  21
ATOM     21  C   UNL A   1      30.939  23.481  26.407  1.00  0.00     0.113 C 
BRANCH  21  22
ATOM     22  C   UNL A   1      31.115  24.841  25.765  1.00  0.00    -0.037 A 
ATOM     23  C   UNL A   1      30.571  25.148  24.515  1.00  0.00     0.024 A 
ATOM     24  C   UNL A   1      31.773  25.872  26.443  1.00  0.00     0.024 A 
ATOM     25  C   UNL A   1      30.737  26.431  24.006  1.00  0.00     0.111 A 
ATOM     26  C   UNL A   1      31.928  27.113  25.838  1.00  0.00     0.111 A 
ATOM     27  N   UNL A   1      31.396  27.421  24.637  1.00  0.00    -0.265 NA
ENDBRANCH  21  22
ENDBRANCH  13  21
ENDBRANCH   8   9
ENDBRANCH   7   8
ENDBRANCH   5   7
ENDBRANCH   2   3
ENDBRANCH   1   2
BRANCH   1  28
ATOM     28  C   UNL A   1      42.033  20.210  27.244  1.00  0.00     0.023 C 
BRANCH  28  29
ATOM     29  C   UNL A   1      42.080  19.907  25.750  1.00  0.00     0.116 C 
BRANCH  29  30
ATOM     30  N   UNL A   1      43.417  19.590  25.248  1.00  0.00    -0.352 N 
ATOM     31  C   UNL A   1      44.398  20.479  24.825  1.00  0.00     0.251 C 
ATOM     32  H   UNL A   1      43.651  18.635  25.207  1.00  0.00     0.163 HD
ATOM     33  O   UNL A   1      45.288  20.114  24.074  1.00  0.00    -0.269 OA
BRANCH  31  34
ATOM     34  C   UNL A   1      44.352  21.877  25.310  1.00  0.00     0.039 A 
ATOM     35  C   UNL A   1      43.605  22.866  24.664  1.00  0.00     0.014 A 
ATOM     36  C   UNL A   1      45.083  22.191  26.448  1.00  0.00     0.014 A 
ATOM     37  C   UNL A   1      43.519  24.140  25.241  1.00  0.00     0.010 A 
ATOM     38  C   UNL A   1      44.897  23.400  27.079  1.00  0.00     0.010 A 
ATOM     39  C   UNL A   1      44.143  24.399  26.475  1.00  0.00    -0.014 A 
BRANCH  39  40
ATOM     40  C   UNL A   1      43.880  25.639  27.218  1.00  0.00     0.031 A 
ATOM     41  C   UNL A   1      44.787  26.768  26.858  1.00  0.00     0.074 A 
ATOM     42  C   UNL A   1      42.789  25.869  27.991  1.00  0.00     0.049 A 
ATOM     43  N   UNL A   1      45.714  27.267  27.602  1.00  0.00    -0.248 NA
ATOM     44  C   UNL A   1      44.771  27.313  25.490  1.00  0.00     0.031 C 
ATOM     45  C   UNL A   1      41.635  24.989  28.227  1.00  0.00     0.029 A 
ATOM     46  N   UNL A   1      42.391  27.028  28.594  1.00  0.00    -0.354 N 
ATOM     47  C   UNL A   1      46.242  28.345  26.901  1.00  0.00     0.074 A 
ATOM     48  C   UNL A   1      45.764  28.207  25.548  1.00  0.00     0.031 C 
ATOM     49  C   UNL A   1      40.586  25.720  28.682  1.00  0.00     0.029 A 
ATOM     50  C   UNL A   1      41.039  27.073  28.958  1.00  0.00     0.049 A 
ATOM     51  H   UNL A   1      43.008  27.776  28.761  1.00  0.00     0.167 HD
ATOM     52  C   UNL A   1      46.823  29.391  27.557  1.00  0.00     0.031 A 
ATOM     53  C   UNL A   1      40.355  28.148  29.443  1.00  0.00     0.031 A 
ATOM     54  C   UNL A   1      47.036  29.080  28.952  1.00  0.00     0.049 A 
ATOM     55  C   UNL A   1      41.357  29.053  30.045  1.00  0.00     0.074 A 
ATOM     56  C   UNL A   1      47.711  28.087  29.639  1.00  0.00     0.029 A 
ATOM     57  N   UNL A   1      46.138  29.611  29.851  1.00  0.00    -0.354 N 
ATOM     58  N   UNL A   1      42.055  28.722  31.091  1.00  0.00    -0.248 NA
ATOM     59  C   UNL A   1      41.908  30.123  29.232  1.00  0.00     0.031 C 
ATOM     60  C   UNL A   1      46.847  27.740  30.721  1.00  0.00     0.029 A 
ATOM     61  C   UNL A   1      45.748  28.598  30.690  1.00  0.00     0.049 A 
ATOM     62  H   UNL A   1      45.832  30.546  29.884  1.00  0.00     0.167 HD
ATOM     63  C   UNL A   1      43.332  29.173  30.803  1.00  0.00     0.074 A 
ATOM     64  C   UNL A   1      43.155  30.135  29.715  1.00  0.00     0.031 C 
ATOM     65  C   UNL A   1      44.427  28.501  31.269  1.00  0.00     0.031 A 
BRANCH  52  66
ATOM     66  C   UNL A   1      46.813  30.819  27.064  1.00  0.00    -0.014 A 
ATOM     67  C   UNL A   1      48.011  31.561  27.129  1.00  0.00     0.010 A 
ATOM     68  C   UNL A   1      45.629  31.541  26.811  1.00  0.00     0.010 A 
ATOM     69  C   UNL A   1      48.010  32.959  27.040  1.00  0.00     0.020 A 
ATOM     70  C   UNL A   1      45.622  32.931  26.678  1.00  0.00     0.020 A 
ATOM     71  C   UNL A   1      46.810  33.635  26.832  1.00  0.00     0.054 A 
BRANCH  71  72
ATOM     72  S   UNL A   1      46.802  35.443  26.831  1.00  0.00     0.124 S 
ATOM     73  O   UNL A   1      46.358  35.739  28.190  1.00  0.00    -0.237 OA
ATOM     74  O   UNL A   1      48.197  35.756  26.537  1.00  0.00    -0.237 OA
ATOM     75  O   UNL A   1      45.854  35.779  25.771  1.00  0.00    -0.744 OA
ENDBRANCH  71  72
ENDBRANCH  52  66
BRANCH  53  76
ATOM     76  C   UNL A   1      38.980  28.634  29.152  1.00  0.00    -0.014 A 
ATOM     77  C   UNL A   1      38.015  28.838  30.157  1.00  0.00     0.010 A 
ATOM     78  C   UNL A   1      38.738  29.236  27.911  1.00  0.00     0.010 A 
ATOM     79  C   UNL A   1      36.887  29.657  29.933  1.00  0.00     0.020 A 
ATOM     80  C   UNL A   1      37.647  30.084  27.690  1.00  0.00     0.020 A 
ATOM     81  C   UNL A   1      36.727  30.301  28.706  1.00  0.00     0.054 A 
BRANCH  81  82
ATOM     82  S   UNL A   1      35.322  31.420  28.426  1.00  0.00     0.124 S 
ATOM     83  O   UNL A   1      34.354  30.531  27.791  1.00  0.00    -0.237 OA
ATOM     84  O   UNL A   1      34.997  31.855  29.780  1.00  0.00    -0.237 OA
ATOM     85  O   UNL A   1      35.880  32.454  27.559  1.00  0.00    -0.744 OA
ENDBRANCH  81  82
ENDBRANCH  53  76
BRANCH  65  86
ATOM     86  C   UNL A   1      44.205  27.423  32.311  1.00  0.00    -0.014 A 
ATOM     87  C   UNL A   1      44.128  26.043  32.023  1.00  0.00     0.010 A 
ATOM     88  C   UNL A   1      44.168  27.819  33.657  1.00  0.00     0.010 A 
ATOM     89  C   UNL A   1      43.957  25.097  33.046  1.00  0.00     0.020 A 
ATOM     90  C   UNL A   1      44.017  26.882  34.684  1.00  0.00     0.020 A 
ATOM     91  C   UNL A   1      43.892  25.528  34.372  1.00  0.00     0.054 A 
BRANCH  91  92
ATOM     92  S   UNL A   1      43.648  24.309  35.694  1.00  0.00     0.124 S 
ATOM     93  O   UNL A   1      43.846  25.106  36.900  1.00  0.00    -0.237 OA
ATOM     94  O   UNL A   1      42.281  23.848  35.460  1.00  0.00    -0.237 OA
ATOM     95  O   UNL A   1      44.683  23.308  35.438  1.00  0.00    -0.744 OA
ENDBRANCH  91  92
ENDBRANCH  65  86
ENDBRANCH  39  40
ENDBRANCH  31  34
ENDBRANCH  29  30
ENDBRANCH  28  29
ENDBRANCH   1  28
TORSDOF 19
ENDMDL
MODEL 3
REMARK VINA RESULT:     -11.1      2.578      9.174
REMARK SMILES O=C(CSc1nnc(Cc2ccncc2)n1-c1ccccc1Cl)NCCCCNC(=O)c1ccc(-c2c3nc(c(-c4ccc(S(=O)(=O)[O-])cc4)c4ccc([nH]4)c(-c4ccc(S(=O)(=O)[O-])cc4)c4nc(c(-c5ccc(S(=O)(=O)[O-])cc5)c5ccc2[nH]5)C=C4)C=C3)cc1
REMARK SMILES IDX 26 1 25 2 24 3 1 4 2 5 3 7 4 8 5 9 6 10 16 11 7 12 8 13
REMARK SMILES IDX 17 14 18 15 22 16 19 17 21 18 23 19 20 20 9 21 10 22 11 23
REMARK SMILES IDX 15 24 12 25 14 26 13 27 27 28 28 29 29 30 30 31 31 33 32 34
REMARK SMILES IDX 33 35 91 36 34 37 90 38 35 39 36 40 37 41 84 42 38 43 89 44
REMARK SMILES IDX 83 45 85 46 39 47 88 48 82 49 81 50 40 52 70 53 51 54 69 55
REMARK SMILES IDX 52 56 55 57 68 58 86 59 53 60 54 61 67 63 87 64 56 65 41 66
REMARK SMILES IDX 42 67 50 68 43 69 49 70 44 71 45 72 46 73 47 74 48 75 71 76
REMARK SMILES IDX 72 77 80 78 73 79 79 80 74 81 75 82 76 83 77 84 78 85 57 86
REMARK SMILES IDX 58 87 66 88 59 89 65 90 60 91 61 92 62 93 63 94 64 95
REMARK H PARENT 24 6 29 32 85 51 55 62
REMARK Flexibility Score: inf
ROOT
ATOM      1  C   UNL A   1      35.390  31.051  27.559  1.00  0.00     0.023 C 
ENDROOT
BRANCH   1   2
ATOM      2  C   UNL A   1      34.641  29.713  27.567  1.00  0.00     0.116 C 
BRANCH   2   3
ATOM      3  N   UNL A   1      34.219  29.261  26.253  1.00  0.00    -0.355 N 
ATOM      4  O   UNL A   1      32.073  30.043  26.440  1.00  0.00    -0.274 OA
ATOM      5  C   UNL A   1      32.959  29.539  25.749  1.00  0.00     0.230 C 
ATOM      6  H   UNL A   1      34.849  28.743  25.702  1.00  0.00     0.163 HD
BRANCH   5   7
ATOM      7  C   UNL A   1      32.669  29.042  24.340  1.00  0.00     0.178 C 
BRANCH   7   8
ATOM      8  S   UNL A   1      31.585  27.608  24.280  1.00  0.00    -0.076 SA
BRANCH   8   9
ATOM      9  C   UNL A   1      32.420  26.508  23.217  1.00  0.00     0.196 A 
ATOM     10  N   UNL A   1      33.178  26.823  22.195  1.00  0.00    -0.123 NA
ATOM     11  N   UNL A   1      32.499  25.149  23.469  1.00  0.00    -0.272 N 
ATOM     12  N   UNL A   1      33.827  25.677  21.792  1.00  0.00    -0.134 NA
ATOM     13  C   UNL A   1      33.457  24.677  22.577  1.00  0.00     0.142 A 
BRANCH  11  14
ATOM     14  C   UNL A   1      32.023  24.548  24.650  1.00  0.00     0.068 A 
ATOM     15  C   UNL A   1      30.950  23.664  24.531  1.00  0.00     0.028 A 
ATOM     16  C   UNL A   1      32.738  24.643  25.855  1.00  0.00     0.065 A 
ATOM     17  C   UNL A   1      30.601  22.893  25.635  1.00  0.00     0.002 A 
ATOM     18  C   UNL A   1      32.318  23.910  26.969  1.00  0.00     0.023 A 
ATOM     19  Cl  UNL A   1      34.121  25.657  26.034  1.00  0.00    -0.082 Cl
ATOM     20  C   UNL A   1      31.245  23.032  26.859  1.00  0.00     0.002 A 
ENDBRANCH  11  14
BRANCH  13  21
ATOM     21  C   UNL A   1      34.047  23.292  22.563  1.00  0.00     0.113 C 
BRANCH  21  22
ATOM     22  C   UNL A   1      34.995  22.963  23.698  1.00  0.00    -0.037 A 
ATOM     23  C   UNL A   1      34.794  21.864  24.538  1.00  0.00     0.024 A 
ATOM     24  C   UNL A   1      36.157  23.714  23.900  1.00  0.00     0.024 A 
ATOM     25  C   UNL A   1      35.727  21.598  25.533  1.00  0.00     0.111 A 
ATOM     26  C   UNL A   1      37.013  23.400  24.948  1.00  0.00     0.111 A 
ATOM     27  N   UNL A   1      36.833  22.335  25.756  1.00  0.00    -0.265 NA
ENDBRANCH  21  22
ENDBRANCH  13  21
ENDBRANCH   8   9
ENDBRANCH   7   8
ENDBRANCH   5   7
ENDBRANCH   2   3
ENDBRANCH   1   2
BRANCH   1  28
ATOM     28  C   UNL A   1      34.644  32.266  28.130  1.00  0.00     0.023 C 
BRANCH  28  29
ATOM     29  C   UNL A   1      35.489  33.222  28.966  1.00  0.00     0.116 C 
BRANCH  29  30
ATOM     30  N   UNL A   1      34.990  33.422  30.326  1.00  0.00    -0.352 N 
ATOM     31  C   UNL A   1      35.222  32.628  31.443  1.00  0.00     0.251 C 
ATOM     32  H   UNL A   1      34.423  34.215  30.468  1.00  0.00     0.163 HD
ATOM     33  O   UNL A   1      34.460  32.654  32.395  1.00  0.00    -0.269 OA
BRANCH  31  34
ATOM     34  C   UNL A   1      36.417  31.755  31.461  1.00  0.00     0.039 A 
ATOM     35  C   UNL A   1      36.350  30.390  31.163  1.00  0.00     0.014 A 
ATOM     36  C   UNL A   1      37.637  32.335  31.786  1.00  0.00     0.014 A 
ATOM     37  C   UNL A   1      37.537  29.650  31.092  1.00  0.00     0.010 A 
ATOM     38  C   UNL A   1      38.808  31.639  31.593  1.00  0.00     0.010 A 
ATOM     39  C   UNL A   1      38.778  30.287  31.276  1.00  0.00    -0.014 A 
BRANCH  39  40
ATOM     40  C   UNL A   1      40.041  29.598  30.978  1.00  0.00     0.031 A 
ATOM     41  C   UNL A   1      40.863  29.285  32.183  1.00  0.00     0.074 A 
ATOM     42  C   UNL A   1      40.372  29.061  29.776  1.00  0.00     0.049 A 
ATOM     43  N   UNL A   1      41.978  29.842  32.511  1.00  0.00    -0.248 NA
ATOM     44  C   UNL A   1      40.338  28.367  33.210  1.00  0.00     0.031 C 
ATOM     45  C   UNL A   1      39.566  29.003  28.548  1.00  0.00     0.029 A 
ATOM     46  N   UNL A   1      41.447  28.284  29.448  1.00  0.00    -0.354 N 
ATOM     47  C   UNL A   1      42.425  29.185  33.650  1.00  0.00     0.074 A 
ATOM     48  C   UNL A   1      41.298  28.431  34.139  1.00  0.00     0.031 C 
ATOM     49  C   UNL A   1      40.048  28.036  27.728  1.00  0.00     0.029 A 
ATOM     50  C   UNL A   1      41.303  27.541  28.270  1.00  0.00     0.049 A 
ATOM     51  H   UNL A   1      42.262  28.249  29.999  1.00  0.00     0.167 HD
ATOM     52  C   UNL A   1      43.755  29.126  33.950  1.00  0.00     0.031 A 
ATOM     53  C   UNL A   1      42.154  26.590  27.790  1.00  0.00     0.031 A 
ATOM     54  C   UNL A   1      44.519  30.025  33.115  1.00  0.00     0.049 A 
ATOM     55  C   UNL A   1      43.480  26.870  28.380  1.00  0.00     0.074 A 
ATOM     56  C   UNL A   1      44.490  31.384  32.861  1.00  0.00     0.029 A 
ATOM     57  N   UNL A   1      45.200  29.463  32.058  1.00  0.00    -0.354 N 
ATOM     58  N   UNL A   1      44.149  27.950  28.108  1.00  0.00    -0.248 NA
ATOM     59  C   UNL A   1      43.855  26.189  29.607  1.00  0.00     0.031 C 
ATOM     60  C   UNL A   1      44.694  31.497  31.453  1.00  0.00     0.029 A 
ATOM     61  C   UNL A   1      44.931  30.219  30.946  1.00  0.00     0.049 A 
ATOM     62  H   UNL A   1      45.775  28.664  32.095  1.00  0.00     0.167 HD
ATOM     63  C   UNL A   1      44.663  28.349  29.329  1.00  0.00     0.074 A 
ATOM     64  C   UNL A   1      44.561  27.166  30.185  1.00  0.00     0.031 C 
ATOM     65  C   UNL A   1      44.839  29.675  29.610  1.00  0.00     0.031 A 
BRANCH  52  66
ATOM     66  C   UNL A   1      44.416  27.979  34.678  1.00  0.00    -0.014 A 
ATOM     67  C   UNL A   1      44.627  26.772  33.980  1.00  0.00     0.010 A 
ATOM     68  C   UNL A   1      44.576  27.943  36.078  1.00  0.00     0.010 A 
ATOM     69  C   UNL A   1      44.890  25.574  34.656  1.00  0.00     0.020 A 
ATOM     70  C   UNL A   1      44.881  26.762  36.759  1.00  0.00     0.020 A 
ATOM     71  C   UNL A   1      44.998  25.576  36.046  1.00  0.00     0.054 A 
BRANCH  71  72
ATOM     72  S   UNL A   1      45.225  24.008  36.918  1.00  0.00     0.124 S 
ATOM     73  O   UNL A   1      46.677  23.862  36.893  1.00  0.00    -0.237 OA
ATOM     74  O   UNL A   1      44.637  24.295  38.223  1.00  0.00    -0.237 OA
ATOM     75  O   UNL A   1      44.482  23.053  36.099  1.00  0.00    -0.744 OA
ENDBRANCH  71  72
ENDBRANCH  52  66
BRANCH  53  76
ATOM     76  C   UNL A   1      41.879  25.278  27.145  1.00  0.00    -0.014 A 
ATOM     77  C   UNL A   1      42.885  24.499  26.542  1.00  0.00     0.010 A 
ATOM     78  C   UNL A   1      40.672  24.634  27.441  1.00  0.00     0.010 A 
ATOM     79  C   UNL A   1      42.698  23.120  26.303  1.00  0.00     0.020 A 
ATOM     80  C   UNL A   1      40.490  23.260  27.248  1.00  0.00     0.020 A 
ATOM     81  C   UNL A   1      41.508  22.503  26.687  1.00  0.00     0.054 A 
BRANCH  81  82
ATOM     82  S   UNL A   1      41.280  20.714  26.456  1.00  0.00     0.124 S 
ATOM     83  O   UNL A   1      39.912  20.649  25.952  1.00  0.00    -0.237 OA
ATOM     84  O   UNL A   1      42.330  20.388  25.499  1.00  0.00    -0.237 OA
ATOM     85  O   UNL A   1      41.474  20.172  27.799  1.00  0.00    -0.744 OA
ENDBRANCH  81  82
ENDBRANCH  53  76
BRANCH  65  86
ATOM     86  C   UNL A   1      44.709  30.663  28.467  1.00  0.00    -0.014 A 
ATOM     87  C   UNL A   1      43.514  30.901  27.755  1.00  0.00     0.010 A 
ATOM     88  C   UNL A   1      45.827  31.456  28.164  1.00  0.00     0.010 A 
ATOM     89  C   UNL A   1      43.459  31.859  26.730  1.00  0.00     0.020 A 
ATOM     90  C   UNL A   1      45.776  32.425  27.158  1.00  0.00     0.020 A 
ATOM     91  C   UNL A   1      44.599  32.608  26.432  1.00  0.00     0.054 A 
BRANCH  91  92
ATOM     92  S   UNL A   1      44.536  33.831  25.094  1.00  0.00     0.124 S 
ATOM     93  O   UNL A   1      44.152  33.021  23.942  1.00  0.00    -0.237 OA
ATOM     94  O   UNL A   1      43.524  34.774  25.565  1.00  0.00    -0.237 OA
ATOM     95  O   UNL A   1      45.896  34.366  25.048  1.00  0.00    -0.744 OA
ENDBRANCH  91  92
ENDBRANCH  65  86
ENDBRANCH  39  40
ENDBRANCH  31  34
ENDBRANCH  29  30
ENDBRANCH  28  29
ENDBRANCH   1  28
TORSDOF 19
ENDMDL
