MODEL 1
REMARK VINA RESULT:     -13.3      0.000      0.000
REMARK SMILES Cc1ccc(Nc2c(F)cccc2Cl)c(CC(=O)NCCCCNC(=O)c2ccc(-c3c4nc(c(-c5ccc(S(=O)(=O)[O-])cc5)c5ccc([nH]5)c(-c5ccc(S(=O)(=O)[O-])cc5)c5nc(c(-c6ccc(S(=O)(=O)[O-])cc6)c6ccc3[nH]6)C=C5)C=C4)cc2)c1
REMARK SMILES IDX 21 1 20 2 19 3 17 4 18 5 16 7 15 8 1 9 2 10 3 11 87 12 4 13
REMARK SMILES IDX 5 14 6 15 7 17 8 18 13 19 9 20 10 21 12 22 14 23 11 24 22 25
REMARK SMILES IDX 23 26 24 27 25 28 26 30 27 31 28 32 86 33 29 34 85 35 30 36
REMARK SMILES IDX 31 37 32 38 79 39 33 40 84 41 78 42 80 43 34 44 83 45 77 46
REMARK SMILES IDX 76 47 35 49 65 50 46 51 64 52 47 53 50 54 63 55 81 56 48 57
REMARK SMILES IDX 49 58 62 60 82 61 51 62 36 63 37 64 45 65 38 66 44 67 39 68
REMARK SMILES IDX 40 69 41 70 42 71 43 72 66 73 67 74 75 75 68 76 74 77 69 78
REMARK SMILES IDX 70 79 71 80 72 81 73 82 52 83 53 84 61 85 54 86 60 87 55 88
REMARK SMILES IDX 56 89 57 90 58 91 59 92
REMARK H PARENT 19 6 6 16 24 29 80 48 50 59
REMARK Flexibility Score: inf
ROOT
ATOM      1  C   UNL A   1      35.514  23.796  25.855  1.00  0.00     0.023 C 
ENDROOT
BRANCH   1   2
ATOM      2  C   UNL A   1      34.573  23.332  24.731  1.00  0.00     0.116 C 
BRANCH   2   3
ATOM      3  N   UNL A   1      34.648  24.162  23.537  1.00  0.00    -0.356 N 
ATOM      4  C   UNL A   1      33.829  25.167  23.120  1.00  0.00     0.224 C 
ATOM      5  O   UNL A   1      34.023  25.671  22.010  1.00  0.00    -0.275 OA
ATOM      6  H   UNL A   1      35.406  23.967  22.941  1.00  0.00     0.163 HD
BRANCH   4   7
ATOM      7  C   UNL A   1      32.672  25.644  23.976  1.00  0.00     0.137 C 
BRANCH   7   8
ATOM      8  C   UNL A   1      32.814  27.078  24.438  1.00  0.00    -0.015 A 
ATOM      9  C   UNL A   1      34.707  28.805  27.276  1.00  0.00     0.044 C 
ATOM     10  C   UNL A   1      33.837  28.586  26.075  1.00  0.00    -0.051 A 
ATOM     11  C   UNL A   1      33.056  29.625  25.575  1.00  0.00     0.005 A 
ATOM     12  C   UNL A   1      33.735  27.328  25.479  1.00  0.00     0.009 A 
ATOM     13  C   UNL A   1      32.181  29.402  24.508  1.00  0.00     0.026 A 
ATOM     14  C   UNL A   1      32.023  28.133  23.928  1.00  0.00     0.042 A 
BRANCH  14  15
ATOM     15  N   UNL A   1      31.109  27.923  22.869  1.00  0.00    -0.352 N 
ATOM     16  H   UNL A   1      31.463  27.409  22.107  1.00  0.00     0.167 HD
BRANCH  15  17
ATOM     17  C   UNL A   1      29.763  28.341  22.740  1.00  0.00     0.094 A 
ATOM     18  C   UNL A   1      29.403  29.503  22.040  1.00  0.00     0.148 A 
ATOM     19  C   UNL A   1      28.733  27.649  23.404  1.00  0.00     0.067 A 
ATOM     20  F   UNL A   1      30.325  30.203  21.362  1.00  0.00    -0.205 F 
ATOM     21  C   UNL A   1      28.085  29.965  22.004  1.00  0.00     0.041 A 
ATOM     22  C   UNL A   1      27.409  28.109  23.375  1.00  0.00     0.023 A 
ATOM     23  Cl  UNL A   1      29.062  26.220  24.324  1.00  0.00    -0.082 Cl
ATOM     24  C   UNL A   1      27.085  29.270  22.678  1.00  0.00     0.005 A 
ENDBRANCH  15  17
ENDBRANCH  14  15
ENDBRANCH   7   8
ENDBRANCH   4   7
ENDBRANCH   2   3
ENDBRANCH   1   2
BRANCH   1  25
ATOM     25  C   UNL A   1      36.750  22.925  26.088  1.00  0.00     0.023 C 
BRANCH  25  26
ATOM     26  C   UNL A   1      38.056  23.684  25.916  1.00  0.00     0.116 C 
BRANCH  26  27
ATOM     27  N   UNL A   1      39.132  23.226  26.783  1.00  0.00    -0.352 N 
ATOM     28  C   UNL A   1      39.958  24.011  27.570  1.00  0.00     0.251 C 
ATOM     29  H   UNL A   1      39.289  22.255  26.813  1.00  0.00     0.163 HD
ATOM     30  O   UNL A   1      40.962  23.573  28.110  1.00  0.00    -0.269 OA
BRANCH  28  31
ATOM     31  C   UNL A   1      39.506  25.393  27.831  1.00  0.00     0.039 A 
ATOM     32  C   UNL A   1      39.985  26.389  26.972  1.00  0.00     0.014 A 
ATOM     33  C   UNL A   1      38.904  25.715  29.045  1.00  0.00     0.014 A 
ATOM     34  C   UNL A   1      40.033  27.707  27.417  1.00  0.00     0.010 A 
ATOM     35  C   UNL A   1      39.035  27.007  29.518  1.00  0.00     0.010 A 
ATOM     36  C   UNL A   1      39.650  27.989  28.726  1.00  0.00    -0.014 A 
BRANCH  36  37
ATOM     37  C   UNL A   1      39.918  29.261  29.388  1.00  0.00     0.031 A 
ATOM     38  C   UNL A   1      38.954  30.377  29.255  1.00  0.00     0.074 A 
ATOM     39  C   UNL A   1      41.000  29.411  30.187  1.00  0.00     0.049 A 
ATOM     40  N   UNL A   1      39.219  31.603  29.555  1.00  0.00    -0.248 NA
ATOM     41  C   UNL A   1      37.623  30.208  28.670  1.00  0.00     0.031 C 
ATOM     42  C   UNL A   1      41.219  30.467  31.175  1.00  0.00     0.029 A 
ATOM     43  N   UNL A   1      42.243  28.782  30.093  1.00  0.00    -0.354 N 
ATOM     44  C   UNL A   1      38.029  32.286  29.553  1.00  0.00     0.074 A 
ATOM     45  C   UNL A   1      37.113  31.431  28.840  1.00  0.00     0.031 C 
ATOM     46  C   UNL A   1      42.539  30.619  31.353  1.00  0.00     0.029 A 
ATOM     47  C   UNL A   1      43.199  29.778  30.371  1.00  0.00     0.049 A 
ATOM     48  H   UNL A   1      42.416  27.838  29.876  1.00  0.00     0.167 HD
ATOM     49  C   UNL A   1      37.910  33.418  30.302  1.00  0.00     0.031 A 
ATOM     50  C   UNL A   1      44.141  30.202  29.478  1.00  0.00     0.031 A 
ATOM     51  C   UNL A   1      39.213  33.939  30.722  1.00  0.00     0.049 A 
ATOM     52  C   UNL A   1      44.087  31.693  29.180  1.00  0.00     0.074 A 
ATOM     53  C   UNL A   1      39.863  34.113  31.932  1.00  0.00     0.029 A 
ATOM     54  N   UNL A   1      40.167  34.184  29.742  1.00  0.00    -0.354 N 
ATOM     55  N   UNL A   1      43.223  32.523  29.696  1.00  0.00    -0.248 NA
ATOM     56  C   UNL A   1      44.944  32.341  28.187  1.00  0.00     0.031 C 
ATOM     57  C   UNL A   1      41.229  34.437  31.660  1.00  0.00     0.029 A 
ATOM     58  C   UNL A   1      41.396  34.490  30.289  1.00  0.00     0.049 A 
ATOM     59  H   UNL A   1      39.987  34.146  28.775  1.00  0.00     0.167 HD
ATOM     60  C   UNL A   1      43.344  33.753  29.099  1.00  0.00     0.074 A 
ATOM     61  C   UNL A   1      44.443  33.589  28.164  1.00  0.00     0.031 C 
ATOM     62  C   UNL A   1      42.499  34.790  29.383  1.00  0.00     0.031 A 
BRANCH  49  63
ATOM     63  C   UNL A   1      36.580  33.943  30.815  1.00  0.00    -0.014 A 
ATOM     64  C   UNL A   1      35.500  34.127  29.927  1.00  0.00     0.010 A 
ATOM     65  C   UNL A   1      36.367  34.396  32.135  1.00  0.00     0.010 A 
ATOM     66  C   UNL A   1      34.303  34.753  30.326  1.00  0.00     0.020 A 
ATOM     67  C   UNL A   1      35.171  34.989  32.557  1.00  0.00     0.020 A 
ATOM     68  C   UNL A   1      34.149  35.188  31.642  1.00  0.00     0.054 A 
BRANCH  68  69
ATOM     69  S   UNL A   1      32.637  36.047  32.147  1.00  0.00     0.124 S 
ATOM     70  O   UNL A   1      32.230  36.711  30.912  1.00  0.00    -0.237 OA
ATOM     71  O   UNL A   1      31.781  34.954  32.592  1.00  0.00    -0.237 OA
ATOM     72  O   UNL A   1      33.088  36.947  33.209  1.00  0.00    -0.744 OA
ENDBRANCH  68  69
ENDBRANCH  49  63
BRANCH  50  73
ATOM     73  C   UNL A   1      44.576  29.151  28.514  1.00  0.00    -0.014 A 
ATOM     74  C   UNL A   1      43.961  29.144  27.244  1.00  0.00     0.010 A 
ATOM     75  C   UNL A   1      45.813  28.504  28.676  1.00  0.00     0.010 A 
ATOM     76  C   UNL A   1      44.649  28.671  26.126  1.00  0.00     0.020 A 
ATOM     77  C   UNL A   1      46.501  28.019  27.555  1.00  0.00     0.020 A 
ATOM     78  C   UNL A   1      45.943  28.175  26.283  1.00  0.00     0.054 A 
BRANCH  78  79
ATOM     79  S   UNL A   1      46.953  27.953  24.788  1.00  0.00     0.124 S 
ATOM     80  O   UNL A   1      46.546  26.629  24.328  1.00  0.00    -0.237 OA
ATOM     81  O   UNL A   1      46.504  29.074  23.963  1.00  0.00    -0.237 OA
ATOM     82  O   UNL A   1      48.319  28.055  25.290  1.00  0.00    -0.744 OA
ENDBRANCH  78  79
ENDBRANCH  50  73
BRANCH  62  83
ATOM     83  C   UNL A   1      42.572  36.176  28.774  1.00  0.00    -0.014 A 
ATOM     84  C   UNL A   1      41.988  36.528  27.547  1.00  0.00     0.010 A 
ATOM     85  C   UNL A   1      43.351  37.172  29.412  1.00  0.00     0.010 A 
ATOM     86  C   UNL A   1      42.103  37.829  27.030  1.00  0.00     0.020 A 
ATOM     87  C   UNL A   1      43.492  38.464  28.898  1.00  0.00     0.020 A 
ATOM     88  C   UNL A   1      42.846  38.793  27.716  1.00  0.00     0.054 A 
BRANCH  88  89
ATOM     89  S   UNL A   1      42.991  40.459  27.022  1.00  0.00     0.124 S 
ATOM     90  O   UNL A   1      43.636  41.197  28.105  1.00  0.00    -0.237 OA
ATOM     91  O   UNL A   1      43.819  40.226  25.842  1.00  0.00    -0.237 OA
ATOM     92  O   UNL A   1      41.610  40.846  26.746  1.00  0.00    -0.744 OA
ENDBRANCH  88  89
ENDBRANCH  62  83
ENDBRANCH  36  37
ENDBRANCH  28  31
ENDBRANCH  26  27
ENDBRANCH  25  26
ENDBRANCH   1  25
TORSDOF 17
ENDMDL
MODEL 2
REMARK VINA RESULT:     -13.0      5.220     11.635
REMARK SMILES Cc1ccc(Nc2c(F)cccc2Cl)c(CC(=O)NCCCCNC(=O)c2ccc(-c3c4nc(c(-c5ccc(S(=O)(=O)[O-])cc5)c5ccc([nH]5)c(-c5ccc(S(=O)(=O)[O-])cc5)c5nc(c(-c6ccc(S(=O)(=O)[O-])cc6)c6ccc3[nH]6)C=C5)C=C4)cc2)c1
REMARK SMILES IDX 21 1 20 2 19 3 17 4 18 5 16 7 15 8 1 9 2 10 3 11 87 12 4 13
REMARK SMILES IDX 5 14 6 15 7 17 8 18 13 19 9 20 10 21 12 22 14 23 11 24 22 25
REMARK SMILES IDX 23 26 24 27 25 28 26 30 27 31 28 32 86 33 29 34 85 35 30 36
REMARK SMILES IDX 31 37 32 38 79 39 33 40 84 41 78 42 80 43 34 44 83 45 77 46
REMARK SMILES IDX 76 47 35 49 65 50 46 51 64 52 47 53 50 54 63 55 81 56 48 57
REMARK SMILES IDX 49 58 62 60 82 61 51 62 36 63 37 64 45 65 38 66 44 67 39 68
REMARK SMILES IDX 40 69 41 70 42 71 43 72 66 73 67 74 75 75 68 76 74 77 69 78
REMARK SMILES IDX 70 79 71 80 72 81 73 82 52 83 53 84 61 85 54 86 60 87 55 88
REMARK SMILES IDX 56 89 57 90 58 91 59 92
REMARK H PARENT 19 6 6 16 24 29 80 48 50 59
REMARK Flexibility Score: inf
ROOT
ATOM      1  C   UNL A   1      32.146  29.120  27.149  1.00  0.00     0.023 C 
ENDROOT
BRANCH   1   2
ATOM      2  C   UNL A   1      31.732  28.297  25.919  1.00  0.00     0.116 C 
BRANCH   2   3
ATOM      3  N   UNL A   1      31.004  27.082  26.256  1.00  0.00    -0.356 N 
ATOM      4  C   UNL A   1      31.438  25.793  26.316  1.00  0.00     0.224 C 
ATOM      5  O   UNL A   1      30.615  24.897  26.525  1.00  0.00    -0.275 OA
ATOM      6  H   UNL A   1      30.054  27.213  26.475  1.00  0.00     0.163 HD
BRANCH   4   7
ATOM      7  C   UNL A   1      32.898  25.444  26.097  1.00  0.00     0.137 C 
BRANCH   7   8
ATOM      8  C   UNL A   1      33.200  24.970  24.692  1.00  0.00    -0.015 A 
ATOM      9  C   UNL A   1      31.925  25.912  21.212  1.00  0.00     0.044 C 
ATOM     10  C   UNL A   1      32.692  25.240  22.311  1.00  0.00    -0.051 A 
ATOM     11  C   UNL A   1      33.464  24.113  22.040  1.00  0.00     0.005 A 
ATOM     12  C   UNL A   1      32.595  25.680  23.631  1.00  0.00     0.009 A 
ATOM     13  C   UNL A   1      34.112  23.434  23.075  1.00  0.00     0.026 A 
ATOM     14  C   UNL A   1      33.985  23.827  24.417  1.00  0.00     0.042 A 
BRANCH  14  15
ATOM     15  N   UNL A   1      34.627  23.108  25.453  1.00  0.00    -0.352 N 
ATOM     16  H   UNL A   1      34.256  23.252  26.354  1.00  0.00     0.167 HD
BRANCH  15  17
ATOM     17  C   UNL A   1      35.721  22.212  25.388  1.00  0.00     0.094 A 
ATOM     18  C   UNL A   1      37.052  22.647  25.481  1.00  0.00     0.148 A 
ATOM     19  C   UNL A   1      35.512  20.846  25.124  1.00  0.00     0.067 A 
ATOM     20  F   UNL A   1      37.332  23.931  25.755  1.00  0.00    -0.205 F 
ATOM     21  C   UNL A   1      38.129  21.773  25.313  1.00  0.00     0.041 A 
ATOM     22  C   UNL A   1      36.586  19.964  24.951  1.00  0.00     0.023 A 
ATOM     23  Cl  UNL A   1      33.914  20.200  24.958  1.00  0.00    -0.082 Cl
ATOM     24  C   UNL A   1      37.896  20.428  25.041  1.00  0.00     0.005 A 
ENDBRANCH  15  17
ENDBRANCH  14  15
ENDBRANCH   7   8
ENDBRANCH   4   7
ENDBRANCH   2   3
ENDBRANCH   1   2
BRANCH   1  25
ATOM     25  C   UNL A   1      33.600  28.960  27.596  1.00  0.00     0.023 C 
BRANCH  25  26
ATOM     26  C   UNL A   1      34.585  29.690  26.696  1.00  0.00     0.116 C 
BRANCH  26  27
ATOM     27  N   UNL A   1      35.175  30.878  27.295  1.00  0.00    -0.352 N 
ATOM     28  C   UNL A   1      36.317  30.937  28.076  1.00  0.00     0.251 C 
ATOM     29  H   UNL A   1      34.714  31.731  27.127  1.00  0.00     0.163 HD
ATOM     30  O   UNL A   1      36.633  31.935  28.706  1.00  0.00    -0.269 OA
BRANCH  28  31
ATOM     31  C   UNL A   1      37.215  29.764  28.025  1.00  0.00     0.039 A 
ATOM     32  C   UNL A   1      37.276  28.962  29.170  1.00  0.00     0.014 A 
ATOM     33  C   UNL A   1      38.173  29.661  27.019  1.00  0.00     0.014 A 
ATOM     34  C   UNL A   1      38.407  28.184  29.398  1.00  0.00     0.010 A 
ATOM     35  C   UNL A   1      39.333  28.959  27.289  1.00  0.00     0.010 A 
ATOM     36  C   UNL A   1      39.472  28.267  28.503  1.00  0.00    -0.014 A 
BRANCH  36  37
ATOM     37  C   UNL A   1      40.799  27.728  28.776  1.00  0.00     0.031 A 
ATOM     38  C   UNL A   1      41.078  26.297  28.522  1.00  0.00     0.074 A 
ATOM     39  C   UNL A   1      41.803  28.537  29.189  1.00  0.00     0.049 A 
ATOM     40  N   UNL A   1      42.107  25.666  28.981  1.00  0.00    -0.248 NA
ATOM     41  C   UNL A   1      40.153  25.426  27.797  1.00  0.00     0.031 C 
ATOM     42  C   UNL A   1      43.234  28.237  29.167  1.00  0.00     0.029 A 
ATOM     43  N   UNL A   1      41.720  29.704  29.952  1.00  0.00    -0.354 N 
ATOM     44  C   UNL A   1      42.163  24.459  28.331  1.00  0.00     0.074 A 
ATOM     45  C   UNL A   1      40.856  24.291  27.747  1.00  0.00     0.031 C 
ATOM     46  C   UNL A   1      43.840  28.975  30.107  1.00  0.00     0.029 A 
ATOM     47  C   UNL A   1      42.795  29.646  30.859  1.00  0.00     0.049 A 
ATOM     48  H   UNL A   1      41.049  30.420  29.872  1.00  0.00     0.167 HD
ATOM     49  C   UNL A   1      43.361  23.821  28.218  1.00  0.00     0.031 A 
ATOM     50  C   UNL A   1      42.646  29.596  32.216  1.00  0.00     0.031 A 
ATOM     51  C   UNL A   1      44.363  24.363  29.139  1.00  0.00     0.049 A 
ATOM     52  C   UNL A   1      43.287  28.379  32.867  1.00  0.00     0.074 A 
ATOM     53  C   UNL A   1      45.566  25.036  29.005  1.00  0.00     0.029 A 
ATOM     54  N   UNL A   1      44.047  24.420  30.490  1.00  0.00    -0.354 N 
ATOM     55  N   UNL A   1      43.917  27.436  32.220  1.00  0.00    -0.248 NA
ATOM     56  C   UNL A   1      43.171  28.081  34.294  1.00  0.00     0.031 C 
ATOM     57  C   UNL A   1      45.948  25.524  30.294  1.00  0.00     0.029 A 
ATOM     58  C   UNL A   1      44.996  25.118  31.209  1.00  0.00     0.049 A 
ATOM     59  H   UNL A   1      43.244  24.012  30.887  1.00  0.00     0.167 HD
ATOM     60  C   UNL A   1      44.229  26.411  33.078  1.00  0.00     0.074 A 
ATOM     61  C   UNL A   1      43.746  26.868  34.370  1.00  0.00     0.031 C 
ATOM     62  C   UNL A   1      44.810  25.250  32.651  1.00  0.00     0.031 A 
BRANCH  49  63
ATOM     63  C   UNL A   1      43.673  22.820  27.118  1.00  0.00    -0.014 A 
ATOM     64  C   UNL A   1      42.914  21.637  27.000  1.00  0.00     0.010 A 
ATOM     65  C   UNL A   1      44.781  22.922  26.249  1.00  0.00     0.010 A 
ATOM     66  C   UNL A   1      43.263  20.613  26.097  1.00  0.00     0.020 A 
ATOM     67  C   UNL A   1      45.120  21.930  25.322  1.00  0.00     0.020 A 
ATOM     68  C   UNL A   1      44.372  20.764  25.267  1.00  0.00     0.054 A 
BRANCH  68  69
ATOM     69  S   UNL A   1      44.861  19.428  24.147  1.00  0.00     0.124 S 
ATOM     70  O   UNL A   1      44.035  18.316  24.611  1.00  0.00    -0.237 OA
ATOM     71  O   UNL A   1      44.519  19.967  22.835  1.00  0.00    -0.237 OA
ATOM     72  O   UNL A   1      46.295  19.275  24.395  1.00  0.00    -0.744 OA
ENDBRANCH  68  69
ENDBRANCH  49  63
BRANCH  50  73
ATOM     73  C   UNL A   1      41.426  30.291  32.716  1.00  0.00    -0.014 A 
ATOM     74  C   UNL A   1      40.293  29.494  32.986  1.00  0.00     0.010 A 
ATOM     75  C   UNL A   1      41.522  31.563  33.306  1.00  0.00     0.010 A 
ATOM     76  C   UNL A   1      39.376  29.875  33.967  1.00  0.00     0.020 A 
ATOM     77  C   UNL A   1      40.595  31.952  34.284  1.00  0.00     0.020 A 
ATOM     78  C   UNL A   1      39.575  31.071  34.656  1.00  0.00     0.054 A 
BRANCH  78  79
ATOM     79  S   UNL A   1      38.620  31.341  36.179  1.00  0.00     0.124 S 
ATOM     80  O   UNL A   1      37.447  32.057  35.691  1.00  0.00    -0.237 OA
ATOM     81  O   UNL A   1      38.384  29.967  36.622  1.00  0.00    -0.237 OA
ATOM     82  O   UNL A   1      39.533  32.117  37.012  1.00  0.00    -0.744 OA
ENDBRANCH  78  79
ENDBRANCH  50  73
BRANCH  62  83
ATOM     83  C   UNL A   1      45.191  24.079  33.534  1.00  0.00    -0.014 A 
ATOM     84  C   UNL A   1      44.305  23.061  33.916  1.00  0.00     0.010 A 
ATOM     85  C   UNL A   1      46.488  24.035  34.102  1.00  0.00     0.010 A 
ATOM     86  C   UNL A   1      44.718  22.007  34.749  1.00  0.00     0.020 A 
ATOM     87  C   UNL A   1      46.906  23.005  34.950  1.00  0.00     0.020 A 
ATOM     88  C   UNL A   1      46.021  21.981  35.253  1.00  0.00     0.054 A 
BRANCH  88  89
ATOM     89  S   UNL A   1      46.525  20.621  36.336  1.00  0.00     0.124 S 
ATOM     90  O   UNL A   1      46.325  19.450  35.486  1.00  0.00    -0.237 OA
ATOM     91  O   UNL A   1      47.917  20.958  36.620  1.00  0.00    -0.237 OA
ATOM     92  O   UNL A   1      45.615  20.723  37.474  1.00  0.00    -0.744 OA
ENDBRANCH  88  89
ENDBRANCH  62  83
ENDBRANCH  36  37
ENDBRANCH  28  31
ENDBRANCH  26  27
ENDBRANCH  25  26
ENDBRANCH   1  25
TORSDOF 17
ENDMDL
MODEL 3
REMARK VINA RESULT:     -13.0      1.673      2.735
REMARK SMILES Cc1ccc(Nc2c(F)cccc2Cl)c(CC(=O)NCCCCNC(=O)c2ccc(-c3c4nc(c(-c5ccc(S(=O)(=O)[O-])cc5)c5ccc([nH]5)c(-c5ccc(S(=O)(=O)[O-])cc5)c5nc(c(-c6ccc(S(=O)(=O)[O-])cc6)c6ccc3[nH]6)C=C5)C=C4)cc2)c1
REMARK SMILES IDX 21 1 20 2 19 3 17 4 18 5 16 7 15 8 1 9 2 10 3 11 87 12 4 13
REMARK SMILES IDX 5 14 6 15 7 17 8 18 13 19 9 20 10 21 12 22 14 23 11 24 22 25
REMARK SMILES IDX 23 26 24 27 25 28 26 30 27 31 28 32 86 33 29 34 85 35 30 36
REMARK SMILES IDX 31 37 32 38 79 39 33 40 84 41 78 42 80 43 34 44 83 45 77 46
REMARK SMILES IDX 76 47 35 49 65 50 46 51 64 52 47 53 50 54 63 55 81 56 48 57
REMARK SMILES IDX 49 58 62 60 82 61 51 62 36 63 37 64 45 65 38 66 44 67 39 68
REMARK SMILES IDX 40 69 41 70 42 71 43 72 66 73 67 74 75 75 68 76 74 77 69 78
REMARK SMILES IDX 70 79 71 80 72 81 73 82 52 83 53 84 61 85 54 86 60 87 55 88
REMARK SMILES IDX 56 89 57 90 58 91 59 92
REMARK H PARENT 19 6 6 16 24 29 80 48 50 59
REMARK Flexibility Score: inf
ROOT
ATOM      1  C   UNL A   1      35.896  22.501  25.373  1.00  0.00     0.023 C 
ENDROOT
BRANCH   1   2
ATOM      2  C   UNL A   1      35.304  23.418  26.455  1.00  0.00     0.116 C 
BRANCH   2   3
ATOM      3  N   UNL A   1      34.478  22.710  27.422  1.00  0.00    -0.356 N 
ATOM      4  C   UNL A   1      33.129  22.739  27.604  1.00  0.00     0.224 C 
ATOM      5  O   UNL A   1      32.644  22.132  28.564  1.00  0.00    -0.275 OA
ATOM      6  H   UNL A   1      34.969  22.121  28.038  1.00  0.00     0.163 HD
BRANCH   4   7
ATOM      7  C   UNL A   1      32.227  23.527  26.675  1.00  0.00     0.137 C 
BRANCH   7   8
ATOM      8  C   UNL A   1      32.250  23.031  25.246  1.00  0.00    -0.015 A 
ATOM      9  C   UNL A   1      32.458  19.581  23.610  1.00  0.00     0.044 C 
ATOM     10  C   UNL A   1      32.362  21.066  23.786  1.00  0.00    -0.051 A 
ATOM     11  C   UNL A   1      32.503  21.914  22.691  1.00  0.00     0.005 A 
ATOM     12  C   UNL A   1      32.201  21.633  25.052  1.00  0.00     0.009 A 
ATOM     13  C   UNL A   1      32.498  23.301  22.864  1.00  0.00     0.026 A 
ATOM     14  C   UNL A   1      32.392  23.892  24.134  1.00  0.00     0.042 A 
BRANCH  14  15
ATOM     15  N   UNL A   1      32.419  25.298  24.290  1.00  0.00    -0.352 N 
ATOM     16  H   UNL A   1      33.196  25.650  24.782  1.00  0.00     0.167 HD
BRANCH  15  17
ATOM     17  C   UNL A   1      31.496  26.275  23.844  1.00  0.00     0.094 A 
ATOM     18  C   UNL A   1      30.169  26.316  24.299  1.00  0.00     0.148 A 
ATOM     19  C   UNL A   1      31.856  27.192  22.839  1.00  0.00     0.067 A 
ATOM     20  F   UNL A   1      29.758  25.489  25.273  1.00  0.00    -0.205 F 
ATOM     21  C   UNL A   1      29.237  27.217  23.780  1.00  0.00     0.041 A 
ATOM     22  C   UNL A   1      30.926  28.096  22.311  1.00  0.00     0.023 A 
ATOM     23  Cl  UNL A   1      33.456  27.215  22.178  1.00  0.00    -0.082 Cl
ATOM     24  C   UNL A   1      29.614  28.106  22.777  1.00  0.00     0.005 A 
ENDBRANCH  15  17
ENDBRANCH  14  15
ENDBRANCH   7   8
ENDBRANCH   4   7
ENDBRANCH   2   3
ENDBRANCH   1   2
BRANCH   1  25
ATOM     25  C   UNL A   1      37.423  22.431  25.323  1.00  0.00     0.023 C 
BRANCH  25  26
ATOM     26  C   UNL A   1      38.097  23.564  26.081  1.00  0.00     0.116 C 
BRANCH  26  27
ATOM     27  N   UNL A   1      39.246  23.152  26.874  1.00  0.00    -0.352 N 
ATOM     28  C   UNL A   1      40.111  23.975  27.576  1.00  0.00     0.251 C 
ATOM     29  H   UNL A   1      39.428  22.185  26.915  1.00  0.00     0.163 HD
ATOM     30  O   UNL A   1      41.163  23.573  28.048  1.00  0.00    -0.269 OA
BRANCH  28  31
ATOM     31  C   UNL A   1      39.647  25.353  27.837  1.00  0.00     0.039 A 
ATOM     32  C   UNL A   1      40.121  26.354  26.981  1.00  0.00     0.014 A 
ATOM     33  C   UNL A   1      39.039  25.669  29.050  1.00  0.00     0.014 A 
ATOM     34  C   UNL A   1      40.157  27.671  27.428  1.00  0.00     0.010 A 
ATOM     35  C   UNL A   1      39.159  26.961  29.525  1.00  0.00     0.010 A 
ATOM     36  C   UNL A   1      39.768  27.949  28.736  1.00  0.00    -0.014 A 
BRANCH  36  37
ATOM     37  C   UNL A   1      40.024  29.223  29.401  1.00  0.00     0.031 A 
ATOM     38  C   UNL A   1      39.061  30.337  29.250  1.00  0.00     0.074 A 
ATOM     39  C   UNL A   1      41.093  29.375  30.216  1.00  0.00     0.049 A 
ATOM     40  N   UNL A   1      39.320  31.564  29.553  1.00  0.00    -0.248 NA
ATOM     41  C   UNL A   1      37.740  30.166  28.644  1.00  0.00     0.031 C 
ATOM     42  C   UNL A   1      41.295  30.432  31.206  1.00  0.00     0.029 A 
ATOM     43  N   UNL A   1      42.339  28.747  30.142  1.00  0.00    -0.354 N 
ATOM     44  C   UNL A   1      38.129  32.245  29.531  1.00  0.00     0.074 A 
ATOM     45  C   UNL A   1      37.225  31.388  28.805  1.00  0.00     0.031 C 
ATOM     46  C   UNL A   1      42.612  30.586  31.405  1.00  0.00     0.029 A 
ATOM     47  C   UNL A   1      43.289  29.744  30.434  1.00  0.00     0.049 A 
ATOM     48  H   UNL A   1      42.516  27.802  29.930  1.00  0.00     0.167 HD
ATOM     49  C   UNL A   1      37.997  33.378  30.276  1.00  0.00     0.031 A 
ATOM     50  C   UNL A   1      44.244  30.168  29.556  1.00  0.00     0.031 A 
ATOM     51  C   UNL A   1      39.293  33.901  30.716  1.00  0.00     0.049 A 
ATOM     52  C   UNL A   1      44.194  31.658  29.255  1.00  0.00     0.074 A 
ATOM     53  C   UNL A   1      39.924  34.078  31.936  1.00  0.00     0.029 A 
ATOM     54  N   UNL A   1      40.262  34.146  29.751  1.00  0.00    -0.354 N 
ATOM     55  N   UNL A   1      43.321  32.489  29.756  1.00  0.00    -0.248 NA
ATOM     56  C   UNL A   1      45.065  32.307  28.275  1.00  0.00     0.031 C 
ATOM     57  C   UNL A   1      41.294  34.403  31.686  1.00  0.00     0.029 A 
ATOM     58  C   UNL A   1      41.482  34.454  30.318  1.00  0.00     0.049 A 
ATOM     59  H   UNL A   1      40.098  34.106  28.782  1.00  0.00     0.167 HD
ATOM     60  C   UNL A   1      43.449  33.718  29.160  1.00  0.00     0.074 A 
ATOM     61  C   UNL A   1      44.563  33.554  28.242  1.00  0.00     0.031 C 
ATOM     62  C   UNL A   1      42.599  34.754  29.428  1.00  0.00     0.031 A 
BRANCH  49  63
ATOM     63  C   UNL A   1      36.659  33.902  30.768  1.00  0.00    -0.014 A 
ATOM     64  C   UNL A   1      35.601  34.108  29.858  1.00  0.00     0.010 A 
ATOM     65  C   UNL A   1      36.418  34.335  32.089  1.00  0.00     0.010 A 
ATOM     66  C   UNL A   1      34.398  34.735  30.240  1.00  0.00     0.020 A 
ATOM     67  C   UNL A   1      35.216  34.927  32.494  1.00  0.00     0.020 A 
ATOM     68  C   UNL A   1      34.217  35.148  31.559  1.00  0.00     0.054 A 
BRANCH  68  69
ATOM     69  S   UNL A   1      32.698  36.007  32.044  1.00  0.00     0.124 S 
ATOM     70  O   UNL A   1      32.257  36.595  30.782  1.00  0.00    -0.237 OA
ATOM     71  O   UNL A   1      31.869  34.926  32.564  1.00  0.00    -0.237 OA
ATOM     72  O   UNL A   1      33.151  36.972  33.047  1.00  0.00    -0.744 OA
ENDBRANCH  68  69
ENDBRANCH  49  63
BRANCH  50  73
ATOM     73  C   UNL A   1      44.696  29.116  28.601  1.00  0.00    -0.014 A 
ATOM     74  C   UNL A   1      44.020  29.033  27.365  1.00  0.00     0.010 A 
ATOM     75  C   UNL A   1      45.977  28.551  28.717  1.00  0.00     0.010 A 
ATOM     76  C   UNL A   1      44.680  28.568  26.226  1.00  0.00     0.020 A 
ATOM     77  C   UNL A   1      46.638  28.074  27.576  1.00  0.00     0.020 A 
ATOM     78  C   UNL A   1      46.008  28.157  26.330  1.00  0.00     0.054 A 
BRANCH  78  79
ATOM     79  S   UNL A   1      46.955  27.950  24.792  1.00  0.00     0.124 S 
ATOM     80  O   UNL A   1      46.508  29.086  23.993  1.00  0.00    -0.237 OA
ATOM     81  O   UNL A   1      48.331  28.026  25.284  1.00  0.00    -0.237 OA
ATOM     82  O   UNL A   1      46.534  26.637  24.315  1.00  0.00    -0.744 OA
ENDBRANCH  78  79
ENDBRANCH  50  73
BRANCH  62  83
ATOM     83  C   UNL A   1      42.679  36.139  28.818  1.00  0.00    -0.014 A 
ATOM     84  C   UNL A   1      43.318  37.231  29.426  1.00  0.00     0.010 A 
ATOM     85  C   UNL A   1      41.994  36.401  27.606  1.00  0.00     0.010 A 
ATOM     86  C   UNL A   1      43.346  38.495  28.812  1.00  0.00     0.020 A 
ATOM     87  C   UNL A   1      41.995  37.660  26.996  1.00  0.00     0.020 A 
ATOM     88  C   UNL A   1      42.693  38.698  27.595  1.00  0.00     0.054 A 
BRANCH  88  89
ATOM     89  S   UNL A   1      42.731  40.340  26.831  1.00  0.00     0.124 S 
ATOM     90  O   UNL A   1      43.043  41.207  27.965  1.00  0.00    -0.237 OA
ATOM     91  O   UNL A   1      43.796  40.191  25.844  1.00  0.00    -0.237 OA
ATOM     92  O   UNL A   1      41.388  40.501  26.279  1.00  0.00    -0.744 OA
ENDBRANCH  88  89
ENDBRANCH  62  83
ENDBRANCH  36  37
ENDBRANCH  28  31
ENDBRANCH  26  27
ENDBRANCH  25  26
ENDBRANCH   1  25
TORSDOF 17
ENDMDL
