MODEL 1
REMARK VINA RESULT:     -12.1      0.000      0.000
REMARK SMILES Cc1ccc(C(=O)N2CCCC[C@@H]2C(=O)NCCCCNC(=O)c2ccc(-c3c4nc(c(-c5ccc(S(=O)(=O)[O-])cc5)c5ccc([nH]5)c(-c5ccc(S(=O)(=O)[O-])cc5)c5nc(c(-c6ccc(S(=O)(=O)[O-])cc6)c6ccc3[nH]6)C=C5)C=C4)cc2)cc1S(=O)(=O)N1CCCCC1
REMARK SMILES IDX 18 1 17 2 16 3 14 4 15 5 13 7 8 8 9 9 10 10 12 11 11 12 6 13
REMARK SMILES IDX 7 14 5 15 1 16 2 17 3 18 85 19 4 20 84 21 86 22 87 23 88 24
REMARK SMILES IDX 89 25 90 26 94 27 91 28 93 29 92 30 19 31 20 32 21 33 22 34
REMARK SMILES IDX 23 36 24 37 25 38 83 39 26 40 82 41 27 42 28 43 29 44 76 45
REMARK SMILES IDX 30 46 81 47 75 48 77 49 31 50 80 51 74 52 73 53 32 55 62 56
REMARK SMILES IDX 43 57 61 58 44 59 47 60 60 61 78 62 45 63 46 64 59 66 79 67
REMARK SMILES IDX 48 68 33 69 34 70 42 71 35 72 41 73 36 74 37 75 38 76 39 77
REMARK SMILES IDX 40 78 63 79 64 80 72 81 65 82 71 83 66 84 67 85 68 86 69 87
REMARK SMILES IDX 70 88 49 89 50 90 58 91 51 92 57 93 52 94 53 95 54 96 55 97
REMARK SMILES IDX 56 98
REMARK H PARENT 16 6 21 35 77 54 47 65
REMARK Flexibility Score: inf
ROOT
ATOM      1  C   UNL A   1      34.323  30.837  27.606  1.00  0.00     0.023 C 
ENDROOT
BRANCH   1   2
ATOM      2  C   UNL A   1      33.249  30.100  26.809  1.00  0.00     0.116 C 
BRANCH   2   3
ATOM      3  N   UNL A   1      33.782  29.647  25.537  1.00  0.00    -0.354 N 
ATOM      4  C   UNL A   1      33.192  28.900  24.569  1.00  0.00     0.242 C 
ATOM      5  O   UNL A   1      33.920  28.399  23.709  1.00  0.00    -0.273 OA
ATOM      6  H   UNL A   1      34.708  29.921  25.349  1.00  0.00     0.163 HD
BRANCH   4   7
ATOM      7  C   UNL A   1      31.685  28.589  24.623  1.00  0.00     0.174 C 
ATOM      8  N   UNL A   1      31.360  27.200  25.048  1.00  0.00    -0.327 N 
ATOM      9  C   UNL A   1      30.009  26.734  24.770  1.00  0.00     0.120 C 
ATOM     10  C   UNL A   1      29.605  26.941  23.326  1.00  0.00     0.022 C 
ATOM     11  C   UNL A   1      31.138  28.918  23.211  1.00  0.00     0.035 C 
ATOM     12  C   UNL A   1      29.728  28.409  22.952  1.00  0.00     0.004 C 
BRANCH   8  13
ATOM     13  C   UNL A   1      32.065  26.420  25.975  1.00  0.00     0.254 C 
ATOM     14  O   UNL A   1      32.054  26.681  27.180  1.00  0.00    -0.269 OA
BRANCH  13  15
ATOM     15  C   UNL A   1      32.904  25.276  25.555  1.00  0.00     0.041 A 
ATOM     16  C   UNL A   1      35.507  22.312  23.820  1.00  0.00     0.046 C 
ATOM     17  C   UNL A   1      34.490  23.212  24.441  1.00  0.00    -0.031 A 
ATOM     18  C   UNL A   1      35.054  24.428  24.905  1.00  0.00     0.005 A 
ATOM     19  C   UNL A   1      33.101  23.031  24.572  1.00  0.00     0.086 A 
ATOM     20  C   UNL A   1      34.280  25.445  25.456  1.00  0.00     0.014 A 
ATOM     21  C   UNL A   1      32.328  24.092  25.097  1.00  0.00     0.035 A 
BRANCH  19  22
ATOM     22  S   UNL A   1      32.048  21.628  24.168  1.00  0.00     0.243 S 
ATOM     23  O   UNL A   1      31.223  21.403  25.330  1.00  0.00    -0.207 OA
ATOM     24  O   UNL A   1      31.428  21.975  22.894  1.00  0.00    -0.207 OA
BRANCH  22  25
ATOM     25  N   UNL A   1      32.926  20.208  23.899  1.00  0.00    -0.198 NA
ATOM     26  C   UNL A   1      33.832  19.786  24.984  1.00  0.00     0.102 C 
ATOM     27  C   UNL A   1      32.339  19.253  22.934  1.00  0.00     0.102 C 
ATOM     28  C   UNL A   1      34.569  18.486  24.710  1.00  0.00     0.017 C 
ATOM     29  C   UNL A   1      33.120  17.956  22.778  1.00  0.00     0.017 C 
ATOM     30  C   UNL A   1      33.685  17.426  24.083  1.00  0.00     0.003 C 
ENDBRANCH  22  25
ENDBRANCH  19  22
ENDBRANCH  13  15
ENDBRANCH   8  13
ENDBRANCH   4   7
ENDBRANCH   2   3
ENDBRANCH   1   2
BRANCH   1  31
ATOM     31  C   UNL A   1      35.620  30.046  27.786  1.00  0.00     0.023 C 
BRANCH  31  32
ATOM     32  C   UNL A   1      35.936  29.726  29.237  1.00  0.00     0.116 C 
BRANCH  32  33
ATOM     33  N   UNL A   1      37.292  29.254  29.356  1.00  0.00    -0.352 N 
ATOM     34  C   UNL A   1      38.373  30.091  29.168  1.00  0.00     0.251 C 
ATOM     35  H   UNL A   1      37.452  28.308  29.576  1.00  0.00     0.163 HD
ATOM     36  O   UNL A   1      39.057  29.887  28.178  1.00  0.00    -0.269 OA
BRANCH  34  37
ATOM     37  C   UNL A   1      38.750  30.986  30.340  1.00  0.00     0.039 A 
ATOM     38  C   UNL A   1      39.883  31.735  30.007  1.00  0.00     0.014 A 
ATOM     39  C   UNL A   1      38.768  30.320  31.563  1.00  0.00     0.014 A 
ATOM     40  C   UNL A   1      41.115  31.288  30.447  1.00  0.00     0.010 A 
ATOM     41  C   UNL A   1      39.962  29.745  31.916  1.00  0.00     0.010 A 
ATOM     42  C   UNL A   1      41.118  30.171  31.263  1.00  0.00    -0.014 A 
BRANCH  42  43
ATOM     43  C   UNL A   1      42.283  29.355  31.503  1.00  0.00     0.031 A 
ATOM     44  C   UNL A   1      42.356  28.119  30.724  1.00  0.00     0.074 A 
ATOM     45  C   UNL A   1      43.249  29.897  32.277  1.00  0.00     0.049 A 
ATOM     46  N   UNL A   1      43.174  27.161  30.939  1.00  0.00    -0.248 NA
ATOM     47  C   UNL A   1      41.425  27.844  29.624  1.00  0.00     0.031 C 
ATOM     48  C   UNL A   1      44.639  29.500  32.483  1.00  0.00     0.029 A 
ATOM     49  N   UNL A   1      43.026  30.861  33.267  1.00  0.00    -0.354 N 
ATOM     50  C   UNL A   1      43.111  26.328  29.842  1.00  0.00     0.074 A 
ATOM     51  C   UNL A   1      41.935  26.721  29.117  1.00  0.00     0.031 C 
ATOM     52  C   UNL A   1      45.042  29.970  33.684  1.00  0.00     0.029 A 
ATOM     53  C   UNL A   1      43.858  30.519  34.343  1.00  0.00     0.049 A 
ATOM     54  H   UNL A   1      42.409  31.626  33.218  1.00  0.00     0.167 HD
ATOM     55  C   UNL A   1      44.183  25.529  29.597  1.00  0.00     0.031 A 
ATOM     56  C   UNL A   1      43.282  29.969  35.458  1.00  0.00     0.031 A 
ATOM     57  C   UNL A   1      45.086  25.566  30.748  1.00  0.00     0.049 A 
ATOM     58  C   UNL A   1      43.719  28.514  35.631  1.00  0.00     0.074 A 
ATOM     59  C   UNL A   1      46.223  26.310  31.018  1.00  0.00     0.029 A 
ATOM     60  N   UNL A   1      44.596  25.132  31.977  1.00  0.00    -0.354 N 
ATOM     61  N   UNL A   1      43.972  27.682  34.650  1.00  0.00    -0.248 NA
ATOM     62  C   UNL A   1      43.997  27.932  36.941  1.00  0.00     0.031 C 
ATOM     63  C   UNL A   1      46.329  26.430  32.434  1.00  0.00     0.029 A 
ATOM     64  C   UNL A   1      45.280  25.736  33.017  1.00  0.00     0.049 A 
ATOM     65  H   UNL A   1      43.864  24.483  32.090  1.00  0.00     0.167 HD
ATOM     66  C   UNL A   1      44.476  26.508  35.162  1.00  0.00     0.074 A 
ATOM     67  C   UNL A   1      44.458  26.717  36.602  1.00  0.00     0.031 C 
ATOM     68  C   UNL A   1      44.901  25.454  34.398  1.00  0.00     0.031 A 
BRANCH  55  69
ATOM     69  C   UNL A   1      44.544  24.983  28.237  1.00  0.00    -0.014 A 
ATOM     70  C   UNL A   1      44.716  23.593  28.095  1.00  0.00     0.010 A 
ATOM     71  C   UNL A   1      44.817  25.760  27.092  1.00  0.00     0.010 A 
ATOM     72  C   UNL A   1      45.172  23.014  26.902  1.00  0.00     0.020 A 
ATOM     73  C   UNL A   1      45.284  25.198  25.893  1.00  0.00     0.020 A 
ATOM     74  C   UNL A   1      45.463  23.823  25.807  1.00  0.00     0.054 A 
BRANCH  74  75
ATOM     75  S   UNL A   1      46.064  23.058  24.281  1.00  0.00     0.124 S 
ATOM     76  O   UNL A   1      46.590  21.781  24.758  1.00  0.00    -0.237 OA
ATOM     77  O   UNL A   1      44.850  22.978  23.474  1.00  0.00    -0.237 OA
ATOM     78  O   UNL A   1      47.073  23.996  23.793  1.00  0.00    -0.744 OA
ENDBRANCH  74  75
ENDBRANCH  55  69
BRANCH  56  79
ATOM     79  C   UNL A   1      41.905  30.513  35.769  1.00  0.00    -0.014 A 
ATOM     80  C   UNL A   1      41.769  31.844  36.245  1.00  0.00     0.010 A 
ATOM     81  C   UNL A   1      40.736  29.864  35.346  1.00  0.00     0.010 A 
ATOM     82  C   UNL A   1      40.537  32.532  36.199  1.00  0.00     0.020 A 
ATOM     83  C   UNL A   1      39.497  30.543  35.317  1.00  0.00     0.020 A 
ATOM     84  C   UNL A   1      39.405  31.887  35.702  1.00  0.00     0.054 A 
BRANCH  84  85
ATOM     85  S   UNL A   1      37.780  32.743  35.676  1.00  0.00     0.124 S 
ATOM     86  O   UNL A   1      37.035  31.999  34.664  1.00  0.00    -0.237 OA
ATOM     87  O   UNL A   1      37.273  32.628  37.037  1.00  0.00    -0.237 OA
ATOM     88  O   UNL A   1      38.140  34.108  35.295  1.00  0.00    -0.744 OA
ENDBRANCH  84  85
ENDBRANCH  56  79
BRANCH  68  89
ATOM     89  C   UNL A   1      45.065  24.027  34.891  1.00  0.00    -0.014 A 
ATOM     90  C   UNL A   1      44.277  22.949  34.462  1.00  0.00     0.010 A 
ATOM     91  C   UNL A   1      46.175  23.705  35.716  1.00  0.00     0.010 A 
ATOM     92  C   UNL A   1      44.530  21.639  34.890  1.00  0.00     0.020 A 
ATOM     93  C   UNL A   1      46.482  22.394  36.088  1.00  0.00     0.020 A 
ATOM     94  C   UNL A   1      45.633  21.370  35.700  1.00  0.00     0.054 A 
BRANCH  94  95
ATOM     95  S   UNL A   1      45.963  19.668  36.206  1.00  0.00     0.124 S 
ATOM     96  O   UNL A   1      45.039  18.921  35.357  1.00  0.00    -0.237 OA
ATOM     97  O   UNL A   1      47.380  19.506  35.886  1.00  0.00    -0.237 OA
ATOM     98  O   UNL A   1      45.648  19.662  37.632  1.00  0.00    -0.744 OA
ENDBRANCH  94  95
ENDBRANCH  68  89
ENDBRANCH  42  43
ENDBRANCH  34  37
ENDBRANCH  32  33
ENDBRANCH  31  32
ENDBRANCH   1  31
TORSDOF 18
ENDMDL
MODEL 2
REMARK VINA RESULT:     -12.0      2.495      4.014
REMARK SMILES Cc1ccc(C(=O)N2CCCC[C@@H]2C(=O)NCCCCNC(=O)c2ccc(-c3c4nc(c(-c5ccc(S(=O)(=O)[O-])cc5)c5ccc([nH]5)c(-c5ccc(S(=O)(=O)[O-])cc5)c5nc(c(-c6ccc(S(=O)(=O)[O-])cc6)c6ccc3[nH]6)C=C5)C=C4)cc2)cc1S(=O)(=O)N1CCCCC1
REMARK SMILES IDX 18 1 17 2 16 3 14 4 15 5 13 7 8 8 9 9 10 10 12 11 11 12 6 13
REMARK SMILES IDX 7 14 5 15 1 16 2 17 3 18 85 19 4 20 84 21 86 22 87 23 88 24
REMARK SMILES IDX 89 25 90 26 94 27 91 28 93 29 92 30 19 31 20 32 21 33 22 34
REMARK SMILES IDX 23 36 24 37 25 38 83 39 26 40 82 41 27 42 28 43 29 44 76 45
REMARK SMILES IDX 30 46 81 47 75 48 77 49 31 50 80 51 74 52 73 53 32 55 62 56
REMARK SMILES IDX 43 57 61 58 44 59 47 60 60 61 78 62 45 63 46 64 59 66 79 67
REMARK SMILES IDX 48 68 33 69 34 70 42 71 35 72 41 73 36 74 37 75 38 76 39 77
REMARK SMILES IDX 40 78 63 79 64 80 72 81 65 82 71 83 66 84 67 85 68 86 69 87
REMARK SMILES IDX 70 88 49 89 50 90 58 91 51 92 57 93 52 94 53 95 54 96 55 97
REMARK SMILES IDX 56 98
REMARK H PARENT 16 6 21 35 77 54 47 65
REMARK Flexibility Score: inf
ROOT
ATOM      1  C   UNL A   1      32.688  27.665  26.318  1.00  0.00     0.023 C 
ENDROOT
BRANCH   1   2
ATOM      2  C   UNL A   1      31.276  27.162  26.611  1.00  0.00     0.116 C 
BRANCH   2   3
ATOM      3  N   UNL A   1      31.231  25.712  26.554  1.00  0.00    -0.354 N 
ATOM      4  C   UNL A   1      30.804  24.900  25.553  1.00  0.00     0.242 C 
ATOM      5  O   UNL A   1      30.591  23.716  25.827  1.00  0.00    -0.273 OA
ATOM      6  H   UNL A   1      31.556  25.250  27.359  1.00  0.00     0.163 HD
BRANCH   4   7
ATOM      7  C   UNL A   1      30.480  25.470  24.160  1.00  0.00     0.174 C 
ATOM      8  N   UNL A   1      31.676  25.821  23.348  1.00  0.00    -0.327 N 
ATOM      9  C   UNL A   1      31.451  26.688  22.200  1.00  0.00     0.120 C 
ATOM     10  C   UNL A   1      30.682  27.942  22.556  1.00  0.00     0.022 C 
ATOM     11  C   UNL A   1      29.556  26.689  24.409  1.00  0.00     0.035 C 
ATOM     12  C   UNL A   1      29.350  27.577  23.192  1.00  0.00     0.004 C 
BRANCH   8  13
ATOM     13  C   UNL A   1      32.911  25.157  23.342  1.00  0.00     0.254 C 
ATOM     14  O   UNL A   1      33.975  25.774  23.263  1.00  0.00    -0.269 OA
BRANCH  13  15
ATOM     15  C   UNL A   1      33.004  23.681  23.374  1.00  0.00     0.041 A 
ATOM     16  C   UNL A   1      32.667  19.397  23.701  1.00  0.00     0.046 C 
ATOM     17  C   UNL A   1      32.936  20.865  23.665  1.00  0.00    -0.031 A 
ATOM     18  C   UNL A   1      32.103  21.546  22.742  1.00  0.00     0.005 A 
ATOM     19  C   UNL A   1      33.839  21.625  24.432  1.00  0.00     0.086 A 
ATOM     20  C   UNL A   1      32.133  22.930  22.592  1.00  0.00     0.014 A 
ATOM     21  C   UNL A   1      33.825  23.032  24.294  1.00  0.00     0.035 A 
BRANCH  19  22
ATOM     22  S   UNL A   1      35.079  21.125  25.637  1.00  0.00     0.243 S 
ATOM     23  O   UNL A   1      34.461  21.277  26.932  1.00  0.00    -0.207 OA
ATOM     24  O   UNL A   1      35.526  19.809  25.196  1.00  0.00    -0.207 OA
BRANCH  22  25
ATOM     25  N   UNL A   1      36.446  22.122  25.619  1.00  0.00    -0.198 NA
ATOM     26  C   UNL A   1      36.283  23.463  26.210  1.00  0.00     0.102 C 
ATOM     27  C   UNL A   1      37.753  21.432  25.556  1.00  0.00     0.102 C 
ATOM     28  C   UNL A   1      37.547  24.305  26.203  1.00  0.00     0.017 C 
ATOM     29  C   UNL A   1      38.958  22.361  25.619  1.00  0.00     0.017 C 
ATOM     30  C   UNL A   1      38.784  23.517  26.586  1.00  0.00     0.003 C 
ENDBRANCH  22  25
ENDBRANCH  19  22
ENDBRANCH  13  15
ENDBRANCH   8  13
ENDBRANCH   4   7
ENDBRANCH   2   3
ENDBRANCH   1   2
BRANCH   1  31
ATOM     31  C   UNL A   1      32.742  29.096  25.779  1.00  0.00     0.023 C 
BRANCH  31  32
ATOM     32  C   UNL A   1      33.366  30.084  26.749  1.00  0.00     0.116 C 
BRANCH  32  33
ATOM     33  N   UNL A   1      34.144  29.382  27.739  1.00  0.00    -0.352 N 
ATOM     34  C   UNL A   1      35.454  29.719  28.008  1.00  0.00     0.251 C 
ATOM     35  H   UNL A   1      33.729  28.641  28.235  1.00  0.00     0.163 HD
ATOM     36  O   UNL A   1      36.306  28.909  27.680  1.00  0.00    -0.269 OA
BRANCH  34  37
ATOM     37  C   UNL A   1      35.673  30.920  28.918  1.00  0.00     0.039 A 
ATOM     38  C   UNL A   1      36.561  31.810  28.307  1.00  0.00     0.014 A 
ATOM     39  C   UNL A   1      35.933  30.571  30.241  1.00  0.00     0.014 A 
ATOM     40  C   UNL A   1      37.891  31.767  28.682  1.00  0.00     0.010 A 
ATOM     41  C   UNL A   1      37.253  30.379  30.562  1.00  0.00     0.010 A 
ATOM     42  C   UNL A   1      38.223  30.896  29.704  1.00  0.00    -0.014 A 
BRANCH  42  43
ATOM     43  C   UNL A   1      39.567  30.443  29.968  1.00  0.00     0.031 A 
ATOM     44  C   UNL A   1      39.806  29.018  29.741  1.00  0.00     0.074 A 
ATOM     45  C   UNL A   1      40.486  31.400  30.224  1.00  0.00     0.049 A 
ATOM     46  N   UNL A   1      40.844  28.377  30.117  1.00  0.00    -0.248 NA
ATOM     47  C   UNL A   1      38.811  28.164  29.082  1.00  0.00     0.031 C 
ATOM     48  C   UNL A   1      41.945  31.339  30.242  1.00  0.00     0.029 A 
ATOM     49  N   UNL A   1      40.197  32.651  30.781  1.00  0.00    -0.354 N 
ATOM     50  C   UNL A   1      40.814  27.154  29.480  1.00  0.00     0.074 A 
ATOM     51  C   UNL A   1      39.484  27.021  28.951  1.00  0.00     0.031 C 
ATOM     52  C   UNL A   1      42.402  32.332  31.036  1.00  0.00     0.029 A 
ATOM     53  C   UNL A   1      41.235  32.930  31.681  1.00  0.00     0.049 A 
ATOM     54  H   UNL A   1      39.420  33.222  30.580  1.00  0.00     0.167 HD
ATOM     55  C   UNL A   1      41.991  26.495  29.327  1.00  0.00     0.031 A 
ATOM     56  C   UNL A   1      40.972  32.833  33.022  1.00  0.00     0.031 A 
ATOM     57  C   UNL A   1      43.022  27.154  30.130  1.00  0.00     0.049 A 
ATOM     58  C   UNL A   1      41.752  31.676  33.645  1.00  0.00     0.074 A 
ATOM     59  C   UNL A   1      43.985  28.100  29.818  1.00  0.00     0.029 A 
ATOM     60  N   UNL A   1      42.833  27.223  31.508  1.00  0.00    -0.354 N 
ATOM     61  N   UNL A   1      42.042  30.550  33.037  1.00  0.00    -0.248 NA
ATOM     62  C   UNL A   1      42.347  31.760  34.975  1.00  0.00     0.031 C 
ATOM     63  C   UNL A   1      44.268  28.830  31.008  1.00  0.00     0.029 A 
ATOM     64  C   UNL A   1      43.505  28.308  32.041  1.00  0.00     0.049 A 
ATOM     65  H   UNL A   1      42.294  26.585  32.030  1.00  0.00     0.167 HD
ATOM     66  C   UNL A   1      42.872  29.798  33.836  1.00  0.00     0.074 A 
ATOM     67  C   UNL A   1      43.020  30.599  35.041  1.00  0.00     0.031 C 
ATOM     68  C   UNL A   1      43.410  28.593  33.469  1.00  0.00     0.031 A 
BRANCH  55  69
ATOM     69  C   UNL A   1      42.263  25.478  28.245  1.00  0.00    -0.014 A 
ATOM     70  C   UNL A   1      42.361  24.121  28.608  1.00  0.00     0.010 A 
ATOM     71  C   UNL A   1      42.521  25.776  26.891  1.00  0.00     0.010 A 
ATOM     72  C   UNL A   1      42.733  23.127  27.691  1.00  0.00     0.020 A 
ATOM     73  C   UNL A   1      42.904  24.795  25.962  1.00  0.00     0.020 A 
ATOM     74  C   UNL A   1      43.012  23.472  26.372  1.00  0.00     0.054 A 
BRANCH  74  75
ATOM     75  S   UNL A   1      43.505  22.176  25.208  1.00  0.00     0.124 S 
ATOM     76  O   UNL A   1      42.488  21.152  25.433  1.00  0.00    -0.237 OA
ATOM     77  O   UNL A   1      43.431  22.867  23.924  1.00  0.00    -0.237 OA
ATOM     78  O   UNL A   1      44.853  21.812  25.641  1.00  0.00    -0.744 OA
ENDBRANCH  74  75
ENDBRANCH  55  69
BRANCH  56  79
ATOM     79  C   UNL A   1      39.568  33.249  33.405  1.00  0.00    -0.014 A 
ATOM     80  C   UNL A   1      39.116  34.559  33.092  1.00  0.00     0.010 A 
ATOM     81  C   UNL A   1      38.598  32.317  33.801  1.00  0.00     0.010 A 
ATOM     82  C   UNL A   1      37.744  34.891  33.072  1.00  0.00     0.020 A 
ATOM     83  C   UNL A   1      37.225  32.652  33.802  1.00  0.00     0.020 A 
ATOM     84  C   UNL A   1      36.796  33.923  33.397  1.00  0.00     0.054 A 
BRANCH  84  85
ATOM     85  S   UNL A   1      35.007  34.341  33.426  1.00  0.00     0.124 S 
ATOM     86  O   UNL A   1      34.965  35.542  34.257  1.00  0.00    -0.237 OA
ATOM     87  O   UNL A   1      34.645  34.536  32.028  1.00  0.00    -0.237 OA
ATOM     88  O   UNL A   1      34.407  33.154  34.031  1.00  0.00    -0.744 OA
ENDBRANCH  84  85
ENDBRANCH  56  79
BRANCH  68  89
ATOM     89  C   UNL A   1      43.969  27.557  34.429  1.00  0.00    -0.014 A 
ATOM     90  C   UNL A   1      45.338  27.316  34.618  1.00  0.00     0.010 A 
ATOM     91  C   UNL A   1      43.085  26.887  35.316  1.00  0.00     0.010 A 
ATOM     92  C   UNL A   1      45.797  26.405  35.579  1.00  0.00     0.020 A 
ATOM     93  C   UNL A   1      43.534  26.035  36.327  1.00  0.00     0.020 A 
ATOM     94  C   UNL A   1      44.890  25.771  36.428  1.00  0.00     0.054 A 
BRANCH  94  95
ATOM     95  S   UNL A   1      45.507  24.632  37.687  1.00  0.00     0.124 S 
ATOM     96  O   UNL A   1      44.618  24.919  38.809  1.00  0.00    -0.237 OA
ATOM     97  O   UNL A   1      45.324  23.326  37.059  1.00  0.00    -0.237 OA
ATOM     98  O   UNL A   1      46.898  25.038  37.871  1.00  0.00    -0.744 OA
ENDBRANCH  94  95
ENDBRANCH  68  89
ENDBRANCH  42  43
ENDBRANCH  34  37
ENDBRANCH  32  33
ENDBRANCH  31  32
ENDBRANCH   1  31
TORSDOF 18
ENDMDL
MODEL 3
REMARK VINA RESULT:     -12.0      2.231      3.334
REMARK SMILES Cc1ccc(C(=O)N2CCCC[C@@H]2C(=O)NCCCCNC(=O)c2ccc(-c3c4nc(c(-c5ccc(S(=O)(=O)[O-])cc5)c5ccc([nH]5)c(-c5ccc(S(=O)(=O)[O-])cc5)c5nc(c(-c6ccc(S(=O)(=O)[O-])cc6)c6ccc3[nH]6)C=C5)C=C4)cc2)cc1S(=O)(=O)N1CCCCC1
REMARK SMILES IDX 18 1 17 2 16 3 14 4 15 5 13 7 8 8 9 9 10 10 12 11 11 12 6 13
REMARK SMILES IDX 7 14 5 15 1 16 2 17 3 18 85 19 4 20 84 21 86 22 87 23 88 24
REMARK SMILES IDX 89 25 90 26 94 27 91 28 93 29 92 30 19 31 20 32 21 33 22 34
REMARK SMILES IDX 23 36 24 37 25 38 83 39 26 40 82 41 27 42 28 43 29 44 76 45
REMARK SMILES IDX 30 46 81 47 75 48 77 49 31 50 80 51 74 52 73 53 32 55 62 56
REMARK SMILES IDX 43 57 61 58 44 59 47 60 60 61 78 62 45 63 46 64 59 66 79 67
REMARK SMILES IDX 48 68 33 69 34 70 42 71 35 72 41 73 36 74 37 75 38 76 39 77
REMARK SMILES IDX 40 78 63 79 64 80 72 81 65 82 71 83 66 84 67 85 68 86 69 87
REMARK SMILES IDX 70 88 49 89 50 90 58 91 51 92 57 93 52 94 53 95 54 96 55 97
REMARK SMILES IDX 56 98
REMARK H PARENT 16 6 21 35 77 54 47 65
REMARK Flexibility Score: inf
ROOT
ATOM      1  C   UNL A   1      34.389  30.850  27.564  1.00  0.00     0.023 C 
ENDROOT
BRANCH   1   2
ATOM      2  C   UNL A   1      33.298  30.259  26.674  1.00  0.00     0.116 C 
BRANCH   2   3
ATOM      3  N   UNL A   1      33.883  29.428  25.637  1.00  0.00    -0.354 N 
ATOM      4  C   UNL A   1      33.273  28.695  24.671  1.00  0.00     0.242 C 
ATOM      5  O   UNL A   1      33.950  27.847  24.083  1.00  0.00    -0.273 OA
ATOM      6  H   UNL A   1      34.866  29.389  25.636  1.00  0.00     0.163 HD
BRANCH   4   7
ATOM      7  C   UNL A   1      31.762  28.834  24.411  1.00  0.00     0.174 C 
ATOM      8  N   UNL A   1      30.956  27.660  24.843  1.00  0.00    -0.327 N 
ATOM      9  C   UNL A   1      29.606  27.565  24.306  1.00  0.00     0.120 C 
ATOM     10  C   UNL A   1      29.567  27.693  22.797  1.00  0.00     0.022 C 
ATOM     11  C   UNL A   1      31.621  29.123  22.896  1.00  0.00     0.035 C 
ATOM     12  C   UNL A   1      30.199  29.006  22.366  1.00  0.00     0.004 C 
BRANCH   8  13
ATOM     13  C   UNL A   1      31.200  26.836  25.951  1.00  0.00     0.254 C 
ATOM     14  O   UNL A   1      31.207  27.283  27.099  1.00  0.00    -0.269 OA
BRANCH  13  15
ATOM     15  C   UNL A   1      31.514  25.398  25.799  1.00  0.00     0.041 A 
ATOM     16  C   UNL A   1      32.552  21.220  25.998  1.00  0.00     0.046 C 
ATOM     17  C   UNL A   1      32.295  22.676  25.792  1.00  0.00    -0.031 A 
ATOM     18  C   UNL A   1      31.138  23.125  26.478  1.00  0.00     0.005 A 
ATOM     19  C   UNL A   1      33.052  23.622  25.074  1.00  0.00     0.086 A 
ATOM     20  C   UNL A   1      30.748  24.462  26.483  1.00  0.00     0.014 A 
ATOM     21  C   UNL A   1      32.660  24.980  25.126  1.00  0.00     0.035 A 
BRANCH  19  22
ATOM     22  S   UNL A   1      34.516  23.431  24.046  1.00  0.00     0.243 S 
ATOM     23  O   UNL A   1      34.152  22.502  23.003  1.00  0.00    -0.207 OA
ATOM     24  O   UNL A   1      34.916  24.790  23.700  1.00  0.00    -0.207 OA
BRANCH  22  25
ATOM     25  N   UNL A   1      35.819  22.751  24.884  1.00  0.00    -0.198 NA
ATOM     26  C   UNL A   1      36.179  21.368  24.520  1.00  0.00     0.102 C 
ATOM     27  C   UNL A   1      36.796  23.705  25.452  1.00  0.00     0.102 C 
ATOM     28  C   UNL A   1      37.376  20.816  25.273  1.00  0.00     0.017 C 
ATOM     29  C   UNL A   1      37.991  23.052  26.131  1.00  0.00     0.017 C 
ATOM     30  C   UNL A   1      38.504  21.821  25.407  1.00  0.00     0.003 C 
ENDBRANCH  22  25
ENDBRANCH  19  22
ENDBRANCH  13  15
ENDBRANCH   8  13
ENDBRANCH   4   7
ENDBRANCH   2   3
ENDBRANCH   1   2
BRANCH   1  31
ATOM     31  C   UNL A   1      34.098  32.271  28.049  1.00  0.00     0.023 C 
BRANCH  31  32
ATOM     32  C   UNL A   1      35.223  32.870  28.877  1.00  0.00     0.116 C 
BRANCH  32  33
ATOM     33  N   UNL A   1      36.495  32.582  28.265  1.00  0.00    -0.352 N 
ATOM     34  C   UNL A   1      37.358  31.641  28.789  1.00  0.00     0.251 C 
ATOM     35  H   UNL A   1      36.756  33.071  27.452  1.00  0.00     0.163 HD
ATOM     36  O   UNL A   1      38.397  32.062  29.271  1.00  0.00    -0.269 OA
BRANCH  34  37
ATOM     37  C   UNL A   1      37.053  30.186  28.466  1.00  0.00     0.039 A 
ATOM     38  C   UNL A   1      37.128  29.425  29.637  1.00  0.00     0.014 A 
ATOM     39  C   UNL A   1      37.743  29.709  27.354  1.00  0.00     0.014 A 
ATOM     40  C   UNL A   1      38.294  28.725  29.888  1.00  0.00     0.010 A 
ATOM     41  C   UNL A   1      38.973  29.155  27.602  1.00  0.00     0.010 A 
ATOM     42  C   UNL A   1      39.270  28.768  28.909  1.00  0.00    -0.014 A 
BRANCH  42  43
ATOM     43  C   UNL A   1      40.654  28.433  29.140  1.00  0.00     0.031 A 
ATOM     44  C   UNL A   1      40.996  27.021  28.967  1.00  0.00     0.074 A 
ATOM     45  C   UNL A   1      41.504  29.469  29.316  1.00  0.00     0.049 A 
ATOM     46  N   UNL A   1      42.095  26.481  29.330  1.00  0.00    -0.248 NA
ATOM     47  C   UNL A   1      40.049  26.063  28.386  1.00  0.00     0.031 C 
ATOM     48  C   UNL A   1      42.962  29.522  29.279  1.00  0.00     0.029 A 
ATOM     49  N   UNL A   1      41.137  30.719  29.828  1.00  0.00    -0.354 N 
ATOM     50  C   UNL A   1      42.137  25.231  28.749  1.00  0.00     0.074 A 
ATOM     51  C   UNL A   1      40.804  24.971  28.280  1.00  0.00     0.031 C 
ATOM     52  C   UNL A   1      43.368  30.583  30.009  1.00  0.00     0.029 A 
ATOM     53  C   UNL A   1      42.181  31.120  30.674  1.00  0.00     0.049 A 
ATOM     54  H   UNL A   1      40.311  31.218  29.633  1.00  0.00     0.167 HD
ATOM     55  C   UNL A   1      43.357  24.658  28.579  1.00  0.00     0.031 A 
ATOM     56  C   UNL A   1      41.975  31.066  32.027  1.00  0.00     0.031 A 
ATOM     57  C   UNL A   1      44.361  25.432  29.311  1.00  0.00     0.049 A 
ATOM     58  C   UNL A   1      42.866  30.003  32.669  1.00  0.00     0.074 A 
ATOM     59  C   UNL A   1      45.234  26.433  28.919  1.00  0.00     0.029 A 
ATOM     60  N   UNL A   1      44.216  25.550  30.690  1.00  0.00    -0.354 N 
ATOM     61  N   UNL A   1      43.222  28.875  32.100  1.00  0.00    -0.248 NA
ATOM     62  C   UNL A   1      43.501  30.195  33.970  1.00  0.00     0.031 C 
ATOM     63  C   UNL A   1      45.502  27.238  30.064  1.00  0.00     0.029 A 
ATOM     64  C   UNL A   1      44.820  26.708  31.148  1.00  0.00     0.049 A 
ATOM     65  H   UNL A   1      43.749  24.899  31.262  1.00  0.00     0.167 HD
ATOM     66  C   UNL A   1      44.136  28.228  32.899  1.00  0.00     0.074 A 
ATOM     67  C   UNL A   1      44.264  29.094  34.061  1.00  0.00     0.031 C 
ATOM     68  C   UNL A   1      44.754  27.052  32.564  1.00  0.00     0.031 A 
BRANCH  55  69
ATOM     69  C   UNL A   1      43.669  23.615  27.534  1.00  0.00    -0.014 A 
ATOM     70  C   UNL A   1      42.634  22.757  27.112  1.00  0.00     0.010 A 
ATOM     71  C   UNL A   1      44.946  23.356  26.994  1.00  0.00     0.010 A 
ATOM     72  C   UNL A   1      42.864  21.682  26.240  1.00  0.00     0.020 A 
ATOM     73  C   UNL A   1      45.194  22.279  26.127  1.00  0.00     0.020 A 
ATOM     74  C   UNL A   1      44.148  21.444  25.759  1.00  0.00     0.054 A 
BRANCH  74  75
ATOM     75  S   UNL A   1      44.425  20.043  24.646  1.00  0.00     0.124 S 
ATOM     76  O   UNL A   1      44.529  20.696  23.343  1.00  0.00    -0.237 OA
ATOM     77  O   UNL A   1      45.664  19.472  25.166  1.00  0.00    -0.237 OA
ATOM     78  O   UNL A   1      43.235  19.213  24.826  1.00  0.00    -0.744 OA
ENDBRANCH  74  75
ENDBRANCH  55  69
BRANCH  56  79
ATOM     79  C   UNL A   1      40.558  31.391  32.446  1.00  0.00    -0.014 A 
ATOM     80  C   UNL A   1      40.059  32.708  32.267  1.00  0.00     0.010 A 
ATOM     81  C   UNL A   1      39.622  30.389  32.742  1.00  0.00     0.010 A 
ATOM     82  C   UNL A   1      38.676  32.992  32.277  1.00  0.00     0.020 A 
ATOM     83  C   UNL A   1      38.238  30.672  32.773  1.00  0.00     0.020 A 
ATOM     84  C   UNL A   1      37.763  31.962  32.499  1.00  0.00     0.054 A 
BRANCH  84  85
ATOM     85  S   UNL A   1      35.960  32.311  32.565  1.00  0.00     0.124 S 
ATOM     86  O   UNL A   1      35.853  33.605  31.896  1.00  0.00    -0.237 OA
ATOM     87  O   UNL A   1      35.336  31.194  31.870  1.00  0.00    -0.237 OA
ATOM     88  O   UNL A   1      35.689  32.337  34.001  1.00  0.00    -0.744 OA
ENDBRANCH  84  85
ENDBRANCH  56  79
BRANCH  68  89
ATOM     89  C   UNL A   1      45.427  26.109  33.546  1.00  0.00    -0.014 A 
ATOM     90  C   UNL A   1      46.539  26.450  34.331  1.00  0.00     0.010 A 
ATOM     91  C   UNL A   1      44.824  24.854  33.824  1.00  0.00     0.010 A 
ATOM     92  C   UNL A   1      47.066  25.565  35.281  1.00  0.00     0.020 A 
ATOM     93  C   UNL A   1      45.294  23.995  34.820  1.00  0.00     0.020 A 
ATOM     94  C   UNL A   1      46.438  24.343  35.520  1.00  0.00     0.054 A 
BRANCH  94  95
ATOM     95  S   UNL A   1      47.111  23.236  36.778  1.00  0.00     0.124 S 
ATOM     96  O   UNL A   1      47.243  24.133  37.923  1.00  0.00    -0.237 OA
ATOM     97  O   UNL A   1      46.073  22.214  36.898  1.00  0.00    -0.237 OA
ATOM     98  O   UNL A   1      48.368  22.772  36.197  1.00  0.00    -0.744 OA
ENDBRANCH  94  95
ENDBRANCH  68  89
ENDBRANCH  42  43
ENDBRANCH  34  37
ENDBRANCH  32  33
ENDBRANCH  31  32
ENDBRANCH   1  31
TORSDOF 18
ENDMDL
