MODEL 1
REMARK VINA RESULT:     -10.0      0.000      0.000
REMARK SMILES COC(=O)NNC(=O)CCC(=O)NCCCCNC(=O)c1ccc(-c2c3nc(c(-c4ccc(S(=O)(=O)[O-])cc4)c4ccc([nH]4)c(-c4ccc(S(=O)(=O)[O-])cc4)c4nc(c(-c5ccc(S(=O)(=O)[O-])cc5)c5ccc2[nH]5)C=C4)C=C3)cc1
REMARK SMILES IDX 15 1 14 2 13 3 11 4 12 5 10 7 9 8 7 9 6 10 8 12 5 13 3 14
REMARK SMILES IDX 4 15 2 17 1 18 16 19 17 20 18 21 19 22 20 24 21 25 22 26
REMARK SMILES IDX 80 27 23 28 79 29 24 30 25 31 26 32 73 33 27 34 78 35 72 36
REMARK SMILES IDX 74 37 28 38 77 39 71 40 70 41 29 43 59 44 40 45 58 46 41 47
REMARK SMILES IDX 44 48 57 49 75 50 42 51 43 52 56 54 76 55 45 56 30 57 31 58
REMARK SMILES IDX 39 59 32 60 38 61 33 62 34 63 35 64 36 65 37 66 60 67 61 68
REMARK SMILES IDX 69 69 62 70 68 71 63 72 64 73 65 74 66 75 67 76 46 77 47 78
REMARK SMILES IDX 55 79 48 80 54 81 49 82 50 83 51 84 52 85 53 86
REMARK H PARENT 13 6 6 11 5 16 18 23 74 42 44 53
REMARK Flexibility Score: inf
ROOT
ATOM      1  C   UNL A   1      40.787  21.231  27.530  1.00  0.00     0.023 C 
ENDROOT
BRANCH   1   2
ATOM      2  C   UNL A   1      41.750  20.814  26.416  1.00  0.00     0.116 C 
BRANCH   2   3
ATOM      3  N   UNL A   1      41.694  19.396  26.094  1.00  0.00    -0.356 N 
ATOM      4  C   UNL A   1      42.686  18.473  25.979  1.00  0.00     0.220 C 
ATOM      5  O   UNL A   1      42.395  17.306  25.713  1.00  0.00    -0.275 OA
ATOM      6  H   UNL A   1      40.788  19.047  25.933  1.00  0.00     0.163 HD
BRANCH   4   7
ATOM      7  C   UNL A   1      44.132  18.879  26.097  1.00  0.00     0.110 C 
BRANCH   7   8
ATOM      8  C   UNL A   1      44.828  18.863  24.744  1.00  0.00     0.112 C 
BRANCH   8   9
ATOM      9  C   UNL A   1      46.125  19.641  24.734  1.00  0.00     0.238 C 
ATOM     10  N   UNL A   1      46.164  20.887  24.158  1.00  0.00    -0.265 N 
ATOM     11  H   UNL A   1      47.040  21.335  24.099  1.00  0.00     0.191 HD
ATOM     12  O   UNL A   1      47.136  19.166  25.256  1.00  0.00    -0.273 OA
BRANCH  10  13
ATOM     13  N   UNL A   1      45.057  21.570  23.649  1.00  0.00    -0.232 N 
ATOM     14  C   UNL A   1      44.391  22.541  24.363  1.00  0.00     0.425 C 
ATOM     15  O   UNL A   1      43.351  23.044  23.962  1.00  0.00    -0.223 OA
ATOM     16  H   UNL A   1      44.741  21.349  22.743  1.00  0.00     0.195 HD
BRANCH  14  17
ATOM     17  O   UNL A   1      44.995  22.844  25.545  1.00  0.00    -0.452 OA
ATOM     18  C   UNL A   1      45.396  24.216  25.644  1.00  0.00     0.284 C 
ENDBRANCH  14  17
ENDBRANCH  10  13
ENDBRANCH   8   9
ENDBRANCH   7   8
ENDBRANCH   4   7
ENDBRANCH   2   3
ENDBRANCH   1   2
BRANCH   1  19
ATOM     19  C   UNL A   1      40.784  22.723  27.837  1.00  0.00     0.023 C 
BRANCH  19  20
ATOM     20  C   UNL A   1      42.037  23.456  27.403  1.00  0.00     0.116 C 
BRANCH  20  21
ATOM     21  N   UNL A   1      41.805  24.266  26.219  1.00  0.00    -0.352 N 
ATOM     22  C   UNL A   1      41.311  25.543  26.113  1.00  0.00     0.251 C 
ATOM     23  H   UNL A   1      42.036  23.834  25.365  1.00  0.00     0.163 HD
ATOM     24  O   UNL A   1      40.961  25.965  25.015  1.00  0.00    -0.269 OA
BRANCH  22  25
ATOM     25  C   UNL A   1      41.187  26.400  27.315  1.00  0.00     0.039 A 
ATOM     26  C   UNL A   1      42.079  27.463  27.485  1.00  0.00     0.014 A 
ATOM     27  C   UNL A   1      40.217  26.146  28.288  1.00  0.00     0.014 A 
ATOM     28  C   UNL A   1      41.971  28.285  28.609  1.00  0.00     0.010 A 
ATOM     29  C   UNL A   1      40.035  27.034  29.340  1.00  0.00     0.010 A 
ATOM     30  C   UNL A   1      40.932  28.092  29.535  1.00  0.00    -0.014 A 
BRANCH  30  31
ATOM     31  C   UNL A   1      40.801  28.944  30.744  1.00  0.00     0.031 A 
ATOM     32  C   UNL A   1      39.727  30.000  30.803  1.00  0.00     0.074 A 
ATOM     33  C   UNL A   1      41.671  28.800  31.764  1.00  0.00     0.049 A 
ATOM     34  N   UNL A   1      39.478  30.873  31.745  1.00  0.00    -0.248 NA
ATOM     35  C   UNL A   1      38.836  30.116  29.635  1.00  0.00     0.031 C 
ATOM     36  C   UNL A   1      42.781  27.845  31.805  1.00  0.00     0.029 A 
ATOM     37  N   UNL A   1      41.758  29.459  32.964  1.00  0.00    -0.354 N 
ATOM     38  C   UNL A   1      38.424  31.649  31.275  1.00  0.00     0.074 A 
ATOM     39  C   UNL A   1      38.124  31.190  29.938  1.00  0.00     0.031 C 
ATOM     40  C   UNL A   1      43.408  27.949  32.987  1.00  0.00     0.029 A 
ATOM     41  C   UNL A   1      42.778  29.008  33.768  1.00  0.00     0.049 A 
ATOM     42  H   UNL A   1      41.147  30.186  33.225  1.00  0.00     0.167 HD
ATOM     43  C   UNL A   1      37.745  32.636  31.907  1.00  0.00     0.031 A 
ATOM     44  C   UNL A   1      43.162  29.404  34.997  1.00  0.00     0.031 A 
ATOM     45  C   UNL A   1      38.033  33.070  33.247  1.00  0.00     0.049 A 
ATOM     46  C   UNL A   1      42.393  30.501  35.682  1.00  0.00     0.074 A 
ATOM     47  C   UNL A   1      37.371  34.019  34.005  1.00  0.00     0.029 A 
ATOM     48  N   UNL A   1      39.069  32.582  34.030  1.00  0.00    -0.354 N 
ATOM     49  N   UNL A   1      41.357  31.178  35.245  1.00  0.00    -0.248 NA
ATOM     50  C   UNL A   1      42.836  30.879  37.031  1.00  0.00     0.031 C 
ATOM     51  C   UNL A   1      38.041  34.145  35.226  1.00  0.00     0.029 A 
ATOM     52  C   UNL A   1      39.080  33.227  35.254  1.00  0.00     0.049 A 
ATOM     53  H   UNL A   1      39.702  31.880  33.755  1.00  0.00     0.167 HD
ATOM     54  C   UNL A   1      41.006  32.042  36.276  1.00  0.00     0.074 A 
ATOM     55  C   UNL A   1      41.930  31.787  37.364  1.00  0.00     0.031 C 
ATOM     56  C   UNL A   1      40.011  32.961  36.322  1.00  0.00     0.031 A 
BRANCH  43  57
ATOM     57  C   UNL A   1      36.626  33.309  31.152  1.00  0.00    -0.014 A 
ATOM     58  C   UNL A   1      35.347  33.452  31.718  1.00  0.00     0.010 A 
ATOM     59  C   UNL A   1      36.866  33.833  29.868  1.00  0.00     0.010 A 
ATOM     60  C   UNL A   1      34.316  34.062  30.998  1.00  0.00     0.020 A 
ATOM     61  C   UNL A   1      35.847  34.474  29.158  1.00  0.00     0.020 A 
ATOM     62  C   UNL A   1      34.572  34.568  29.720  1.00  0.00     0.054 A 
BRANCH  62  63
ATOM     63  S   UNL A   1      33.220  35.373  28.819  1.00  0.00     0.124 S 
ATOM     64  O   UNL A   1      32.649  34.255  28.071  1.00  0.00    -0.237 OA
ATOM     65  O   UNL A   1      32.387  35.899  29.897  1.00  0.00    -0.237 OA
ATOM     66  O   UNL A   1      33.897  36.383  28.008  1.00  0.00    -0.744 OA
ENDBRANCH  62  63
ENDBRANCH  43  57
BRANCH  44  67
ATOM     67  C   UNL A   1      44.316  28.741  35.665  1.00  0.00    -0.014 A 
ATOM     68  C   UNL A   1      44.120  27.609  36.476  1.00  0.00     0.010 A 
ATOM     69  C   UNL A   1      45.623  29.227  35.479  1.00  0.00     0.010 A 
ATOM     70  C   UNL A   1      45.204  26.987  37.102  1.00  0.00     0.020 A 
ATOM     71  C   UNL A   1      46.714  28.591  36.079  1.00  0.00     0.020 A 
ATOM     72  C   UNL A   1      46.497  27.481  36.896  1.00  0.00     0.054 A 
BRANCH  72  73
ATOM     73  S   UNL A   1      47.894  26.627  37.677  1.00  0.00     0.124 S 
ATOM     74  O   UNL A   1      48.861  26.568  36.587  1.00  0.00    -0.237 OA
ATOM     75  O   UNL A   1      48.234  27.525  38.779  1.00  0.00    -0.237 OA
ATOM     76  O   UNL A   1      47.326  25.344  38.083  1.00  0.00    -0.744 OA
ENDBRANCH  72  73
ENDBRANCH  44  67
BRANCH  56  77
ATOM     77  C   UNL A   1      39.844  33.737  37.601  1.00  0.00    -0.014 A 
ATOM     78  C   UNL A   1      40.673  34.831  37.906  1.00  0.00     0.010 A 
ATOM     79  C   UNL A   1      38.804  33.396  38.486  1.00  0.00     0.010 A 
ATOM     80  C   UNL A   1      40.489  35.545  39.093  1.00  0.00     0.020 A 
ATOM     81  C   UNL A   1      38.595  34.128  39.656  1.00  0.00     0.020 A 
ATOM     82  C   UNL A   1      39.451  35.189  39.960  1.00  0.00     0.054 A 
BRANCH  82  83
ATOM     83  S   UNL A   1      39.209  36.157  41.474  1.00  0.00     0.124 S 
ATOM     84  O   UNL A   1      38.897  37.480  40.942  1.00  0.00    -0.237 OA
ATOM     85  O   UNL A   1      38.101  35.462  42.124  1.00  0.00    -0.237 OA
ATOM     86  O   UNL A   1      40.493  36.050  42.163  1.00  0.00    -0.744 OA
ENDBRANCH  82  83
ENDBRANCH  56  77
ENDBRANCH  30  31
ENDBRANCH  22  25
ENDBRANCH  20  21
ENDBRANCH  19  20
ENDBRANCH   1  19
TORSDOF 18
ENDMDL
MODEL 2
REMARK VINA RESULT:      -9.8      2.875      4.409
REMARK SMILES COC(=O)NNC(=O)CCC(=O)NCCCCNC(=O)c1ccc(-c2c3nc(c(-c4ccc(S(=O)(=O)[O-])cc4)c4ccc([nH]4)c(-c4ccc(S(=O)(=O)[O-])cc4)c4nc(c(-c5ccc(S(=O)(=O)[O-])cc5)c5ccc2[nH]5)C=C4)C=C3)cc1
REMARK SMILES IDX 15 1 14 2 13 3 11 4 12 5 10 7 9 8 7 9 6 10 8 12 5 13 3 14
REMARK SMILES IDX 4 15 2 17 1 18 16 19 17 20 18 21 19 22 20 24 21 25 22 26
REMARK SMILES IDX 80 27 23 28 79 29 24 30 25 31 26 32 73 33 27 34 78 35 72 36
REMARK SMILES IDX 74 37 28 38 77 39 71 40 70 41 29 43 59 44 40 45 58 46 41 47
REMARK SMILES IDX 44 48 57 49 75 50 42 51 43 52 56 54 76 55 45 56 30 57 31 58
REMARK SMILES IDX 39 59 32 60 38 61 33 62 34 63 35 64 36 65 37 66 60 67 61 68
REMARK SMILES IDX 69 69 62 70 68 71 63 72 64 73 65 74 66 75 67 76 46 77 47 78
REMARK SMILES IDX 55 79 48 80 54 81 49 82 50 83 51 84 52 85 53 86
REMARK H PARENT 13 6 6 11 5 16 18 23 74 42 44 53
REMARK Flexibility Score: inf
ROOT
ATOM      1  C   UNL A   1      40.333  21.960  27.430  1.00  0.00     0.023 C 
ENDROOT
BRANCH   1   2
ATOM      2  C   UNL A   1      39.688  21.308  26.205  1.00  0.00     0.116 C 
BRANCH   2   3
ATOM      3  N   UNL A   1      38.925  22.235  25.382  1.00  0.00    -0.356 N 
ATOM      4  C   UNL A   1      37.583  22.378  25.219  1.00  0.00     0.220 C 
ATOM      5  O   UNL A   1      37.158  23.261  24.473  1.00  0.00    -0.275 OA
ATOM      6  H   UNL A   1      39.472  22.862  24.856  1.00  0.00     0.163 HD
BRANCH   4   7
ATOM      7  C   UNL A   1      36.623  21.425  25.880  1.00  0.00     0.110 C 
BRANCH   7   8
ATOM      8  C   UNL A   1      36.297  20.245  24.975  1.00  0.00     0.112 C 
BRANCH   8   9
ATOM      9  C   UNL A   1      34.812  19.967  24.874  1.00  0.00     0.238 C 
ATOM     10  N   UNL A   1      34.375  18.676  24.704  1.00  0.00    -0.265 N 
ATOM     11  H   UNL A   1      33.410  18.537  24.564  1.00  0.00     0.191 HD
ATOM     12  O   UNL A   1      34.002  20.892  24.962  1.00  0.00    -0.273 OA
BRANCH  10  13
ATOM     13  N   UNL A   1      35.193  17.544  24.714  1.00  0.00    -0.232 N 
ATOM     14  C   UNL A   1      34.786  16.339  25.239  1.00  0.00     0.425 C 
ATOM     15  O   UNL A   1      35.549  15.391  25.357  1.00  0.00    -0.223 OA
ATOM     16  H   UNL A   1      36.097  17.611  24.329  1.00  0.00     0.195 HD
BRANCH  14  17
ATOM     17  O   UNL A   1      33.480  16.337  25.624  1.00  0.00    -0.452 OA
ATOM     18  C   UNL A   1      32.807  15.102  25.351  1.00  0.00     0.284 C 
ENDBRANCH  14  17
ENDBRANCH  10  13
ENDBRANCH   8   9
ENDBRANCH   7   8
ENDBRANCH   4   7
ENDBRANCH   2   3
ENDBRANCH   1   2
BRANCH   1  19
ATOM     19  C   UNL A   1      41.839  21.757  27.535  1.00  0.00     0.023 C 
BRANCH  19  20
ATOM     20  C   UNL A   1      42.637  23.038  27.680  1.00  0.00     0.116 C 
BRANCH  20  21
ATOM     21  N   UNL A   1      42.598  23.838  26.468  1.00  0.00    -0.352 N 
ATOM     22  C   UNL A   1      42.187  25.135  26.287  1.00  0.00     0.251 C 
ATOM     23  H   UNL A   1      42.912  23.381  25.654  1.00  0.00     0.163 HD
ATOM     24  O   UNL A   1      42.001  25.556  25.148  1.00  0.00    -0.269 OA
BRANCH  22  25
ATOM     25  C   UNL A   1      41.957  26.019  27.453  1.00  0.00     0.039 A 
ATOM     26  C   UNL A   1      40.855  25.780  28.279  1.00  0.00     0.014 A 
ATOM     27  C   UNL A   1      42.804  27.098  27.721  1.00  0.00     0.014 A 
ATOM     28  C   UNL A   1      40.629  26.600  29.387  1.00  0.00     0.010 A 
ATOM     29  C   UNL A   1      42.646  27.835  28.888  1.00  0.00     0.010 A 
ATOM     30  C   UNL A   1      41.537  27.621  29.714  1.00  0.00    -0.014 A 
BRANCH  30  31
ATOM     31  C   UNL A   1      41.313  28.514  30.879  1.00  0.00     0.031 A 
ATOM     32  C   UNL A   1      40.188  29.517  30.849  1.00  0.00     0.074 A 
ATOM     33  C   UNL A   1      42.143  28.455  31.940  1.00  0.00     0.049 A 
ATOM     34  N   UNL A   1      39.856  30.414  31.742  1.00  0.00    -0.248 NA
ATOM     35  C   UNL A   1      39.344  29.541  29.640  1.00  0.00     0.031 C 
ATOM     36  C   UNL A   1      43.294  27.558  32.068  1.00  0.00     0.029 A 
ATOM     37  N   UNL A   1      42.145  29.165  33.113  1.00  0.00    -0.354 N 
ATOM     38  C   UNL A   1      38.788  31.116  31.195  1.00  0.00     0.074 A 
ATOM     39  C   UNL A   1      38.569  30.590  29.867  1.00  0.00     0.031 C 
ATOM     40  C   UNL A   1      43.863  27.741  33.270  1.00  0.00     0.029 A 
ATOM     41  C   UNL A   1      43.150  28.799  33.979  1.00  0.00     0.049 A 
ATOM     42  H   UNL A   1      41.489  29.871  33.317  1.00  0.00     0.167 HD
ATOM     43  C   UNL A   1      38.036  32.093  31.755  1.00  0.00     0.031 A 
ATOM     44  C   UNL A   1      43.460  29.262  35.204  1.00  0.00     0.031 A 
ATOM     45  C   UNL A   1      38.243  32.595  33.086  1.00  0.00     0.049 A 
ATOM     46  C   UNL A   1      42.610  30.346  35.809  1.00  0.00     0.074 A 
ATOM     47  C   UNL A   1      37.503  33.539  33.775  1.00  0.00     0.029 A 
ATOM     48  N   UNL A   1      39.265  32.191  33.932  1.00  0.00    -0.354 N 
ATOM     49  N   UNL A   1      41.562  30.952  35.301  1.00  0.00    -0.248 NA
ATOM     50  C   UNL A   1      42.974  30.800  37.158  1.00  0.00     0.031 C 
ATOM     51  C   UNL A   1      38.113  33.748  35.017  1.00  0.00     0.029 A 
ATOM     52  C   UNL A   1      39.192  32.885  35.127  1.00  0.00     0.049 A 
ATOM     53  H   UNL A   1      39.943  31.511  33.714  1.00  0.00     0.167 HD
ATOM     54  C   UNL A   1      41.126  31.839  36.279  1.00  0.00     0.074 A 
ATOM     55  C   UNL A   1      42.013  31.675  37.414  1.00  0.00     0.031 C 
ATOM     56  C   UNL A   1      40.087  32.709  36.244  1.00  0.00     0.031 A 
BRANCH  43  57
ATOM     57  C   UNL A   1      36.920  32.679  30.926  1.00  0.00    -0.014 A 
ATOM     58  C   UNL A   1      35.602  32.199  31.033  1.00  0.00     0.010 A 
ATOM     59  C   UNL A   1      37.188  33.746  30.048  1.00  0.00     0.010 A 
ATOM     60  C   UNL A   1      34.583  32.741  30.244  1.00  0.00     0.020 A 
ATOM     61  C   UNL A   1      36.165  34.313  29.282  1.00  0.00     0.020 A 
ATOM     62  C   UNL A   1      34.873  33.794  29.371  1.00  0.00     0.054 A 
BRANCH  62  63
ATOM     63  S   UNL A   1      33.526  34.490  28.376  1.00  0.00     0.124 S 
ATOM     64  O   UNL A   1      32.981  33.298  27.730  1.00  0.00    -0.237 OA
ATOM     65  O   UNL A   1      32.668  35.105  29.385  1.00  0.00    -0.237 OA
ATOM     66  O   UNL A   1      34.203  35.427  27.482  1.00  0.00    -0.744 OA
ENDBRANCH  62  63
ENDBRANCH  43  57
BRANCH  44  67
ATOM     67  C   UNL A   1      44.614  28.685  35.948  1.00  0.00    -0.014 A 
ATOM     68  C   UNL A   1      44.414  27.680  36.911  1.00  0.00     0.010 A 
ATOM     69  C   UNL A   1      45.924  29.124  35.683  1.00  0.00     0.010 A 
ATOM     70  C   UNL A   1      45.499  27.138  37.608  1.00  0.00     0.020 A 
ATOM     71  C   UNL A   1      47.014  28.564  36.356  1.00  0.00     0.020 A 
ATOM     72  C   UNL A   1      46.794  27.582  37.323  1.00  0.00     0.054 A 
BRANCH  72  73
ATOM     73  S   UNL A   1      48.190  26.829  38.202  1.00  0.00     0.124 S 
ATOM     74  O   UNL A   1      49.310  27.649  37.753  1.00  0.00    -0.237 OA
ATOM     75  O   UNL A   1      47.805  26.995  39.602  1.00  0.00    -0.237 OA
ATOM     76  O   UNL A   1      48.190  25.449  37.723  1.00  0.00    -0.744 OA
ENDBRANCH  72  73
ENDBRANCH  44  67
BRANCH  56  77
ATOM     77  C   UNL A   1      39.827  33.527  37.480  1.00  0.00    -0.014 A 
ATOM     78  C   UNL A   1      40.517  34.728  37.721  1.00  0.00     0.010 A 
ATOM     79  C   UNL A   1      38.836  33.110  38.389  1.00  0.00     0.010 A 
ATOM     80  C   UNL A   1      40.247  35.477  38.869  1.00  0.00     0.020 A 
ATOM     81  C   UNL A   1      38.540  33.874  39.520  1.00  0.00     0.020 A 
ATOM     82  C   UNL A   1      39.260  35.046  39.761  1.00  0.00     0.054 A 
BRANCH  82  83
ATOM     83  S   UNL A   1      38.903  36.057  41.222  1.00  0.00     0.124 S 
ATOM     84  O   UNL A   1      38.719  37.382  40.637  1.00  0.00    -0.237 OA
ATOM     85  O   UNL A   1      37.696  35.431  41.756  1.00  0.00    -0.237 OA
ATOM     86  O   UNL A   1      40.096  35.902  42.052  1.00  0.00    -0.744 OA
ENDBRANCH  82  83
ENDBRANCH  56  77
ENDBRANCH  30  31
ENDBRANCH  22  25
ENDBRANCH  20  21
ENDBRANCH  19  20
ENDBRANCH   1  19
TORSDOF 18
ENDMDL
MODEL 3
REMARK VINA RESULT:      -9.8      5.581     10.989
REMARK SMILES COC(=O)NNC(=O)CCC(=O)NCCCCNC(=O)c1ccc(-c2c3nc(c(-c4ccc(S(=O)(=O)[O-])cc4)c4ccc([nH]4)c(-c4ccc(S(=O)(=O)[O-])cc4)c4nc(c(-c5ccc(S(=O)(=O)[O-])cc5)c5ccc2[nH]5)C=C4)C=C3)cc1
REMARK SMILES IDX 15 1 14 2 13 3 11 4 12 5 10 7 9 8 7 9 6 10 8 12 5 13 3 14
REMARK SMILES IDX 4 15 2 17 1 18 16 19 17 20 18 21 19 22 20 24 21 25 22 26
REMARK SMILES IDX 80 27 23 28 79 29 24 30 25 31 26 32 73 33 27 34 78 35 72 36
REMARK SMILES IDX 74 37 28 38 77 39 71 40 70 41 29 43 59 44 40 45 58 46 41 47
REMARK SMILES IDX 44 48 57 49 75 50 42 51 43 52 56 54 76 55 45 56 30 57 31 58
REMARK SMILES IDX 39 59 32 60 38 61 33 62 34 63 35 64 36 65 37 66 60 67 61 68
REMARK SMILES IDX 69 69 62 70 68 71 63 72 64 73 65 74 66 75 67 76 46 77 47 78
REMARK SMILES IDX 55 79 48 80 54 81 49 82 50 83 51 84 52 85 53 86
REMARK H PARENT 13 6 6 11 5 16 18 23 74 42 44 53
REMARK Flexibility Score: inf
ROOT
ATOM      1  C   UNL A   1      34.987  21.844  26.227  1.00  0.00     0.023 C 
ENDROOT
BRANCH   1   2
ATOM      2  C   UNL A   1      34.716  21.185  24.872  1.00  0.00     0.116 C 
BRANCH   2   3
ATOM      3  N   UNL A   1      33.382  21.444  24.351  1.00  0.00    -0.356 N 
ATOM      4  C   UNL A   1      32.966  22.260  23.345  1.00  0.00     0.220 C 
ATOM      5  O   UNL A   1      31.769  22.303  23.061  1.00  0.00    -0.275 OA
ATOM      6  H   UNL A   1      32.661  20.947  24.800  1.00  0.00     0.163 HD
BRANCH   4   7
ATOM      7  C   UNL A   1      33.941  23.161  22.633  1.00  0.00     0.110 C 
BRANCH   7   8
ATOM      8  C   UNL A   1      33.660  24.628  22.926  1.00  0.00     0.112 C 
BRANCH   8   9
ATOM      9  C   UNL A   1      32.785  25.285  21.880  1.00  0.00     0.238 C 
ATOM     10  N   UNL A   1      31.436  25.406  22.104  1.00  0.00    -0.265 N 
ATOM     11  H   UNL A   1      30.884  25.768  21.373  1.00  0.00     0.191 HD
ATOM     12  O   UNL A   1      33.285  25.724  20.842  1.00  0.00    -0.273 OA
BRANCH  10  13
ATOM     13  N   UNL A   1      30.785  25.057  23.289  1.00  0.00    -0.232 N 
ATOM     14  C   UNL A   1      30.165  25.984  24.096  1.00  0.00     0.425 C 
ATOM     15  O   UNL A   1      29.707  25.688  25.191  1.00  0.00    -0.223 OA
ATOM     16  H   UNL A   1      30.769  24.109  23.558  1.00  0.00     0.195 HD
BRANCH  14  17
ATOM     17  O   UNL A   1      30.147  27.234  23.558  1.00  0.00    -0.452 OA
ATOM     18  C   UNL A   1      31.007  28.158  24.236  1.00  0.00     0.284 C 
ENDBRANCH  14  17
ENDBRANCH  10  13
ENDBRANCH   8   9
ENDBRANCH   7   8
ENDBRANCH   4   7
ENDBRANCH   2   3
ENDBRANCH   1   2
BRANCH   1  19
ATOM     19  C   UNL A   1      35.151  23.357  26.172  1.00  0.00     0.023 C 
BRANCH  19  20
ATOM     20  C   UNL A   1      36.502  23.825  25.668  1.00  0.00     0.116 C 
BRANCH  20  21
ATOM     21  N   UNL A   1      37.524  22.806  25.842  1.00  0.00    -0.352 N 
ATOM     22  C   UNL A   1      38.823  22.932  26.267  1.00  0.00     0.251 C 
ATOM     23  H   UNL A   1      37.242  21.889  25.622  1.00  0.00     0.163 HD
ATOM     24  O   UNL A   1      39.601  21.993  26.117  1.00  0.00    -0.269 OA
BRANCH  22  25
ATOM     25  C   UNL A   1      39.290  24.193  26.889  1.00  0.00     0.039 A 
ATOM     26  C   UNL A   1      38.990  24.439  28.231  1.00  0.00     0.014 A 
ATOM     27  C   UNL A   1      39.996  25.145  26.150  1.00  0.00     0.014 A 
ATOM     28  C   UNL A   1      39.429  25.620  28.834  1.00  0.00     0.010 A 
ATOM     29  C   UNL A   1      40.534  26.259  26.781  1.00  0.00     0.010 A 
ATOM     30  C   UNL A   1      40.226  26.530  28.119  1.00  0.00    -0.014 A 
BRANCH  30  31
ATOM     31  C   UNL A   1      40.696  27.799  28.733  1.00  0.00     0.031 A 
ATOM     32  C   UNL A   1      42.115  27.910  29.228  1.00  0.00     0.074 A 
ATOM     33  C   UNL A   1      39.839  28.828  28.886  1.00  0.00     0.049 A 
ATOM     34  N   UNL A   1      42.704  28.910  29.832  1.00  0.00    -0.248 NA
ATOM     35  C   UNL A   1      42.981  26.729  29.053  1.00  0.00     0.031 C 
ATOM     36  C   UNL A   1      38.429  28.826  28.488  1.00  0.00     0.029 A 
ATOM     37  N   UNL A   1      40.031  30.078  29.417  1.00  0.00    -0.354 N 
ATOM     38  C   UNL A   1      43.990  28.472  30.126  1.00  0.00     0.074 A 
ATOM     39  C   UNL A   1      44.078  27.096  29.697  1.00  0.00     0.031 C 
ATOM     40  C   UNL A   1      37.896  30.030  28.749  1.00  0.00     0.029 A 
ATOM     41  C   UNL A   1      38.910  30.874  29.374  1.00  0.00     0.049 A 
ATOM     42  H   UNL A   1      40.890  30.378  29.793  1.00  0.00     0.167 HD
ATOM     43  C   UNL A   1      45.018  29.160  30.678  1.00  0.00     0.031 A 
ATOM     44  C   UNL A   1      38.720  32.141  29.791  1.00  0.00     0.031 A 
ATOM     45  C   UNL A   1      44.931  30.538  31.080  1.00  0.00     0.049 A 
ATOM     46  C   UNL A   1      39.876  32.887  30.400  1.00  0.00     0.074 A 
ATOM     47  C   UNL A   1      45.927  31.349  31.593  1.00  0.00     0.029 A 
ATOM     48  N   UNL A   1      43.781  31.309  31.012  1.00  0.00    -0.354 N 
ATOM     49  N   UNL A   1      41.105  32.475  30.609  1.00  0.00    -0.248 NA
ATOM     50  C   UNL A   1      39.625  34.273  30.815  1.00  0.00     0.031 C 
ATOM     51  C   UNL A   1      45.364  32.595  31.889  1.00  0.00     0.029 A 
ATOM     52  C   UNL A   1      44.035  32.580  31.497  1.00  0.00     0.049 A 
ATOM     53  H   UNL A   1      42.912  30.998  30.668  1.00  0.00     0.167 HD
ATOM     54  C   UNL A   1      41.780  33.561  31.155  1.00  0.00     0.074 A 
ATOM     55  C   UNL A   1      40.827  34.651  31.225  1.00  0.00     0.031 C 
ATOM     56  C   UNL A   1      43.071  33.650  31.561  1.00  0.00     0.031 A 
BRANCH  43  57
ATOM     57  C   UNL A   1      46.323  28.429  30.876  1.00  0.00    -0.014 A 
ATOM     58  C   UNL A   1      46.598  27.739  32.071  1.00  0.00     0.010 A 
ATOM     59  C   UNL A   1      47.276  28.409  29.841  1.00  0.00     0.010 A 
ATOM     60  C   UNL A   1      47.819  27.082  32.246  1.00  0.00     0.020 A 
ATOM     61  C   UNL A   1      48.485  27.724  30.000  1.00  0.00     0.020 A 
ATOM     62  C   UNL A   1      48.757  27.081  31.208  1.00  0.00     0.054 A 
BRANCH  62  63
ATOM     63  S   UNL A   1      50.324  26.203  31.457  1.00  0.00     0.124 S 
ATOM     64  O   UNL A   1      50.267  25.182  30.413  1.00  0.00    -0.237 OA
ATOM     65  O   UNL A   1      51.316  27.255  31.252  1.00  0.00    -0.237 OA
ATOM     66  O   UNL A   1      50.226  25.700  32.826  1.00  0.00    -0.744 OA
ENDBRANCH  62  63
ENDBRANCH  43  57
BRANCH  44  67
ATOM     67  C   UNL A   1      37.389  32.787  29.624  1.00  0.00    -0.014 A 
ATOM     68  C   UNL A   1      36.482  32.846  30.698  1.00  0.00     0.010 A 
ATOM     69  C   UNL A   1      37.028  33.367  28.395  1.00  0.00     0.010 A 
ATOM     70  C   UNL A   1      35.233  33.454  30.539  1.00  0.00     0.020 A 
ATOM     71  C   UNL A   1      35.792  34.003  28.241  1.00  0.00     0.020 A 
ATOM     72  C   UNL A   1      34.897  34.032  29.311  1.00  0.00     0.054 A 
BRANCH  72  73
ATOM     73  S   UNL A   1      33.292  34.861  29.145  1.00  0.00     0.124 S 
ATOM     74  O   UNL A   1      32.622  34.028  28.152  1.00  0.00    -0.237 OA
ATOM     75  O   UNL A   1      32.757  34.783  30.502  1.00  0.00    -0.237 OA
ATOM     76  O   UNL A   1      33.647  36.206  28.699  1.00  0.00    -0.744 OA
ENDBRANCH  72  73
ENDBRANCH  44  67
BRANCH  56  77
ATOM     77  C   UNL A   1      43.541  34.981  32.084  1.00  0.00    -0.014 A 
ATOM     78  C   UNL A   1      44.063  35.962  31.224  1.00  0.00     0.010 A 
ATOM     79  C   UNL A   1      43.407  35.270  33.455  1.00  0.00     0.010 A 
ATOM     80  C   UNL A   1      44.480  37.195  31.732  1.00  0.00     0.020 A 
ATOM     81  C   UNL A   1      43.790  36.514  33.962  1.00  0.00     0.020 A 
ATOM     82  C   UNL A   1      44.340  37.464  33.098  1.00  0.00     0.054 A 
BRANCH  82  83
ATOM     83  S   UNL A   1      44.851  39.086  33.724  1.00  0.00     0.124 S 
ATOM     84  O   UNL A   1      44.928  39.874  32.498  1.00  0.00    -0.237 OA
ATOM     85  O   UNL A   1      43.761  39.436  34.631  1.00  0.00    -0.237 OA
ATOM     86  O   UNL A   1      46.132  38.819  34.375  1.00  0.00    -0.744 OA
ENDBRANCH  82  83
ENDBRANCH  56  77
ENDBRANCH  30  31
ENDBRANCH  22  25
ENDBRANCH  20  21
ENDBRANCH  19  20
ENDBRANCH   1  19
TORSDOF 18
ENDMDL
