MODEL 1
REMARK VINA RESULT:     -11.2      0.000      0.000
REMARK SMILES CC(C)(CNC(=O)[C@H]1CCC[C@H](C(=O)NCCCCNC(=O)c2ccc(-c3c4nc(c(-c5ccc(S(=O)(=O)[O-])cc5)c5ccc([nH]5)c(-c5ccc(S(=O)(=O)[O-])cc5)c5nc(c(-c6ccc(S(=O)(=O)[O-])cc6)c6ccc3[nH]6)C=C5)C=C4)cc2)C1)S(C)(=O)=O
REMARK SMILES IDX 17 1 16 2 15 3 13 4 14 5 12 7 8 8 9 9 83 10 10 11 11 12 6 13
REMARK SMILES IDX 5 14 7 16 4 17 2 18 1 19 3 20 84 21 85 22 86 23 87 24 18 25
REMARK SMILES IDX 19 26 20 27 21 28 22 30 23 31 24 32 82 33 25 34 81 35 26 36
REMARK SMILES IDX 27 37 28 38 75 39 29 40 80 41 74 42 76 43 30 44 79 45 73 46
REMARK SMILES IDX 72 47 31 49 61 50 42 51 60 52 43 53 46 54 59 55 77 56 44 57
REMARK SMILES IDX 45 58 58 60 78 61 47 62 32 63 33 64 41 65 34 66 40 67 35 68
REMARK SMILES IDX 36 69 37 70 38 71 39 72 62 73 63 74 71 75 64 76 70 77 65 78
REMARK SMILES IDX 66 79 67 80 68 81 69 82 48 83 49 84 57 85 50 86 56 87 51 88
REMARK SMILES IDX 52 89 53 90 54 91 55 92
REMARK H PARENT 15 6 5 15 20 29 76 48 46 59
REMARK Flexibility Score: inf
ROOT
ATOM      1  C   UNL A   1      33.574  29.082  27.272  1.00  0.00     0.023 C 
ENDROOT
BRANCH   1   2
ATOM      2  C   UNL A   1      32.731  30.087  26.491  1.00  0.00     0.116 C 
BRANCH   2   3
ATOM      3  N   UNL A   1      32.956  29.982  25.059  1.00  0.00    -0.356 N 
ATOM      4  C   UNL A   1      32.679  28.974  24.185  1.00  0.00     0.223 C 
ATOM      5  O   UNL A   1      33.013  29.124  23.008  1.00  0.00    -0.275 OA
ATOM      6  H   UNL A   1      33.380  30.771  24.652  1.00  0.00     0.163 HD
BRANCH   4   7
ATOM      7  C   UNL A   1      31.946  27.711  24.632  1.00  0.00     0.079 C 
ATOM      8  C   UNL A   1      31.923  25.165  24.190  1.00  0.00     0.079 C 
ATOM      9  C   UNL A   1      30.535  25.348  23.575  1.00  0.00     0.013 C 
ATOM     10  C   UNL A   1      32.721  26.467  24.166  1.00  0.00     0.027 C 
ATOM     11  C   UNL A   1      29.742  26.421  24.308  1.00  0.00     0.002 C 
ATOM     12  C   UNL A   1      30.451  27.766  24.287  1.00  0.00     0.013 C 
BRANCH   8  13
ATOM     13  C   UNL A   1      31.802  24.595  25.600  1.00  0.00     0.223 C 
ATOM     14  N   UNL A   1      32.784  23.773  26.073  1.00  0.00    -0.354 N 
ATOM     15  H   UNL A   1      32.618  23.380  26.960  1.00  0.00     0.163 HD
ATOM     16  O   UNL A   1      30.850  24.825  26.343  1.00  0.00    -0.275 OA
BRANCH  14  17
ATOM     17  C   UNL A   1      34.039  23.398  25.450  1.00  0.00     0.138 C 
BRANCH  17  18
ATOM     18  C   UNL A   1      34.011  22.053  24.703  1.00  0.00     0.084 C 
ATOM     19  C   UNL A   1      33.486  22.208  23.270  1.00  0.00     0.030 C 
ATOM     20  C   UNL A   1      35.469  21.541  24.636  1.00  0.00     0.030 C 
BRANCH  18  21
ATOM     21  S   UNL A   1      33.053  20.794  25.620  1.00  0.00     0.154 S 
ATOM     22  C   UNL A   1      33.466  19.188  24.968  1.00  0.00     0.158 C 
ATOM     23  O   UNL A   1      33.534  20.809  26.993  1.00  0.00    -0.229 OA
ATOM     24  O   UNL A   1      31.647  21.018  25.349  1.00  0.00    -0.229 OA
ENDBRANCH  18  21
ENDBRANCH  17  18
ENDBRANCH  14  17
ENDBRANCH   8  13
ENDBRANCH   4   7
ENDBRANCH   2   3
ENDBRANCH   1   2
BRANCH   1  25
ATOM     25  C   UNL A   1      35.081  29.262  27.107  1.00  0.00     0.023 C 
BRANCH  25  26
ATOM     26  C   UNL A   1      35.666  30.450  27.856  1.00  0.00     0.116 C 
BRANCH  26  27
ATOM     27  N   UNL A   1      35.507  30.338  29.299  1.00  0.00    -0.352 N 
ATOM     28  C   UNL A   1      36.418  29.913  30.234  1.00  0.00     0.251 C 
ATOM     29  H   UNL A   1      34.627  30.602  29.651  1.00  0.00     0.163 HD
ATOM     30  O   UNL A   1      36.064  29.726  31.394  1.00  0.00    -0.269 OA
BRANCH  28  31
ATOM     31  C   UNL A   1      37.815  29.657  29.824  1.00  0.00     0.039 A 
ATOM     32  C   UNL A   1      38.715  29.155  30.766  1.00  0.00     0.014 A 
ATOM     33  C   UNL A   1      38.229  29.894  28.511  1.00  0.00     0.014 A 
ATOM     34  C   UNL A   1      40.017  28.842  30.375  1.00  0.00     0.010 A 
ATOM     35  C   UNL A   1      39.496  29.494  28.102  1.00  0.00     0.010 A 
ATOM     36  C   UNL A   1      40.410  28.982  29.033  1.00  0.00    -0.014 A 
BRANCH  36  37
ATOM     37  C   UNL A   1      41.782  28.618  28.595  1.00  0.00     0.031 A 
ATOM     38  C   UNL A   1      42.866  29.663  28.563  1.00  0.00     0.074 A 
ATOM     39  C   UNL A   1      42.043  27.359  28.191  1.00  0.00     0.049 A 
ATOM     40  N   UNL A   1      44.120  29.540  28.215  1.00  0.00    -0.248 NA
ATOM     41  C   UNL A   1      42.486  31.033  28.948  1.00  0.00     0.031 C 
ATOM     42  C   UNL A   1      41.067  26.267  28.133  1.00  0.00     0.029 A 
ATOM     43  N   UNL A   1      43.210  26.782  27.756  1.00  0.00    -0.354 N 
ATOM     44  C   UNL A   1      44.671  30.811  28.320  1.00  0.00     0.074 A 
ATOM     45  C   UNL A   1      43.602  31.704  28.708  1.00  0.00     0.031 C 
ATOM     46  C   UNL A   1      41.686  25.145  27.735  1.00  0.00     0.029 A 
ATOM     47  C   UNL A   1      43.089  25.444  27.467  1.00  0.00     0.049 A 
ATOM     48  H   UNL A   1      44.054  27.280  27.661  1.00  0.00     0.167 HD
ATOM     49  C   UNL A   1      45.955  31.200  28.134  1.00  0.00     0.031 A 
ATOM     50  C   UNL A   1      44.006  24.555  27.036  1.00  0.00     0.031 A 
ATOM     51  C   UNL A   1      47.017  30.305  27.758  1.00  0.00     0.049 A 
ATOM     52  C   UNL A   1      45.424  25.013  26.828  1.00  0.00     0.074 A 
ATOM     53  C   UNL A   1      48.364  30.585  27.606  1.00  0.00     0.029 A 
ATOM     54  N   UNL A   1      46.854  28.959  27.468  1.00  0.00    -0.354 N 
ATOM     55  N   UNL A   1      45.943  26.205  27.010  1.00  0.00    -0.248 NA
ATOM     56  C   UNL A   1      46.385  24.001  26.369  1.00  0.00     0.031 C 
ATOM     57  C   UNL A   1      49.003  29.423  27.160  1.00  0.00     0.029 A 
ATOM     58  C   UNL A   1      48.068  28.402  27.107  1.00  0.00     0.049 A 
ATOM     59  H   UNL A   1      45.998  28.472  27.512  1.00  0.00     0.167 HD
ATOM     60  C   UNL A   1      47.298  26.075  26.722  1.00  0.00     0.074 A 
ATOM     61  C   UNL A   1      47.518  24.688  26.370  1.00  0.00     0.031 C 
ATOM     62  C   UNL A   1      48.272  27.019  26.753  1.00  0.00     0.031 A 
BRANCH  49  63
ATOM     63  C   UNL A   1      46.276  32.661  28.322  1.00  0.00    -0.014 A 
ATOM     64  C   UNL A   1      46.678  33.169  29.572  1.00  0.00     0.010 A 
ATOM     65  C   UNL A   1      46.206  33.536  27.222  1.00  0.00     0.010 A 
ATOM     66  C   UNL A   1      46.954  34.531  29.729  1.00  0.00     0.020 A 
ATOM     67  C   UNL A   1      46.514  34.893  27.368  1.00  0.00     0.020 A 
ATOM     68  C   UNL A   1      46.868  35.384  28.625  1.00  0.00     0.054 A 
BRANCH  68  69
ATOM     69  S   UNL A   1      47.249  37.142  28.855  1.00  0.00     0.124 S 
ATOM     70  O   UNL A   1      47.179  37.278  30.308  1.00  0.00    -0.237 OA
ATOM     71  O   UNL A   1      48.587  37.257  28.278  1.00  0.00    -0.237 OA
ATOM     72  O   UNL A   1      46.193  37.827  28.114  1.00  0.00    -0.744 OA
ENDBRANCH  68  69
ENDBRANCH  49  63
BRANCH  50  73
ATOM     73  C   UNL A   1      43.620  23.135  26.806  1.00  0.00    -0.014 A 
ATOM     74  C   UNL A   1      43.004  22.388  27.826  1.00  0.00     0.010 A 
ATOM     75  C   UNL A   1      43.861  22.521  25.563  1.00  0.00     0.010 A 
ATOM     76  C   UNL A   1      42.657  21.050  27.617  1.00  0.00     0.020 A 
ATOM     77  C   UNL A   1      43.486  21.193  25.339  1.00  0.00     0.020 A 
ATOM     78  C   UNL A   1      42.898  20.462  26.372  1.00  0.00     0.054 A 
BRANCH  78  79
ATOM     79  S   UNL A   1      42.397  18.738  26.110  1.00  0.00     0.124 S 
ATOM     80  O   UNL A   1      43.314  18.310  25.059  1.00  0.00    -0.237 OA
ATOM     81  O   UNL A   1      42.619  18.142  27.425  1.00  0.00    -0.237 OA
ATOM     82  O   UNL A   1      40.994  18.847  25.714  1.00  0.00    -0.744 OA
ENDBRANCH  78  79
ENDBRANCH  50  73
BRANCH  62  83
ATOM     83  C   UNL A   1      49.677  26.574  26.439  1.00  0.00    -0.014 A 
ATOM     84  C   UNL A   1      50.213  26.688  25.143  1.00  0.00     0.010 A 
ATOM     85  C   UNL A   1      50.488  26.067  27.472  1.00  0.00     0.010 A 
ATOM     86  C   UNL A   1      51.516  26.260  24.878  1.00  0.00     0.020 A 
ATOM     87  C   UNL A   1      51.802  25.671  27.218  1.00  0.00     0.020 A 
ATOM     88  C   UNL A   1      52.302  25.752  25.916  1.00  0.00     0.054 A 
BRANCH  88  89
ATOM     89  S   UNL A   1      53.999  25.226  25.552  1.00  0.00     0.124 S 
ATOM     90  O   UNL A   1      54.532  24.975  26.888  1.00  0.00    -0.237 OA
ATOM     91  O   UNL A   1      53.794  24.041  24.724  1.00  0.00    -0.237 OA
ATOM     92  O   UNL A   1      54.576  26.373  24.856  1.00  0.00    -0.744 OA
ENDBRANCH  88  89
ENDBRANCH  62  83
ENDBRANCH  36  37
ENDBRANCH  28  31
ENDBRANCH  26  27
ENDBRANCH  25  26
ENDBRANCH   1  25
TORSDOF 18
ENDMDL
MODEL 2
REMARK VINA RESULT:     -11.1      5.110      6.438
REMARK SMILES CC(C)(CNC(=O)[C@H]1CCC[C@H](C(=O)NCCCCNC(=O)c2ccc(-c3c4nc(c(-c5ccc(S(=O)(=O)[O-])cc5)c5ccc([nH]5)c(-c5ccc(S(=O)(=O)[O-])cc5)c5nc(c(-c6ccc(S(=O)(=O)[O-])cc6)c6ccc3[nH]6)C=C5)C=C4)cc2)C1)S(C)(=O)=O
REMARK SMILES IDX 17 1 16 2 15 3 13 4 14 5 12 7 8 8 9 9 83 10 10 11 11 12 6 13
REMARK SMILES IDX 5 14 7 16 4 17 2 18 1 19 3 20 84 21 85 22 86 23 87 24 18 25
REMARK SMILES IDX 19 26 20 27 21 28 22 30 23 31 24 32 82 33 25 34 81 35 26 36
REMARK SMILES IDX 27 37 28 38 75 39 29 40 80 41 74 42 76 43 30 44 79 45 73 46
REMARK SMILES IDX 72 47 31 49 61 50 42 51 60 52 43 53 46 54 59 55 77 56 44 57
REMARK SMILES IDX 45 58 58 60 78 61 47 62 32 63 33 64 41 65 34 66 40 67 35 68
REMARK SMILES IDX 36 69 37 70 38 71 39 72 62 73 63 74 71 75 64 76 70 77 65 78
REMARK SMILES IDX 66 79 67 80 68 81 69 82 48 83 49 84 57 85 50 86 56 87 51 88
REMARK SMILES IDX 52 89 53 90 54 91 55 92
REMARK H PARENT 15 6 5 15 20 29 76 48 46 59
REMARK Flexibility Score: inf
ROOT
ATOM      1  C   UNL A   1      32.335  29.221  24.610  1.00  0.00     0.023 C 
ENDROOT
BRANCH   1   2
ATOM      2  C   UNL A   1      31.771  28.832  23.246  1.00  0.00     0.116 C 
BRANCH   2   3
ATOM      3  N   UNL A   1      30.414  28.324  23.348  1.00  0.00    -0.356 N 
ATOM      4  C   UNL A   1      29.945  27.112  23.759  1.00  0.00     0.223 C 
ATOM      5  O   UNL A   1      28.729  26.919  23.712  1.00  0.00    -0.275 OA
ATOM      6  H   UNL A   1      29.716  28.961  23.075  1.00  0.00     0.163 HD
BRANCH   4   7
ATOM      7  C   UNL A   1      30.885  26.035  24.296  1.00  0.00     0.079 C 
ATOM      8  C   UNL A   1      31.507  23.559  23.892  1.00  0.00     0.079 C 
ATOM      9  C   UNL A   1      30.912  23.251  25.267  1.00  0.00     0.013 C 
ATOM     10  C   UNL A   1      30.937  24.853  23.313  1.00  0.00     0.027 C 
ATOM     11  C   UNL A   1      31.175  24.383  26.250  1.00  0.00     0.002 C 
ATOM     12  C   UNL A   1      30.592  25.702  25.766  1.00  0.00     0.013 C 
BRANCH   8  13
ATOM     13  C   UNL A   1      33.030  23.593  23.974  1.00  0.00     0.223 C 
ATOM     14  N   UNL A   1      33.725  22.418  23.949  1.00  0.00    -0.354 N 
ATOM     15  H   UNL A   1      34.698  22.498  24.075  1.00  0.00     0.163 HD
ATOM     16  O   UNL A   1      33.679  24.632  24.075  1.00  0.00    -0.275 OA
BRANCH  14  17
ATOM     17  C   UNL A   1      33.229  21.068  23.763  1.00  0.00     0.138 C 
BRANCH  17  18
ATOM     18  C   UNL A   1      33.795  20.032  24.749  1.00  0.00     0.084 C 
ATOM     19  C   UNL A   1      35.312  20.182  24.925  1.00  0.00     0.030 C 
ATOM     20  C   UNL A   1      33.117  20.289  26.115  1.00  0.00     0.030 C 
BRANCH  18  21
ATOM     21  S   UNL A   1      33.358  18.326  24.258  1.00  0.00     0.154 S 
ATOM     22  C   UNL A   1      32.629  17.505  25.662  1.00  0.00     0.158 C 
ATOM     23  O   UNL A   1      32.306  18.426  23.258  1.00  0.00    -0.229 OA
ATOM     24  O   UNL A   1      34.586  17.624  23.940  1.00  0.00    -0.229 OA
ENDBRANCH  18  21
ENDBRANCH  17  18
ENDBRANCH  14  17
ENDBRANCH   8  13
ENDBRANCH   4   7
ENDBRANCH   2   3
ENDBRANCH   1   2
BRANCH   1  25
ATOM     25  C   UNL A   1      33.613  28.480  24.998  1.00  0.00     0.023 C 
BRANCH  25  26
ATOM     26  C   UNL A   1      34.350  29.065  26.193  1.00  0.00     0.116 C 
BRANCH  26  27
ATOM     27  N   UNL A   1      33.867  30.389  26.557  1.00  0.00    -0.352 N 
ATOM     28  C   UNL A   1      34.314  31.225  27.550  1.00  0.00     0.251 C 
ATOM     29  H   UNL A   1      33.118  30.731  26.017  1.00  0.00     0.163 HD
ATOM     30  O   UNL A   1      33.685  32.242  27.824  1.00  0.00    -0.269 OA
BRANCH  28  31
ATOM     31  C   UNL A   1      35.538  30.873  28.301  1.00  0.00     0.039 A 
ATOM     32  C   UNL A   1      35.504  29.789  29.180  1.00  0.00     0.014 A 
ATOM     33  C   UNL A   1      36.719  31.599  28.121  1.00  0.00     0.014 A 
ATOM     34  C   UNL A   1      36.670  29.403  29.840  1.00  0.00     0.010 A 
ATOM     35  C   UNL A   1      37.898  31.155  28.707  1.00  0.00     0.010 A 
ATOM     36  C   UNL A   1      37.884  30.064  29.587  1.00  0.00    -0.014 A 
BRANCH  36  37
ATOM     37  C   UNL A   1      39.141  29.640  30.255  1.00  0.00     0.031 A 
ATOM     38  C   UNL A   1      39.587  30.319  31.524  1.00  0.00     0.074 A 
ATOM     39  C   UNL A   1      39.900  28.674  29.701  1.00  0.00     0.049 A 
ATOM     40  N   UNL A   1      40.649  30.088  32.253  1.00  0.00    -0.248 NA
ATOM     41  C   UNL A   1      38.744  31.416  32.028  1.00  0.00     0.031 C 
ATOM     42  C   UNL A   1      39.599  27.972  28.450  1.00  0.00     0.029 A 
ATOM     43  N   UNL A   1      41.078  28.110  30.121  1.00  0.00    -0.354 N 
ATOM     44  C   UNL A   1      40.611  31.019  33.284  1.00  0.00     0.074 A 
ATOM     45  C   UNL A   1      39.454  31.856  33.056  1.00  0.00     0.031 C 
ATOM     46  C   UNL A   1      40.541  27.041  28.231  1.00  0.00     0.029 A 
ATOM     47  C   UNL A   1      41.534  27.108  29.297  1.00  0.00     0.049 A 
ATOM     48  H   UNL A   1      41.552  28.396  30.935  1.00  0.00     0.167 HD
ATOM     49  C   UNL A   1      41.448  31.153  34.340  1.00  0.00     0.031 A 
ATOM     50  C   UNL A   1      42.629  26.327  29.392  1.00  0.00     0.031 A 
ATOM     51  C   UNL A   1      42.592  30.311  34.568  1.00  0.00     0.049 A 
ATOM     52  C   UNL A   1      43.550  26.501  30.569  1.00  0.00     0.074 A 
ATOM     53  C   UNL A   1      43.469  30.322  35.639  1.00  0.00     0.029 A 
ATOM     54  N   UNL A   1      43.025  29.312  33.708  1.00  0.00    -0.354 N 
ATOM     55  N   UNL A   1      43.453  27.336  31.578  1.00  0.00    -0.248 NA
ATOM     56  C   UNL A   1      44.721  25.617  30.628  1.00  0.00     0.031 C 
ATOM     57  C   UNL A   1      44.468  29.374  35.394  1.00  0.00     0.029 A 
ATOM     58  C   UNL A   1      44.172  28.721  34.207  1.00  0.00     0.049 A 
ATOM     59  H   UNL A   1      42.580  29.061  32.865  1.00  0.00     0.167 HD
ATOM     60  C   UNL A   1      44.532  27.051  32.409  1.00  0.00     0.074 A 
ATOM     61  C   UNL A   1      45.256  25.960  31.792  1.00  0.00     0.031 C 
ATOM     62  C   UNL A   1      44.887  27.637  33.580  1.00  0.00     0.031 A 
BRANCH  49  63
ATOM     63  C   UNL A   1      41.164  32.263  35.320  1.00  0.00    -0.014 A 
ATOM     64  C   UNL A   1      40.357  32.049  36.455  1.00  0.00     0.010 A 
ATOM     65  C   UNL A   1      41.737  33.532  35.121  1.00  0.00     0.010 A 
ATOM     66  C   UNL A   1      40.091  33.096  37.343  1.00  0.00     0.020 A 
ATOM     67  C   UNL A   1      41.500  34.572  36.026  1.00  0.00     0.020 A 
ATOM     68  C   UNL A   1      40.663  34.352  37.120  1.00  0.00     0.054 A 
BRANCH  68  69
ATOM     69  S   UNL A   1      40.314  35.686  38.298  1.00  0.00     0.124 S 
ATOM     70  O   UNL A   1      41.623  35.893  38.914  1.00  0.00    -0.237 OA
ATOM     71  O   UNL A   1      39.852  36.766  37.430  1.00  0.00    -0.237 OA
ATOM     72  O   UNL A   1      39.296  35.117  39.177  1.00  0.00    -0.744 OA
ENDBRANCH  68  69
ENDBRANCH  49  63
BRANCH  50  73
ATOM     73  C   UNL A   1      42.896  25.287  28.360  1.00  0.00    -0.014 A 
ATOM     74  C   UNL A   1      43.649  25.595  27.213  1.00  0.00     0.010 A 
ATOM     75  C   UNL A   1      42.404  23.979  28.521  1.00  0.00     0.010 A 
ATOM     76  C   UNL A   1      43.885  24.624  26.236  1.00  0.00     0.020 A 
ATOM     77  C   UNL A   1      42.665  22.995  27.561  1.00  0.00     0.020 A 
ATOM     78  C   UNL A   1      43.394  23.329  26.418  1.00  0.00     0.054 A 
BRANCH  78  79
ATOM     79  S   UNL A   1      43.753  22.074  25.158  1.00  0.00     0.124 S 
ATOM     80  O   UNL A   1      45.129  21.705  25.478  1.00  0.00    -0.237 OA
ATOM     81  O   UNL A   1      42.744  21.054  25.433  1.00  0.00    -0.237 OA
ATOM     82  O   UNL A   1      43.574  22.793  23.899  1.00  0.00    -0.744 OA
ENDBRANCH  78  79
ENDBRANCH  50  73
BRANCH  62  83
ATOM     83  C   UNL A   1      46.089  27.080  34.296  1.00  0.00    -0.014 A 
ATOM     84  C   UNL A   1      47.384  27.572  34.051  1.00  0.00     0.010 A 
ATOM     85  C   UNL A   1      45.912  26.071  35.261  1.00  0.00     0.010 A 
ATOM     86  C   UNL A   1      48.484  27.031  34.724  1.00  0.00     0.020 A 
ATOM     87  C   UNL A   1      47.004  25.553  35.960  1.00  0.00     0.020 A 
ATOM     88  C   UNL A   1      48.287  26.024  35.673  1.00  0.00     0.054 A 
BRANCH  88  89
ATOM     89  S   UNL A   1      49.726  25.356  36.550  1.00  0.00     0.124 S 
ATOM     90  O   UNL A   1      50.758  26.338  36.232  1.00  0.00    -0.237 OA
ATOM     91  O   UNL A   1      49.276  25.344  37.940  1.00  0.00    -0.237 OA
ATOM     92  O   UNL A   1      49.915  24.036  35.953  1.00  0.00    -0.744 OA
ENDBRANCH  88  89
ENDBRANCH  62  83
ENDBRANCH  36  37
ENDBRANCH  28  31
ENDBRANCH  26  27
ENDBRANCH  25  26
ENDBRANCH   1  25
TORSDOF 18
ENDMDL
MODEL 3
REMARK VINA RESULT:     -11.1      1.142      8.279
REMARK SMILES CC(C)(CNC(=O)[C@H]1CCC[C@H](C(=O)NCCCCNC(=O)c2ccc(-c3c4nc(c(-c5ccc(S(=O)(=O)[O-])cc5)c5ccc([nH]5)c(-c5ccc(S(=O)(=O)[O-])cc5)c5nc(c(-c6ccc(S(=O)(=O)[O-])cc6)c6ccc3[nH]6)C=C5)C=C4)cc2)C1)S(C)(=O)=O
REMARK SMILES IDX 17 1 16 2 15 3 13 4 14 5 12 7 8 8 9 9 83 10 10 11 11 12 6 13
REMARK SMILES IDX 5 14 7 16 4 17 2 18 1 19 3 20 84 21 85 22 86 23 87 24 18 25
REMARK SMILES IDX 19 26 20 27 21 28 22 30 23 31 24 32 82 33 25 34 81 35 26 36
REMARK SMILES IDX 27 37 28 38 75 39 29 40 80 41 74 42 76 43 30 44 79 45 73 46
REMARK SMILES IDX 72 47 31 49 61 50 42 51 60 52 43 53 46 54 59 55 77 56 44 57
REMARK SMILES IDX 45 58 58 60 78 61 47 62 32 63 33 64 41 65 34 66 40 67 35 68
REMARK SMILES IDX 36 69 37 70 38 71 39 72 62 73 63 74 71 75 64 76 70 77 65 78
REMARK SMILES IDX 66 79 67 80 68 81 69 82 48 83 49 84 57 85 50 86 56 87 51 88
REMARK SMILES IDX 52 89 53 90 54 91 55 92
REMARK H PARENT 15 6 5 15 20 29 76 48 46 59
REMARK Flexibility Score: inf
ROOT
ATOM      1  C   UNL A   1      33.379  30.354  26.531  1.00  0.00     0.023 C 
ENDROOT
BRANCH   1   2
ATOM      2  C   UNL A   1      31.862  30.214  26.422  1.00  0.00     0.116 C 
BRANCH   2   3
ATOM      3  N   UNL A   1      31.413  30.268  25.042  1.00  0.00    -0.356 N 
ATOM      4  C   UNL A   1      31.057  29.273  24.182  1.00  0.00     0.223 C 
ATOM      5  O   UNL A   1      30.746  29.589  23.032  1.00  0.00    -0.275 OA
ATOM      6  H   UNL A   1      31.358  31.174  24.664  1.00  0.00     0.163 HD
BRANCH   4   7
ATOM      7  C   UNL A   1      31.004  27.814  24.629  1.00  0.00     0.079 C 
ATOM      8  C   UNL A   1      32.355  25.621  24.418  1.00  0.00     0.079 C 
ATOM      9  C   UNL A   1      31.195  25.059  23.595  1.00  0.00     0.013 C 
ATOM     10  C   UNL A   1      32.371  27.148  24.393  1.00  0.00     0.027 C 
ATOM     11  C   UNL A   1      29.855  25.570  24.108  1.00  0.00     0.002 C 
ATOM     12  C   UNL A   1      29.773  27.088  24.069  1.00  0.00     0.013 C 
BRANCH   8  13
ATOM     13  C   UNL A   1      32.305  25.073  25.842  1.00  0.00     0.223 C 
ATOM     14  N   UNL A   1      32.580  23.754  26.058  1.00  0.00    -0.354 N 
ATOM     15  H   UNL A   1      32.463  23.443  26.985  1.00  0.00     0.163 HD
ATOM     16  O   UNL A   1      32.012  25.759  26.819  1.00  0.00    -0.275 OA
BRANCH  14  17
ATOM     17  C   UNL A   1      33.021  22.747  25.113  1.00  0.00     0.138 C 
BRANCH  17  18
ATOM     18  C   UNL A   1      34.325  22.027  25.501  1.00  0.00     0.084 C 
ATOM     19  C   UNL A   1      34.444  21.844  27.019  1.00  0.00     0.030 C 
ATOM     20  C   UNL A   1      34.283  20.628  24.842  1.00  0.00     0.030 C 
BRANCH  18  21
ATOM     21  S   UNL A   1      35.793  22.882  24.826  1.00  0.00     0.154 S 
ATOM     22  C   UNL A   1      36.840  23.360  26.187  1.00  0.00     0.158 C 
ATOM     23  O   UNL A   1      36.546  21.899  24.062  1.00  0.00    -0.229 OA
ATOM     24  O   UNL A   1      35.343  24.101  24.183  1.00  0.00    -0.229 OA
ENDBRANCH  18  21
ENDBRANCH  17  18
ENDBRANCH  14  17
ENDBRANCH   8  13
ENDBRANCH   4   7
ENDBRANCH   2   3
ENDBRANCH   1   2
BRANCH   1  25
ATOM     25  C   UNL A   1      34.075  29.168  27.192  1.00  0.00     0.023 C 
BRANCH  25  26
ATOM     26  C   UNL A   1      35.457  29.472  27.751  1.00  0.00     0.116 C 
BRANCH  26  27
ATOM     27  N   UNL A   1      35.428  29.808  29.168  1.00  0.00    -0.352 N 
ATOM     28  C   UNL A   1      36.428  29.690  30.100  1.00  0.00     0.251 C 
ATOM     29  H   UNL A   1      34.575  30.168  29.501  1.00  0.00     0.163 HD
ATOM     30  O   UNL A   1      36.182  29.868  31.289  1.00  0.00    -0.269 OA
BRANCH  28  31
ATOM     31  C   UNL A   1      37.791  29.320  29.663  1.00  0.00     0.039 A 
ATOM     32  C   UNL A   1      38.149  29.518  28.328  1.00  0.00     0.014 A 
ATOM     33  C   UNL A   1      38.716  28.800  30.572  1.00  0.00     0.014 A 
ATOM     34  C   UNL A   1      39.454  29.240  27.919  1.00  0.00     0.010 A 
ATOM     35  C   UNL A   1      40.037  28.614  30.183  1.00  0.00     0.010 A 
ATOM     36  C   UNL A   1      40.417  28.813  28.849  1.00  0.00    -0.014 A 
BRANCH  36  37
ATOM     37  C   UNL A   1      41.818  28.549  28.434  1.00  0.00     0.031 A 
ATOM     38  C   UNL A   1      42.227  27.167  27.995  1.00  0.00     0.074 A 
ATOM     39  C   UNL A   1      42.730  29.541  28.488  1.00  0.00     0.049 A 
ATOM     40  N   UNL A   1      43.398  26.743  27.596  1.00  0.00    -0.248 NA
ATOM     41  C   UNL A   1      41.193  26.120  28.033  1.00  0.00     0.031 C 
ATOM     42  C   UNL A   1      42.467  30.910  28.939  1.00  0.00     0.029 A 
ATOM     43  N   UNL A   1      44.061  29.551  28.157  1.00  0.00    -0.354 N 
ATOM     44  C   UNL A   1      43.247  25.382  27.354  1.00  0.00     0.074 A 
ATOM     45  C   UNL A   1      41.887  25.039  27.708  1.00  0.00     0.031 C 
ATOM     46  C   UNL A   1      43.588  31.638  28.810  1.00  0.00     0.029 A 
ATOM     47  C   UNL A   1      44.659  30.780  28.312  1.00  0.00     0.049 A 
ATOM     48  H   UNL A   1      44.543  28.754  27.837  1.00  0.00     0.167 HD
ATOM     49  C   UNL A   1      44.148  24.500  26.862  1.00  0.00     0.031 A 
ATOM     50  C   UNL A   1      45.926  31.173  28.076  1.00  0.00     0.031 A 
ATOM     51  C   UNL A   1      45.497  24.849  26.502  1.00  0.00     0.049 A 
ATOM     52  C   UNL A   1      46.912  30.172  27.538  1.00  0.00     0.074 A 
ATOM     53  C   UNL A   1      46.471  24.046  25.935  1.00  0.00     0.029 A 
ATOM     54  N   UNL A   1      46.066  26.101  26.680  1.00  0.00    -0.354 N 
ATOM     55  N   UNL A   1      46.727  28.907  27.241  1.00  0.00    -0.248 NA
ATOM     56  C   UNL A   1      48.276  30.657  27.288  1.00  0.00     0.031 C 
ATOM     57  C   UNL A   1      47.648  24.795  25.831  1.00  0.00     0.029 A 
ATOM     58  C   UNL A   1      47.386  26.085  26.264  1.00  0.00     0.049 A 
ATOM     59  H   UNL A   1      45.598  26.887  27.049  1.00  0.00     0.167 HD
ATOM     60  C   UNL A   1      47.942  28.456  26.736  1.00  0.00     0.074 A 
ATOM     61  C   UNL A   1      48.847  29.586  26.755  1.00  0.00     0.031 C 
ATOM     62  C   UNL A   1      48.277  27.218  26.292  1.00  0.00     0.031 A 
BRANCH  49  63
ATOM     63  C   UNL A   1      43.706  23.068  26.698  1.00  0.00    -0.014 A 
ATOM     64  C   UNL A   1      43.183  22.333  27.780  1.00  0.00     0.010 A 
ATOM     65  C   UNL A   1      43.787  22.455  25.435  1.00  0.00     0.010 A 
ATOM     66  C   UNL A   1      42.796  21.001  27.612  1.00  0.00     0.020 A 
ATOM     67  C   UNL A   1      43.369  21.132  25.254  1.00  0.00     0.020 A 
ATOM     68  C   UNL A   1      42.894  20.408  26.349  1.00  0.00     0.054 A 
BRANCH  68  69
ATOM     69  S   UNL A   1      42.368  18.684  26.156  1.00  0.00     0.124 S 
ATOM     70  O   UNL A   1      42.489  18.178  27.522  1.00  0.00    -0.237 OA
ATOM     71  O   UNL A   1      41.001  18.820  25.657  1.00  0.00    -0.237 OA
ATOM     72  O   UNL A   1      43.325  18.132  25.201  1.00  0.00    -0.744 OA
ENDBRANCH  68  69
ENDBRANCH  49  63
BRANCH  50  73
ATOM     73  C   UNL A   1      46.326  32.588  28.315  1.00  0.00    -0.014 A 
ATOM     74  C   UNL A   1      46.859  32.980  29.556  1.00  0.00     0.010 A 
ATOM     75  C   UNL A   1      46.181  33.552  27.301  1.00  0.00     0.010 A 
ATOM     76  C   UNL A   1      47.218  34.311  29.786  1.00  0.00     0.020 A 
ATOM     77  C   UNL A   1      46.569  34.878  27.516  1.00  0.00     0.020 A 
ATOM     78  C   UNL A   1      47.073  35.252  28.763  1.00  0.00     0.054 A 
BRANCH  78  79
ATOM     79  S   UNL A   1      47.590  36.963  29.072  1.00  0.00     0.124 S 
ATOM     80  O   UNL A   1      47.430  37.073  30.518  1.00  0.00    -0.237 OA
ATOM     81  O   UNL A   1      48.966  36.969  28.585  1.00  0.00    -0.237 OA
ATOM     82  O   UNL A   1      46.652  37.752  28.275  1.00  0.00    -0.744 OA
ENDBRANCH  78  79
ENDBRANCH  50  73
BRANCH  62  83
ATOM     83  C   UNL A   1      49.669  27.031  25.747  1.00  0.00    -0.014 A 
ATOM     84  C   UNL A   1      50.723  26.576  26.560  1.00  0.00     0.010 A 
ATOM     85  C   UNL A   1      49.916  27.281  24.384  1.00  0.00     0.010 A 
ATOM     86  C   UNL A   1      52.006  26.419  26.030  1.00  0.00     0.020 A 
ATOM     87  C   UNL A   1      51.189  27.091  23.843  1.00  0.00     0.020 A 
ATOM     88  C   UNL A   1      52.232  26.679  24.676  1.00  0.00     0.054 A 
BRANCH  88  89
ATOM     89  S   UNL A   1      53.900  26.445  24.006  1.00  0.00     0.124 S 
ATOM     90  O   UNL A   1      53.628  26.186  22.595  1.00  0.00    -0.237 OA
ATOM     91  O   UNL A   1      54.544  27.723  24.298  1.00  0.00    -0.237 OA
ATOM     92  O   UNL A   1      54.421  25.306  24.759  1.00  0.00    -0.744 OA
ENDBRANCH  88  89
ENDBRANCH  62  83
ENDBRANCH  36  37
ENDBRANCH  28  31
ENDBRANCH  26  27
ENDBRANCH  25  26
ENDBRANCH   1  25
TORSDOF 18
ENDMDL
