MODEL 1
REMARK VINA RESULT:     -12.8      0.000      0.000
REMARK SMILES CCOC(=O)c1c(NC(=O)[C@@H]2[C@@H](C(=O)NCCCCNC(=O)c3ccc(-c4c5nc(c(-c6ccc(S(=O)(=O)[O-])cc6)c6ccc([nH]6)c(-c6ccc(S(=O)(=O)[O-])cc6)c6nc(c(-c7ccc(S(=O)(=O)[O-])cc7)c7ccc4[nH]7)C=C6)C=C5)cc3)[C@@H]3C=C[C@H]2CC3)sc2c1CCC2
REMARK SMILES IDX 16 1 15 2 13 3 14 4 12 6 11 7 86 8 83 9 85 10 87 11 84 12
REMARK SMILES IDX 88 13 9 14 8 15 10 17 7 18 6 19 91 20 89 21 90 22 92 23
REMARK SMILES IDX 94 24 93 25 4 26 5 27 3 28 2 29 1 30 17 31 18 32 19 33 20 34
REMARK SMILES IDX 21 35 22 37 23 38 24 39 82 40 25 41 81 42 26 43 27 44 28 45
REMARK SMILES IDX 75 46 29 47 80 48 74 49 76 50 30 51 79 52 73 53 72 54 31 56
REMARK SMILES IDX 61 57 42 58 60 59 43 60 46 61 59 62 77 63 44 64 45 65 58 67
REMARK SMILES IDX 78 68 47 69 32 70 33 71 41 72 34 73 40 74 35 75 36 76 37 77
REMARK SMILES IDX 38 78 39 79 62 80 63 81 71 82 64 83 70 84 65 85 66 86 67 87
REMARK SMILES IDX 68 88 69 89 48 90 49 91 57 92 50 93 56 94 51 95 52 96 53 97
REMARK SMILES IDX 54 98 55 99
REMARK H PARENT 15 5 8 16 20 36 76 55 46 66
REMARK Flexibility Score: inf
ROOT
ATOM      1  C   UNL A   1      36.800  23.539  25.691  1.00  0.00     0.116 C 
ENDROOT
BRANCH   1   2
ATOM      2  N   UNL A   1      35.784  23.013  26.588  1.00  0.00    -0.356 N 
ATOM      3  C   UNL A   1      34.429  22.909  26.576  1.00  0.00     0.224 C 
ATOM      4  O   UNL A   1      33.961  22.231  27.504  1.00  0.00    -0.275 OA
ATOM      5  H   UNL A   1      36.175  22.639  27.411  1.00  0.00     0.163 HD
BRANCH   3   6
ATOM      6  C   UNL A   1      33.430  23.623  25.641  1.00  0.00     0.098 C 
ATOM      7  C   UNL A   1      31.948  23.225  25.703  1.00  0.00     0.099 C 
ATOM      8  C   UNL A   1      31.466  22.764  24.294  1.00  0.00     0.025 C 
ATOM      9  C   UNL A   1      33.936  23.573  24.158  1.00  0.00     0.025 C 
ATOM     10  C   UNL A   1      31.691  23.867  23.293  1.00  0.00    -0.027 C 
ATOM     11  C   UNL A   1      32.401  21.635  23.729  1.00  0.00     0.009 C 
ATOM     12  C   UNL A   1      32.977  24.246  23.196  1.00  0.00    -0.027 C 
ATOM     13  C   UNL A   1      33.874  22.138  23.642  1.00  0.00     0.009 C 
BRANCH   7  14
ATOM     14  C   UNL A   1      30.998  24.150  26.510  1.00  0.00     0.229 C 
ATOM     15  N   UNL A   1      30.830  25.497  26.509  1.00  0.00    -0.317 N 
ATOM     16  H   UNL A   1      30.168  25.796  27.173  1.00  0.00     0.170 HD
ATOM     17  O   UNL A   1      30.171  23.560  27.234  1.00  0.00    -0.274 OA
BRANCH  15  18
ATOM     18  C   UNL A   1      31.371  26.539  25.792  1.00  0.00     0.110 A 
ATOM     19  C   UNL A   1      30.900  27.099  24.597  1.00  0.00     0.098 A 
ATOM     20  C   UNL A   1      31.991  27.792  23.992  1.00  0.00    -0.017 A 
ATOM     21  S   UNL A   1      32.564  27.570  26.442  1.00  0.00    -0.122 S 
ATOM     22  C   UNL A   1      33.006  27.991  24.888  1.00  0.00     0.011 A 
ATOM     23  C   UNL A   1      32.343  28.402  22.686  1.00  0.00     0.038 C 
ATOM     24  C   UNL A   1      34.226  28.609  24.335  1.00  0.00     0.047 C 
ATOM     25  C   UNL A   1      33.894  28.589  22.814  1.00  0.00     0.010 C 
BRANCH  19  26
ATOM     26  C   UNL A   1      29.550  26.875  24.109  1.00  0.00     0.341 C 
ATOM     27  O   UNL A   1      28.789  26.089  24.669  1.00  0.00    -0.246 OA
BRANCH  26  28
ATOM     28  O   UNL A   1      29.205  27.650  23.045  1.00  0.00    -0.462 OA
BRANCH  28  29
ATOM     29  C   UNL A   1      27.980  28.390  23.188  1.00  0.00     0.230 C 
ATOM     30  C   UNL A   1      27.915  29.662  22.355  1.00  0.00     0.049 C 
ENDBRANCH  28  29
ENDBRANCH  26  28
ENDBRANCH  19  26
ENDBRANCH  15  18
ENDBRANCH   7  14
ENDBRANCH   3   6
ENDBRANCH   1   2
BRANCH   1  31
ATOM     31  C   UNL A   1      37.420  22.512  24.732  1.00  0.00     0.023 C 
BRANCH  31  32
ATOM     32  C   UNL A   1      38.204  21.369  25.366  1.00  0.00     0.023 C 
BRANCH  32  33
ATOM     33  C   UNL A   1      39.205  21.827  26.410  1.00  0.00     0.116 C 
BRANCH  33  34
ATOM     34  N   UNL A   1      40.579  21.799  25.915  1.00  0.00    -0.352 N 
ATOM     35  C   UNL A   1      41.507  22.823  25.950  1.00  0.00     0.251 C 
ATOM     36  H   UNL A   1      40.878  20.954  25.509  1.00  0.00     0.163 HD
ATOM     37  O   UNL A   1      42.505  22.803  25.263  1.00  0.00    -0.269 OA
BRANCH  35  38
ATOM     38  C   UNL A   1      41.217  23.948  26.855  1.00  0.00     0.039 A 
ATOM     39  C   UNL A   1      41.938  24.101  28.038  1.00  0.00     0.014 A 
ATOM     40  C   UNL A   1      40.325  24.924  26.412  1.00  0.00     0.014 A 
ATOM     41  C   UNL A   1      41.827  25.303  28.729  1.00  0.00     0.010 A 
ATOM     42  C   UNL A   1      40.307  26.152  27.034  1.00  0.00     0.010 A 
ATOM     43  C   UNL A   1      41.042  26.344  28.204  1.00  0.00    -0.014 A 
BRANCH  43  44
ATOM     44  C   UNL A   1      41.086  27.667  28.823  1.00  0.00     0.031 A 
ATOM     45  C   UNL A   1      42.118  28.602  28.289  1.00  0.00     0.074 A 
ATOM     46  C   UNL A   1      40.168  28.122  29.700  1.00  0.00     0.049 A 
ATOM     47  N   UNL A   1      43.213  28.975  28.864  1.00  0.00    -0.248 NA
ATOM     48  C   UNL A   1      41.975  29.093  26.911  1.00  0.00     0.031 C 
ATOM     49  C   UNL A   1      38.912  27.495  30.125  1.00  0.00     0.029 A 
ATOM     50  N   UNL A   1      40.135  29.324  30.334  1.00  0.00    -0.354 N 
ATOM     51  C   UNL A   1      43.803  29.912  28.020  1.00  0.00     0.074 A 
ATOM     52  C   UNL A   1      43.086  29.823  26.770  1.00  0.00     0.031 C 
ATOM     53  C   UNL A   1      38.141  28.411  30.753  1.00  0.00     0.029 A 
ATOM     54  C   UNL A   1      38.925  29.616  30.944  1.00  0.00     0.049 A 
ATOM     55  H   UNL A   1      40.906  29.937  30.358  1.00  0.00     0.167 HD
ATOM     56  C   UNL A   1      44.696  30.835  28.482  1.00  0.00     0.031 A 
ATOM     57  C   UNL A   1      38.586  30.771  31.565  1.00  0.00     0.031 A 
ATOM     58  C   UNL A   1      45.130  30.526  29.821  1.00  0.00     0.049 A 
ATOM     59  C   UNL A   1      39.848  31.438  31.959  1.00  0.00     0.074 A 
ATOM     60  C   UNL A   1      45.782  29.467  30.419  1.00  0.00     0.029 A 
ATOM     61  N   UNL A   1      44.535  31.231  30.844  1.00  0.00    -0.354 N 
ATOM     62  N   UNL A   1      40.671  30.947  32.844  1.00  0.00    -0.248 NA
ATOM     63  C   UNL A   1      40.418  32.435  31.069  1.00  0.00     0.031 C 
ATOM     64  C   UNL A   1      45.147  29.315  31.688  1.00  0.00     0.029 A 
ATOM     65  C   UNL A   1      44.194  30.330  31.818  1.00  0.00     0.049 A 
ATOM     66  H   UNL A   1      44.383  32.203  30.869  1.00  0.00     0.167 HD
ATOM     67  C   UNL A   1      41.935  31.235  32.356  1.00  0.00     0.074 A 
ATOM     68  C   UNL A   1      41.717  32.249  31.327  1.00  0.00     0.031 C 
ATOM     69  C   UNL A   1      43.005  30.434  32.642  1.00  0.00     0.031 A 
BRANCH  56  70
ATOM     70  C   UNL A   1      44.891  32.217  27.897  1.00  0.00    -0.014 A 
ATOM     71  C   UNL A   1      46.000  32.443  27.051  1.00  0.00     0.010 A 
ATOM     72  C   UNL A   1      44.203  33.354  28.361  1.00  0.00     0.010 A 
ATOM     73  C   UNL A   1      46.450  33.740  26.766  1.00  0.00     0.020 A 
ATOM     74  C   UNL A   1      44.617  34.652  28.046  1.00  0.00     0.020 A 
ATOM     75  C   UNL A   1      45.763  34.836  27.284  1.00  0.00     0.054 A 
BRANCH  75  76
ATOM     76  S   UNL A   1      46.423  36.501  27.018  1.00  0.00     0.124 S 
ATOM     77  O   UNL A   1      47.179  36.329  25.782  1.00  0.00    -0.237 OA
ATOM     78  O   UNL A   1      45.208  37.303  26.914  1.00  0.00    -0.237 OA
ATOM     79  O   UNL A   1      47.225  36.745  28.215  1.00  0.00    -0.744 OA
ENDBRANCH  75  76
ENDBRANCH  56  70
BRANCH  57  80
ATOM     80  C   UNL A   1      37.267  31.445  31.587  1.00  0.00    -0.014 A 
ATOM     81  C   UNL A   1      36.543  31.574  32.785  1.00  0.00     0.010 A 
ATOM     82  C   UNL A   1      36.856  32.217  30.480  1.00  0.00     0.010 A 
ATOM     83  C   UNL A   1      35.492  32.499  32.895  1.00  0.00     0.020 A 
ATOM     84  C   UNL A   1      35.805  33.136  30.581  1.00  0.00     0.020 A 
ATOM     85  C   UNL A   1      35.146  33.293  31.798  1.00  0.00     0.054 A 
BRANCH  85  86
ATOM     86  S   UNL A   1      33.927  34.623  32.012  1.00  0.00     0.124 S 
ATOM     87  O   UNL A   1      33.398  34.781  30.660  1.00  0.00    -0.237 OA
ATOM     88  O   UNL A   1      33.003  34.052  32.989  1.00  0.00    -0.237 OA
ATOM     89  O   UNL A   1      34.724  35.747  32.503  1.00  0.00    -0.744 OA
ENDBRANCH  85  86
ENDBRANCH  57  80
BRANCH  69  90
ATOM     90  C   UNL A   1      42.866  29.408  33.745  1.00  0.00    -0.014 A 
ATOM     91  C   UNL A   1      43.183  29.658  35.095  1.00  0.00     0.010 A 
ATOM     92  C   UNL A   1      42.244  28.189  33.421  1.00  0.00     0.010 A 
ATOM     93  C   UNL A   1      42.907  28.701  36.086  1.00  0.00     0.020 A 
ATOM     94  C   UNL A   1      41.949  27.242  34.404  1.00  0.00     0.020 A 
ATOM     95  C   UNL A   1      42.291  27.498  35.732  1.00  0.00     0.054 A 
BRANCH  95  96
ATOM     96  S   UNL A   1      41.889  26.283  37.020  1.00  0.00     0.124 S 
ATOM     97  O   UNL A   1      41.839  25.030  36.271  1.00  0.00    -0.237 OA
ATOM     98  O   UNL A   1      43.006  26.415  37.952  1.00  0.00    -0.237 OA
ATOM     99  O   UNL A   1      40.602  26.741  37.543  1.00  0.00    -0.744 OA
ENDBRANCH  95  96
ENDBRANCH  69  90
ENDBRANCH  43  44
ENDBRANCH  35  38
ENDBRANCH  33  34
ENDBRANCH  32  33
ENDBRANCH  31  32
ENDBRANCH   1  31
TORSDOF 19
ENDMDL
MODEL 2
REMARK VINA RESULT:     -12.1      1.437      1.991
REMARK SMILES CCOC(=O)c1c(NC(=O)[C@@H]2[C@@H](C(=O)NCCCCNC(=O)c3ccc(-c4c5nc(c(-c6ccc(S(=O)(=O)[O-])cc6)c6ccc([nH]6)c(-c6ccc(S(=O)(=O)[O-])cc6)c6nc(c(-c7ccc(S(=O)(=O)[O-])cc7)c7ccc4[nH]7)C=C6)C=C5)cc3)[C@@H]3C=C[C@H]2CC3)sc2c1CCC2
REMARK SMILES IDX 16 1 15 2 13 3 14 4 12 6 11 7 86 8 83 9 85 10 87 11 84 12
REMARK SMILES IDX 88 13 9 14 8 15 10 17 7 18 6 19 91 20 89 21 90 22 92 23
REMARK SMILES IDX 94 24 93 25 4 26 5 27 3 28 2 29 1 30 17 31 18 32 19 33 20 34
REMARK SMILES IDX 21 35 22 37 23 38 24 39 82 40 25 41 81 42 26 43 27 44 28 45
REMARK SMILES IDX 75 46 29 47 80 48 74 49 76 50 30 51 79 52 73 53 72 54 31 56
REMARK SMILES IDX 61 57 42 58 60 59 43 60 46 61 59 62 77 63 44 64 45 65 58 67
REMARK SMILES IDX 78 68 47 69 32 70 33 71 41 72 34 73 40 74 35 75 36 76 37 77
REMARK SMILES IDX 38 78 39 79 62 80 63 81 71 82 64 83 70 84 65 85 66 86 67 87
REMARK SMILES IDX 68 88 69 89 48 90 49 91 57 92 50 93 56 94 51 95 52 96 53 97
REMARK SMILES IDX 54 98 55 99
REMARK H PARENT 15 5 8 16 20 36 76 55 46 66
REMARK Flexibility Score: inf
ROOT
ATOM      1  C   UNL A   1      37.098  21.464  25.563  1.00  0.00     0.116 C 
ENDROOT
BRANCH   1   2
ATOM      2  N   UNL A   1      36.148  22.340  26.232  1.00  0.00    -0.356 N 
ATOM      3  C   UNL A   1      34.897  22.804  25.973  1.00  0.00     0.224 C 
ATOM      4  O   UNL A   1      34.379  23.425  26.914  1.00  0.00    -0.275 OA
ATOM      5  H   UNL A   1      36.499  22.682  27.086  1.00  0.00     0.163 HD
BRANCH   3   6
ATOM      6  C   UNL A   1      34.125  22.758  24.637  1.00  0.00     0.098 C 
ATOM      7  C   UNL A   1      33.117  23.874  24.330  1.00  0.00     0.099 C 
ATOM      8  C   UNL A   1      31.710  23.257  24.064  1.00  0.00     0.025 C 
ATOM      9  C   UNL A   1      33.448  21.358  24.443  1.00  0.00     0.025 C 
ATOM     10  C   UNL A   1      31.794  22.273  22.927  1.00  0.00    -0.027 C 
ATOM     11  C   UNL A   1      31.279  22.324  25.252  1.00  0.00     0.009 C 
ATOM     12  C   UNL A   1      32.660  21.270  23.152  1.00  0.00    -0.027 C 
ATOM     13  C   UNL A   1      32.324  21.185  25.460  1.00  0.00     0.009 C 
BRANCH   7  14
ATOM     14  C   UNL A   1      33.583  25.011  23.382  1.00  0.00     0.229 C 
ATOM     15  N   UNL A   1      33.485  26.363  23.473  1.00  0.00    -0.317 N 
ATOM     16  H   UNL A   1      33.844  26.822  22.680  1.00  0.00     0.170 HD
ATOM     17  O   UNL A   1      34.246  24.640  22.392  1.00  0.00    -0.274 OA
BRANCH  15  18
ATOM     18  C   UNL A   1      33.001  27.236  24.419  1.00  0.00     0.110 A 
ATOM     19  C   UNL A   1      31.893  28.088  24.317  1.00  0.00     0.098 A 
ATOM     20  C   UNL A   1      32.052  29.111  25.299  1.00  0.00    -0.017 A 
ATOM     21  S   UNL A   1      33.497  27.180  26.050  1.00  0.00    -0.122 S 
ATOM     22  C   UNL A   1      32.998  28.764  26.226  1.00  0.00     0.011 A 
ATOM     23  C   UNL A   1      31.468  30.431  25.644  1.00  0.00     0.038 C 
ATOM     24  C   UNL A   1      33.312  29.800  27.228  1.00  0.00     0.047 C 
ATOM     25  C   UNL A   1      32.525  31.011  26.646  1.00  0.00     0.010 C 
BRANCH  19  26
ATOM     26  C   UNL A   1      30.871  27.922  23.299  1.00  0.00     0.341 C 
ATOM     27  O   UNL A   1      30.465  26.807  22.975  1.00  0.00    -0.246 OA
BRANCH  26  28
ATOM     28  O   UNL A   1      30.378  29.090  22.805  1.00  0.00    -0.462 OA
BRANCH  28  29
ATOM     29  C   UNL A   1      28.986  29.338  23.070  1.00  0.00     0.230 C 
ATOM     30  C   UNL A   1      28.210  29.889  21.884  1.00  0.00     0.049 C 
ENDBRANCH  28  29
ENDBRANCH  26  28
ENDBRANCH  19  26
ENDBRANCH  15  18
ENDBRANCH   7  14
ENDBRANCH   3   6
ENDBRANCH   1   2
BRANCH   1  31
ATOM     31  C   UNL A   1      38.577  21.791  25.816  1.00  0.00     0.023 C 
BRANCH  31  32
ATOM     32  C   UNL A   1      39.538  20.610  25.885  1.00  0.00     0.023 C 
BRANCH  32  33
ATOM     33  C   UNL A   1      40.758  20.873  26.748  1.00  0.00     0.116 C 
BRANCH  33  34
ATOM     34  N   UNL A   1      41.951  21.159  25.954  1.00  0.00    -0.352 N 
ATOM     35  C   UNL A   1      42.528  22.392  25.717  1.00  0.00     0.251 C 
ATOM     36  H   UNL A   1      42.394  20.383  25.540  1.00  0.00     0.163 HD
ATOM     37  O   UNL A   1      43.327  22.560  24.822  1.00  0.00    -0.269 OA
BRANCH  35  38
ATOM     38  C   UNL A   1      42.113  23.497  26.598  1.00  0.00     0.039 A 
ATOM     39  C   UNL A   1      42.769  23.712  27.809  1.00  0.00     0.014 A 
ATOM     40  C   UNL A   1      41.168  24.398  26.109  1.00  0.00     0.014 A 
ATOM     41  C   UNL A   1      42.537  24.906  28.483  1.00  0.00     0.010 A 
ATOM     42  C   UNL A   1      41.029  25.625  26.718  1.00  0.00     0.010 A 
ATOM     43  C   UNL A   1      41.696  25.880  27.916  1.00  0.00    -0.014 A 
BRANCH  43  44
ATOM     44  C   UNL A   1      41.611  27.206  28.523  1.00  0.00     0.031 A 
ATOM     45  C   UNL A   1      42.747  28.129  28.233  1.00  0.00     0.074 A 
ATOM     46  C   UNL A   1      40.523  27.674  29.168  1.00  0.00     0.049 A 
ATOM     47  N   UNL A   1      43.686  28.497  29.040  1.00  0.00    -0.248 NA
ATOM     48  C   UNL A   1      42.924  28.614  26.857  1.00  0.00     0.031 C 
ATOM     49  C   UNL A   1      39.198  27.061  29.299  1.00  0.00     0.029 A 
ATOM     50  N   UNL A   1      40.359  28.881  29.773  1.00  0.00    -0.354 N 
ATOM     51  C   UNL A   1      44.461  29.424  28.347  1.00  0.00     0.074 A 
ATOM     52  C   UNL A   1      44.045  29.333  26.968  1.00  0.00     0.031 C 
ATOM     53  C   UNL A   1      38.313  27.986  29.733  1.00  0.00     0.029 A 
ATOM     54  C   UNL A   1      39.044  29.186  30.092  1.00  0.00     0.049 A 
ATOM     55  H   UNL A   1      41.110  29.487  29.968  1.00  0.00     0.167 HD
ATOM     56  C   UNL A   1      45.235  30.342  28.997  1.00  0.00     0.031 A 
ATOM     57  C   UNL A   1      38.585  30.348  30.615  1.00  0.00     0.031 A 
ATOM     58  C   UNL A   1      45.351  30.037  30.400  1.00  0.00     0.049 A 
ATOM     59  C   UNL A   1      39.731  31.006  31.282  1.00  0.00     0.074 A 
ATOM     60  C   UNL A   1      45.841  28.977  31.135  1.00  0.00     0.029 A 
ATOM     61  N   UNL A   1      44.546  30.753  31.258  1.00  0.00    -0.354 N 
ATOM     62  N   UNL A   1      40.328  30.514  32.333  1.00  0.00    -0.248 NA
ATOM     63  C   UNL A   1      40.497  31.993  30.540  1.00  0.00     0.031 C 
ATOM     64  C   UNL A   1      44.933  28.838  32.227  1.00  0.00     0.029 A 
ATOM     65  C   UNL A   1      43.985  29.861  32.134  1.00  0.00     0.049 A 
ATOM     66  H   UNL A   1      44.402  31.727  31.245  1.00  0.00     0.167 HD
ATOM     67  C   UNL A   1      41.672  30.788  32.142  1.00  0.00     0.074 A 
ATOM     68  C   UNL A   1      41.702  31.798  31.087  1.00  0.00     0.031 C 
ATOM     69  C   UNL A   1      42.642  29.980  32.666  1.00  0.00     0.031 A 
BRANCH  56  70
ATOM     70  C   UNL A   1      45.570  31.719  28.465  1.00  0.00    -0.014 A 
ATOM     71  C   UNL A   1      44.585  32.420  27.734  1.00  0.00     0.010 A 
ATOM     72  C   UNL A   1      46.882  32.226  28.412  1.00  0.00     0.010 A 
ATOM     73  C   UNL A   1      44.917  33.511  26.919  1.00  0.00     0.020 A 
ATOM     74  C   UNL A   1      47.217  33.342  27.638  1.00  0.00     0.020 A 
ATOM     75  C   UNL A   1      46.239  33.951  26.863  1.00  0.00     0.054 A 
BRANCH  75  76
ATOM     76  S   UNL A   1      46.683  35.276  25.712  1.00  0.00     0.124 S 
ATOM     77  O   UNL A   1      48.140  35.263  25.790  1.00  0.00    -0.237 OA
ATOM     78  O   UNL A   1      46.109  34.802  24.456  1.00  0.00    -0.237 OA
ATOM     79  O   UNL A   1      46.035  36.455  26.283  1.00  0.00    -0.744 OA
ENDBRANCH  75  76
ENDBRANCH  56  70
BRANCH  57  80
ATOM     80  C   UNL A   1      37.302  31.032  30.335  1.00  0.00    -0.014 A 
ATOM     81  C   UNL A   1      36.509  31.535  31.382  1.00  0.00     0.010 A 
ATOM     82  C   UNL A   1      37.001  31.448  29.021  1.00  0.00     0.010 A 
ATOM     83  C   UNL A   1      35.499  32.478  31.132  1.00  0.00     0.020 A 
ATOM     84  C   UNL A   1      35.992  32.383  28.764  1.00  0.00     0.020 A 
ATOM     85  C   UNL A   1      35.264  32.915  29.825  1.00  0.00     0.054 A 
BRANCH  85  86
ATOM     86  S   UNL A   1      34.099  34.281  29.541  1.00  0.00     0.124 S 
ATOM     87  O   UNL A   1      34.887  35.195  28.719  1.00  0.00    -0.237 OA
ATOM     88  O   UNL A   1      32.990  33.616  28.860  1.00  0.00    -0.237 OA
ATOM     89  O   UNL A   1      33.795  34.762  30.888  1.00  0.00    -0.744 OA
ENDBRANCH  85  86
ENDBRANCH  57  80
BRANCH  69  90
ATOM     90  C   UNL A   1      42.247  28.962  33.714  1.00  0.00    -0.014 A 
ATOM     91  C   UNL A   1      42.104  27.584  33.456  1.00  0.00     0.010 A 
ATOM     92  C   UNL A   1      42.165  29.403  35.046  1.00  0.00     0.010 A 
ATOM     93  C   UNL A   1      41.862  26.679  34.503  1.00  0.00     0.020 A 
ATOM     94  C   UNL A   1      41.944  28.506  36.094  1.00  0.00     0.020 A 
ATOM     95  C   UNL A   1      41.783  27.148  35.817  1.00  0.00     0.054 A 
BRANCH  95  96
ATOM     96  S   UNL A   1      41.519  25.973  37.175  1.00  0.00     0.124 S 
ATOM     97  O   UNL A   1      42.677  26.213  38.033  1.00  0.00    -0.237 OA
ATOM     98  O   UNL A   1      40.232  26.391  37.723  1.00  0.00    -0.237 OA
ATOM     99  O   UNL A   1      41.504  24.670  36.510  1.00  0.00    -0.744 OA
ENDBRANCH  95  96
ENDBRANCH  69  90
ENDBRANCH  43  44
ENDBRANCH  35  38
ENDBRANCH  33  34
ENDBRANCH  32  33
ENDBRANCH  31  32
ENDBRANCH   1  31
TORSDOF 19
ENDMDL
MODEL 3
REMARK VINA RESULT:     -11.8      1.850      2.785
REMARK SMILES CCOC(=O)c1c(NC(=O)[C@@H]2[C@@H](C(=O)NCCCCNC(=O)c3ccc(-c4c5nc(c(-c6ccc(S(=O)(=O)[O-])cc6)c6ccc([nH]6)c(-c6ccc(S(=O)(=O)[O-])cc6)c6nc(c(-c7ccc(S(=O)(=O)[O-])cc7)c7ccc4[nH]7)C=C6)C=C5)cc3)[C@@H]3C=C[C@H]2CC3)sc2c1CCC2
REMARK SMILES IDX 16 1 15 2 13 3 14 4 12 6 11 7 86 8 83 9 85 10 87 11 84 12
REMARK SMILES IDX 88 13 9 14 8 15 10 17 7 18 6 19 91 20 89 21 90 22 92 23
REMARK SMILES IDX 94 24 93 25 4 26 5 27 3 28 2 29 1 30 17 31 18 32 19 33 20 34
REMARK SMILES IDX 21 35 22 37 23 38 24 39 82 40 25 41 81 42 26 43 27 44 28 45
REMARK SMILES IDX 75 46 29 47 80 48 74 49 76 50 30 51 79 52 73 53 72 54 31 56
REMARK SMILES IDX 61 57 42 58 60 59 43 60 46 61 59 62 77 63 44 64 45 65 58 67
REMARK SMILES IDX 78 68 47 69 32 70 33 71 41 72 34 73 40 74 35 75 36 76 37 77
REMARK SMILES IDX 38 78 39 79 62 80 63 81 71 82 64 83 70 84 65 85 66 86 67 87
REMARK SMILES IDX 68 88 69 89 48 90 49 91 57 92 50 93 56 94 51 95 52 96 53 97
REMARK SMILES IDX 54 98 55 99
REMARK H PARENT 15 5 8 16 20 36 76 55 46 66
REMARK Flexibility Score: inf
ROOT
ATOM      1  C   UNL A   1      34.039  21.844  24.396  1.00  0.00     0.116 C 
ENDROOT
BRANCH   1   2
ATOM      2  N   UNL A   1      33.815  22.379  23.063  1.00  0.00    -0.356 N 
ATOM      3  C   UNL A   1      33.366  23.551  22.543  1.00  0.00     0.224 C 
ATOM      4  O   UNL A   1      33.484  23.641  21.311  1.00  0.00    -0.275 OA
ATOM      5  H   UNL A   1      34.047  21.729  22.360  1.00  0.00     0.163 HD
BRANCH   3   6
ATOM      6  C   UNL A   1      32.630  24.694  23.274  1.00  0.00     0.098 C 
ATOM      7  C   UNL A   1      32.914  24.920  24.765  1.00  0.00     0.099 C 
ATOM      8  C   UNL A   1      31.586  24.832  25.576  1.00  0.00     0.025 C 
ATOM      9  C   UNL A   1      31.084  24.592  23.033  1.00  0.00     0.025 C 
ATOM     10  C   UNL A   1      30.602  25.845  25.051  1.00  0.00    -0.027 C 
ATOM     11  C   UNL A   1      30.837  23.484  25.271  1.00  0.00     0.009 C 
ATOM     12  C   UNL A   1      30.314  25.684  23.748  1.00  0.00    -0.027 C 
ATOM     13  C   UNL A   1      30.534  23.361  23.746  1.00  0.00     0.009 C 
BRANCH   7  14
ATOM     14  C   UNL A   1      33.896  26.063  25.135  1.00  0.00     0.229 C 
ATOM     15  N   UNL A   1      33.857  27.400  24.904  1.00  0.00    -0.317 N 
ATOM     16  H   UNL A   1      34.661  27.865  25.231  1.00  0.00     0.170 HD
ATOM     17  O   UNL A   1      34.861  25.725  25.852  1.00  0.00    -0.274 OA
BRANCH  15  18
ATOM     18  C   UNL A   1      32.953  28.255  24.317  1.00  0.00     0.110 A 
ATOM     19  C   UNL A   1      32.287  29.339  24.904  1.00  0.00     0.098 A 
ATOM     20  C   UNL A   1      31.139  29.617  24.103  1.00  0.00    -0.017 A 
ATOM     21  S   UNL A   1      32.736  28.333  22.627  1.00  0.00    -0.122 S 
ATOM     22  C   UNL A   1      31.231  29.010  22.880  1.00  0.00     0.011 A 
ATOM     23  C   UNL A   1      29.884  30.405  24.182  1.00  0.00     0.038 C 
ATOM     24  C   UNL A   1      30.046  29.150  22.013  1.00  0.00     0.047 C 
ATOM     25  C   UNL A   1      29.041  29.807  23.005  1.00  0.00     0.010 C 
BRANCH  19  26
ATOM     26  C   UNL A   1      32.722  29.939  26.153  1.00  0.00     0.341 C 
ATOM     27  O   UNL A   1      31.954  30.604  26.846  1.00  0.00    -0.246 OA
BRANCH  26  28
ATOM     28  O   UNL A   1      34.004  29.642  26.499  1.00  0.00    -0.462 OA
BRANCH  28  29
ATOM     29  C   UNL A   1      34.506  30.324  27.663  1.00  0.00     0.230 C 
ATOM     30  C   UNL A   1      36.001  30.603  27.629  1.00  0.00     0.049 C 
ENDBRANCH  28  29
ENDBRANCH  26  28
ENDBRANCH  19  26
ENDBRANCH  15  18
ENDBRANCH   7  14
ENDBRANCH   3   6
ENDBRANCH   1   2
BRANCH   1  31
ATOM     31  C   UNL A   1      35.463  21.334  24.665  1.00  0.00     0.023 C 
BRANCH  31  32
ATOM     32  C   UNL A   1      36.607  22.282  24.322  1.00  0.00     0.023 C 
BRANCH  32  33
ATOM     33  C   UNL A   1      37.239  22.932  25.538  1.00  0.00     0.116 C 
BRANCH  33  34
ATOM     34  N   UNL A   1      38.378  22.171  26.047  1.00  0.00    -0.352 N 
ATOM     35  C   UNL A   1      39.558  22.670  26.567  1.00  0.00     0.251 C 
ATOM     36  H   UNL A   1      38.295  21.191  26.016  1.00  0.00     0.163 HD
ATOM     37  O   UNL A   1      40.544  21.977  26.688  1.00  0.00    -0.269 OA
BRANCH  35  38
ATOM     38  C   UNL A   1      39.561  24.091  26.956  1.00  0.00     0.039 A 
ATOM     39  C   UNL A   1      38.967  24.493  28.151  1.00  0.00     0.014 A 
ATOM     40  C   UNL A   1      40.308  24.974  26.178  1.00  0.00     0.014 A 
ATOM     41  C   UNL A   1      39.218  25.780  28.613  1.00  0.00     0.010 A 
ATOM     42  C   UNL A   1      40.647  26.205  26.694  1.00  0.00     0.010 A 
ATOM     43  C   UNL A   1      40.092  26.623  27.904  1.00  0.00    -0.014 A 
BRANCH  43  44
ATOM     44  C   UNL A   1      40.508  27.894  28.491  1.00  0.00     0.031 A 
ATOM     45  C   UNL A   1      41.696  28.543  27.864  1.00  0.00     0.074 A 
ATOM     46  C   UNL A   1      39.802  28.563  29.424  1.00  0.00     0.049 A 
ATOM     47  N   UNL A   1      42.890  28.633  28.349  1.00  0.00    -0.248 NA
ATOM     48  C   UNL A   1      41.575  29.053  26.491  1.00  0.00     0.031 C 
ATOM     49  C   UNL A   1      38.466  28.269  29.952  1.00  0.00     0.029 A 
ATOM     50  N   UNL A   1      40.116  29.737  30.035  1.00  0.00    -0.354 N 
ATOM     51  C   UNL A   1      43.627  29.394  27.445  1.00  0.00     0.074 A 
ATOM     52  C   UNL A   1      42.817  29.483  26.254  1.00  0.00     0.031 C 
ATOM     53  C   UNL A   1      37.995  29.347  30.617  1.00  0.00     0.029 A 
ATOM     54  C   UNL A   1      39.065  30.321  30.726  1.00  0.00     0.049 A 
ATOM     55  H   UNL A   1      41.014  30.139  29.989  1.00  0.00     0.167 HD
ATOM     56  C   UNL A   1      44.754  30.066  27.822  1.00  0.00     0.031 A 
ATOM     57  C   UNL A   1      39.071  31.524  31.347  1.00  0.00     0.031 A 
ATOM     58  C   UNL A   1      45.198  29.660  29.131  1.00  0.00     0.049 A 
ATOM     59  C   UNL A   1      40.485  31.857  31.633  1.00  0.00     0.074 A 
ATOM     60  C   UNL A   1      45.612  28.473  29.700  1.00  0.00     0.029 A 
ATOM     61  N   UNL A   1      44.876  30.492  30.180  1.00  0.00    -0.354 N 
ATOM     62  N   UNL A   1      41.226  31.179  32.465  1.00  0.00    -0.248 NA
ATOM     63  C   UNL A   1      41.215  32.681  30.684  1.00  0.00     0.031 C 
ATOM     64  C   UNL A   1      45.057  28.486  31.016  1.00  0.00     0.029 A 
ATOM     65  C   UNL A   1      44.398  29.705  31.195  1.00  0.00     0.049 A 
ATOM     66  H   UNL A   1      44.971  31.471  30.197  1.00  0.00     0.167 HD
ATOM     67  C   UNL A   1      42.482  31.143  31.879  1.00  0.00     0.074 A 
ATOM     68  C   UNL A   1      42.443  32.179  30.850  1.00  0.00     0.031 C 
ATOM     69  C   UNL A   1      43.338  30.102  32.102  1.00  0.00     0.031 A 
BRANCH  56  70
ATOM     70  C   UNL A   1      45.239  31.356  27.196  1.00  0.00    -0.014 A 
ATOM     71  C   UNL A   1      46.609  31.477  26.873  1.00  0.00     0.010 A 
ATOM     72  C   UNL A   1      44.473  32.537  27.174  1.00  0.00     0.010 A 
ATOM     73  C   UNL A   1      47.197  32.728  26.636  1.00  0.00     0.020 A 
ATOM     74  C   UNL A   1      45.040  33.784  26.893  1.00  0.00     0.020 A 
ATOM     75  C   UNL A   1      46.408  33.876  26.667  1.00  0.00     0.054 A 
BRANCH  75  76
ATOM     76  S   UNL A   1      47.194  35.497  26.487  1.00  0.00     0.124 S 
ATOM     77  O   UNL A   1      46.039  36.372  26.315  1.00  0.00    -0.237 OA
ATOM     78  O   UNL A   1      47.913  35.635  27.751  1.00  0.00    -0.237 OA
ATOM     79  O   UNL A   1      48.042  35.335  25.308  1.00  0.00    -0.744 OA
ENDBRANCH  75  76
ENDBRANCH  56  70
BRANCH  57  80
ATOM     80  C   UNL A   1      37.966  32.504  31.453  1.00  0.00    -0.014 A 
ATOM     81  C   UNL A   1      36.839  32.414  30.616  1.00  0.00     0.010 A 
ATOM     82  C   UNL A   1      37.888  33.355  32.576  1.00  0.00     0.010 A 
ATOM     83  C   UNL A   1      35.651  33.092  30.933  1.00  0.00     0.020 A 
ATOM     84  C   UNL A   1      36.708  34.038  32.894  1.00  0.00     0.020 A 
ATOM     85  C   UNL A   1      35.586  33.881  32.085  1.00  0.00     0.054 A 
BRANCH  85  86
ATOM     86  S   UNL A   1      33.988  34.585  32.592  1.00  0.00     0.124 S 
ATOM     87  O   UNL A   1      34.395  35.664  33.487  1.00  0.00    -0.237 OA
ATOM     88  O   UNL A   1      33.409  35.005  31.318  1.00  0.00    -0.237 OA
ATOM     89  O   UNL A   1      33.307  33.465  33.238  1.00  0.00    -0.744 OA
ENDBRANCH  85  86
ENDBRANCH  57  80
BRANCH  69  90
ATOM     90  C   UNL A   1      43.034  29.144  33.233  1.00  0.00    -0.014 A 
ATOM     91  C   UNL A   1      43.523  29.297  34.545  1.00  0.00     0.010 A 
ATOM     92  C   UNL A   1      42.091  28.131  32.986  1.00  0.00     0.010 A 
ATOM     93  C   UNL A   1      43.096  28.442  35.575  1.00  0.00     0.020 A 
ATOM     94  C   UNL A   1      41.647  27.290  34.010  1.00  0.00     0.020 A 
ATOM     95  C   UNL A   1      42.159  27.443  35.299  1.00  0.00     0.054 A 
BRANCH  95  96
ATOM     96  S   UNL A   1      41.570  26.371  36.639  1.00  0.00     0.124 S 
ATOM     97  O   UNL A   1      40.893  25.298  35.915  1.00  0.00    -0.237 OA
ATOM     98  O   UNL A   1      42.805  25.990  37.319  1.00  0.00    -0.237 OA
ATOM     99  O   UNL A   1      40.688  27.239  37.419  1.00  0.00    -0.744 OA
ENDBRANCH  95  96
ENDBRANCH  69  90
ENDBRANCH  43  44
ENDBRANCH  35  38
ENDBRANCH  33  34
ENDBRANCH  32  33
ENDBRANCH  31  32
ENDBRANCH   1  31
TORSDOF 19
ENDMDL
