MODEL 1
REMARK VINA RESULT:     -10.7      0.000      0.000
REMARK SMILES C[C@H]1[C@H](C(=O)NCCCCNC(=O)c2ccc(-c3c4nc(c(-c5ccc(S(=O)(=O)[O-])cc5)c5ccc([nH]5)c(-c5ccc(S(=O)(=O)[O-])cc5)c5nc(c(-c6ccc(S(=O)(=O)[O-])cc6)c6ccc3[nH]6)C=C5)C=C4)cc2)CC[N@@H+]1Cc1ccc(C(F)(F)F)cc1
REMARK SMILES IDX 8 1 7 2 6 3 4 4 5 5 3 7 1 8 2 9 76 10 74 11 75 12 77 14
REMARK SMILES IDX 78 15 79 16 87 17 80 18 86 19 81 20 82 21 83 22 84 23 85 24
REMARK SMILES IDX 9 25 10 26 11 27 12 28 13 30 14 31 15 32 73 33 16 34 72 35
REMARK SMILES IDX 17 36 18 37 19 38 66 39 20 40 71 41 65 42 67 43 21 44 70 45
REMARK SMILES IDX 64 46 63 47 22 49 52 50 33 51 51 52 34 53 37 54 50 55 68 56
REMARK SMILES IDX 35 57 36 58 49 60 69 61 38 62 23 63 24 64 32 65 25 66 31 67
REMARK SMILES IDX 26 68 27 69 28 70 29 71 30 72 53 73 54 74 62 75 55 76 61 77
REMARK SMILES IDX 56 78 57 79 58 80 59 81 60 82 39 83 40 84 48 85 41 86 47 87
REMARK SMILES IDX 42 88 43 89 44 90 45 91 46 92
REMARK H PARENT 6 6 76 13 11 29 67 48 37 59
REMARK Flexibility Score: inf
ROOT
ATOM      1  C   UNL A   1      35.977  20.854  25.341  1.00  0.00     0.023 C 
ENDROOT
BRANCH   1   2
ATOM      2  C   UNL A   1      34.654  20.161  24.998  1.00  0.00     0.116 C 
BRANCH   2   3
ATOM      3  N   UNL A   1      33.962  20.821  23.913  1.00  0.00    -0.356 N 
ATOM      4  C   UNL A   1      32.988  21.763  23.918  1.00  0.00     0.229 C 
ATOM      5  O   UNL A   1      32.624  22.178  22.810  1.00  0.00    -0.275 OA
ATOM      6  H   UNL A   1      34.248  20.535  23.016  1.00  0.00     0.163 HD
BRANCH   4   7
ATOM      7  C   UNL A   1      32.377  22.384  25.171  1.00  0.00     0.142 C 
ATOM      8  C   UNL A   1      33.936  23.546  26.761  1.00  0.00     0.076 C 
ATOM      9  C   UNL A   1      32.868  23.753  25.679  1.00  0.00     0.193 C 
ATOM     10  N   UNL A   1      31.693  24.403  26.303  1.00  0.00    -0.328 N 
ATOM     11  C   UNL A   1      30.864  22.514  25.142  1.00  0.00     0.081 C 
ATOM     12  C   UNL A   1      30.617  23.417  26.341  1.00  0.00     0.263 C 
ATOM     13  H   UNL A   1      31.945  24.664  27.257  1.00  0.00     0.348 HD
BRANCH  10  14
ATOM     14  C   UNL A   1      31.337  25.762  25.853  1.00  0.00     0.299 C 
BRANCH  14  15
ATOM     15  C   UNL A   1      32.061  26.956  26.454  1.00  0.00     0.006 A 
ATOM     16  C   UNL A   1      33.438  27.131  26.256  1.00  0.00     0.010 A 
ATOM     17  C   UNL A   1      31.400  27.910  27.240  1.00  0.00     0.010 A 
ATOM     18  C   UNL A   1      34.075  28.306  26.672  1.00  0.00     0.013 A 
ATOM     19  C   UNL A   1      32.017  29.109  27.605  1.00  0.00     0.013 A 
ATOM     20  C   UNL A   1      33.353  29.344  27.273  1.00  0.00     0.056 A 
BRANCH  20  21
ATOM     21  C   UNL A   1      33.972  30.705  27.464  1.00  0.00     0.416 C 
ATOM     22  F   UNL A   1      35.210  30.822  26.917  1.00  0.00    -0.166 F 
ATOM     23  F   UNL A   1      33.215  31.680  26.880  1.00  0.00    -0.166 F 
ATOM     24  F   UNL A   1      34.096  31.067  28.770  1.00  0.00    -0.166 F 
ENDBRANCH  20  21
ENDBRANCH  14  15
ENDBRANCH  10  14
ENDBRANCH   4   7
ENDBRANCH   2   3
ENDBRANCH   1   2
BRANCH   1  25
ATOM     25  C   UNL A   1      36.287  22.107  24.512  1.00  0.00     0.023 C 
BRANCH  25  26
ATOM     26  C   UNL A   1      37.371  23.023  25.082  1.00  0.00     0.116 C 
BRANCH  26  27
ATOM     27  N   UNL A   1      38.539  22.315  25.581  1.00  0.00    -0.352 N 
ATOM     28  C   UNL A   1      39.537  22.759  26.430  1.00  0.00     0.251 C 
ATOM     29  H   UNL A   1      38.633  21.386  25.271  1.00  0.00     0.163 HD
ATOM     30  O   UNL A   1      40.435  22.003  26.750  1.00  0.00    -0.269 OA
BRANCH  28  31
ATOM     31  C   UNL A   1      39.552  24.175  26.870  1.00  0.00     0.039 A 
ATOM     32  C   UNL A   1      39.032  24.464  28.135  1.00  0.00     0.014 A 
ATOM     33  C   UNL A   1      40.145  25.184  26.110  1.00  0.00     0.014 A 
ATOM     34  C   UNL A   1      39.239  25.725  28.696  1.00  0.00     0.010 A 
ATOM     35  C   UNL A   1      40.408  26.421  26.692  1.00  0.00     0.010 A 
ATOM     36  C   UNL A   1      40.000  26.682  28.008  1.00  0.00    -0.014 A 
BRANCH  36  37
ATOM     37  C   UNL A   1      40.495  27.895  28.704  1.00  0.00     0.031 A 
ATOM     38  C   UNL A   1      41.866  27.939  29.306  1.00  0.00     0.074 A 
ATOM     39  C   UNL A   1      39.646  28.932  28.863  1.00  0.00     0.049 A 
ATOM     40  N   UNL A   1      42.440  28.912  29.964  1.00  0.00    -0.248 NA
ATOM     41  C   UNL A   1      42.693  26.730  29.169  1.00  0.00     0.031 C 
ATOM     42  C   UNL A   1      38.260  28.972  28.381  1.00  0.00     0.029 A 
ATOM     43  N   UNL A   1      39.814  30.145  29.478  1.00  0.00    -0.354 N 
ATOM     44  C   UNL A   1      43.693  28.436  30.328  1.00  0.00     0.074 A 
ATOM     45  C   UNL A   1      43.778  27.071  29.850  1.00  0.00     0.031 C 
ATOM     46  C   UNL A   1      37.717  30.159  28.696  1.00  0.00     0.029 A 
ATOM     47  C   UNL A   1      38.700  30.951  29.425  1.00  0.00     0.049 A 
ATOM     48  H   UNL A   1      40.653  30.416  29.916  1.00  0.00     0.167 HD
ATOM     49  C   UNL A   1      44.686  29.082  30.986  1.00  0.00     0.031 A 
ATOM     50  C   UNL A   1      38.490  32.190  29.907  1.00  0.00     0.031 A 
ATOM     51  C   UNL A   1      44.588  30.436  31.463  1.00  0.00     0.049 A 
ATOM     52  C   UNL A   1      39.612  32.893  30.617  1.00  0.00     0.074 A 
ATOM     53  C   UNL A   1      45.553  31.199  32.099  1.00  0.00     0.029 A 
ATOM     54  N   UNL A   1      43.454  31.230  31.364  1.00  0.00    -0.354 N 
ATOM     55  N   UNL A   1      40.820  32.453  30.878  1.00  0.00    -0.248 NA
ATOM     56  C   UNL A   1      39.350  34.260  31.082  1.00  0.00     0.031 C 
ATOM     57  C   UNL A   1      44.991  32.441  32.415  1.00  0.00     0.029 A 
ATOM     58  C   UNL A   1      43.690  32.467  31.939  1.00  0.00     0.049 A 
ATOM     59  H   UNL A   1      42.608  30.954  30.945  1.00  0.00     0.167 HD
ATOM     60  C   UNL A   1      41.470  33.498  31.521  1.00  0.00     0.074 A 
ATOM     61  C   UNL A   1      40.526  34.596  31.596  1.00  0.00     0.031 C 
ATOM     62  C   UNL A   1      42.736  33.546  32.006  1.00  0.00     0.031 A 
BRANCH  49  63
ATOM     63  C   UNL A   1      45.961  28.321  31.228  1.00  0.00    -0.014 A 
ATOM     64  C   UNL A   1      46.144  27.578  32.409  1.00  0.00     0.010 A 
ATOM     65  C   UNL A   1      46.980  28.327  30.259  1.00  0.00     0.010 A 
ATOM     66  C   UNL A   1      47.342  26.896  32.637  1.00  0.00     0.020 A 
ATOM     67  C   UNL A   1      48.171  27.625  30.473  1.00  0.00     0.020 A 
ATOM     68  C   UNL A   1      48.351  26.932  31.671  1.00  0.00     0.054 A 
BRANCH  68  69
ATOM     69  S   UNL A   1      49.896  26.037  31.991  1.00  0.00     0.124 S 
ATOM     70  O   UNL A   1      50.381  25.782  30.636  1.00  0.00    -0.237 OA
ATOM     71  O   UNL A   1      50.676  27.002  32.764  1.00  0.00    -0.237 OA
ATOM     72  O   UNL A   1      49.466  24.854  32.732  1.00  0.00    -0.744 OA
ENDBRANCH  68  69
ENDBRANCH  49  63
BRANCH  50  73
ATOM     73  C   UNL A   1      37.174  32.852  29.702  1.00  0.00    -0.014 A 
ATOM     74  C   UNL A   1      36.307  33.060  30.788  1.00  0.00     0.010 A 
ATOM     75  C   UNL A   1      36.798  33.308  28.427  1.00  0.00     0.010 A 
ATOM     76  C   UNL A   1      35.078  33.701  30.601  1.00  0.00     0.020 A 
ATOM     77  C   UNL A   1      35.580  33.970  28.240  1.00  0.00     0.020 A 
ATOM     78  C   UNL A   1      34.723  34.153  29.327  1.00  0.00     0.054 A 
BRANCH  78  79
ATOM     79  S   UNL A   1      33.154  35.040  29.117  1.00  0.00     0.124 S 
ATOM     80  O   UNL A   1      32.508  34.266  28.061  1.00  0.00    -0.237 OA
ATOM     81  O   UNL A   1      32.547  34.932  30.441  1.00  0.00    -0.237 OA
ATOM     82  O   UNL A   1      33.573  36.388  28.741  1.00  0.00    -0.744 OA
ENDBRANCH  78  79
ENDBRANCH  50  73
BRANCH  62  83
ATOM     83  C   UNL A   1      43.178  34.835  32.638  1.00  0.00    -0.014 A 
ATOM     84  C   UNL A   1      43.805  35.837  31.878  1.00  0.00     0.010 A 
ATOM     85  C   UNL A   1      42.922  35.063  34.002  1.00  0.00     0.010 A 
ATOM     86  C   UNL A   1      44.190  37.039  32.477  1.00  0.00     0.020 A 
ATOM     87  C   UNL A   1      43.287  36.271  34.600  1.00  0.00     0.020 A 
ATOM     88  C   UNL A   1      43.931  37.247  33.835  1.00  0.00     0.054 A 
BRANCH  88  89
ATOM     89  S   UNL A   1      44.397  38.833  34.582  1.00  0.00     0.124 S 
ATOM     90  O   UNL A   1      45.716  39.065  34.002  1.00  0.00    -0.237 OA
ATOM     91  O   UNL A   1      43.341  39.731  34.123  1.00  0.00    -0.237 OA
ATOM     92  O   UNL A   1      44.388  38.553  36.018  1.00  0.00    -0.744 OA
ENDBRANCH  88  89
ENDBRANCH  62  83
ENDBRANCH  36  37
ENDBRANCH  28  31
ENDBRANCH  26  27
ENDBRANCH  25  26
ENDBRANCH   1  25
TORSDOF 17
ENDMDL
MODEL 2
REMARK VINA RESULT:     -10.7      3.750      4.864
REMARK SMILES C[C@H]1[C@H](C(=O)NCCCCNC(=O)c2ccc(-c3c4nc(c(-c5ccc(S(=O)(=O)[O-])cc5)c5ccc([nH]5)c(-c5ccc(S(=O)(=O)[O-])cc5)c5nc(c(-c6ccc(S(=O)(=O)[O-])cc6)c6ccc3[nH]6)C=C5)C=C4)cc2)CC[N@@H+]1Cc1ccc(C(F)(F)F)cc1
REMARK SMILES IDX 8 1 7 2 6 3 4 4 5 5 3 7 1 8 2 9 76 10 74 11 75 12 77 14
REMARK SMILES IDX 78 15 79 16 87 17 80 18 86 19 81 20 82 21 83 22 84 23 85 24
REMARK SMILES IDX 9 25 10 26 11 27 12 28 13 30 14 31 15 32 73 33 16 34 72 35
REMARK SMILES IDX 17 36 18 37 19 38 66 39 20 40 71 41 65 42 67 43 21 44 70 45
REMARK SMILES IDX 64 46 63 47 22 49 52 50 33 51 51 52 34 53 37 54 50 55 68 56
REMARK SMILES IDX 35 57 36 58 49 60 69 61 38 62 23 63 24 64 32 65 25 66 31 67
REMARK SMILES IDX 26 68 27 69 28 70 29 71 30 72 53 73 54 74 62 75 55 76 61 77
REMARK SMILES IDX 56 78 57 79 58 80 59 81 60 82 39 83 40 84 48 85 41 86 47 87
REMARK SMILES IDX 42 88 43 89 44 90 45 91 46 92
REMARK H PARENT 6 6 76 13 11 29 67 48 37 59
REMARK Flexibility Score: inf
ROOT
ATOM      1  C   UNL A   1      39.736  21.951  26.732  1.00  0.00     0.023 C 
ENDROOT
BRANCH   1   2
ATOM      2  C   UNL A   1      38.720  21.527  25.665  1.00  0.00     0.116 C 
BRANCH   2   3
ATOM      3  N   UNL A   1      37.894  22.632  25.234  1.00  0.00    -0.356 N 
ATOM      4  C   UNL A   1      36.549  22.799  25.248  1.00  0.00     0.229 C 
ATOM      5  O   UNL A   1      36.131  23.895  24.851  1.00  0.00    -0.275 OA
ATOM      6  H   UNL A   1      38.396  23.395  24.865  1.00  0.00     0.163 HD
BRANCH   4   7
ATOM      7  C   UNL A   1      35.545  21.778  25.776  1.00  0.00     0.142 C 
ATOM      8  C   UNL A   1      34.053  22.497  27.664  1.00  0.00     0.076 C 
ATOM      9  C   UNL A   1      34.119  22.216  26.157  1.00  0.00     0.193 C 
ATOM     10  N   UNL A   1      33.243  21.061  25.862  1.00  0.00    -0.328 N 
ATOM     11  C   UNL A   1      35.340  20.569  24.881  1.00  0.00     0.081 C 
ATOM     12  C   UNL A   1      34.106  19.937  25.507  1.00  0.00     0.263 C 
ATOM     13  H   UNL A   1      32.722  20.832  26.708  1.00  0.00     0.348 HD
BRANCH  10  14
ATOM     14  C   UNL A   1      32.063  21.290  25.006  1.00  0.00     0.299 C 
BRANCH  14  15
ATOM     15  C   UNL A   1      32.082  22.438  24.009  1.00  0.00     0.006 A 
ATOM     16  C   UNL A   1      31.286  23.574  24.211  1.00  0.00     0.010 A 
ATOM     17  C   UNL A   1      32.866  22.403  22.847  1.00  0.00     0.010 A 
ATOM     18  C   UNL A   1      31.417  24.694  23.383  1.00  0.00     0.013 A 
ATOM     19  C   UNL A   1      33.045  23.539  22.054  1.00  0.00     0.013 A 
ATOM     20  C   UNL A   1      32.360  24.719  22.348  1.00  0.00     0.056 A 
BRANCH  20  21
ATOM     21  C   UNL A   1      32.697  26.009  21.643  1.00  0.00     0.416 C 
ATOM     22  F   UNL A   1      33.839  26.593  22.091  1.00  0.00    -0.166 F 
ATOM     23  F   UNL A   1      32.884  25.807  20.305  1.00  0.00    -0.166 F 
ATOM     24  F   UNL A   1      31.721  26.952  21.741  1.00  0.00    -0.166 F 
ENDBRANCH  20  21
ENDBRANCH  14  15
ENDBRANCH  10  14
ENDBRANCH   4   7
ENDBRANCH   2   3
ENDBRANCH   1   2
BRANCH   1  25
ATOM     25  C   UNL A   1      41.203  21.897  26.288  1.00  0.00     0.023 C 
BRANCH  25  26
ATOM     26  C   UNL A   1      42.033  23.144  26.600  1.00  0.00     0.116 C 
BRANCH  26  27
ATOM     27  N   UNL A   1      41.839  24.232  25.655  1.00  0.00    -0.352 N 
ATOM     28  C   UNL A   1      41.741  25.592  25.891  1.00  0.00     0.251 C 
ATOM     29  H   UNL A   1      41.769  23.963  24.710  1.00  0.00     0.163 HD
ATOM     30  O   UNL A   1      41.595  26.356  24.955  1.00  0.00    -0.269 OA
BRANCH  28  31
ATOM     31  C   UNL A   1      41.725  26.096  27.286  1.00  0.00     0.039 A 
ATOM     32  C   UNL A   1      42.797  26.893  27.698  1.00  0.00     0.014 A 
ATOM     33  C   UNL A   1      40.645  25.878  28.142  1.00  0.00     0.014 A 
ATOM     34  C   UNL A   1      42.718  27.588  28.904  1.00  0.00     0.010 A 
ATOM     35  C   UNL A   1      40.537  26.620  29.316  1.00  0.00     0.010 A 
ATOM     36  C   UNL A   1      41.550  27.518  29.679  1.00  0.00    -0.014 A 
BRANCH  36  37
ATOM     37  C   UNL A   1      41.320  28.478  30.786  1.00  0.00     0.031 A 
ATOM     38  C   UNL A   1      42.124  28.415  32.048  1.00  0.00     0.074 A 
ATOM     39  C   UNL A   1      40.305  29.359  30.666  1.00  0.00     0.049 A 
ATOM     40  N   UNL A   1      42.034  29.165  33.115  1.00  0.00    -0.248 NA
ATOM     41  C   UNL A   1      43.148  27.362  32.134  1.00  0.00     0.031 C 
ATOM     42  C   UNL A   1      39.408  29.465  29.510  1.00  0.00     0.029 A 
ATOM     43  N   UNL A   1      39.849  30.327  31.524  1.00  0.00    -0.354 N 
ATOM     44  C   UNL A   1      42.982  28.676  34.004  1.00  0.00     0.074 A 
ATOM     45  C   UNL A   1      43.609  27.537  33.365  1.00  0.00     0.031 C 
ATOM     46  C   UNL A   1      38.530  30.458  29.722  1.00  0.00     0.029 A 
ATOM     47  C   UNL A   1      38.778  31.039  31.035  1.00  0.00     0.049 A 
ATOM     48  H   UNL A   1      40.250  30.496  32.408  1.00  0.00     0.167 HD
ATOM     49  C   UNL A   1      43.309  29.142  35.234  1.00  0.00     0.031 A 
ATOM     50  C   UNL A   1      38.075  32.049  31.579  1.00  0.00     0.031 A 
ATOM     51  C   UNL A   1      42.675  30.269  35.864  1.00  0.00     0.049 A 
ATOM     52  C   UNL A   1      38.469  32.561  32.935  1.00  0.00     0.074 A 
ATOM     53  C   UNL A   1      42.965  30.851  37.086  1.00  0.00     0.029 A 
ATOM     54  N   UNL A   1      41.615  30.984  35.323  1.00  0.00    -0.354 N 
ATOM     55  N   UNL A   1      39.425  32.135  33.726  1.00  0.00    -0.248 NA
ATOM     56  C   UNL A   1      37.703  33.695  33.465  1.00  0.00     0.031 C 
ATOM     57  C   UNL A   1      42.058  31.895  37.300  1.00  0.00     0.029 A 
ATOM     58  C   UNL A   1      41.230  31.990  36.193  1.00  0.00     0.049 A 
ATOM     59  H   UNL A   1      41.200  30.803  34.450  1.00  0.00     0.167 HD
ATOM     60  C   UNL A   1      39.389  32.964  34.840  1.00  0.00     0.074 A 
ATOM     61  C   UNL A   1      38.327  33.923  34.614  1.00  0.00     0.031 C 
ATOM     62  C   UNL A   1      40.167  32.933  35.951  1.00  0.00     0.031 A 
BRANCH  49  63
ATOM     63  C   UNL A   1      44.404  28.422  35.974  1.00  0.00    -0.014 A 
ATOM     64  C   UNL A   1      44.104  27.370  36.861  1.00  0.00     0.010 A 
ATOM     65  C   UNL A   1      45.748  28.780  35.768  1.00  0.00     0.010 A 
ATOM     66  C   UNL A   1      45.124  26.725  37.564  1.00  0.00     0.020 A 
ATOM     67  C   UNL A   1      46.774  28.121  36.452  1.00  0.00     0.020 A 
ATOM     68  C   UNL A   1      46.452  27.111  37.362  1.00  0.00     0.054 A 
BRANCH  68  69
ATOM     69  S   UNL A   1      47.759  26.257  38.286  1.00  0.00     0.124 S 
ATOM     70  O   UNL A   1      48.196  27.296  39.217  1.00  0.00    -0.237 OA
ATOM     71  O   UNL A   1      47.045  25.134  38.891  1.00  0.00    -0.237 OA
ATOM     72  O   UNL A   1      48.729  25.892  37.259  1.00  0.00    -0.744 OA
ENDBRANCH  68  69
ENDBRANCH  49  63
BRANCH  50  73
ATOM     73  C   UNL A   1      36.950  32.662  30.823  1.00  0.00    -0.014 A 
ATOM     74  C   UNL A   1      35.622  32.317  31.123  1.00  0.00     0.010 A 
ATOM     75  C   UNL A   1      37.202  33.617  29.822  1.00  0.00     0.010 A 
ATOM     76  C   UNL A   1      34.562  32.907  30.427  1.00  0.00     0.020 A 
ATOM     77  C   UNL A   1      36.144  34.226  29.139  1.00  0.00     0.020 A 
ATOM     78  C   UNL A   1      34.830  33.859  29.440  1.00  0.00     0.054 A 
BRANCH  78  79
ATOM     79  S   UNL A   1      33.440  34.660  28.592  1.00  0.00     0.124 S 
ATOM     80  O   UNL A   1      33.021  33.625  27.653  1.00  0.00    -0.237 OA
ATOM     81  O   UNL A   1      32.514  34.933  29.688  1.00  0.00    -0.237 OA
ATOM     82  O   UNL A   1      34.046  35.846  27.991  1.00  0.00    -0.744 OA
ENDBRANCH  78  79
ENDBRANCH  50  73
BRANCH  62  83
ATOM     83  C   UNL A   1      39.911  33.983  36.994  1.00  0.00    -0.014 A 
ATOM     84  C   UNL A   1      39.145  33.696  38.138  1.00  0.00     0.010 A 
ATOM     85  C   UNL A   1      40.482  35.260  36.851  1.00  0.00     0.010 A 
ATOM     86  C   UNL A   1      38.934  34.677  39.109  1.00  0.00     0.020 A 
ATOM     87  C   UNL A   1      40.291  36.237  37.830  1.00  0.00     0.020 A 
ATOM     88  C   UNL A   1      39.506  35.943  38.947  1.00  0.00     0.054 A 
BRANCH  88  89
ATOM     89  S   UNL A   1      39.259  37.188  40.243  1.00  0.00     0.124 S 
ATOM     90  O   UNL A   1      40.632  37.510  40.620  1.00  0.00    -0.237 OA
ATOM     91  O   UNL A   1      38.534  38.245  39.543  1.00  0.00    -0.237 OA
ATOM     92  O   UNL A   1      38.483  36.477  41.259  1.00  0.00    -0.744 OA
ENDBRANCH  88  89
ENDBRANCH  62  83
ENDBRANCH  36  37
ENDBRANCH  28  31
ENDBRANCH  26  27
ENDBRANCH  25  26
ENDBRANCH   1  25
TORSDOF 17
ENDMDL
MODEL 3
REMARK VINA RESULT:     -10.6      3.823      8.813
REMARK SMILES C[C@H]1[C@H](C(=O)NCCCCNC(=O)c2ccc(-c3c4nc(c(-c5ccc(S(=O)(=O)[O-])cc5)c5ccc([nH]5)c(-c5ccc(S(=O)(=O)[O-])cc5)c5nc(c(-c6ccc(S(=O)(=O)[O-])cc6)c6ccc3[nH]6)C=C5)C=C4)cc2)CC[N@@H+]1Cc1ccc(C(F)(F)F)cc1
REMARK SMILES IDX 8 1 7 2 6 3 4 4 5 5 3 7 1 8 2 9 76 10 74 11 75 12 77 14
REMARK SMILES IDX 78 15 79 16 87 17 80 18 86 19 81 20 82 21 83 22 84 23 85 24
REMARK SMILES IDX 9 25 10 26 11 27 12 28 13 30 14 31 15 32 73 33 16 34 72 35
REMARK SMILES IDX 17 36 18 37 19 38 66 39 20 40 71 41 65 42 67 43 21 44 70 45
REMARK SMILES IDX 64 46 63 47 22 49 52 50 33 51 51 52 34 53 37 54 50 55 68 56
REMARK SMILES IDX 35 57 36 58 49 60 69 61 38 62 23 63 24 64 32 65 25 66 31 67
REMARK SMILES IDX 26 68 27 69 28 70 29 71 30 72 53 73 54 74 62 75 55 76 61 77
REMARK SMILES IDX 56 78 57 79 58 80 59 81 60 82 39 83 40 84 48 85 41 86 47 87
REMARK SMILES IDX 42 88 43 89 44 90 45 91 46 92
REMARK H PARENT 6 6 76 13 11 29 67 48 37 59
REMARK Flexibility Score: inf
ROOT
ATOM      1  C   UNL A   1      32.109  29.348  25.047  1.00  0.00     0.023 C 
ENDROOT
BRANCH   1   2
ATOM      2  C   UNL A   1      31.471  28.146  24.342  1.00  0.00     0.116 C 
BRANCH   2   3
ATOM      3  N   UNL A   1      30.710  27.323  25.255  1.00  0.00    -0.356 N 
ATOM      4  C   UNL A   1      30.739  25.989  25.490  1.00  0.00     0.229 C 
ATOM      5  O   UNL A   1      29.990  25.576  26.384  1.00  0.00    -0.275 OA
ATOM      6  H   UNL A   1      30.056  27.819  25.799  1.00  0.00     0.163 HD
BRANCH   4   7
ATOM      7  C   UNL A   1      31.666  24.998  24.792  1.00  0.00     0.142 C 
ATOM      8  C   UNL A   1      34.137  25.419  24.953  1.00  0.00     0.076 C 
ATOM      9  C   UNL A   1      32.979  24.554  25.466  1.00  0.00     0.193 C 
ATOM     10  N   UNL A   1      33.212  23.159  25.030  1.00  0.00    -0.328 N 
ATOM     11  C   UNL A   1      31.004  23.699  24.369  1.00  0.00     0.081 C 
ATOM     12  C   UNL A   1      32.213  22.847  24.012  1.00  0.00     0.263 C 
ATOM     13  H   UNL A   1      34.143  23.107  24.616  1.00  0.00     0.348 HD
BRANCH  10  14
ATOM     14  C   UNL A   1      33.443  22.141  26.072  1.00  0.00     0.299 C 
BRANCH  14  15
ATOM     15  C   UNL A   1      33.701  20.701  25.658  1.00  0.00     0.006 A 
ATOM     16  C   UNL A   1      32.721  19.716  25.849  1.00  0.00     0.010 A 
ATOM     17  C   UNL A   1      34.919  20.293  25.097  1.00  0.00     0.010 A 
ATOM     18  C   UNL A   1      32.893  18.428  25.328  1.00  0.00     0.013 A 
ATOM     19  C   UNL A   1      35.071  19.028  24.524  1.00  0.00     0.013 A 
ATOM     20  C   UNL A   1      34.033  18.097  24.586  1.00  0.00     0.056 A 
BRANCH  20  21
ATOM     21  C   UNL A   1      34.092  16.814  23.795  1.00  0.00     0.416 C 
ATOM     22  F   UNL A   1      34.961  15.901  24.301  1.00  0.00    -0.166 F 
ATOM     23  F   UNL A   1      32.876  16.194  23.767  1.00  0.00    -0.166 F 
ATOM     24  F   UNL A   1      34.444  16.996  22.492  1.00  0.00    -0.166 F 
ENDBRANCH  20  21
ENDBRANCH  14  15
ENDBRANCH  10  14
ENDBRANCH   4   7
ENDBRANCH   2   3
ENDBRANCH   1   2
BRANCH   1  25
ATOM     25  C   UNL A   1      33.494  29.085  25.652  1.00  0.00     0.023 C 
BRANCH  25  26
ATOM     26  C   UNL A   1      33.542  29.002  27.179  1.00  0.00     0.116 C 
BRANCH  26  27
ATOM     27  N   UNL A   1      33.679  30.293  27.835  1.00  0.00    -0.352 N 
ATOM     28  C   UNL A   1      34.795  30.868  28.415  1.00  0.00     0.251 C 
ATOM     29  H   UNL A   1      32.858  30.836  27.872  1.00  0.00     0.163 HD
ATOM     30  O   UNL A   1      34.714  31.978  28.906  1.00  0.00    -0.269 OA
BRANCH  28  31
ATOM     31  C   UNL A   1      36.055  30.091  28.512  1.00  0.00     0.039 A 
ATOM     32  C   UNL A   1      36.922  30.126  27.415  1.00  0.00     0.014 A 
ATOM     33  C   UNL A   1      36.429  29.423  29.679  1.00  0.00     0.014 A 
ATOM     34  C   UNL A   1      38.216  29.621  27.542  1.00  0.00     0.010 A 
ATOM     35  C   UNL A   1      37.740  28.976  29.826  1.00  0.00     0.010 A 
ATOM     36  C   UNL A   1      38.656  29.118  28.775  1.00  0.00    -0.014 A 
BRANCH  36  37
ATOM     37  C   UNL A   1      40.098  28.872  29.019  1.00  0.00     0.031 A 
ATOM     38  C   UNL A   1      40.729  27.555  28.684  1.00  0.00     0.074 A 
ATOM     39  C   UNL A   1      40.815  29.836  29.635  1.00  0.00     0.049 A 
ATOM     40  N   UNL A   1      41.968  27.174  28.854  1.00  0.00    -0.248 NA
ATOM     41  C   UNL A   1      39.853  26.526  28.102  1.00  0.00     0.031 C 
ATOM     42  C   UNL A   1      40.288  31.133  30.073  1.00  0.00     0.029 A 
ATOM     43  N   UNL A   1      42.134  29.875  30.008  1.00  0.00    -0.354 N 
ATOM     44  C   UNL A   1      42.025  25.860  28.407  1.00  0.00     0.074 A 
ATOM     45  C   UNL A   1      40.684  25.498  27.997  1.00  0.00     0.031 C 
ATOM     46  C   UNL A   1      41.279  31.847  30.629  1.00  0.00     0.029 A 
ATOM     47  C   UNL A   1      42.501  31.053  30.616  1.00  0.00     0.049 A 
ATOM     48  H   UNL A   1      42.760  29.130  29.855  1.00  0.00     0.167 HD
ATOM     49  C   UNL A   1      43.099  25.037  28.334  1.00  0.00     0.031 A 
ATOM     50  C   UNL A   1      43.689  31.453  31.107  1.00  0.00     0.031 A 
ATOM     51  C   UNL A   1      44.426  25.404  28.752  1.00  0.00     0.049 A 
ATOM     52  C   UNL A   1      44.869  30.530  30.996  1.00  0.00     0.074 A 
ATOM     53  C   UNL A   1      45.591  24.661  28.674  1.00  0.00     0.029 A 
ATOM     54  N   UNL A   1      44.764  26.617  29.334  1.00  0.00    -0.354 N 
ATOM     55  N   UNL A   1      44.918  29.320  30.494  1.00  0.00    -0.248 NA
ATOM     56  C   UNL A   1      46.152  31.031  31.502  1.00  0.00     0.031 C 
ATOM     57  C   UNL A   1      46.627  25.412  29.241  1.00  0.00     0.029 A 
ATOM     58  C   UNL A   1      46.116  26.638  29.634  1.00  0.00     0.049 A 
ATOM     59  H   UNL A   1      44.136  27.355  29.507  1.00  0.00     0.167 HD
ATOM     60  C   UNL A   1      46.244  28.920  30.604  1.00  0.00     0.074 A 
ATOM     61  C   UNL A   1      46.965  30.024  31.208  1.00  0.00     0.031 C 
ATOM     62  C   UNL A   1      46.814  27.745  30.238  1.00  0.00     0.031 A 
BRANCH  49  63
ATOM     63  C   UNL A   1      42.871  23.656  27.781  1.00  0.00    -0.014 A 
ATOM     64  C   UNL A   1      43.076  23.383  26.415  1.00  0.00     0.010 A 
ATOM     65  C   UNL A   1      42.468  22.613  28.634  1.00  0.00     0.010 A 
ATOM     66  C   UNL A   1      42.837  22.104  25.906  1.00  0.00     0.020 A 
ATOM     67  C   UNL A   1      42.250  21.326  28.132  1.00  0.00     0.020 A 
ATOM     68  C   UNL A   1      42.416  21.086  26.766  1.00  0.00     0.054 A 
BRANCH  68  69
ATOM     69  S   UNL A   1      42.112  19.435  26.079  1.00  0.00     0.124 S 
ATOM     70  O   UNL A   1      42.585  18.570  27.159  1.00  0.00    -0.237 OA
ATOM     71  O   UNL A   1      40.667  19.435  25.864  1.00  0.00    -0.237 OA
ATOM     72  O   UNL A   1      42.919  19.411  24.863  1.00  0.00    -0.744 OA
ENDBRANCH  68  69
ENDBRANCH  49  63
BRANCH  50  73
ATOM     73  C   UNL A   1      43.823  32.804  31.715  1.00  0.00    -0.014 A 
ATOM     74  C   UNL A   1      44.095  33.922  30.909  1.00  0.00     0.010 A 
ATOM     75  C   UNL A   1      43.646  32.983  33.099  1.00  0.00     0.010 A 
ATOM     76  C   UNL A   1      44.200  35.196  31.476  1.00  0.00     0.020 A 
ATOM     77  C   UNL A   1      43.728  34.258  33.667  1.00  0.00     0.020 A 
ATOM     78  C   UNL A   1      44.015  35.356  32.852  1.00  0.00     0.054 A 
BRANCH  78  79
ATOM     79  S   UNL A   1      44.093  37.025  33.561  1.00  0.00     0.124 S 
ATOM     80  O   UNL A   1      42.729  37.211  34.046  1.00  0.00    -0.237 OA
ATOM     81  O   UNL A   1      45.118  36.885  34.592  1.00  0.00    -0.237 OA
ATOM     82  O   UNL A   1      44.474  37.859  32.423  1.00  0.00    -0.744 OA
ENDBRANCH  78  79
ENDBRANCH  50  73
BRANCH  62  83
ATOM     83  C   UNL A   1      48.293  27.604  30.461  1.00  0.00    -0.014 A 
ATOM     84  C   UNL A   1      49.213  27.953  29.457  1.00  0.00     0.010 A 
ATOM     85  C   UNL A   1      48.769  27.160  31.707  1.00  0.00     0.010 A 
ATOM     86  C   UNL A   1      50.585  27.836  29.687  1.00  0.00     0.020 A 
ATOM     87  C   UNL A   1      50.141  27.062  31.949  1.00  0.00     0.020 A 
ATOM     88  C   UNL A   1      51.040  27.388  30.932  1.00  0.00     0.054 A 
BRANCH  88  89
ATOM     89  S   UNL A   1      52.827  27.289  31.226  1.00  0.00     0.124 S 
ATOM     90  O   UNL A   1      53.305  28.524  30.612  1.00  0.00    -0.237 OA
ATOM     91  O   UNL A   1      52.914  27.237  32.683  1.00  0.00    -0.237 OA
ATOM     92  O   UNL A   1      53.221  26.058  30.541  1.00  0.00    -0.744 OA
ENDBRANCH  88  89
ENDBRANCH  62  83
ENDBRANCH  36  37
ENDBRANCH  28  31
ENDBRANCH  26  27
ENDBRANCH  25  26
ENDBRANCH   1  25
TORSDOF 17
ENDMDL
