MODEL 1
REMARK VINA RESULT:     -11.2      0.000      0.000
REMARK SMILES Cc1cc(C)n2ncc(C(=O)N(C)CCCC(=O)NCCCCNC(=O)c3ccc(-c4c5nc(c(-c6ccc(S(=O)(=O)[O-])cc6)c6ccc([nH]6)c(-c6ccc(S(=O)(=O)[O-])cc6)c6nc(c(-c7ccc(S(=O)(=O)[O-])cc7)c7ccc4[nH]7)C=C6)C=C5)cc3)c2n1
REMARK SMILES IDX 20 1 19 2 17 3 18 4 16 6 15 7 14 8 12 9 13 10 10 11 11 12
REMARK SMILES IDX 9 13 1 14 2 15 3 16 88 17 4 18 87 19 5 20 6 21 7 22 8 23
REMARK SMILES IDX 21 24 22 25 23 26 24 27 25 28 26 30 27 31 28 32 86 33 29 34
REMARK SMILES IDX 85 35 30 36 31 37 32 38 79 39 33 40 84 41 78 42 80 43 34 44
REMARK SMILES IDX 83 45 77 46 76 47 35 49 65 50 46 51 64 52 47 53 50 54 63 55
REMARK SMILES IDX 81 56 48 57 49 58 62 60 82 61 51 62 36 63 37 64 45 65 38 66
REMARK SMILES IDX 44 67 39 68 40 69 41 70 42 71 43 72 66 73 67 74 75 75 68 76
REMARK SMILES IDX 74 77 69 78 70 79 71 80 72 81 73 82 52 83 53 84 61 85 54 86
REMARK SMILES IDX 60 87 55 88 56 89 57 90 58 91 59 92
REMARK H PARENT 19 5 24 29 80 48 50 59
REMARK Flexibility Score: inf
ROOT
ATOM      1  C   UNL A   1      39.706  21.453  26.395  1.00  0.00     0.116 C 
ENDROOT
BRANCH   1   2
ATOM      2  N   UNL A   1      38.824  22.590  26.538  1.00  0.00    -0.356 N 
ATOM      3  C   UNL A   1      37.776  23.051  25.814  1.00  0.00     0.220 C 
ATOM      4  O   UNL A   1      37.238  24.076  26.256  1.00  0.00    -0.275 OA
ATOM      5  H   UNL A   1      39.027  23.144  27.326  1.00  0.00     0.163 HD
BRANCH   3   6
ATOM      6  C   UNL A   1      37.163  22.363  24.605  1.00  0.00     0.102 C 
BRANCH   6   7
ATOM      7  C   UNL A   1      35.694  21.931  24.498  1.00  0.00     0.031 C 
BRANCH   7   8
ATOM      8  C   UNL A   1      34.485  22.813  24.835  1.00  0.00     0.120 C 
BRANCH   8   9
ATOM      9  N   UNL A   1      33.464  23.305  23.881  1.00  0.00    -0.342 N 
ATOM     10  C   UNL A   1      33.834  23.046  22.496  1.00  0.00     0.147 C 
BRANCH   9  11
ATOM     11  C   UNL A   1      32.238  23.848  24.311  1.00  0.00     0.259 C 
ATOM     12  O   UNL A   1      31.198  23.356  23.895  1.00  0.00    -0.269 OA
BRANCH  11  13
ATOM     13  C   UNL A   1      32.124  24.972  25.247  1.00  0.00     0.104 A 
ATOM     14  C   UNL A   1      34.213  28.631  22.664  1.00  0.00     0.067 C 
ATOM     15  C   UNL A   1      33.482  28.044  23.848  1.00  0.00     0.042 A 
ATOM     16  C   UNL A   1      32.991  29.011  24.878  1.00  0.00     0.047 A 
ATOM     17  N   UNL A   1      33.333  26.752  23.915  1.00  0.00    -0.233 NA
ATOM     18  C   UNL A   1      32.350  28.482  25.934  1.00  0.00     0.043 A 
ATOM     19  C   UNL A   1      32.616  26.252  24.975  1.00  0.00     0.168 A 
ATOM     20  C   UNL A   1      31.788  29.324  27.037  1.00  0.00     0.067 C 
ATOM     21  N   UNL A   1      32.161  27.093  25.998  1.00  0.00    -0.219 N 
ATOM     22  N   UNL A   1      31.508  26.387  26.955  1.00  0.00    -0.174 NA
ATOM     23  C   UNL A   1      31.448  25.148  26.469  1.00  0.00     0.151 A 
ENDBRANCH  11  13
ENDBRANCH   9  11
ENDBRANCH   8   9
ENDBRANCH   7   8
ENDBRANCH   6   7
ENDBRANCH   3   6
ENDBRANCH   1   2
BRANCH   1  24
ATOM     24  C   UNL A   1      40.770  21.430  27.506  1.00  0.00     0.023 C 
BRANCH  24  25
ATOM     25  C   UNL A   1      41.964  20.495  27.278  1.00  0.00     0.023 C 
BRANCH  25  26
ATOM     26  C   UNL A   1      42.066  19.921  25.869  1.00  0.00     0.116 C 
BRANCH  26  27
ATOM     27  N   UNL A   1      43.405  19.433  25.532  1.00  0.00    -0.352 N 
ATOM     28  C   UNL A   1      44.455  20.181  25.031  1.00  0.00     0.251 C 
ATOM     29  H   UNL A   1      43.576  18.475  25.680  1.00  0.00     0.163 HD
ATOM     30  O   UNL A   1      45.363  19.650  24.395  1.00  0.00    -0.269 OA
BRANCH  28  31
ATOM     31  C   UNL A   1      44.457  21.630  25.288  1.00  0.00     0.039 A 
ATOM     32  C   UNL A   1      43.663  22.510  24.551  1.00  0.00     0.014 A 
ATOM     33  C   UNL A   1      45.205  22.077  26.375  1.00  0.00     0.014 A 
ATOM     34  C   UNL A   1      43.542  23.827  24.994  1.00  0.00     0.010 A 
ATOM     35  C   UNL A   1      44.977  23.334  26.886  1.00  0.00     0.010 A 
ATOM     36  C   UNL A   1      44.166  24.226  26.191  1.00  0.00    -0.014 A 
BRANCH  36  37
ATOM     37  C   UNL A   1      43.852  25.520  26.804  1.00  0.00     0.031 A 
ATOM     38  C   UNL A   1      44.842  26.592  26.511  1.00  0.00     0.074 A 
ATOM     39  C   UNL A   1      42.702  25.806  27.457  1.00  0.00     0.049 A 
ATOM     40  N   UNL A   1      45.781  27.001  27.297  1.00  0.00    -0.248 NA
ATOM     41  C   UNL A   1      44.917  27.161  25.156  1.00  0.00     0.031 C 
ATOM     42  C   UNL A   1      41.516  24.953  27.627  1.00  0.00     0.029 A 
ATOM     43  N   UNL A   1      42.314  26.969  28.057  1.00  0.00    -0.354 N 
ATOM     44  C   UNL A   1      46.396  28.061  26.640  1.00  0.00     0.074 A 
ATOM     45  C   UNL A   1      45.967  27.981  25.267  1.00  0.00     0.031 C 
ATOM     46  C   UNL A   1      40.478  25.691  28.086  1.00  0.00     0.029 A 
ATOM     47  C   UNL A   1      40.972  27.009  28.431  1.00  0.00     0.049 A 
ATOM     48  H   UNL A   1      42.933  27.719  28.212  1.00  0.00     0.167 HD
ATOM     49  C   UNL A   1      46.971  29.074  27.348  1.00  0.00     0.031 A 
ATOM     50  C   UNL A   1      40.330  28.027  29.052  1.00  0.00     0.031 A 
ATOM     51  C   UNL A   1      47.015  28.757  28.755  1.00  0.00     0.049 A 
ATOM     52  C   UNL A   1      41.359  28.764  29.813  1.00  0.00     0.074 A 
ATOM     53  C   UNL A   1      47.749  27.937  29.582  1.00  0.00     0.029 A 
ATOM     54  N   UNL A   1      45.866  29.095  29.424  1.00  0.00    -0.354 N 
ATOM     55  N   UNL A   1      42.005  28.242  30.816  1.00  0.00    -0.248 NA
ATOM     56  C   UNL A   1      41.924  29.990  29.266  1.00  0.00     0.031 C 
ATOM     57  C   UNL A   1      46.890  27.614  30.675  1.00  0.00     0.029 A 
ATOM     58  C   UNL A   1      45.679  28.287  30.512  1.00  0.00     0.049 A 
ATOM     59  H   UNL A   1      45.258  29.821  29.156  1.00  0.00     0.167 HD
ATOM     60  C   UNL A   1      43.262  28.804  30.735  1.00  0.00     0.074 A 
ATOM     61  C   UNL A   1      43.102  29.985  29.894  1.00  0.00     0.031 C 
ATOM     62  C   UNL A   1      44.368  28.095  31.096  1.00  0.00     0.031 A 
BRANCH  49  63
ATOM     63  C   UNL A   1      47.030  30.519  26.901  1.00  0.00    -0.014 A 
ATOM     64  C   UNL A   1      48.229  31.237  27.109  1.00  0.00     0.010 A 
ATOM     65  C   UNL A   1      45.888  31.272  26.565  1.00  0.00     0.010 A 
ATOM     66  C   UNL A   1      48.266  32.637  27.047  1.00  0.00     0.020 A 
ATOM     67  C   UNL A   1      45.922  32.666  26.466  1.00  0.00     0.020 A 
ATOM     68  C   UNL A   1      47.105  33.343  26.735  1.00  0.00     0.054 A 
BRANCH  68  69
ATOM     69  S   UNL A   1      47.140  35.153  26.748  1.00  0.00     0.124 S 
ATOM     70  O   UNL A   1      45.720  35.485  26.742  1.00  0.00    -0.237 OA
ATOM     71  O   UNL A   1      47.855  35.438  27.989  1.00  0.00    -0.237 OA
ATOM     72  O   UNL A   1      47.869  35.488  25.526  1.00  0.00    -0.744 OA
ENDBRANCH  68  69
ENDBRANCH  49  63
BRANCH  50  73
ATOM     73  C   UNL A   1      38.944  28.538  28.952  1.00  0.00    -0.014 A 
ATOM     74  C   UNL A   1      38.191  28.756  30.123  1.00  0.00     0.010 A 
ATOM     75  C   UNL A   1      38.518  29.166  27.765  1.00  0.00     0.010 A 
ATOM     76  C   UNL A   1      37.125  29.667  30.140  1.00  0.00     0.020 A 
ATOM     77  C   UNL A   1      37.448  30.074  27.774  1.00  0.00     0.020 A 
ATOM     78  C   UNL A   1      36.783  30.351  28.971  1.00  0.00     0.054 A 
BRANCH  78  79
ATOM     79  S   UNL A   1      35.573  31.705  29.068  1.00  0.00     0.124 S 
ATOM     80  O   UNL A   1      35.313  31.787  30.502  1.00  0.00    -0.237 OA
ATOM     81  O   UNL A   1      36.310  32.828  28.495  1.00  0.00    -0.237 OA
ATOM     82  O   UNL A   1      34.454  31.225  28.260  1.00  0.00    -0.744 OA
ENDBRANCH  78  79
ENDBRANCH  50  73
BRANCH  62  83
ATOM     83  C   UNL A   1      44.184  26.959  32.063  1.00  0.00    -0.014 A 
ATOM     84  C   UNL A   1      44.363  25.598  31.748  1.00  0.00     0.010 A 
ATOM     85  C   UNL A   1      43.871  27.310  33.387  1.00  0.00     0.010 A 
ATOM     86  C   UNL A   1      44.211  24.614  32.738  1.00  0.00     0.020 A 
ATOM     87  C   UNL A   1      43.735  26.338  34.377  1.00  0.00     0.020 A 
ATOM     88  C   UNL A   1      43.896  24.994  34.047  1.00  0.00     0.054 A 
BRANCH  88  89
ATOM     89  S   UNL A   1      43.721  23.726  35.333  1.00  0.00     0.124 S 
ATOM     90  O   UNL A   1      44.560  24.244  36.409  1.00  0.00    -0.237 OA
ATOM     91  O   UNL A   1      42.283  23.733  35.599  1.00  0.00    -0.237 OA
ATOM     92  O   UNL A   1      44.216  22.508  34.694  1.00  0.00    -0.744 OA
ENDBRANCH  88  89
ENDBRANCH  62  83
ENDBRANCH  36  37
ENDBRANCH  28  31
ENDBRANCH  26  27
ENDBRANCH  25  26
ENDBRANCH  24  25
ENDBRANCH   1  24
TORSDOF 19
ENDMDL
MODEL 2
REMARK VINA RESULT:     -11.0      2.739      3.927
REMARK SMILES Cc1cc(C)n2ncc(C(=O)N(C)CCCC(=O)NCCCCNC(=O)c3ccc(-c4c5nc(c(-c6ccc(S(=O)(=O)[O-])cc6)c6ccc([nH]6)c(-c6ccc(S(=O)(=O)[O-])cc6)c6nc(c(-c7ccc(S(=O)(=O)[O-])cc7)c7ccc4[nH]7)C=C6)C=C5)cc3)c2n1
REMARK SMILES IDX 20 1 19 2 17 3 18 4 16 6 15 7 14 8 12 9 13 10 10 11 11 12
REMARK SMILES IDX 9 13 1 14 2 15 3 16 88 17 4 18 87 19 5 20 6 21 7 22 8 23
REMARK SMILES IDX 21 24 22 25 23 26 24 27 25 28 26 30 27 31 28 32 86 33 29 34
REMARK SMILES IDX 85 35 30 36 31 37 32 38 79 39 33 40 84 41 78 42 80 43 34 44
REMARK SMILES IDX 83 45 77 46 76 47 35 49 65 50 46 51 64 52 47 53 50 54 63 55
REMARK SMILES IDX 81 56 48 57 49 58 62 60 82 61 51 62 36 63 37 64 45 65 38 66
REMARK SMILES IDX 44 67 39 68 40 69 41 70 42 71 43 72 66 73 67 74 75 75 68 76
REMARK SMILES IDX 74 77 69 78 70 79 71 80 72 81 73 82 52 83 53 84 61 85 54 86
REMARK SMILES IDX 60 87 55 88 56 89 57 90 58 91 59 92
REMARK H PARENT 19 5 24 29 80 48 50 59
REMARK Flexibility Score: inf
ROOT
ATOM      1  C   UNL A   1      35.353  20.691  25.088  1.00  0.00     0.116 C 
ENDROOT
BRANCH   1   2
ATOM      2  N   UNL A   1      35.167  19.262  24.967  1.00  0.00    -0.356 N 
ATOM      3  C   UNL A   1      34.123  18.489  24.585  1.00  0.00     0.220 C 
ATOM      4  O   UNL A   1      34.336  17.269  24.595  1.00  0.00    -0.275 OA
ATOM      5  H   UNL A   1      35.966  18.743  25.215  1.00  0.00     0.163 HD
BRANCH   3   6
ATOM      6  C   UNL A   1      32.792  18.997  24.054  1.00  0.00     0.102 C 
BRANCH   6   7
ATOM      7  C   UNL A   1      32.300  20.446  24.169  1.00  0.00     0.031 C 
BRANCH   7   8
ATOM      8  C   UNL A   1      32.303  21.475  23.031  1.00  0.00     0.120 C 
BRANCH   8   9
ATOM      9  N   UNL A   1      32.446  22.942  23.175  1.00  0.00    -0.342 N 
ATOM     10  C   UNL A   1      33.739  23.418  22.699  1.00  0.00     0.147 C 
BRANCH   9  11
ATOM     11  C   UNL A   1      31.388  23.759  23.616  1.00  0.00     0.259 C 
ATOM     12  O   UNL A   1      30.341  23.759  22.983  1.00  0.00    -0.269 OA
BRANCH  11  13
ATOM     13  C   UNL A   1      31.453  24.610  24.808  1.00  0.00     0.104 A 
ATOM     14  C   UNL A   1      33.632  28.667  23.013  1.00  0.00     0.067 C 
ATOM     15  C   UNL A   1      32.954  27.845  24.084  1.00  0.00     0.042 A 
ATOM     16  C   UNL A   1      32.640  28.545  25.367  1.00  0.00     0.047 A 
ATOM     17  N   UNL A   1      32.698  26.591  23.843  1.00  0.00    -0.233 NA
ATOM     18  C   UNL A   1      32.047  27.805  26.320  1.00  0.00     0.043 A 
ATOM     19  C   UNL A   1      32.032  25.883  24.814  1.00  0.00     0.168 A 
ATOM     20  C   UNL A   1      31.656  28.371  27.650  1.00  0.00     0.067 C 
ATOM     21  N   UNL A   1      31.741  26.461  26.056  1.00  0.00    -0.219 N 
ATOM     22  N   UNL A   1      31.112  25.577  26.870  1.00  0.00    -0.174 NA
ATOM     23  C   UNL A   1      30.902  24.510  26.100  1.00  0.00     0.151 A 
ENDBRANCH  11  13
ENDBRANCH   9  11
ENDBRANCH   8   9
ENDBRANCH   7   8
ENDBRANCH   6   7
ENDBRANCH   3   6
ENDBRANCH   1   2
BRANCH   1  24
ATOM     24  C   UNL A   1      36.824  21.082  24.865  1.00  0.00     0.023 C 
BRANCH  24  25
ATOM     25  C   UNL A   1      37.118  22.585  24.785  1.00  0.00     0.023 C 
BRANCH  25  26
ATOM     26  C   UNL A   1      37.841  23.160  25.998  1.00  0.00     0.116 C 
BRANCH  26  27
ATOM     27  N   UNL A   1      38.842  22.254  26.565  1.00  0.00    -0.352 N 
ATOM     28  C   UNL A   1      40.150  22.566  26.889  1.00  0.00     0.251 C 
ATOM     29  H   UNL A   1      38.555  21.328  26.734  1.00  0.00     0.163 HD
ATOM     30  O   UNL A   1      41.013  21.694  26.948  1.00  0.00    -0.269 OA
BRANCH  28  31
ATOM     31  C   UNL A   1      40.475  23.975  27.168  1.00  0.00     0.039 A 
ATOM     32  C   UNL A   1      39.871  25.022  26.471  1.00  0.00     0.014 A 
ATOM     33  C   UNL A   1      41.335  24.225  28.235  1.00  0.00     0.014 A 
ATOM     34  C   UNL A   1      40.053  26.324  26.937  1.00  0.00     0.010 A 
ATOM     35  C   UNL A   1      41.402  25.490  28.771  1.00  0.00     0.010 A 
ATOM     36  C   UNL A   1      40.785  26.552  28.118  1.00  0.00    -0.014 A 
BRANCH  36  37
ATOM     37  C   UNL A   1      40.779  27.869  28.761  1.00  0.00     0.031 A 
ATOM     38  C   UNL A   1      41.862  28.780  28.299  1.00  0.00     0.074 A 
ATOM     39  C   UNL A   1      39.808  28.319  29.589  1.00  0.00     0.049 A 
ATOM     40  N   UNL A   1      42.968  29.027  28.917  1.00  0.00    -0.248 NA
ATOM     41  C   UNL A   1      41.803  29.350  26.944  1.00  0.00     0.031 C 
ATOM     42  C   UNL A   1      38.548  27.658  29.959  1.00  0.00     0.029 A 
ATOM     43  N   UNL A   1      39.708  29.520  30.232  1.00  0.00    -0.354 N 
ATOM     44  C   UNL A   1      43.626  29.988  28.157  1.00  0.00     0.074 A 
ATOM     45  C   UNL A   1      42.972  29.996  26.874  1.00  0.00     0.031 C 
ATOM     46  C   UNL A   1      37.725  28.540  30.573  1.00  0.00     0.029 A 
ATOM     47  C   UNL A   1      38.468  29.761  30.818  1.00  0.00     0.049 A 
ATOM     48  H   UNL A   1      40.453  30.163  30.275  1.00  0.00     0.167 HD
ATOM     49  C   UNL A   1      44.458  30.889  28.752  1.00  0.00     0.031 A 
ATOM     50  C   UNL A   1      38.101  30.856  31.526  1.00  0.00     0.031 A 
ATOM     51  C   UNL A   1      44.680  30.549  30.136  1.00  0.00     0.049 A 
ATOM     52  C   UNL A   1      39.341  31.414  32.101  1.00  0.00     0.074 A 
ATOM     53  C   UNL A   1      45.402  29.613  30.841  1.00  0.00     0.029 A 
ATOM     54  N   UNL A   1      43.721  31.050  30.979  1.00  0.00    -0.354 N 
ATOM     55  N   UNL A   1      40.053  30.784  32.991  1.00  0.00    -0.248 NA
ATOM     56  C   UNL A   1      39.993  32.546  31.456  1.00  0.00     0.031 C 
ATOM     57  C   UNL A   1      44.693  29.411  32.063  1.00  0.00     0.029 A 
ATOM     58  C   UNL A   1      43.591  30.265  32.092  1.00  0.00     0.049 A 
ATOM     59  H   UNL A   1      43.197  31.866  30.807  1.00  0.00     0.167 HD
ATOM     60  C   UNL A   1      41.351  31.146  32.700  1.00  0.00     0.074 A 
ATOM     61  C   UNL A   1      41.242  32.350  31.884  1.00  0.00     0.031 C 
ATOM     62  C   UNL A   1      42.379  30.269  32.884  1.00  0.00     0.031 A 
BRANCH  49  63
ATOM     63  C   UNL A   1      44.667  32.315  28.285  1.00  0.00    -0.014 A 
ATOM     64  C   UNL A   1      45.969  32.713  27.910  1.00  0.00     0.010 A 
ATOM     65  C   UNL A   1      43.719  33.339  28.480  1.00  0.00     0.010 A 
ATOM     66  C   UNL A   1      46.318  34.067  27.799  1.00  0.00     0.020 A 
ATOM     67  C   UNL A   1      44.049  34.690  28.338  1.00  0.00     0.020 A 
ATOM     68  C   UNL A   1      45.355  35.047  28.025  1.00  0.00     0.054 A 
BRANCH  68  69
ATOM     69  S   UNL A   1      45.837  36.792  27.970  1.00  0.00     0.124 S 
ATOM     70  O   UNL A   1      47.115  36.776  28.674  1.00  0.00    -0.237 OA
ATOM     71  O   UNL A   1      45.906  37.045  26.533  1.00  0.00    -0.237 OA
ATOM     72  O   UNL A   1      44.745  37.470  28.665  1.00  0.00    -0.744 OA
ENDBRANCH  68  69
ENDBRANCH  49  63
BRANCH  50  73
ATOM     73  C   UNL A   1      36.813  31.577  31.646  1.00  0.00    -0.014 A 
ATOM     74  C   UNL A   1      36.395  32.058  32.904  1.00  0.00     0.010 A 
ATOM     75  C   UNL A   1      36.208  32.120  30.496  1.00  0.00     0.010 A 
ATOM     76  C   UNL A   1      35.497  33.131  33.007  1.00  0.00     0.020 A 
ATOM     77  C   UNL A   1      35.304  33.190  30.593  1.00  0.00     0.020 A 
ATOM     78  C   UNL A   1      34.985  33.716  31.847  1.00  0.00     0.054 A 
BRANCH  78  79
ATOM     79  S   UNL A   1      34.028  35.257  31.989  1.00  0.00     0.124 S 
ATOM     80  O   UNL A   1      32.777  34.791  32.580  1.00  0.00    -0.237 OA
ATOM     81  O   UNL A   1      34.871  36.073  32.858  1.00  0.00    -0.237 OA
ATOM     82  O   UNL A   1      33.926  35.727  30.609  1.00  0.00    -0.744 OA
ENDBRANCH  78  79
ENDBRANCH  50  73
BRANCH  62  83
ATOM     83  C   UNL A   1      42.180  29.160  33.879  1.00  0.00    -0.014 A 
ATOM     84  C   UNL A   1      41.817  27.840  33.551  1.00  0.00     0.010 A 
ATOM     85  C   UNL A   1      42.442  29.474  35.224  1.00  0.00     0.010 A 
ATOM     86  C   UNL A   1      41.702  26.864  34.554  1.00  0.00     0.020 A 
ATOM     87  C   UNL A   1      42.345  28.506  36.222  1.00  0.00     0.020 A 
ATOM     88  C   UNL A   1      41.967  27.208  35.885  1.00  0.00     0.054 A 
BRANCH  88  89
ATOM     89  S   UNL A   1      41.840  25.944  37.181  1.00  0.00     0.124 S 
ATOM     90  O   UNL A   1      42.079  24.707  36.444  1.00  0.00    -0.237 OA
ATOM     91  O   UNL A   1      42.894  26.333  38.115  1.00  0.00    -0.237 OA
ATOM     92  O   UNL A   1      40.480  26.104  37.694  1.00  0.00    -0.744 OA
ENDBRANCH  88  89
ENDBRANCH  62  83
ENDBRANCH  36  37
ENDBRANCH  28  31
ENDBRANCH  26  27
ENDBRANCH  25  26
ENDBRANCH  24  25
ENDBRANCH   1  24
TORSDOF 19
ENDMDL
MODEL 3
REMARK VINA RESULT:     -10.8      2.368      3.687
REMARK SMILES Cc1cc(C)n2ncc(C(=O)N(C)CCCC(=O)NCCCCNC(=O)c3ccc(-c4c5nc(c(-c6ccc(S(=O)(=O)[O-])cc6)c6ccc([nH]6)c(-c6ccc(S(=O)(=O)[O-])cc6)c6nc(c(-c7ccc(S(=O)(=O)[O-])cc7)c7ccc4[nH]7)C=C6)C=C5)cc3)c2n1
REMARK SMILES IDX 20 1 19 2 17 3 18 4 16 6 15 7 14 8 12 9 13 10 10 11 11 12
REMARK SMILES IDX 9 13 1 14 2 15 3 16 88 17 4 18 87 19 5 20 6 21 7 22 8 23
REMARK SMILES IDX 21 24 22 25 23 26 24 27 25 28 26 30 27 31 28 32 86 33 29 34
REMARK SMILES IDX 85 35 30 36 31 37 32 38 79 39 33 40 84 41 78 42 80 43 34 44
REMARK SMILES IDX 83 45 77 46 76 47 35 49 65 50 46 51 64 52 47 53 50 54 63 55
REMARK SMILES IDX 81 56 48 57 49 58 62 60 82 61 51 62 36 63 37 64 45 65 38 66
REMARK SMILES IDX 44 67 39 68 40 69 41 70 42 71 43 72 66 73 67 74 75 75 68 76
REMARK SMILES IDX 74 77 69 78 70 79 71 80 72 81 73 82 52 83 53 84 61 85 54 86
REMARK SMILES IDX 60 87 55 88 56 89 57 90 58 91 59 92
REMARK H PARENT 19 5 24 29 80 48 50 59
REMARK Flexibility Score: inf
ROOT
ATOM      1  C   UNL A   1      35.261  21.328  25.570  1.00  0.00     0.116 C 
ENDROOT
BRANCH   1   2
ATOM      2  N   UNL A   1      34.872  19.975  25.238  1.00  0.00    -0.356 N 
ATOM      3  C   UNL A   1      33.760  19.437  24.684  1.00  0.00     0.220 C 
ATOM      4  O   UNL A   1      33.784  18.207  24.537  1.00  0.00    -0.275 OA
ATOM      5  H   UNL A   1      35.558  19.306  25.462  1.00  0.00     0.163 HD
BRANCH   3   6
ATOM      6  C   UNL A   1      32.572  20.216  24.144  1.00  0.00     0.102 C 
BRANCH   6   7
ATOM      7  C   UNL A   1      31.649  21.102  24.992  1.00  0.00     0.031 C 
BRANCH   7   8
ATOM      8  C   UNL A   1      31.547  22.629  24.888  1.00  0.00     0.120 C 
BRANCH   8   9
ATOM      9  N   UNL A   1      32.310  23.616  25.687  1.00  0.00    -0.342 N 
ATOM     10  C   UNL A   1      32.555  23.153  27.046  1.00  0.00     0.147 C 
BRANCH   9  11
ATOM     11  C   UNL A   1      32.820  24.802  25.124  1.00  0.00     0.259 C 
ATOM     12  O   UNL A   1      33.987  25.100  25.337  1.00  0.00    -0.269 OA
BRANCH  11  13
ATOM     13  C   UNL A   1      32.038  25.708  24.276  1.00  0.00     0.104 A 
ATOM     14  C   UNL A   1      31.945  29.811  27.029  1.00  0.00     0.067 C 
ATOM     15  C   UNL A   1      31.664  28.996  25.789  1.00  0.00     0.042 A 
ATOM     16  C   UNL A   1      31.090  29.730  24.621  1.00  0.00     0.047 A 
ATOM     17  N   UNL A   1      31.919  27.719  25.808  1.00  0.00    -0.233 NA
ATOM     18  C   UNL A   1      30.833  28.998  23.523  1.00  0.00     0.043 A 
ATOM     19  C   UNL A   1      31.706  27.014  24.648  1.00  0.00     0.168 A 
ATOM     20  C   UNL A   1      30.274  29.597  22.270  1.00  0.00     0.067 C 
ATOM     21  N   UNL A   1      31.132  27.627  23.527  1.00  0.00    -0.219 N 
ATOM     22  N   UNL A   1      30.983  26.741  22.510  1.00  0.00    -0.174 NA
ATOM     23  C   UNL A   1      31.572  25.630  22.949  1.00  0.00     0.151 A 
ENDBRANCH  11  13
ENDBRANCH   9  11
ENDBRANCH   8   9
ENDBRANCH   7   8
ENDBRANCH   6   7
ENDBRANCH   3   6
ENDBRANCH   1   2
BRANCH   1  24
ATOM     24  C   UNL A   1      35.701  22.104  24.316  1.00  0.00     0.023 C 
BRANCH  24  25
ATOM     25  C   UNL A   1      37.143  22.626  24.317  1.00  0.00     0.023 C 
BRANCH  25  26
ATOM     26  C   UNL A   1      37.786  22.722  25.696  1.00  0.00     0.116 C 
BRANCH  26  27
ATOM     27  N   UNL A   1      38.888  21.778  25.893  1.00  0.00    -0.352 N 
ATOM     28  C   UNL A   1      40.155  22.073  26.363  1.00  0.00     0.251 C 
ATOM     29  H   UNL A   1      38.708  20.836  25.670  1.00  0.00     0.163 HD
ATOM     30  O   UNL A   1      41.112  21.347  26.102  1.00  0.00    -0.269 OA
BRANCH  28  31
ATOM     31  C   UNL A   1      40.322  23.279  27.189  1.00  0.00     0.039 A 
ATOM     32  C   UNL A   1      41.473  23.499  27.948  1.00  0.00     0.014 A 
ATOM     33  C   UNL A   1      39.325  24.249  27.099  1.00  0.00     0.014 A 
ATOM     34  C   UNL A   1      41.660  24.756  28.522  1.00  0.00     0.010 A 
ATOM     35  C   UNL A   1      39.576  25.524  27.550  1.00  0.00     0.010 A 
ATOM     36  C   UNL A   1      40.729  25.785  28.283  1.00  0.00    -0.014 A 
BRANCH  36  37
ATOM     37  C   UNL A   1      41.027  27.169  28.662  1.00  0.00     0.031 A 
ATOM     38  C   UNL A   1      42.228  27.741  27.994  1.00  0.00     0.074 A 
ATOM     39  C   UNL A   1      40.228  27.950  29.425  1.00  0.00     0.049 A 
ATOM     40  N   UNL A   1      43.405  27.862  28.511  1.00  0.00    -0.248 NA
ATOM     41  C   UNL A   1      42.179  28.058  26.558  1.00  0.00     0.031 C 
ATOM     42  C   UNL A   1      38.895  27.638  29.962  1.00  0.00     0.029 A 
ATOM     43  N   UNL A   1      40.412  29.241  29.830  1.00  0.00    -0.354 N 
ATOM     44  C   UNL A   1      44.177  28.516  27.557  1.00  0.00     0.074 A 
ATOM     45  C   UNL A   1      43.442  28.427  26.321  1.00  0.00     0.031 C 
ATOM     46  C   UNL A   1      38.308  28.766  30.427  1.00  0.00     0.029 A 
ATOM     47  C   UNL A   1      39.290  29.832  30.406  1.00  0.00     0.049 A 
ATOM     48  H   UNL A   1      41.268  29.715  29.721  1.00  0.00     0.167 HD
ATOM     49  C   UNL A   1      45.211  29.319  27.936  1.00  0.00     0.031 A 
ATOM     50  C   UNL A   1      39.198  31.089  30.904  1.00  0.00     0.031 A 
ATOM     51  C   UNL A   1      45.467  29.195  29.350  1.00  0.00     0.049 A 
ATOM     52  C   UNL A   1      40.562  31.475  31.314  1.00  0.00     0.074 A 
ATOM     53  C   UNL A   1      46.045  28.273  30.194  1.00  0.00     0.029 A 
ATOM     54  N   UNL A   1      44.690  30.025  30.118  1.00  0.00    -0.354 N 
ATOM     55  N   UNL A   1      41.203  30.882  32.281  1.00  0.00    -0.248 NA
ATOM     56  C   UNL A   1      41.370  32.314  30.442  1.00  0.00     0.031 C 
ATOM     57  C   UNL A   1      45.404  28.443  31.458  1.00  0.00     0.029 A 
ATOM     58  C   UNL A   1      44.495  29.496  31.365  1.00  0.00     0.049 A 
ATOM     59  H   UNL A   1      44.324  30.886  29.813  1.00  0.00     0.167 HD
ATOM     60  C   UNL A   1      42.522  30.912  31.877  1.00  0.00     0.074 A 
ATOM     61  C   UNL A   1      42.587  31.946  30.851  1.00  0.00     0.031 C 
ATOM     62  C   UNL A   1      43.370  29.891  32.187  1.00  0.00     0.031 A 
BRANCH  49  63
ATOM     63  C   UNL A   1      45.657  30.564  27.198  1.00  0.00    -0.014 A 
ATOM     64  C   UNL A   1      47.036  30.869  27.169  1.00  0.00     0.010 A 
ATOM     65  C   UNL A   1      44.772  31.584  26.797  1.00  0.00     0.010 A 
ATOM     66  C   UNL A   1      47.498  32.145  26.818  1.00  0.00     0.020 A 
ATOM     67  C   UNL A   1      45.225  32.849  26.412  1.00  0.00     0.020 A 
ATOM     68  C   UNL A   1      46.585  33.131  26.452  1.00  0.00     0.054 A 
BRANCH  68  69
ATOM     69  S   UNL A   1      47.183  34.801  26.089  1.00  0.00     0.124 S 
ATOM     70  O   UNL A   1      45.941  35.518  25.821  1.00  0.00    -0.237 OA
ATOM     71  O   UNL A   1      47.868  35.157  27.329  1.00  0.00    -0.237 OA
ATOM     72  O   UNL A   1      48.057  34.607  24.935  1.00  0.00    -0.744 OA
ENDBRANCH  68  69
ENDBRANCH  49  63
BRANCH  50  73
ATOM     73  C   UNL A   1      38.087  32.068  30.934  1.00  0.00    -0.014 A 
ATOM     74  C   UNL A   1      38.138  33.211  30.109  1.00  0.00     0.010 A 
ATOM     75  C   UNL A   1      36.837  31.688  31.460  1.00  0.00     0.010 A 
ATOM     76  C   UNL A   1      36.967  33.877  29.721  1.00  0.00     0.020 A 
ATOM     77  C   UNL A   1      35.662  32.355  31.080  1.00  0.00     0.020 A 
ATOM     78  C   UNL A   1      35.729  33.420  30.180  1.00  0.00     0.054 A 
BRANCH  78  79
ATOM     79  S   UNL A   1      34.213  34.132  29.471  1.00  0.00     0.124 S 
ATOM     80  O   UNL A   1      34.737  35.210  28.636  1.00  0.00    -0.237 OA
ATOM     81  O   UNL A   1      33.639  32.999  28.750  1.00  0.00    -0.237 OA
ATOM     82  O   UNL A   1      33.456  34.566  30.643  1.00  0.00    -0.744 OA
ENDBRANCH  78  79
ENDBRANCH  50  73
BRANCH  62  83
ATOM     83  C   UNL A   1      43.036  29.044  33.382  1.00  0.00    -0.014 A 
ATOM     84  C   UNL A   1      43.508  29.274  34.689  1.00  0.00     0.010 A 
ATOM     85  C   UNL A   1      42.134  27.988  33.166  1.00  0.00     0.010 A 
ATOM     86  C   UNL A   1      43.098  28.448  35.748  1.00  0.00     0.020 A 
ATOM     87  C   UNL A   1      41.710  27.175  34.217  1.00  0.00     0.020 A 
ATOM     88  C   UNL A   1      42.201  27.403  35.501  1.00  0.00     0.054 A 
BRANCH  88  89
ATOM     89  S   UNL A   1      41.652  26.347  36.872  1.00  0.00     0.124 S 
ATOM     90  O   UNL A   1      41.365  25.082  36.204  1.00  0.00    -0.237 OA
ATOM     91  O   UNL A   1      42.815  26.340  37.758  1.00  0.00    -0.237 OA
ATOM     92  O   UNL A   1      40.483  27.045  37.405  1.00  0.00    -0.744 OA
ENDBRANCH  88  89
ENDBRANCH  62  83
ENDBRANCH  36  37
ENDBRANCH  28  31
ENDBRANCH  26  27
ENDBRANCH  25  26
ENDBRANCH  24  25
ENDBRANCH   1  24
TORSDOF 19
ENDMDL
