MODEL 1
REMARK VINA RESULT:     -11.9      0.000      0.000
REMARK SMILES Nc1cc(C(=O)NCCCCNC(=O)c2ccc(-c3c4nc(c(-c5ccc(S(=O)(=O)[O-])cc5)c5ccc([nH]5)c(-c5ccc(S(=O)(=O)[O-])cc5)c5nc(c(-c6ccc(S(=O)(=O)[O-])cc6)c6ccc3[nH]6)C=C5)C=C4)cc2)ccc1N1CC2(CCOCC2)C1
REMARK SMILES IDX 10 1 9 2 8 3 7 4 5 5 6 6 4 8 2 9 3 10 77 11 76 12 75 13 1 14
REMARK SMILES IDX 78 17 79 18 86 19 80 20 81 21 85 22 82 23 84 24 83 25 11 26
REMARK SMILES IDX 12 27 13 28 14 30 15 31 16 32 74 33 17 34 73 35 18 36 19 37
REMARK SMILES IDX 20 38 67 39 21 40 72 41 66 42 68 43 22 44 71 45 65 46 64 47
REMARK SMILES IDX 23 49 53 50 34 51 52 52 35 53 38 54 51 55 69 56 36 57 37 58
REMARK SMILES IDX 50 60 70 61 39 62 24 63 25 64 33 65 26 66 32 67 27 68 28 69
REMARK SMILES IDX 29 70 30 71 31 72 54 73 55 74 63 75 56 76 62 77 57 78 58 79
REMARK SMILES IDX 59 80 60 81 61 82 40 83 41 84 49 85 42 86 48 87 43 88 44 89
REMARK SMILES IDX 45 90 46 91 47 92
REMARK H PARENT 7 7 1 15 1 16 12 29 68 48 38 59
REMARK Flexibility Score: inf
ROOT
ATOM      1  C   UNL A   1      32.167  27.748  26.690  1.00  0.00     0.023 C 
ENDROOT
BRANCH   1   2
ATOM      2  C   UNL A   1      31.733  28.258  25.311  1.00  0.00     0.023 C 
BRANCH   2   3
ATOM      3  C   UNL A   1      31.466  27.151  24.291  1.00  0.00     0.116 C 
BRANCH   3   4
ATOM      4  N   UNL A   1      32.461  27.181  23.242  1.00  0.00    -0.352 N 
ATOM      5  C   UNL A   1      33.339  26.248  22.757  1.00  0.00     0.251 C 
ATOM      6  O   UNL A   1      34.098  26.628  21.862  1.00  0.00    -0.269 OA
ATOM      7  H   UNL A   1      32.519  28.049  22.783  1.00  0.00     0.163 HD
BRANCH   5   8
ATOM      8  C   UNL A   1      33.407  24.821  23.200  1.00  0.00     0.041 A 
ATOM      9  C   UNL A   1      32.837  22.514  22.588  1.00  0.00     0.056 A 
ATOM     10  C   UNL A   1      32.872  23.883  22.301  1.00  0.00     0.041 A 
ATOM     11  C   UNL A   1      33.292  22.057  23.843  1.00  0.00     0.060 A 
ATOM     12  C   UNL A   1      33.845  22.981  24.733  1.00  0.00     0.029 A 
ATOM     13  C   UNL A   1      33.938  24.341  24.398  1.00  0.00     0.016 A 
BRANCH   9  14
ATOM     14  N   UNL A   1      32.184  21.663  21.697  1.00  0.00    -0.397 N 
ATOM     15  H   UNL A   1      32.268  21.808  20.727  1.00  0.00     0.156 HD
ATOM     16  H   UNL A   1      31.640  20.917  22.037  1.00  0.00     0.156 HD
ENDBRANCH   9  14
BRANCH  11  17
ATOM     17  N   UNL A   1      33.150  20.709  24.198  1.00  0.00    -0.369 N 
ATOM     18  C   UNL A   1      34.132  19.730  24.524  1.00  0.00     0.125 C 
ATOM     19  C   UNL A   1      32.079  19.988  24.801  1.00  0.00     0.125 C 
ATOM     20  C   UNL A   1      32.951  18.721  24.574  1.00  0.00     0.010 C 
ATOM     21  C   UNL A   1      32.966  17.697  25.705  1.00  0.00     0.039 C 
ATOM     22  C   UNL A   1      32.675  18.015  23.234  1.00  0.00     0.039 C 
ATOM     23  C   UNL A   1      33.983  16.611  25.368  1.00  0.00     0.161 C 
ATOM     24  C   UNL A   1      33.715  16.922  23.033  1.00  0.00     0.161 C 
ATOM     25  O   UNL A   1      33.666  15.990  24.117  1.00  0.00    -0.381 OA
ENDBRANCH  11  17
ENDBRANCH   5   8
ENDBRANCH   3   4
ENDBRANCH   2   3
ENDBRANCH   1   2
BRANCH   1  26
ATOM     26  C   UNL A   1      33.465  28.348  27.223  1.00  0.00     0.116 C 
BRANCH  26  27
ATOM     27  N   UNL A   1      33.384  29.783  27.448  1.00  0.00    -0.352 N 
ATOM     28  C   UNL A   1      34.351  30.629  27.943  1.00  0.00     0.251 C 
ATOM     29  H   UNL A   1      32.525  30.203  27.217  1.00  0.00     0.163 HD
ATOM     30  O   UNL A   1      34.089  31.799  28.167  1.00  0.00    -0.269 OA
BRANCH  28  31
ATOM     31  C   UNL A   1      35.692  30.085  28.240  1.00  0.00     0.039 A 
ATOM     32  C   UNL A   1      36.649  30.074  27.223  1.00  0.00     0.014 A 
ATOM     33  C   UNL A   1      36.011  29.624  29.520  1.00  0.00     0.014 A 
ATOM     34  C   UNL A   1      37.952  29.664  27.508  1.00  0.00     0.010 A 
ATOM     35  C   UNL A   1      37.324  29.272  29.817  1.00  0.00     0.010 A 
ATOM     36  C   UNL A   1      38.307  29.293  28.816  1.00  0.00    -0.014 A 
BRANCH  36  37
ATOM     37  C   UNL A   1      39.706  28.938  29.158  1.00  0.00     0.031 A 
ATOM     38  C   UNL A   1      40.603  29.948  29.815  1.00  0.00     0.074 A 
ATOM     39  C   UNL A   1      40.186  27.727  28.810  1.00  0.00     0.049 A 
ATOM     40  N   UNL A   1      41.867  29.842  30.135  1.00  0.00    -0.248 NA
ATOM     41  C   UNL A   1      40.010  31.257  30.133  1.00  0.00     0.031 C 
ATOM     42  C   UNL A   1      39.427  26.678  28.126  1.00  0.00     0.029 A 
ATOM     43  N   UNL A   1      41.432  27.179  28.979  1.00  0.00    -0.354 N 
ATOM     44  C   UNL A   1      42.225  31.073  30.672  1.00  0.00     0.074 A 
ATOM     45  C   UNL A   1      41.058  31.923  30.595  1.00  0.00     0.031 C 
ATOM     46  C   UNL A   1      40.217  25.606  27.954  1.00  0.00     0.029 A 
ATOM     47  C   UNL A   1      41.544  25.902  28.482  1.00  0.00     0.049 A 
ATOM     48  H   UNL A   1      42.177  27.655  29.413  1.00  0.00     0.167 HD
ATOM     49  C   UNL A   1      43.414  31.455  31.197  1.00  0.00     0.031 A 
ATOM     50  C   UNL A   1      42.598  25.063  28.454  1.00  0.00     0.031 A 
ATOM     51  C   UNL A   1      44.569  30.603  31.284  1.00  0.00     0.049 A 
ATOM     52  C   UNL A   1      43.904  25.506  29.052  1.00  0.00     0.074 A 
ATOM     53  C   UNL A   1      45.801  30.877  31.852  1.00  0.00     0.029 A 
ATOM     54  N   UNL A   1      44.635  29.309  30.791  1.00  0.00    -0.354 N 
ATOM     55  N   UNL A   1      44.204  26.652  29.614  1.00  0.00    -0.248 NA
ATOM     56  C   UNL A   1      45.009  24.538  29.022  1.00  0.00     0.031 C 
ATOM     57  C   UNL A   1      46.625  29.762  31.667  1.00  0.00     0.029 A 
ATOM     58  C   UNL A   1      45.891  28.777  31.025  1.00  0.00     0.049 A 
ATOM     59  H   UNL A   1      43.897  28.837  30.340  1.00  0.00     0.167 HD
ATOM     60  C   UNL A   1      45.527  26.536  30.025  1.00  0.00     0.074 A 
ATOM     61  C   UNL A   1      45.964  25.203  29.659  1.00  0.00     0.031 C 
ATOM     62  C   UNL A   1      46.310  27.450  30.651  1.00  0.00     0.031 A 
BRANCH  49  63
ATOM     63  C   UNL A   1      43.518  32.865  31.714  1.00  0.00    -0.014 A 
ATOM     64  C   UNL A   1      43.867  33.926  30.858  1.00  0.00     0.010 A 
ATOM     65  C   UNL A   1      43.247  33.138  33.067  1.00  0.00     0.010 A 
ATOM     66  C   UNL A   1      43.989  35.225  31.355  1.00  0.00     0.020 A 
ATOM     67  C   UNL A   1      43.343  34.441  33.563  1.00  0.00     0.020 A 
ATOM     68  C   UNL A   1      43.734  35.474  32.707  1.00  0.00     0.054 A 
BRANCH  68  69
ATOM     69  S   UNL A   1      43.894  37.171  33.327  1.00  0.00     0.124 S 
ATOM     70  O   UNL A   1      45.150  37.101  34.069  1.00  0.00    -0.237 OA
ATOM     71  O   UNL A   1      43.935  37.961  32.098  1.00  0.00    -0.237 OA
ATOM     72  O   UNL A   1      42.697  37.357  34.142  1.00  0.00    -0.744 OA
ENDBRANCH  68  69
ENDBRANCH  49  63
BRANCH  50  73
ATOM     73  C   UNL A   1      42.450  23.709  27.858  1.00  0.00    -0.014 A 
ATOM     74  C   UNL A   1      42.774  23.487  26.508  1.00  0.00     0.010 A 
ATOM     75  C   UNL A   1      42.009  22.627  28.642  1.00  0.00     0.010 A 
ATOM     76  C   UNL A   1      42.645  22.214  25.949  1.00  0.00     0.020 A 
ATOM     77  C   UNL A   1      41.901  21.347  28.092  1.00  0.00     0.020 A 
ATOM     78  C   UNL A   1      42.211  21.150  26.744  1.00  0.00     0.054 A 
BRANCH  78  79
ATOM     79  S   UNL A   1      42.110  19.492  26.014  1.00  0.00     0.124 S 
ATOM     80  O   UNL A   1      42.997  19.613  24.862  1.00  0.00    -0.237 OA
ATOM     81  O   UNL A   1      42.592  18.639  27.098  1.00  0.00    -0.237 OA
ATOM     82  O   UNL A   1      40.690  19.345  25.701  1.00  0.00    -0.744 OA
ENDBRANCH  78  79
ENDBRANCH  50  73
BRANCH  62  83
ATOM     83  C   UNL A   1      47.711  27.031  31.003  1.00  0.00    -0.014 A 
ATOM     84  C   UNL A   1      48.005  26.461  32.254  1.00  0.00     0.010 A 
ATOM     85  C   UNL A   1      48.734  27.160  30.048  1.00  0.00     0.010 A 
ATOM     86  C   UNL A   1      49.307  26.053  32.554  1.00  0.00     0.020 A 
ATOM     87  C   UNL A   1      50.032  26.731  30.335  1.00  0.00     0.020 A 
ATOM     88  C   UNL A   1      50.313  26.191  31.592  1.00  0.00     0.054 A 
BRANCH  88  89
ATOM     89  S   UNL A   1      51.986  25.611  31.986  1.00  0.00     0.124 S 
ATOM     90  O   UNL A   1      52.275  26.333  33.222  1.00  0.00    -0.237 OA
ATOM     91  O   UNL A   1      51.801  24.169  32.129  1.00  0.00    -0.237 OA
ATOM     92  O   UNL A   1      52.775  26.019  30.826  1.00  0.00    -0.744 OA
ENDBRANCH  88  89
ENDBRANCH  62  83
ENDBRANCH  36  37
ENDBRANCH  28  31
ENDBRANCH  26  27
ENDBRANCH   1  26
TORSDOF 16
ENDMDL
MODEL 2
REMARK VINA RESULT:     -11.3      4.463      7.515
REMARK SMILES Nc1cc(C(=O)NCCCCNC(=O)c2ccc(-c3c4nc(c(-c5ccc(S(=O)(=O)[O-])cc5)c5ccc([nH]5)c(-c5ccc(S(=O)(=O)[O-])cc5)c5nc(c(-c6ccc(S(=O)(=O)[O-])cc6)c6ccc3[nH]6)C=C5)C=C4)cc2)ccc1N1CC2(CCOCC2)C1
REMARK SMILES IDX 10 1 9 2 8 3 7 4 5 5 6 6 4 8 2 9 3 10 77 11 76 12 75 13 1 14
REMARK SMILES IDX 78 17 79 18 86 19 80 20 81 21 85 22 82 23 84 24 83 25 11 26
REMARK SMILES IDX 12 27 13 28 14 30 15 31 16 32 74 33 17 34 73 35 18 36 19 37
REMARK SMILES IDX 20 38 67 39 21 40 72 41 66 42 68 43 22 44 71 45 65 46 64 47
REMARK SMILES IDX 23 49 53 50 34 51 52 52 35 53 38 54 51 55 69 56 36 57 37 58
REMARK SMILES IDX 50 60 70 61 39 62 24 63 25 64 33 65 26 66 32 67 27 68 28 69
REMARK SMILES IDX 29 70 30 71 31 72 54 73 55 74 63 75 56 76 62 77 57 78 58 79
REMARK SMILES IDX 59 80 60 81 61 82 40 83 41 84 49 85 42 86 48 87 43 88 44 89
REMARK SMILES IDX 45 90 46 91 47 92
REMARK H PARENT 7 7 1 15 1 16 12 29 68 48 38 59
REMARK Flexibility Score: inf
ROOT
ATOM      1  C   UNL A   1      35.036  33.158  30.226  1.00  0.00     0.023 C 
ENDROOT
BRANCH   1   2
ATOM      2  C   UNL A   1      36.280  33.798  30.852  1.00  0.00     0.023 C 
BRANCH   2   3
ATOM      3  C   UNL A   1      37.207  32.805  31.555  1.00  0.00     0.116 C 
BRANCH   3   4
ATOM      4  N   UNL A   1      36.935  32.779  32.974  1.00  0.00    -0.352 N 
ATOM      5  C   UNL A   1      37.509  32.114  34.025  1.00  0.00     0.251 C 
ATOM      6  O   UNL A   1      36.990  32.292  35.131  1.00  0.00    -0.269 OA
ATOM      7  H   UNL A   1      36.185  33.359  33.240  1.00  0.00     0.163 HD
BRANCH   5   8
ATOM      8  C   UNL A   1      38.720  31.242  33.931  1.00  0.00     0.041 A 
ATOM      9  C   UNL A   1      39.535  29.026  33.264  1.00  0.00     0.056 A 
ATOM     10  C   UNL A   1      38.505  29.965  33.388  1.00  0.00     0.041 A 
ATOM     11  C   UNL A   1      40.820  29.338  33.754  1.00  0.00     0.060 A 
ATOM     12  C   UNL A   1      41.047  30.614  34.275  1.00  0.00     0.029 A 
ATOM     13  C   UNL A   1      40.019  31.568  34.326  1.00  0.00     0.016 A 
BRANCH   9  14
ATOM     14  N   UNL A   1      39.215  27.740  32.825  1.00  0.00    -0.397 N 
ATOM     15  H   UNL A   1      39.847  27.244  32.257  1.00  0.00     0.156 HD
ATOM     16  H   UNL A   1      38.360  27.330  33.085  1.00  0.00     0.156 HD
ENDBRANCH   9  14
BRANCH  11  17
ATOM     17  N   UNL A   1      41.831  28.368  33.753  1.00  0.00    -0.369 N 
ATOM     18  C   UNL A   1      42.111  27.322  34.679  1.00  0.00     0.125 C 
ATOM     19  C   UNL A   1      42.588  27.780  32.699  1.00  0.00     0.125 C 
ATOM     20  C   UNL A   1      43.379  27.052  33.822  1.00  0.00     0.010 C 
ATOM     21  C   UNL A   1      43.738  25.592  33.562  1.00  0.00     0.039 C 
ATOM     22  C   UNL A   1      44.628  27.821  34.294  1.00  0.00     0.039 C 
ATOM     23  C   UNL A   1      44.370  25.011  34.823  1.00  0.00     0.161 C 
ATOM     24  C   UNL A   1      45.199  27.120  35.519  1.00  0.00     0.161 C 
ATOM     25  O   UNL A   1      45.527  25.765  35.204  1.00  0.00    -0.381 OA
ENDBRANCH  11  17
ENDBRANCH   5   8
ENDBRANCH   3   4
ENDBRANCH   2   3
ENDBRANCH   1   2
BRANCH   1  26
ATOM     26  C   UNL A   1      35.053  33.065  28.702  1.00  0.00     0.116 C 
BRANCH  26  27
ATOM     27  N   UNL A   1      34.152  32.050  28.178  1.00  0.00    -0.352 N 
ATOM     28  C   UNL A   1      34.418  30.728  27.902  1.00  0.00     0.251 C 
ATOM     29  H   UNL A   1      33.232  32.349  27.997  1.00  0.00     0.163 HD
ATOM     30  O   UNL A   1      33.574  30.028  27.369  1.00  0.00    -0.269 OA
BRANCH  28  31
ATOM     31  C   UNL A   1      35.756  30.187  28.221  1.00  0.00     0.039 A 
ATOM     32  C   UNL A   1      36.737  30.202  27.227  1.00  0.00     0.014 A 
ATOM     33  C   UNL A   1      36.047  29.703  29.499  1.00  0.00     0.014 A 
ATOM     34  C   UNL A   1      38.035  29.794  27.535  1.00  0.00     0.010 A 
ATOM     35  C   UNL A   1      37.355  29.352  29.820  1.00  0.00     0.010 A 
ATOM     36  C   UNL A   1      38.362  29.400  28.843  1.00  0.00    -0.014 A 
BRANCH  36  37
ATOM     37  C   UNL A   1      39.754  29.047  29.213  1.00  0.00     0.031 A 
ATOM     38  C   UNL A   1      40.636  30.057  29.891  1.00  0.00     0.074 A 
ATOM     39  C   UNL A   1      40.244  27.838  28.869  1.00  0.00     0.049 A 
ATOM     40  N   UNL A   1      41.893  29.953  30.235  1.00  0.00    -0.248 NA
ATOM     41  C   UNL A   1      40.033  31.363  30.201  1.00  0.00     0.031 C 
ATOM     42  C   UNL A   1      39.502  26.790  28.166  1.00  0.00     0.029 A 
ATOM     43  N   UNL A   1      41.488  27.293  29.061  1.00  0.00    -0.354 N 
ATOM     44  C   UNL A   1      42.238  31.182  30.783  1.00  0.00     0.074 A 
ATOM     45  C   UNL A   1      41.070  32.030  30.687  1.00  0.00     0.031 C 
ATOM     46  C   UNL A   1      40.298  25.721  28.006  1.00  0.00     0.029 A 
ATOM     47  C   UNL A   1      41.613  26.018  28.562  1.00  0.00     0.049 A 
ATOM     48  H   UNL A   1      42.223  27.769  29.511  1.00  0.00     0.167 HD
ATOM     49  C   UNL A   1      43.415  31.565  31.334  1.00  0.00     0.031 A 
ATOM     50  C   UNL A   1      42.669  25.181  28.551  1.00  0.00     0.031 A 
ATOM     51  C   UNL A   1      44.570  30.715  31.441  1.00  0.00     0.049 A 
ATOM     52  C   UNL A   1      43.962  25.625  29.177  1.00  0.00     0.074 A 
ATOM     53  C   UNL A   1      45.789  30.990  32.034  1.00  0.00     0.029 A 
ATOM     54  N   UNL A   1      44.648  29.423  30.945  1.00  0.00    -0.354 N 
ATOM     55  N   UNL A   1      44.248  26.770  29.749  1.00  0.00    -0.248 NA
ATOM     56  C   UNL A   1      45.069  24.660  29.165  1.00  0.00     0.031 C 
ATOM     57  C   UNL A   1      46.620  29.877  31.861  1.00  0.00     0.029 A 
ATOM     58  C   UNL A   1      45.902  28.894  31.201  1.00  0.00     0.049 A 
ATOM     59  H   UNL A   1      43.921  28.951  30.477  1.00  0.00     0.167 HD
ATOM     60  C   UNL A   1      45.563  26.655  30.186  1.00  0.00     0.074 A 
ATOM     61  C   UNL A   1      46.010  25.325  29.823  1.00  0.00     0.031 C 
ATOM     62  C   UNL A   1      46.330  27.569  30.830  1.00  0.00     0.031 A 
BRANCH  49  63
ATOM     63  C   UNL A   1      43.505  32.973  31.858  1.00  0.00    -0.014 A 
ATOM     64  C   UNL A   1      43.135  33.278  33.181  1.00  0.00     0.010 A 
ATOM     65  C   UNL A   1      43.983  34.001  31.026  1.00  0.00     0.010 A 
ATOM     66  C   UNL A   1      43.196  34.594  33.647  1.00  0.00     0.020 A 
ATOM     67  C   UNL A   1      44.070  35.315  31.497  1.00  0.00     0.020 A 
ATOM     68  C   UNL A   1      43.655  35.606  32.799  1.00  0.00     0.054 A 
BRANCH  68  69
ATOM     69  S   UNL A   1      43.730  37.305  33.429  1.00  0.00     0.124 S 
ATOM     70  O   UNL A   1      45.032  37.321  34.092  1.00  0.00    -0.237 OA
ATOM     71  O   UNL A   1      43.637  38.106  32.210  1.00  0.00    -0.237 OA
ATOM     72  O   UNL A   1      42.576  37.396  34.319  1.00  0.00    -0.744 OA
ENDBRANCH  68  69
ENDBRANCH  49  63
BRANCH  50  73
ATOM     73  C   UNL A   1      42.536  23.829  27.948  1.00  0.00    -0.014 A 
ATOM     74  C   UNL A   1      42.871  23.617  26.599  1.00  0.00     0.010 A 
ATOM     75  C   UNL A   1      42.099  22.740  28.724  1.00  0.00     0.010 A 
ATOM     76  C   UNL A   1      42.756  22.346  26.032  1.00  0.00     0.020 A 
ATOM     77  C   UNL A   1      42.006  21.462  28.166  1.00  0.00     0.020 A 
ATOM     78  C   UNL A   1      42.326  21.275  26.819  1.00  0.00     0.054 A 
BRANCH  78  79
ATOM     79  S   UNL A   1      42.244  19.619  26.080  1.00  0.00     0.124 S 
ATOM     80  O   UNL A   1      40.832  19.515  25.728  1.00  0.00    -0.237 OA
ATOM     81  O   UNL A   1      43.171  19.728  24.956  1.00  0.00    -0.237 OA
ATOM     82  O   UNL A   1      42.688  18.742  27.160  1.00  0.00    -0.744 OA
ENDBRANCH  78  79
ENDBRANCH  50  73
BRANCH  62  83
ATOM     83  C   UNL A   1      47.725  27.152  31.209  1.00  0.00    -0.014 A 
ATOM     84  C   UNL A   1      48.820  27.441  30.377  1.00  0.00     0.010 A 
ATOM     85  C   UNL A   1      47.947  26.512  32.441  1.00  0.00     0.010 A 
ATOM     86  C   UNL A   1      50.112  27.070  30.758  1.00  0.00     0.020 A 
ATOM     87  C   UNL A   1      49.240  26.162  32.837  1.00  0.00     0.020 A 
ATOM     88  C   UNL A   1      50.314  26.432  31.986  1.00  0.00     0.054 A 
BRANCH  88  89
ATOM     89  S   UNL A   1      52.005  26.002  32.482  1.00  0.00     0.124 S 
ATOM     90  O   UNL A   1      52.705  27.272  32.306  1.00  0.00    -0.237 OA
ATOM     91  O   UNL A   1      51.833  25.567  33.866  1.00  0.00    -0.237 OA
ATOM     92  O   UNL A   1      52.383  24.947  31.546  1.00  0.00    -0.744 OA
ENDBRANCH  88  89
ENDBRANCH  62  83
ENDBRANCH  36  37
ENDBRANCH  28  31
ENDBRANCH  26  27
ENDBRANCH   1  26
TORSDOF 16
ENDMDL
MODEL 3
REMARK VINA RESULT:     -11.3      4.295     11.556
REMARK SMILES Nc1cc(C(=O)NCCCCNC(=O)c2ccc(-c3c4nc(c(-c5ccc(S(=O)(=O)[O-])cc5)c5ccc([nH]5)c(-c5ccc(S(=O)(=O)[O-])cc5)c5nc(c(-c6ccc(S(=O)(=O)[O-])cc6)c6ccc3[nH]6)C=C5)C=C4)cc2)ccc1N1CC2(CCOCC2)C1
REMARK SMILES IDX 10 1 9 2 8 3 7 4 5 5 6 6 4 8 2 9 3 10 77 11 76 12 75 13 1 14
REMARK SMILES IDX 78 17 79 18 86 19 80 20 81 21 85 22 82 23 84 24 83 25 11 26
REMARK SMILES IDX 12 27 13 28 14 30 15 31 16 32 74 33 17 34 73 35 18 36 19 37
REMARK SMILES IDX 20 38 67 39 21 40 72 41 66 42 68 43 22 44 71 45 65 46 64 47
REMARK SMILES IDX 23 49 53 50 34 51 52 52 35 53 38 54 51 55 69 56 36 57 37 58
REMARK SMILES IDX 50 60 70 61 39 62 24 63 25 64 33 65 26 66 32 67 27 68 28 69
REMARK SMILES IDX 29 70 30 71 31 72 54 73 55 74 63 75 56 76 62 77 57 78 58 79
REMARK SMILES IDX 59 80 60 81 61 82 40 83 41 84 49 85 42 86 48 87 43 88 44 89
REMARK SMILES IDX 45 90 46 91 47 92
REMARK H PARENT 7 7 1 15 1 16 12 29 68 48 38 59
REMARK Flexibility Score: inf
ROOT
ATOM      1  C   UNL A   1      41.516  21.771  26.084  1.00  0.00     0.023 C 
ENDROOT
BRANCH   1   2
ATOM      2  C   UNL A   1      42.365  22.878  26.718  1.00  0.00     0.023 C 
BRANCH   2   3
ATOM      3  C   UNL A   1      43.846  22.525  26.860  1.00  0.00     0.116 C 
BRANCH   3   4
ATOM      4  N   UNL A   1      44.545  22.772  25.619  1.00  0.00    -0.352 N 
ATOM      5  C   UNL A   1      45.070  23.901  25.049  1.00  0.00     0.251 C 
ATOM      6  O   UNL A   1      45.575  23.763  23.932  1.00  0.00    -0.269 OA
ATOM      7  H   UNL A   1      44.669  21.963  25.072  1.00  0.00     0.163 HD
BRANCH   5   8
ATOM      8  C   UNL A   1      45.111  25.250  25.695  1.00  0.00     0.041 A 
ATOM      9  C   UNL A   1      44.032  27.452  25.782  1.00  0.00     0.056 A 
ATOM     10  C   UNL A   1      44.106  26.144  25.289  1.00  0.00     0.041 A 
ATOM     11  C   UNL A   1      45.028  27.917  26.666  1.00  0.00     0.060 A 
ATOM     12  C   UNL A   1      46.016  27.027  27.092  1.00  0.00     0.029 A 
ATOM     13  C   UNL A   1      46.033  25.697  26.642  1.00  0.00     0.016 A 
BRANCH   9  14
ATOM     14  N   UNL A   1      43.078  28.314  25.241  1.00  0.00    -0.397 N 
ATOM     15  H   UNL A   1      42.916  29.191  25.658  1.00  0.00     0.156 HD
ATOM     16  H   UNL A   1      42.568  28.046  24.444  1.00  0.00     0.156 HD
ENDBRANCH   9  14
BRANCH  11  17
ATOM     17  N   UNL A   1      45.041  29.258  27.072  1.00  0.00    -0.369 N 
ATOM     18  C   UNL A   1      43.967  30.142  27.381  1.00  0.00     0.125 C 
ATOM     19  C   UNL A   1      46.018  30.040  27.754  1.00  0.00     0.125 C 
ATOM     20  C   UNL A   1      45.057  31.240  27.525  1.00  0.00     0.010 C 
ATOM     21  C   UNL A   1      44.903  32.216  28.687  1.00  0.00     0.039 C 
ATOM     22  C   UNL A   1      45.338  32.016  26.225  1.00  0.00     0.039 C 
ATOM     23  C   UNL A   1      43.817  33.229  28.335  1.00  0.00     0.161 C 
ATOM     24  C   UNL A   1      44.222  33.028  26.008  1.00  0.00     0.161 C 
ATOM     25  O   UNL A   1      44.142  33.919  27.124  1.00  0.00    -0.381 OA
ENDBRANCH  11  17
ENDBRANCH   5   8
ENDBRANCH   3   4
ENDBRANCH   2   3
ENDBRANCH   1   2
BRANCH   1  26
ATOM     26  C   UNL A   1      40.155  21.543  26.738  1.00  0.00     0.116 C 
BRANCH  26  27
ATOM     27  N   UNL A   1      39.042  22.008  25.925  1.00  0.00    -0.352 N 
ATOM     28  C   UNL A   1      38.493  23.268  25.864  1.00  0.00     0.251 C 
ATOM     29  H   UNL A   1      38.628  21.331  25.342  1.00  0.00     0.163 HD
ATOM     30  O   UNL A   1      37.490  23.472  25.199  1.00  0.00    -0.269 OA
BRANCH  28  31
ATOM     31  C   UNL A   1      39.110  24.355  26.651  1.00  0.00     0.039 A 
ATOM     32  C   UNL A   1      39.949  25.261  25.997  1.00  0.00     0.014 A 
ATOM     33  C   UNL A   1      38.834  24.500  28.013  1.00  0.00     0.014 A 
ATOM     34  C   UNL A   1      40.458  26.356  26.696  1.00  0.00     0.010 A 
ATOM     35  C   UNL A   1      39.294  25.623  28.693  1.00  0.00     0.010 A 
ATOM     36  C   UNL A   1      40.106  26.564  28.040  1.00  0.00    -0.014 A 
BRANCH  36  37
ATOM     37  C   UNL A   1      40.565  27.767  28.775  1.00  0.00     0.031 A 
ATOM     38  C   UNL A   1      41.925  27.790  29.413  1.00  0.00     0.074 A 
ATOM     39  C   UNL A   1      39.725  28.811  28.928  1.00  0.00     0.049 A 
ATOM     40  N   UNL A   1      42.476  28.725  30.144  1.00  0.00    -0.248 NA
ATOM     41  C   UNL A   1      42.767  26.598  29.226  1.00  0.00     0.031 C 
ATOM     42  C   UNL A   1      38.362  28.888  28.396  1.00  0.00     0.029 A 
ATOM     43  N   UNL A   1      39.893  30.004  29.583  1.00  0.00    -0.354 N 
ATOM     44  C   UNL A   1      43.717  28.228  30.520  1.00  0.00     0.074 A 
ATOM     45  C   UNL A   1      43.821  26.893  29.972  1.00  0.00     0.031 C 
ATOM     46  C   UNL A   1      37.828  30.075  28.727  1.00  0.00     0.029 A 
ATOM     47  C   UNL A   1      38.794  30.826  29.521  1.00  0.00     0.049 A 
ATOM     48  H   UNL A   1      40.723  30.248  30.054  1.00  0.00     0.167 HD
ATOM     49  C   UNL A   1      44.691  28.834  31.240  1.00  0.00     0.031 A 
ATOM     50  C   UNL A   1      38.584  32.049  30.047  1.00  0.00     0.031 A 
ATOM     51  C   UNL A   1      44.590  30.167  31.772  1.00  0.00     0.049 A 
ATOM     52  C   UNL A   1      39.683  32.706  30.835  1.00  0.00     0.074 A 
ATOM     53  C   UNL A   1      45.543  30.892  32.465  1.00  0.00     0.029 A 
ATOM     54  N   UNL A   1      43.469  30.976  31.668  1.00  0.00    -0.354 N 
ATOM     55  N   UNL A   1      40.877  32.245  31.125  1.00  0.00    -0.248 NA
ATOM     56  C   UNL A   1      39.411  34.052  31.357  1.00  0.00     0.031 C 
ATOM     57  C   UNL A   1      44.984  32.126  32.815  1.00  0.00     0.029 A 
ATOM     58  C   UNL A   1      43.699  32.186  32.300  1.00  0.00     0.049 A 
ATOM     59  H   UNL A   1      42.632  30.726  31.213  1.00  0.00     0.167 HD
ATOM     60  C   UNL A   1      41.506  33.254  31.844  1.00  0.00     0.074 A 
ATOM     61  C   UNL A   1      40.567  34.354  31.933  1.00  0.00     0.031 C 
ATOM     62  C   UNL A   1      42.751  33.268  32.381  1.00  0.00     0.031 A 
BRANCH  49  63
ATOM     63  C   UNL A   1      45.950  28.050  31.497  1.00  0.00    -0.014 A 
ATOM     64  C   UNL A   1      46.093  27.273  32.662  1.00  0.00     0.010 A 
ATOM     65  C   UNL A   1      46.995  28.072  30.556  1.00  0.00     0.010 A 
ATOM     66  C   UNL A   1      47.278  26.573  32.903  1.00  0.00     0.020 A 
ATOM     67  C   UNL A   1      48.171  27.352  30.781  1.00  0.00     0.020 A 
ATOM     68  C   UNL A   1      48.313  26.623  31.965  1.00  0.00     0.054 A 
BRANCH  68  69
ATOM     69  S   UNL A   1      49.838  25.700  32.299  1.00  0.00     0.124 S 
ATOM     70  O   UNL A   1      50.241  25.292  30.955  1.00  0.00    -0.237 OA
ATOM     71  O   UNL A   1      50.691  26.704  32.930  1.00  0.00    -0.237 OA
ATOM     72  O   UNL A   1      49.403  24.617  33.176  1.00  0.00    -0.744 OA
ENDBRANCH  68  69
ENDBRANCH  49  63
BRANCH  50  73
ATOM     73  C   UNL A   1      37.287  32.740  29.821  1.00  0.00    -0.014 A 
ATOM     74  C   UNL A   1      36.330  32.807  30.849  1.00  0.00     0.010 A 
ATOM     75  C   UNL A   1      37.011  33.357  28.587  1.00  0.00     0.010 A 
ATOM     76  C   UNL A   1      35.114  33.464  30.642  1.00  0.00     0.020 A 
ATOM     77  C   UNL A   1      35.806  34.035  28.385  1.00  0.00     0.020 A 
ATOM     78  C   UNL A   1      34.860  34.076  29.412  1.00  0.00     0.054 A 
BRANCH  78  79
ATOM     79  S   UNL A   1      33.301  34.977  29.185  1.00  0.00     0.124 S 
ATOM     80  O   UNL A   1      32.728  34.932  30.526  1.00  0.00    -0.237 OA
ATOM     81  O   UNL A   1      33.757  36.290  28.735  1.00  0.00    -0.237 OA
ATOM     82  O   UNL A   1      32.598  34.191  28.174  1.00  0.00    -0.744 OA
ENDBRANCH  78  79
ENDBRANCH  50  73
BRANCH  62  83
ATOM     83  C   UNL A   1      43.181  34.523  33.092  1.00  0.00    -0.014 A 
ATOM     84  C   UNL A   1      43.032  34.657  34.483  1.00  0.00     0.010 A 
ATOM     85  C   UNL A   1      43.791  35.558  32.362  1.00  0.00     0.010 A 
ATOM     86  C   UNL A   1      43.461  35.818  35.129  1.00  0.00     0.020 A 
ATOM     87  C   UNL A   1      44.244  36.711  33.008  1.00  0.00     0.020 A 
ATOM     88  C   UNL A   1      44.064  36.839  34.388  1.00  0.00     0.054 A 
BRANCH  88  89
ATOM     89  S   UNL A   1      44.657  38.318  35.254  1.00  0.00     0.124 S 
ATOM     90  O   UNL A   1      44.429  37.963  36.652  1.00  0.00    -0.237 OA
ATOM     91  O   UNL A   1      46.058  38.390  34.845  1.00  0.00    -0.237 OA
ATOM     92  O   UNL A   1      43.808  39.387  34.735  1.00  0.00    -0.744 OA
ENDBRANCH  88  89
ENDBRANCH  62  83
ENDBRANCH  36  37
ENDBRANCH  28  31
ENDBRANCH  26  27
ENDBRANCH   1  26
TORSDOF 16
ENDMDL
