MODEL 1
REMARK VINA RESULT:     -10.5      0.000      0.000
REMARK SMILES CCCCCO[C@H](C(=O)NCCCCNC(=O)c1ccc(-c2c3nc(c(-c4ccc(S(=O)(=O)[O-])cc4)c4ccc([nH]4)c(-c4ccc(S(=O)(=O)[O-])cc4)c4nc(c(-c5ccc(S(=O)(=O)[O-])cc5)c5ccc2[nH]5)C=C4)C=C3)cc1)c1ccccc1
REMARK SMILES IDX 11 1 10 2 8 3 9 4 7 6 6 7 5 8 4 9 3 10 2 11 1 12 78 13 79 14
REMARK SMILES IDX 83 15 80 16 82 17 81 18 12 19 13 20 14 21 15 22 16 23 17 25
REMARK SMILES IDX 18 26 19 27 77 28 20 29 76 30 21 31 22 32 23 33 70 34 24 35
REMARK SMILES IDX 75 36 69 37 71 38 25 39 74 40 68 41 67 42 26 44 56 45 37 46
REMARK SMILES IDX 55 47 38 48 41 49 54 50 72 51 39 52 40 53 53 55 73 56 42 57
REMARK SMILES IDX 27 58 28 59 36 60 29 61 35 62 30 63 31 64 32 65 33 66 34 67
REMARK SMILES IDX 57 68 58 69 66 70 59 71 65 72 60 73 61 74 62 75 63 76 64 77
REMARK SMILES IDX 43 78 44 79 52 80 45 81 51 82 46 83 47 84 48 85 49 86 50 87
REMARK H PARENT 10 5 15 24 71 43 41 54
REMARK Flexibility Score: inf
ROOT
ATOM      1  C   UNL A   1      32.279  29.665  26.097  1.00  0.00     0.116 C 
ENDROOT
BRANCH   1   2
ATOM      2  N   UNL A   1      32.626  29.707  24.692  1.00  0.00    -0.354 N 
ATOM      3  C   UNL A   1      32.829  28.659  23.826  1.00  0.00     0.253 C 
ATOM      4  O   UNL A   1      33.652  28.879  22.931  1.00  0.00    -0.272 OA
ATOM      5  H   UNL A   1      32.732  30.607  24.305  1.00  0.00     0.163 HD
BRANCH   3   6
ATOM      6  C   UNL A   1      31.986  27.318  23.919  1.00  0.00     0.237 C 
BRANCH   6   7
ATOM      7  O   UNL A   1      30.662  27.350  23.332  1.00  0.00    -0.364 OA
BRANCH   7   8
ATOM      8  C   UNL A   1      30.319  28.377  22.390  1.00  0.00     0.162 C 
BRANCH   8   9
ATOM      9  C   UNL A   1      29.134  29.269  22.789  1.00  0.00     0.028 C 
BRANCH   9  10
ATOM     10  C   UNL A   1      28.620  30.121  21.614  1.00  0.00     0.002 C 
BRANCH  10  11
ATOM     11  C   UNL A   1      27.927  31.423  22.007  1.00  0.00    -0.003 C 
ATOM     12  C   UNL A   1      27.663  31.525  23.500  1.00  0.00     0.004 C 
ENDBRANCH  10  11
ENDBRANCH   9  10
ENDBRANCH   8   9
ENDBRANCH   7   8
ENDBRANCH   6   7
BRANCH   6  13
ATOM     13  C   UNL A   1      32.742  26.050  23.476  1.00  0.00    -0.010 A 
ATOM     14  C   UNL A   1      32.416  25.342  22.322  1.00  0.00     0.007 A 
ATOM     15  C   UNL A   1      33.855  25.560  24.160  1.00  0.00     0.007 A 
ATOM     16  C   UNL A   1      32.934  24.081  22.027  1.00  0.00     0.000 A 
ATOM     17  C   UNL A   1      34.396  24.296  23.894  1.00  0.00     0.000 A 
ATOM     18  C   UNL A   1      33.893  23.529  22.855  1.00  0.00     0.000 A 
ENDBRANCH   6  13
ENDBRANCH   3   6
ENDBRANCH   1   2
BRANCH   1  19
ATOM     19  C   UNL A   1      33.524  29.980  26.942  1.00  0.00     0.023 C 
BRANCH  19  20
ATOM     20  C   UNL A   1      34.646  28.963  26.904  1.00  0.00     0.023 C 
BRANCH  20  21
ATOM     21  C   UNL A   1      35.850  29.329  27.742  1.00  0.00     0.116 C 
BRANCH  21  22
ATOM     22  N   UNL A   1      35.524  29.684  29.119  1.00  0.00    -0.352 N 
ATOM     23  C   UNL A   1      36.377  29.853  30.188  1.00  0.00     0.251 C 
ATOM     24  H   UNL A   1      34.567  29.820  29.310  1.00  0.00     0.163 HD
ATOM     25  O   UNL A   1      35.945  30.059  31.309  1.00  0.00    -0.269 OA
BRANCH  23  26
ATOM     26  C   UNL A   1      37.827  29.735  29.937  1.00  0.00     0.039 A 
ATOM     27  C   UNL A   1      38.628  29.078  30.871  1.00  0.00     0.014 A 
ATOM     28  C   UNL A   1      38.348  30.153  28.712  1.00  0.00     0.014 A 
ATOM     29  C   UNL A   1      39.942  28.757  30.530  1.00  0.00     0.010 A 
ATOM     30  C   UNL A   1      39.607  29.722  28.331  1.00  0.00     0.010 A 
ATOM     31  C   UNL A   1      40.423  29.031  29.238  1.00  0.00    -0.014 A 
BRANCH  31  32
ATOM     32  C   UNL A   1      41.786  28.635  28.808  1.00  0.00     0.031 A 
ATOM     33  C   UNL A   1      42.869  29.678  28.752  1.00  0.00     0.074 A 
ATOM     34  C   UNL A   1      42.024  27.376  28.387  1.00  0.00     0.049 A 
ATOM     35  N   UNL A   1      44.091  29.574  28.301  1.00  0.00    -0.248 NA
ATOM     36  C   UNL A   1      42.515  31.030  29.220  1.00  0.00     0.031 C 
ATOM     37  C   UNL A   1      41.038  26.293  28.332  1.00  0.00     0.029 A 
ATOM     38  N   UNL A   1      43.175  26.798  27.915  1.00  0.00    -0.354 N 
ATOM     39  C   UNL A   1      44.634  30.850  28.397  1.00  0.00     0.074 A 
ATOM     40  C   UNL A   1      43.593  31.723  28.887  1.00  0.00     0.031 C 
ATOM     41  C   UNL A   1      41.638  25.174  27.891  1.00  0.00     0.029 A 
ATOM     42  C   UNL A   1      43.035  25.468  27.594  1.00  0.00     0.049 A 
ATOM     43  H   UNL A   1      44.022  27.290  27.816  1.00  0.00     0.167 HD
ATOM     44  C   UNL A   1      45.898  31.256  28.132  1.00  0.00     0.031 A 
ATOM     45  C   UNL A   1      43.935  24.587  27.116  1.00  0.00     0.031 A 
ATOM     46  C   UNL A   1      46.942  30.372  27.694  1.00  0.00     0.049 A 
ATOM     47  C   UNL A   1      45.346  25.048  26.873  1.00  0.00     0.074 A 
ATOM     48  C   UNL A   1      48.275  30.662  27.469  1.00  0.00     0.029 A 
ATOM     49  N   UNL A   1      46.770  29.023  27.429  1.00  0.00    -0.354 N 
ATOM     50  N   UNL A   1      45.858  26.246  27.031  1.00  0.00    -0.248 NA
ATOM     51  C   UNL A   1      46.303  24.038  26.401  1.00  0.00     0.031 C 
ATOM     52  C   UNL A   1      48.905  29.491  27.034  1.00  0.00     0.029 A 
ATOM     53  C   UNL A   1      47.972  28.465  27.033  1.00  0.00     0.049 A 
ATOM     54  H   UNL A   1      45.920  28.534  27.511  1.00  0.00     0.167 HD
ATOM     55  C   UNL A   1      47.204  26.127  26.704  1.00  0.00     0.074 A 
ATOM     56  C   UNL A   1      47.428  24.738  26.352  1.00  0.00     0.031 C 
ATOM     57  C   UNL A   1      48.169  27.078  26.697  1.00  0.00     0.031 A 
BRANCH  44  58
ATOM     58  C   UNL A   1      46.210  32.715  28.327  1.00  0.00    -0.014 A 
ATOM     59  C   UNL A   1      46.077  33.632  27.267  1.00  0.00     0.010 A 
ATOM     60  C   UNL A   1      46.633  33.178  29.585  1.00  0.00     0.010 A 
ATOM     61  C   UNL A   1      46.410  34.976  27.449  1.00  0.00     0.020 A 
ATOM     62  C   UNL A   1      46.938  34.528  29.779  1.00  0.00     0.020 A 
ATOM     63  C   UNL A   1      46.843  35.415  28.703  1.00  0.00     0.054 A 
BRANCH  63  64
ATOM     64  S   UNL A   1      47.254  37.168  28.916  1.00  0.00     0.124 S 
ATOM     65  O   UNL A   1      45.941  37.754  29.178  1.00  0.00    -0.237 OA
ATOM     66  O   UNL A   1      48.170  37.149  30.055  1.00  0.00    -0.237 OA
ATOM     67  O   UNL A   1      47.859  37.539  27.641  1.00  0.00    -0.744 OA
ENDBRANCH  63  64
ENDBRANCH  44  58
BRANCH  45  68
ATOM     68  C   UNL A   1      43.538  23.173  26.874  1.00  0.00    -0.014 A 
ATOM     69  C   UNL A   1      43.782  22.571  25.627  1.00  0.00     0.010 A 
ATOM     70  C   UNL A   1      42.928  22.416  27.891  1.00  0.00     0.010 A 
ATOM     71  C   UNL A   1      43.409  21.244  25.394  1.00  0.00     0.020 A 
ATOM     72  C   UNL A   1      42.576  21.080  27.669  1.00  0.00     0.020 A 
ATOM     73  C   UNL A   1      42.808  20.506  26.418  1.00  0.00     0.054 A 
BRANCH  73  74
ATOM     74  S   UNL A   1      42.379  18.769  26.110  1.00  0.00     0.124 S 
ATOM     75  O   UNL A   1      40.969  18.864  25.751  1.00  0.00    -0.237 OA
ATOM     76  O   UNL A   1      43.287  18.407  25.024  1.00  0.00    -0.237 OA
ATOM     77  O   UNL A   1      42.660  18.118  27.388  1.00  0.00    -0.744 OA
ENDBRANCH  73  74
ENDBRANCH  45  68
BRANCH  57  78
ATOM     78  C   UNL A   1      49.563  26.647  26.335  1.00  0.00    -0.014 A 
ATOM     79  C   UNL A   1      50.406  26.042  27.283  1.00  0.00     0.010 A 
ATOM     80  C   UNL A   1      50.005  26.785  25.006  1.00  0.00     0.010 A 
ATOM     81  C   UNL A   1      51.680  25.604  26.913  1.00  0.00     0.020 A 
ATOM     82  C   UNL A   1      51.268  26.326  24.627  1.00  0.00     0.020 A 
ATOM     83  C   UNL A   1      52.102  25.749  25.587  1.00  0.00     0.054 A 
BRANCH  83  84
ATOM     84  S   UNL A   1      53.739  25.124  25.118  1.00  0.00     0.124 S 
ATOM     85  O   UNL A   1      54.584  25.664  26.178  1.00  0.00    -0.237 OA
ATOM     86  O   UNL A   1      53.548  23.675  25.141  1.00  0.00    -0.237 OA
ATOM     87  O   UNL A   1      53.959  25.694  23.791  1.00  0.00    -0.744 OA
ENDBRANCH  83  84
ENDBRANCH  57  78
ENDBRANCH  31  32
ENDBRANCH  23  26
ENDBRANCH  21  22
ENDBRANCH  20  21
ENDBRANCH  19  20
ENDBRANCH   1  19
TORSDOF 20
ENDMDL
MODEL 2
REMARK VINA RESULT:     -10.4      4.164     10.124
REMARK SMILES CCCCCO[C@H](C(=O)NCCCCNC(=O)c1ccc(-c2c3nc(c(-c4ccc(S(=O)(=O)[O-])cc4)c4ccc([nH]4)c(-c4ccc(S(=O)(=O)[O-])cc4)c4nc(c(-c5ccc(S(=O)(=O)[O-])cc5)c5ccc2[nH]5)C=C4)C=C3)cc1)c1ccccc1
REMARK SMILES IDX 11 1 10 2 8 3 9 4 7 6 6 7 5 8 4 9 3 10 2 11 1 12 78 13 79 14
REMARK SMILES IDX 83 15 80 16 82 17 81 18 12 19 13 20 14 21 15 22 16 23 17 25
REMARK SMILES IDX 18 26 19 27 77 28 20 29 76 30 21 31 22 32 23 33 70 34 24 35
REMARK SMILES IDX 75 36 69 37 71 38 25 39 74 40 68 41 67 42 26 44 56 45 37 46
REMARK SMILES IDX 55 47 38 48 41 49 54 50 72 51 39 52 40 53 53 55 73 56 42 57
REMARK SMILES IDX 27 58 28 59 36 60 29 61 35 62 30 63 31 64 32 65 33 66 34 67
REMARK SMILES IDX 57 68 58 69 66 70 59 71 65 72 60 73 61 74 62 75 63 76 64 77
REMARK SMILES IDX 43 78 44 79 52 80 45 81 51 82 46 83 47 84 48 85 49 86 50 87
REMARK H PARENT 10 5 15 24 71 43 41 54
REMARK Flexibility Score: inf
ROOT
ATOM      1  C   UNL A   1      34.031  25.015  24.324  1.00  0.00     0.116 C 
ENDROOT
BRANCH   1   2
ATOM      2  N   UNL A   1      32.850  25.041  25.161  1.00  0.00    -0.354 N 
ATOM      3  C   UNL A   1      32.295  26.105  25.832  1.00  0.00     0.253 C 
ATOM      4  O   UNL A   1      31.721  25.809  26.886  1.00  0.00    -0.272 OA
ATOM      5  H   UNL A   1      32.380  24.181  25.263  1.00  0.00     0.163 HD
BRANCH   3   6
ATOM      6  C   UNL A   1      32.310  27.575  25.234  1.00  0.00     0.237 C 
BRANCH   6   7
ATOM      7  O   UNL A   1      31.068  28.044  24.655  1.00  0.00    -0.364 OA
BRANCH   7   8
ATOM      8  C   UNL A   1      30.310  27.185  23.791  1.00  0.00     0.162 C 
BRANCH   8   9
ATOM      9  C   UNL A   1      30.773  27.147  22.327  1.00  0.00     0.028 C 
BRANCH   9  10
ATOM     10  C   UNL A   1      31.403  25.795  21.946  1.00  0.00     0.002 C 
BRANCH  10  11
ATOM     11  C   UNL A   1      32.691  25.881  21.130  1.00  0.00    -0.003 C 
ATOM     12  C   UNL A   1      32.482  25.555  19.661  1.00  0.00     0.004 C 
ENDBRANCH  10  11
ENDBRANCH   9  10
ENDBRANCH   8   9
ENDBRANCH   7   8
ENDBRANCH   6   7
BRANCH   6  13
ATOM     13  C   UNL A   1      32.908  28.644  26.169  1.00  0.00    -0.010 A 
ATOM     14  C   UNL A   1      32.195  29.767  26.583  1.00  0.00     0.007 A 
ATOM     15  C   UNL A   1      34.181  28.530  26.726  1.00  0.00     0.007 A 
ATOM     16  C   UNL A   1      32.785  30.849  27.238  1.00  0.00     0.000 A 
ATOM     17  C   UNL A   1      34.806  29.597  27.384  1.00  0.00     0.000 A 
ATOM     18  C   UNL A   1      34.120  30.784  27.591  1.00  0.00     0.000 A 
ENDBRANCH   6  13
ENDBRANCH   3   6
ENDBRANCH   1   2
BRANCH   1  19
ATOM     19  C   UNL A   1      34.792  23.699  24.553  1.00  0.00     0.023 C 
BRANCH  19  20
ATOM     20  C   UNL A   1      36.274  23.813  24.842  1.00  0.00     0.023 C 
BRANCH  20  21
ATOM     21  C   UNL A   1      36.700  23.222  26.166  1.00  0.00     0.116 C 
BRANCH  21  22
ATOM     22  N   UNL A   1      37.959  22.487  26.106  1.00  0.00    -0.352 N 
ATOM     23  C   UNL A   1      39.226  22.922  26.430  1.00  0.00     0.251 C 
ATOM     24  H   UNL A   1      37.895  21.555  25.791  1.00  0.00     0.163 HD
ATOM     25  O   UNL A   1      40.201  22.217  26.236  1.00  0.00    -0.269 OA
BRANCH  23  26
ATOM     26  C   UNL A   1      39.365  24.286  26.978  1.00  0.00     0.039 A 
ATOM     27  C   UNL A   1      38.975  24.533  28.295  1.00  0.00     0.014 A 
ATOM     28  C   UNL A   1      40.012  25.266  26.225  1.00  0.00     0.014 A 
ATOM     29  C   UNL A   1      39.322  25.747  28.888  1.00  0.00     0.010 A 
ATOM     30  C   UNL A   1      40.464  26.413  26.855  1.00  0.00     0.010 A 
ATOM     31  C   UNL A   1      40.115  26.673  28.188  1.00  0.00    -0.014 A 
BRANCH  31  32
ATOM     32  C   UNL A   1      40.574  27.939  28.808  1.00  0.00     0.031 A 
ATOM     33  C   UNL A   1      41.976  28.024  29.349  1.00  0.00     0.074 A 
ATOM     34  C   UNL A   1      39.716  28.967  28.965  1.00  0.00     0.049 A 
ATOM     35  N   UNL A   1      42.542  28.989  30.026  1.00  0.00    -0.248 NA
ATOM     36  C   UNL A   1      42.841  26.849  29.144  1.00  0.00     0.031 C 
ATOM     37  C   UNL A   1      38.313  28.981  28.540  1.00  0.00     0.029 A 
ATOM     38  N   UNL A   1      39.899  30.202  29.534  1.00  0.00    -0.354 N 
ATOM     39  C   UNL A   1      43.808  28.520  30.356  1.00  0.00     0.074 A 
ATOM     40  C   UNL A   1      43.905  27.166  29.864  1.00  0.00     0.031 C 
ATOM     41  C   UNL A   1      37.777  30.179  28.829  1.00  0.00     0.029 A 
ATOM     42  C   UNL A   1      38.781  31.002  29.493  1.00  0.00     0.049 A 
ATOM     43  H   UNL A   1      40.752  30.489  29.933  1.00  0.00     0.167 HD
ATOM     44  C   UNL A   1      44.814  29.170  30.986  1.00  0.00     0.031 A 
ATOM     45  C   UNL A   1      38.590  32.258  29.941  1.00  0.00     0.031 A 
ATOM     46  C   UNL A   1      44.728  30.534  31.427  1.00  0.00     0.049 A 
ATOM     47  C   UNL A   1      39.737  32.978  30.596  1.00  0.00     0.074 A 
ATOM     48  C   UNL A   1      45.712  31.314  32.007  1.00  0.00     0.029 A 
ATOM     49  N   UNL A   1      43.594  31.324  31.323  1.00  0.00    -0.354 N 
ATOM     50  N   UNL A   1      40.949  32.541  30.843  1.00  0.00    -0.248 NA
ATOM     51  C   UNL A   1      39.496  34.364  31.020  1.00  0.00     0.031 C 
ATOM     52  C   UNL A   1      45.161  32.569  32.285  1.00  0.00     0.029 A 
ATOM     53  C   UNL A   1      43.849  32.583  31.836  1.00  0.00     0.049 A 
ATOM     54  H   UNL A   1      42.735  31.033  30.939  1.00  0.00     0.167 HD
ATOM     55  C   UNL A   1      41.624  33.607  31.426  1.00  0.00     0.074 A 
ATOM     56  C   UNL A   1      40.689  34.713  31.483  1.00  0.00     0.031 C 
ATOM     57  C   UNL A   1      42.903  33.668  31.872  1.00  0.00     0.031 A 
BRANCH  44  58
ATOM     58  C   UNL A   1      46.092  28.409  31.214  1.00  0.00    -0.014 A 
ATOM     59  C   UNL A   1      46.292  27.666  32.394  1.00  0.00     0.010 A 
ATOM     60  C   UNL A   1      47.101  28.427  30.237  1.00  0.00     0.010 A 
ATOM     61  C   UNL A   1      47.498  26.997  32.612  1.00  0.00     0.020 A 
ATOM     62  C   UNL A   1      48.299  27.734  30.439  1.00  0.00     0.020 A 
ATOM     63  C   UNL A   1      48.496  27.040  31.635  1.00  0.00     0.054 A 
BRANCH  63  64
ATOM     64  S   UNL A   1      50.048  26.150  31.938  1.00  0.00     0.124 S 
ATOM     65  O   UNL A   1      50.588  26.021  30.586  1.00  0.00    -0.237 OA
ATOM     66  O   UNL A   1      50.775  27.061  32.819  1.00  0.00    -0.237 OA
ATOM     67  O   UNL A   1      49.614  24.902  32.557  1.00  0.00    -0.744 OA
ENDBRANCH  63  64
ENDBRANCH  44  58
BRANCH  45  68
ATOM     68  C   UNL A   1      37.275  32.926  29.749  1.00  0.00    -0.014 A 
ATOM     69  C   UNL A   1      36.909  33.422  28.485  1.00  0.00     0.010 A 
ATOM     70  C   UNL A   1      36.374  33.058  30.821  1.00  0.00     0.010 A 
ATOM     71  C   UNL A   1      35.675  34.053  28.299  1.00  0.00     0.020 A 
ATOM     72  C   UNL A   1      35.128  33.667  30.633  1.00  0.00     0.020 A 
ATOM     73  C   UNL A   1      34.792  34.171  29.376  1.00  0.00     0.054 A 
BRANCH  73  74
ATOM     74  S   UNL A   1      33.174  34.947  29.101  1.00  0.00     0.124 S 
ATOM     75  O   UNL A   1      32.562  34.850  30.421  1.00  0.00    -0.237 OA
ATOM     76  O   UNL A   1      33.539  36.295  28.669  1.00  0.00    -0.237 OA
ATOM     77  O   UNL A   1      32.569  34.113  28.065  1.00  0.00    -0.744 OA
ENDBRANCH  73  74
ENDBRANCH  45  68
BRANCH  57  78
ATOM     78  C   UNL A   1      43.379  34.981  32.427  1.00  0.00    -0.014 A 
ATOM     79  C   UNL A   1      43.478  35.192  33.813  1.00  0.00     0.010 A 
ATOM     80  C   UNL A   1      43.802  35.991  31.543  1.00  0.00     0.010 A 
ATOM     81  C   UNL A   1      43.969  36.403  34.307  1.00  0.00     0.020 A 
ATOM     82  C   UNL A   1      44.316  37.193  32.033  1.00  0.00     0.020 A 
ATOM     83  C   UNL A   1      44.386  37.396  33.413  1.00  0.00     0.054 A 
BRANCH  83  84
ATOM     84  S   UNL A   1      45.071  38.938  34.077  1.00  0.00     0.124 S 
ATOM     85  O   UNL A   1      43.865  39.717  34.338  1.00  0.00    -0.237 OA
ATOM     86  O   UNL A   1      45.795  38.484  35.262  1.00  0.00    -0.237 OA
ATOM     87  O   UNL A   1      45.914  39.436  32.993  1.00  0.00    -0.744 OA
ENDBRANCH  83  84
ENDBRANCH  57  78
ENDBRANCH  31  32
ENDBRANCH  23  26
ENDBRANCH  21  22
ENDBRANCH  20  21
ENDBRANCH  19  20
ENDBRANCH   1  19
TORSDOF 20
ENDMDL
MODEL 3
REMARK VINA RESULT:     -10.4      2.668      9.030
REMARK SMILES CCCCCO[C@H](C(=O)NCCCCNC(=O)c1ccc(-c2c3nc(c(-c4ccc(S(=O)(=O)[O-])cc4)c4ccc([nH]4)c(-c4ccc(S(=O)(=O)[O-])cc4)c4nc(c(-c5ccc(S(=O)(=O)[O-])cc5)c5ccc2[nH]5)C=C4)C=C3)cc1)c1ccccc1
REMARK SMILES IDX 11 1 10 2 8 3 9 4 7 6 6 7 5 8 4 9 3 10 2 11 1 12 78 13 79 14
REMARK SMILES IDX 83 15 80 16 82 17 81 18 12 19 13 20 14 21 15 22 16 23 17 25
REMARK SMILES IDX 18 26 19 27 77 28 20 29 76 30 21 31 22 32 23 33 70 34 24 35
REMARK SMILES IDX 75 36 69 37 71 38 25 39 74 40 68 41 67 42 26 44 56 45 37 46
REMARK SMILES IDX 55 47 38 48 41 49 54 50 72 51 39 52 40 53 53 55 73 56 42 57
REMARK SMILES IDX 27 58 28 59 36 60 29 61 35 62 30 63 31 64 32 65 33 66 34 67
REMARK SMILES IDX 57 68 58 69 66 70 59 71 65 72 60 73 61 74 62 75 63 76 64 77
REMARK SMILES IDX 43 78 44 79 52 80 45 81 51 82 46 83 47 84 48 85 49 86 50 87
REMARK H PARENT 10 5 15 24 71 43 41 54
REMARK Flexibility Score: inf
ROOT
ATOM      1  C   UNL A   1      37.425  22.014  25.650  1.00  0.00     0.116 C 
ENDROOT
BRANCH   1   2
ATOM      2  N   UNL A   1      36.110  21.890  26.241  1.00  0.00    -0.354 N 
ATOM      3  C   UNL A   1      35.154  22.860  26.422  1.00  0.00     0.253 C 
ATOM      4  O   UNL A   1      34.435  22.700  27.415  1.00  0.00    -0.272 OA
ATOM      5  H   UNL A   1      35.867  20.988  26.555  1.00  0.00     0.163 HD
BRANCH   3   6
ATOM      6  C   UNL A   1      34.936  24.031  25.372  1.00  0.00     0.237 C 
BRANCH   6   7
ATOM      7  O   UNL A   1      34.841  23.637  23.982  1.00  0.00    -0.364 OA
BRANCH   7   8
ATOM      8  C   UNL A   1      34.007  22.532  23.605  1.00  0.00     0.162 C 
BRANCH   8   9
ATOM      9  C   UNL A   1      32.908  22.854  22.582  1.00  0.00     0.028 C 
BRANCH   9  10
ATOM     10  C   UNL A   1      32.890  24.342  22.189  1.00  0.00     0.002 C 
BRANCH  10  11
ATOM     11  C   UNL A   1      31.638  25.112  22.602  1.00  0.00    -0.003 C 
ATOM     12  C   UNL A   1      31.661  26.563  22.150  1.00  0.00     0.004 C 
ENDBRANCH  10  11
ENDBRANCH   9  10
ENDBRANCH   8   9
ENDBRANCH   7   8
ENDBRANCH   6   7
BRANCH   6  13
ATOM     13  C   UNL A   1      33.808  25.017  25.733  1.00  0.00    -0.010 A 
ATOM     14  C   UNL A   1      32.565  24.600  26.203  1.00  0.00     0.007 A 
ATOM     15  C   UNL A   1      33.973  26.401  25.683  1.00  0.00     0.007 A 
ATOM     16  C   UNL A   1      31.466  25.453  26.319  1.00  0.00     0.000 A 
ATOM     17  C   UNL A   1      32.892  27.285  25.788  1.00  0.00     0.000 A 
ATOM     18  C   UNL A   1      31.621  26.801  26.053  1.00  0.00     0.000 A 
ENDBRANCH   6  13
ENDBRANCH   3   6
ENDBRANCH   1   2
BRANCH   1  19
ATOM     19  C   UNL A   1      37.695  20.803  24.741  1.00  0.00     0.023 C 
BRANCH  19  20
ATOM     20  C   UNL A   1      38.551  19.697  25.320  1.00  0.00     0.023 C 
BRANCH  20  21
ATOM     21  C   UNL A   1      39.650  20.174  26.242  1.00  0.00     0.116 C 
BRANCH  21  22
ATOM     22  N   UNL A   1      40.914  19.465  26.069  1.00  0.00    -0.352 N 
ATOM     23  C   UNL A   1      42.197  19.963  26.142  1.00  0.00     0.251 C 
ATOM     24  H   UNL A   1      40.840  18.502  25.873  1.00  0.00     0.163 HD
ATOM     25  O   UNL A   1      43.159  19.262  25.879  1.00  0.00    -0.269 OA
BRANCH  23  26
ATOM     26  C   UNL A   1      42.363  21.384  26.508  1.00  0.00     0.039 A 
ATOM     27  C   UNL A   1      42.676  21.715  27.826  1.00  0.00     0.014 A 
ATOM     28  C   UNL A   1      42.345  22.357  25.508  1.00  0.00     0.014 A 
ATOM     29  C   UNL A   1      43.065  23.022  28.123  1.00  0.00     0.010 A 
ATOM     30  C   UNL A   1      42.853  23.615  25.781  1.00  0.00     0.010 A 
ATOM     31  C   UNL A   1      43.207  23.966  27.092  1.00  0.00    -0.014 A 
BRANCH  31  32
ATOM     32  C   UNL A   1      43.695  25.343  27.351  1.00  0.00     0.031 A 
ATOM     33  C   UNL A   1      45.139  25.671  27.081  1.00  0.00     0.074 A 
ATOM     34  C   UNL A   1      42.876  26.259  27.905  1.00  0.00     0.049 A 
ATOM     35  N   UNL A   1      45.797  26.770  27.341  1.00  0.00    -0.248 NA
ATOM     36  C   UNL A   1      45.964  24.605  26.486  1.00  0.00     0.031 C 
ATOM     37  C   UNL A   1      41.474  26.040  28.273  1.00  0.00     0.029 A 
ATOM     38  N   UNL A   1      43.110  27.562  28.265  1.00  0.00    -0.354 N 
ATOM     39  C   UNL A   1      47.113  26.512  26.977  1.00  0.00     0.074 A 
ATOM     40  C   UNL A   1      47.175  25.137  26.540  1.00  0.00     0.031 C 
ATOM     41  C   UNL A   1      40.965  27.181  28.769  1.00  0.00     0.029 A 
ATOM     42  C   UNL A   1      42.011  28.197  28.793  1.00  0.00     0.049 A 
ATOM     43  H   UNL A   1      43.985  28.001  28.156  1.00  0.00     0.167 HD
ATOM     44  C   UNL A   1      48.172  27.354  26.975  1.00  0.00     0.031 A 
ATOM     45  C   UNL A   1      41.865  29.458  29.243  1.00  0.00     0.031 A 
ATOM     46  C   UNL A   1      48.093  28.735  27.362  1.00  0.00     0.049 A 
ATOM     47  C   UNL A   1      43.043  30.391  29.187  1.00  0.00     0.074 A 
ATOM     48  C   UNL A   1      49.086  29.697  27.326  1.00  0.00     0.029 A 
ATOM     49  N   UNL A   1      46.949  29.351  27.843  1.00  0.00    -0.354 N 
ATOM     50  N   UNL A   1      44.266  30.148  28.778  1.00  0.00    -0.248 NA
ATOM     51  C   UNL A   1      42.821  31.771  29.640  1.00  0.00     0.031 C 
ATOM     52  C   UNL A   1      48.549  30.891  27.819  1.00  0.00     0.029 A 
ATOM     53  C   UNL A   1      47.211  30.681  28.117  1.00  0.00     0.049 A 
ATOM     54  H   UNL A   1      46.078  28.909  27.970  1.00  0.00     0.167 HD
ATOM     55  C   UNL A   1      44.951  31.351  28.899  1.00  0.00     0.074 A 
ATOM     56  C   UNL A   1      44.003  32.323  29.407  1.00  0.00     0.031 C 
ATOM     57  C   UNL A   1      46.247  31.629  28.614  1.00  0.00     0.031 A 
BRANCH  44  58
ATOM     58  C   UNL A   1      49.496  26.798  26.524  1.00  0.00    -0.014 A 
ATOM     59  C   UNL A   1      49.891  26.872  25.174  1.00  0.00     0.010 A 
ATOM     60  C   UNL A   1      50.361  26.205  27.460  1.00  0.00     0.010 A 
ATOM     61  C   UNL A   1      51.104  26.315  24.762  1.00  0.00     0.020 A 
ATOM     62  C   UNL A   1      51.589  25.674  27.055  1.00  0.00     0.020 A 
ATOM     63  C   UNL A   1      51.943  25.715  25.705  1.00  0.00     0.054 A 
BRANCH  63  64
ATOM     64  S   UNL A   1      53.519  25.014  25.144  1.00  0.00     0.124 S 
ATOM     65  O   UNL A   1      54.448  25.521  26.152  1.00  0.00    -0.237 OA
ATOM     66  O   UNL A   1      53.267  23.576  25.190  1.00  0.00    -0.237 OA
ATOM     67  O   UNL A   1      53.688  25.571  23.805  1.00  0.00    -0.744 OA
ENDBRANCH  63  64
ENDBRANCH  44  58
BRANCH  45  68
ATOM     68  C   UNL A   1      40.543  29.922  29.746  1.00  0.00    -0.014 A 
ATOM     69  C   UNL A   1      39.530  30.290  28.844  1.00  0.00     0.010 A 
ATOM     70  C   UNL A   1      40.284  29.983  31.127  1.00  0.00     0.010 A 
ATOM     71  C   UNL A   1      38.287  30.728  29.311  1.00  0.00     0.020 A 
ATOM     72  C   UNL A   1      39.033  30.397  31.598  1.00  0.00     0.020 A 
ATOM     73  C   UNL A   1      38.046  30.779  30.688  1.00  0.00     0.054 A 
BRANCH  73  74
ATOM     74  S   UNL A   1      36.409  31.301  31.272  1.00  0.00     0.124 S 
ATOM     75  O   UNL A   1      36.009  30.171  32.103  1.00  0.00    -0.237 OA
ATOM     76  O   UNL A   1      36.709  32.539  31.988  1.00  0.00    -0.237 OA
ATOM     77  O   UNL A   1      35.647  31.474  30.037  1.00  0.00    -0.744 OA
ENDBRANCH  73  74
ENDBRANCH  45  68
BRANCH  57  78
ATOM     78  C   UNL A   1      46.708  33.047  28.806  1.00  0.00    -0.014 A 
ATOM     79  C   UNL A   1      47.285  33.465  30.018  1.00  0.00     0.010 A 
ATOM     80  C   UNL A   1      46.628  33.951  27.732  1.00  0.00     0.010 A 
ATOM     81  C   UNL A   1      47.751  34.774  30.160  1.00  0.00     0.020 A 
ATOM     82  C   UNL A   1      47.115  35.253  27.862  1.00  0.00     0.020 A 
ATOM     83  C   UNL A   1      47.663  35.659  29.080  1.00  0.00     0.054 A 
BRANCH  83  84
ATOM     84  S   UNL A   1      48.325  37.337  29.270  1.00  0.00     0.124 S 
ATOM     85  O   UNL A   1      49.383  37.361  28.265  1.00  0.00    -0.237 OA
ATOM     86  O   UNL A   1      47.164  38.176  28.982  1.00  0.00    -0.237 OA
ATOM     87  O   UNL A   1      48.782  37.373  30.657  1.00  0.00    -0.744 OA
ENDBRANCH  83  84
ENDBRANCH  57  78
ENDBRANCH  31  32
ENDBRANCH  23  26
ENDBRANCH  21  22
ENDBRANCH  20  21
ENDBRANCH  19  20
ENDBRANCH   1  19
TORSDOF 20
ENDMDL
