MODEL 1
REMARK VINA RESULT:     -10.4      0.000      0.000
REMARK SMILES CCCc1cc(OC(F)(F)F)cc2c1O[C@@H](C(F)(F)F)C(C(=O)NCCCCNC(=O)c1ccc(-c3c4nc(c(-c5ccc(S(=O)(=O)[O-])cc5)c5ccc([nH]5)c(-c5ccc(S(=O)(=O)[O-])cc5)c5nc(c(-c6ccc(S(=O)(=O)[O-])cc6)c6ccc3[nH]6)C=C5)C=C4)cc1)=C2
REMARK SMILES IDX 27 1 26 2 25 3 24 4 22 5 23 6 21 8 4 9 5 10 14 11 6 12 13 13
REMARK SMILES IDX 15 14 12 15 92 16 16 17 3 18 2 19 1 20 7 21 8 22 9 23 10 24
REMARK SMILES IDX 11 25 17 26 18 27 19 28 20 29 28 30 29 31 30 32 31 34 32 35
REMARK SMILES IDX 33 36 91 37 34 38 90 39 35 40 36 41 37 42 84 43 38 44 89 45
REMARK SMILES IDX 83 46 85 47 39 48 88 49 82 50 81 51 40 53 70 54 51 55 69 56
REMARK SMILES IDX 52 57 55 58 68 59 86 60 53 61 54 62 67 64 87 65 56 66 41 67
REMARK SMILES IDX 42 68 50 69 43 70 49 71 44 72 45 73 46 74 47 75 48 76 71 77
REMARK SMILES IDX 72 78 80 79 73 80 79 81 74 82 75 83 76 84 77 85 78 86 57 87
REMARK SMILES IDX 58 88 66 89 59 90 65 91 60 92 61 93 62 94 63 95 64 96
REMARK H PARENT 24 7 29 33 85 52 55 63
REMARK Flexibility Score: inf
ROOT
ATOM      1  C   UNL A   1      35.487  23.873  25.683  1.00  0.00     0.023 C 
ENDROOT
BRANCH   1   2
ATOM      2  C   UNL A   1      35.196  22.547  26.391  1.00  0.00     0.023 C 
BRANCH   2   3
ATOM      3  C   UNL A   1      34.027  22.610  27.383  1.00  0.00     0.116 C 
BRANCH   3   4
ATOM      4  N   UNL A   1      32.830  22.052  26.774  1.00  0.00    -0.352 N 
ATOM      5  C   UNL A   1      31.760  22.621  26.155  1.00  0.00     0.251 C 
ATOM      6  O   UNL A   1      30.797  21.904  25.893  1.00  0.00    -0.270 OA
ATOM      7  H   UNL A   1      32.784  21.069  26.820  1.00  0.00     0.163 HD
BRANCH   5   8
ATOM      8  C   UNL A   1      31.744  24.042  25.712  1.00  0.00     0.067 C 
ATOM      9  C   UNL A   1      32.313  27.940  24.218  1.00  0.00    -0.002 A 
ATOM     10  C   UNL A   1      32.653  28.943  25.145  1.00  0.00     0.054 A 
ATOM     11  C   UNL A   1      32.024  26.651  24.698  1.00  0.00     0.131 A 
ATOM     12  C   UNL A   1      32.595  28.716  26.519  1.00  0.00     0.130 A 
ATOM     13  C   UNL A   1      32.001  26.411  26.071  1.00  0.00     0.021 A 
ATOM     14  O   UNL A   1      31.857  25.649  23.787  1.00  0.00    -0.475 OA
ATOM     15  C   UNL A   1      32.264  27.445  26.976  1.00  0.00     0.058 A 
ATOM     16  C   UNL A   1      31.833  25.061  26.574  1.00  0.00     0.025 C 
ATOM     17  C   UNL A   1      31.478  24.311  24.235  1.00  0.00     0.314 C 
BRANCH   9  18
ATOM     18  C   UNL A   1      32.324  28.264  22.737  1.00  0.00     0.039 C 
BRANCH  18  19
ATOM     19  C   UNL A   1      31.144  29.123  22.249  1.00  0.00     0.001 C 
ATOM     20  C   UNL A   1      29.762  28.580  22.593  1.00  0.00     0.004 C 
ENDBRANCH  18  19
ENDBRANCH   9  18
BRANCH  12  21
ATOM     21  O   UNL A   1      32.873  29.626  27.498  1.00  0.00    -0.406 OA
BRANCH  21  22
ATOM     22  C   UNL A   1      34.167  30.204  27.494  1.00  0.00     0.573 C 
ATOM     23  F   UNL A   1      34.594  30.447  28.752  1.00  0.00    -0.132 F 
ATOM     24  F   UNL A   1      35.059  29.409  26.863  1.00  0.00    -0.132 F 
ATOM     25  F   UNL A   1      34.116  31.381  26.834  1.00  0.00    -0.132 F 
ENDBRANCH  21  22
ENDBRANCH  12  21
BRANCH  17  26
ATOM     26  C   UNL A   1      32.065  23.305  23.216  1.00  0.00     0.429 C 
ATOM     27  F   UNL A   1      33.108  22.602  23.710  1.00  0.00    -0.167 F 
ATOM     28  F   UNL A   1      31.135  22.369  22.876  1.00  0.00    -0.167 F 
ATOM     29  F   UNL A   1      32.456  23.899  22.066  1.00  0.00    -0.167 F 
ENDBRANCH  17  26
ENDBRANCH   5   8
ENDBRANCH   3   4
ENDBRANCH   2   3
ENDBRANCH   1   2
BRANCH   1  30
ATOM     30  C   UNL A   1      36.797  23.902  24.907  1.00  0.00     0.116 C 
BRANCH  30  31
ATOM     31  N   UNL A   1      37.685  22.805  25.256  1.00  0.00    -0.352 N 
ATOM     32  C   UNL A   1      38.834  22.837  26.008  1.00  0.00     0.251 C 
ATOM     33  H   UNL A   1      37.428  21.922  24.906  1.00  0.00     0.163 HD
ATOM     34  O   UNL A   1      39.537  21.840  26.090  1.00  0.00    -0.269 OA
BRANCH  32  35
ATOM     35  C   UNL A   1      39.224  24.092  26.685  1.00  0.00     0.039 A 
ATOM     36  C   UNL A   1      38.803  24.303  27.998  1.00  0.00     0.014 A 
ATOM     37  C   UNL A   1      40.007  25.048  26.033  1.00  0.00     0.014 A 
ATOM     38  C   UNL A   1      39.202  25.458  28.672  1.00  0.00     0.010 A 
ATOM     39  C   UNL A   1      40.474  26.156  26.733  1.00  0.00     0.010 A 
ATOM     40  C   UNL A   1      40.062  26.382  28.054  1.00  0.00    -0.014 A 
BRANCH  40  41
ATOM     41  C   UNL A   1      40.516  27.597  28.776  1.00  0.00     0.031 A 
ATOM     42  C   UNL A   1      41.898  27.651  29.371  1.00  0.00     0.074 A 
ATOM     43  C   UNL A   1      39.673  28.638  28.916  1.00  0.00     0.049 A 
ATOM     44  N   UNL A   1      42.477  28.631  30.016  1.00  0.00    -0.248 NA
ATOM     45  C   UNL A   1      42.728  26.442  29.248  1.00  0.00     0.031 C 
ATOM     46  C   UNL A   1      38.293  28.683  28.429  1.00  0.00     0.029 A 
ATOM     47  N   UNL A   1      39.857  29.864  29.504  1.00  0.00    -0.354 N 
ATOM     48  C   UNL A   1      43.731  28.154  30.382  1.00  0.00     0.074 A 
ATOM     49  C   UNL A   1      43.805  26.779  29.943  1.00  0.00     0.031 C 
ATOM     50  C   UNL A   1      37.770  29.890  28.699  1.00  0.00     0.029 A 
ATOM     51  C   UNL A   1      38.761  30.690  29.410  1.00  0.00     0.049 A 
ATOM     52  H   UNL A   1      40.694  30.128  29.950  1.00  0.00     0.167 HD
ATOM     53  C   UNL A   1      44.741  28.809  31.002  1.00  0.00     0.031 A 
ATOM     54  C   UNL A   1      38.578  31.952  29.845  1.00  0.00     0.031 A 
ATOM     55  C   UNL A   1      44.664  30.181  31.430  1.00  0.00     0.049 A 
ATOM     56  C   UNL A   1      39.713  32.657  30.534  1.00  0.00     0.074 A 
ATOM     57  C   UNL A   1      45.649  30.956  32.018  1.00  0.00     0.029 A 
ATOM     58  N   UNL A   1      43.537  30.982  31.321  1.00  0.00    -0.354 N 
ATOM     59  N   UNL A   1      40.920  32.214  30.801  1.00  0.00    -0.248 NA
ATOM     60  C   UNL A   1      39.467  34.039  30.966  1.00  0.00     0.031 C 
ATOM     61  C   UNL A   1      45.099  32.207  32.319  1.00  0.00     0.029 A 
ATOM     62  C   UNL A   1      43.793  32.234  31.856  1.00  0.00     0.049 A 
ATOM     63  H   UNL A   1      42.682  30.703  30.921  1.00  0.00     0.167 HD
ATOM     64  C   UNL A   1      41.584  33.273  31.411  1.00  0.00     0.074 A 
ATOM     65  C   UNL A   1      40.652  34.383  31.449  1.00  0.00     0.031 C 
ATOM     66  C   UNL A   1      42.849  33.323  31.898  1.00  0.00     0.031 A 
BRANCH  53  67
ATOM     67  C   UNL A   1      46.015  28.045  31.258  1.00  0.00    -0.014 A 
ATOM     68  C   UNL A   1      46.189  27.293  32.435  1.00  0.00     0.010 A 
ATOM     69  C   UNL A   1      47.041  28.050  30.295  1.00  0.00     0.010 A 
ATOM     70  C   UNL A   1      47.379  26.598  32.664  1.00  0.00     0.020 A 
ATOM     71  C   UNL A   1      48.220  27.329  30.504  1.00  0.00     0.020 A 
ATOM     72  C   UNL A   1      48.388  26.621  31.697  1.00  0.00     0.054 A 
BRANCH  72  73
ATOM     73  S   UNL A   1      49.912  25.688  32.010  1.00  0.00     0.124 S 
ATOM     74  O   UNL A   1      50.140  25.044  30.719  1.00  0.00    -0.237 OA
ATOM     75  O   UNL A   1      50.862  26.740  32.362  1.00  0.00    -0.237 OA
ATOM     76  O   UNL A   1      49.550  24.786  33.099  1.00  0.00    -0.744 OA
ENDBRANCH  72  73
ENDBRANCH  53  67
BRANCH  54  77
ATOM     77  C   UNL A   1      37.274  32.635  29.619  1.00  0.00    -0.014 A 
ATOM     78  C   UNL A   1      36.304  32.685  30.636  1.00  0.00     0.010 A 
ATOM     79  C   UNL A   1      36.997  33.246  28.381  1.00  0.00     0.010 A 
ATOM     80  C   UNL A   1      35.075  33.315  30.414  1.00  0.00     0.020 A 
ATOM     81  C   UNL A   1      35.783  33.904  28.166  1.00  0.00     0.020 A 
ATOM     82  C   UNL A   1      34.824  33.923  29.181  1.00  0.00     0.054 A 
BRANCH  82  83
ATOM     83  S   UNL A   1      33.241  34.774  28.932  1.00  0.00     0.124 S 
ATOM     84  O   UNL A   1      32.591  33.923  27.942  1.00  0.00    -0.237 OA
ATOM     85  O   UNL A   1      32.657  34.749  30.272  1.00  0.00    -0.237 OA
ATOM     86  O   UNL A   1      33.637  36.099  28.458  1.00  0.00    -0.744 OA
ENDBRANCH  82  83
ENDBRANCH  54  77
BRANCH  66  87
ATOM     87  C   UNL A   1      43.305  34.631  32.492  1.00  0.00    -0.014 A 
ATOM     88  C   UNL A   1      43.167  34.897  33.866  1.00  0.00     0.010 A 
ATOM     89  C   UNL A   1      43.900  35.600  31.664  1.00  0.00     0.010 A 
ATOM     90  C   UNL A   1      43.568  36.129  34.391  1.00  0.00     0.020 A 
ATOM     91  C   UNL A   1      44.335  36.819  32.190  1.00  0.00     0.020 A 
ATOM     92  C   UNL A   1      44.145  37.084  33.548  1.00  0.00     0.054 A 
BRANCH  92  93
ATOM     93  S   UNL A   1      44.666  38.670  34.255  1.00  0.00     0.124 S 
ATOM     94  O   UNL A   1      44.935  38.308  35.643  1.00  0.00    -0.237 OA
ATOM     95  O   UNL A   1      45.839  39.009  33.454  1.00  0.00    -0.237 OA
ATOM     96  O   UNL A   1      43.508  39.539  34.051  1.00  0.00    -0.744 OA
ENDBRANCH  92  93
ENDBRANCH  66  87
ENDBRANCH  40  41
ENDBRANCH  32  35
ENDBRANCH  30  31
ENDBRANCH   1  30
TORSDOF 19
ENDMDL
MODEL 2
REMARK VINA RESULT:     -10.2      3.348      4.006
REMARK SMILES CCCc1cc(OC(F)(F)F)cc2c1O[C@@H](C(F)(F)F)C(C(=O)NCCCCNC(=O)c1ccc(-c3c4nc(c(-c5ccc(S(=O)(=O)[O-])cc5)c5ccc([nH]5)c(-c5ccc(S(=O)(=O)[O-])cc5)c5nc(c(-c6ccc(S(=O)(=O)[O-])cc6)c6ccc3[nH]6)C=C5)C=C4)cc1)=C2
REMARK SMILES IDX 27 1 26 2 25 3 24 4 22 5 23 6 21 8 4 9 5 10 14 11 6 12 13 13
REMARK SMILES IDX 15 14 12 15 92 16 16 17 3 18 2 19 1 20 7 21 8 22 9 23 10 24
REMARK SMILES IDX 11 25 17 26 18 27 19 28 20 29 28 30 29 31 30 32 31 34 32 35
REMARK SMILES IDX 33 36 91 37 34 38 90 39 35 40 36 41 37 42 84 43 38 44 89 45
REMARK SMILES IDX 83 46 85 47 39 48 88 49 82 50 81 51 40 53 70 54 51 55 69 56
REMARK SMILES IDX 52 57 55 58 68 59 86 60 53 61 54 62 67 64 87 65 56 66 41 67
REMARK SMILES IDX 42 68 50 69 43 70 49 71 44 72 45 73 46 74 47 75 48 76 71 77
REMARK SMILES IDX 72 78 80 79 73 80 79 81 74 82 75 83 76 84 77 85 78 86 57 87
REMARK SMILES IDX 58 88 66 89 59 90 65 91 60 92 61 93 62 94 63 95 64 96
REMARK H PARENT 24 7 29 33 85 52 55 63
REMARK Flexibility Score: inf
ROOT
ATOM      1  C   UNL A   1      37.556  23.794  25.612  1.00  0.00     0.023 C 
ENDROOT
BRANCH   1   2
ATOM      2  C   UNL A   1      36.257  23.170  26.130  1.00  0.00     0.023 C 
BRANCH   2   3
ATOM      3  C   UNL A   1      35.060  24.130  26.133  1.00  0.00     0.116 C 
BRANCH   3   4
ATOM      4  N   UNL A   1      33.818  23.373  26.127  1.00  0.00    -0.352 N 
ATOM      5  C   UNL A   1      32.510  23.748  26.143  1.00  0.00     0.251 C 
ATOM      6  O   UNL A   1      31.663  22.876  26.315  1.00  0.00    -0.270 OA
ATOM      7  H   UNL A   1      33.949  22.397  26.108  1.00  0.00     0.163 HD
BRANCH   5   8
ATOM      8  C   UNL A   1      32.067  25.144  25.878  1.00  0.00     0.067 C 
ATOM      9  C   UNL A   1      31.284  29.100  24.657  1.00  0.00    -0.002 A 
ATOM     10  C   UNL A   1      31.793  30.137  25.463  1.00  0.00     0.054 A 
ATOM     11  C   UNL A   1      31.447  27.773  25.088  1.00  0.00     0.131 A 
ATOM     12  C   UNL A   1      32.341  29.882  26.718  1.00  0.00     0.130 A 
ATOM     13  C   UNL A   1      32.029  27.512  26.328  1.00  0.00     0.021 A 
ATOM     14  O   UNL A   1      31.100  26.772  24.229  1.00  0.00    -0.475 OA
ATOM     15  C   UNL A   1      32.454  28.564  27.146  1.00  0.00     0.058 A 
ATOM     16  C   UNL A   1      32.320  26.148  26.727  1.00  0.00     0.025 C 
ATOM     17  C   UNL A   1      31.178  25.377  24.662  1.00  0.00     0.314 C 
BRANCH   9  18
ATOM     18  C   UNL A   1      30.633  29.442  23.332  1.00  0.00     0.039 C 
BRANCH  18  19
ATOM     19  C   UNL A   1      29.097  29.539  23.366  1.00  0.00     0.001 C 
ATOM     20  C   UNL A   1      28.540  30.953  23.478  1.00  0.00     0.004 C 
ENDBRANCH  18  19
ENDBRANCH   9  18
BRANCH  12  21
ATOM     21  O   UNL A   1      32.831  30.814  27.587  1.00  0.00    -0.406 OA
BRANCH  21  22
ATOM     22  C   UNL A   1      34.239  30.956  27.656  1.00  0.00     0.573 C 
ATOM     23  F   UNL A   1      34.628  32.168  27.205  1.00  0.00    -0.132 F 
ATOM     24  F   UNL A   1      34.690  30.780  28.917  1.00  0.00    -0.132 F 
ATOM     25  F   UNL A   1      34.810  30.015  26.872  1.00  0.00    -0.132 F 
ENDBRANCH  21  22
ENDBRANCH  12  21
BRANCH  17  26
ATOM     26  C   UNL A   1      31.463  24.524  23.403  1.00  0.00     0.429 C 
ATOM     27  F   UNL A   1      31.193  25.176  22.251  1.00  0.00    -0.167 F 
ATOM     28  F   UNL A   1      32.787  24.207  23.329  1.00  0.00    -0.167 F 
ATOM     29  F   UNL A   1      30.784  23.355  23.403  1.00  0.00    -0.167 F 
ENDBRANCH  17  26
ENDBRANCH   5   8
ENDBRANCH   3   4
ENDBRANCH   2   3
ENDBRANCH   1   2
BRANCH   1  30
ATOM     30  C   UNL A   1      38.632  23.987  26.672  1.00  0.00     0.116 C 
BRANCH  30  31
ATOM     31  N   UNL A   1      39.975  24.015  26.116  1.00  0.00    -0.352 N 
ATOM     32  C   UNL A   1      41.031  24.822  26.463  1.00  0.00     0.251 C 
ATOM     33  H   UNL A   1      40.151  23.368  25.397  1.00  0.00     0.163 HD
ATOM     34  O   UNL A   1      42.056  24.805  25.797  1.00  0.00    -0.269 OA
BRANCH  32  35
ATOM     35  C   UNL A   1      40.901  25.730  27.622  1.00  0.00     0.039 A 
ATOM     36  C   UNL A   1      41.828  26.764  27.770  1.00  0.00     0.014 A 
ATOM     37  C   UNL A   1      39.869  25.571  28.550  1.00  0.00     0.014 A 
ATOM     38  C   UNL A   1      41.693  27.662  28.828  1.00  0.00     0.010 A 
ATOM     39  C   UNL A   1      39.687  26.516  29.554  1.00  0.00     0.010 A 
ATOM     40  C   UNL A   1      40.607  27.561  29.715  1.00  0.00    -0.014 A 
BRANCH  40  41
ATOM     41  C   UNL A   1      40.440  28.532  30.825  1.00  0.00     0.031 A 
ATOM     42  C   UNL A   1      41.297  28.425  32.058  1.00  0.00     0.074 A 
ATOM     43  C   UNL A   1      39.501  29.493  30.731  1.00  0.00     0.049 A 
ATOM     44  N   UNL A   1      41.311  29.192  33.118  1.00  0.00    -0.248 NA
ATOM     45  C   UNL A   1      42.243  27.299  32.122  1.00  0.00     0.031 C 
ATOM     46  C   UNL A   1      38.575  29.666  29.609  1.00  0.00     0.029 A 
ATOM     47  N   UNL A   1      39.173  30.511  31.590  1.00  0.00    -0.354 N 
ATOM     48  C   UNL A   1      42.256  28.637  33.974  1.00  0.00     0.074 A 
ATOM     49  C   UNL A   1      42.748  27.435  33.339  1.00  0.00     0.031 C 
ATOM     50  C   UNL A   1      37.815  30.751  29.829  1.00  0.00     0.029 A 
ATOM     51  C   UNL A   1      38.171  31.327  31.121  1.00  0.00     0.049 A 
ATOM     52  H   UNL A   1      39.613  30.644  32.460  1.00  0.00     0.167 HD
ATOM     53  C   UNL A   1      42.696  29.099  35.169  1.00  0.00     0.031 A 
ATOM     54  C   UNL A   1      37.605  32.421  31.668  1.00  0.00     0.031 A 
ATOM     55  C   UNL A   1      42.208  30.300  35.793  1.00  0.00     0.049 A 
ATOM     56  C   UNL A   1      38.108  32.912  32.997  1.00  0.00     0.074 A 
ATOM     57  C   UNL A   1      42.625  30.886  36.976  1.00  0.00     0.029 A 
ATOM     58  N   UNL A   1      41.191  31.097  35.289  1.00  0.00    -0.354 N 
ATOM     59  N   UNL A   1      39.059  32.417  33.755  1.00  0.00    -0.248 NA
ATOM     60  C   UNL A   1      37.473  34.122  33.538  1.00  0.00     0.031 C 
ATOM     61  C   UNL A   1      41.820  32.005  37.216  1.00  0.00     0.029 A 
ATOM     62  C   UNL A   1      40.947  32.154  36.150  1.00  0.00     0.049 A 
ATOM     63  H   UNL A   1      40.714  30.936  34.443  1.00  0.00     0.167 HD
ATOM     64  C   UNL A   1      39.151  33.269  34.851  1.00  0.00     0.074 A 
ATOM     65  C   UNL A   1      38.179  34.323  34.641  1.00  0.00     0.031 C 
ATOM     66  C   UNL A   1      39.965  33.187  35.933  1.00  0.00     0.031 A 
BRANCH  53  67
ATOM     67  C   UNL A   1      43.757  28.297  35.880  1.00  0.00    -0.014 A 
ATOM     68  C   UNL A   1      43.413  27.264  36.772  1.00  0.00     0.010 A 
ATOM     69  C   UNL A   1      45.116  28.556  35.629  1.00  0.00     0.010 A 
ATOM     70  C   UNL A   1      44.407  26.536  37.431  1.00  0.00     0.020 A 
ATOM     71  C   UNL A   1      46.114  27.808  36.260  1.00  0.00     0.020 A 
ATOM     72  C   UNL A   1      45.752  26.814  37.172  1.00  0.00     0.054 A 
BRANCH  72  73
ATOM     73  S   UNL A   1      47.020  25.836  38.023  1.00  0.00     0.124 S 
ATOM     74  O   UNL A   1      47.234  24.739  37.084  1.00  0.00    -0.237 OA
ATOM     75  O   UNL A   1      48.125  26.783  38.144  1.00  0.00    -0.237 OA
ATOM     76  O   UNL A   1      46.383  25.461  39.283  1.00  0.00    -0.744 OA
ENDBRANCH  72  73
ENDBRANCH  53  67
BRANCH  54  77
ATOM     77  C   UNL A   1      36.516  33.136  30.948  1.00  0.00    -0.014 A 
ATOM     78  C   UNL A   1      36.787  33.856  29.770  1.00  0.00     0.010 A 
ATOM     79  C   UNL A   1      35.196  33.094  31.434  1.00  0.00     0.010 A 
ATOM     80  C   UNL A   1      35.763  34.539  29.105  1.00  0.00     0.020 A 
ATOM     81  C   UNL A   1      34.165  33.749  30.755  1.00  0.00     0.020 A 
ATOM     82  C   UNL A   1      34.458  34.478  29.601  1.00  0.00     0.054 A 
BRANCH  82  83
ATOM     83  S   UNL A   1      33.138  35.333  28.695  1.00  0.00     0.124 S 
ATOM     84  O   UNL A   1      32.372  35.941  29.777  1.00  0.00    -0.237 OA
ATOM     85  O   UNL A   1      33.887  36.259  27.849  1.00  0.00    -0.237 OA
ATOM     86  O   UNL A   1      32.462  34.253  27.977  1.00  0.00    -0.744 OA
ENDBRANCH  82  83
ENDBRANCH  54  77
BRANCH  66  87
ATOM     87  C   UNL A   1      39.852  34.283  36.962  1.00  0.00    -0.014 A 
ATOM     88  C   UNL A   1      40.559  35.491  36.823  1.00  0.00     0.010 A 
ATOM     89  C   UNL A   1      39.009  34.108  38.074  1.00  0.00     0.010 A 
ATOM     90  C   UNL A   1      40.466  36.481  37.804  1.00  0.00     0.020 A 
ATOM     91  C   UNL A   1      38.885  35.109  39.040  1.00  0.00     0.020 A 
ATOM     92  C   UNL A   1      39.632  36.282  38.909  1.00  0.00     0.054 A 
BRANCH  92  93
ATOM     93  S   UNL A   1      39.520  37.586  40.164  1.00  0.00     0.124 S 
ATOM     94  O   UNL A   1      39.047  36.844  41.329  1.00  0.00    -0.237 OA
ATOM     95  O   UNL A   1      40.894  38.075  40.243  1.00  0.00    -0.237 OA
ATOM     96  O   UNL A   1      38.560  38.531  39.597  1.00  0.00    -0.744 OA
ENDBRANCH  92  93
ENDBRANCH  66  87
ENDBRANCH  40  41
ENDBRANCH  32  35
ENDBRANCH  30  31
ENDBRANCH   1  30
TORSDOF 19
ENDMDL
MODEL 3
REMARK VINA RESULT:     -10.0      2.125      2.681
REMARK SMILES CCCc1cc(OC(F)(F)F)cc2c1O[C@@H](C(F)(F)F)C(C(=O)NCCCCNC(=O)c1ccc(-c3c4nc(c(-c5ccc(S(=O)(=O)[O-])cc5)c5ccc([nH]5)c(-c5ccc(S(=O)(=O)[O-])cc5)c5nc(c(-c6ccc(S(=O)(=O)[O-])cc6)c6ccc3[nH]6)C=C5)C=C4)cc1)=C2
REMARK SMILES IDX 27 1 26 2 25 3 24 4 22 5 23 6 21 8 4 9 5 10 14 11 6 12 13 13
REMARK SMILES IDX 15 14 12 15 92 16 16 17 3 18 2 19 1 20 7 21 8 22 9 23 10 24
REMARK SMILES IDX 11 25 17 26 18 27 19 28 20 29 28 30 29 31 30 32 31 34 32 35
REMARK SMILES IDX 33 36 91 37 34 38 90 39 35 40 36 41 37 42 84 43 38 44 89 45
REMARK SMILES IDX 83 46 85 47 39 48 88 49 82 50 81 51 40 53 70 54 51 55 69 56
REMARK SMILES IDX 52 57 55 58 68 59 86 60 53 61 54 62 67 64 87 65 56 66 41 67
REMARK SMILES IDX 42 68 50 69 43 70 49 71 44 72 45 73 46 74 47 75 48 76 71 77
REMARK SMILES IDX 72 78 80 79 73 80 79 81 74 82 75 83 76 84 77 85 78 86 57 87
REMARK SMILES IDX 58 88 66 89 59 90 65 91 60 92 61 93 62 94 63 95 64 96
REMARK H PARENT 24 7 29 33 85 52 55 63
REMARK Flexibility Score: inf
ROOT
ATOM      1  C   UNL A   1      36.607  23.918  24.803  1.00  0.00     0.023 C 
ENDROOT
BRANCH   1   2
ATOM      2  C   UNL A   1      36.148  22.900  23.756  1.00  0.00     0.023 C 
BRANCH   2   3
ATOM      3  C   UNL A   1      34.682  23.057  23.331  1.00  0.00     0.116 C 
BRANCH   3   4
ATOM      4  N   UNL A   1      33.809  22.468  24.333  1.00  0.00    -0.352 N 
ATOM      5  C   UNL A   1      33.031  23.008  25.310  1.00  0.00     0.251 C 
ATOM      6  O   UNL A   1      32.532  22.248  26.136  1.00  0.00    -0.270 OA
ATOM      7  H   UNL A   1      33.775  21.484  24.299  1.00  0.00     0.163 HD
BRANCH   5   8
ATOM      8  C   UNL A   1      32.694  24.457  25.365  1.00  0.00     0.067 C 
ATOM      9  C   UNL A   1      31.892  28.564  24.873  1.00  0.00    -0.002 A 
ATOM     10  C   UNL A   1      32.874  29.471  25.317  1.00  0.00     0.054 A 
ATOM     11  C   UNL A   1      32.089  27.192  25.109  1.00  0.00     0.131 A 
ATOM     12  C   UNL A   1      33.961  29.052  26.080  1.00  0.00     0.130 A 
ATOM     13  C   UNL A   1      33.196  26.766  25.841  1.00  0.00     0.021 A 
ATOM     14  O   UNL A   1      31.220  26.311  24.534  1.00  0.00    -0.475 OA
ATOM     15  C   UNL A   1      34.115  27.694  26.341  1.00  0.00     0.058 A 
ATOM     16  C   UNL A   1      33.479  25.350  25.981  1.00  0.00     0.025 C 
ATOM     17  C   UNL A   1      31.337  24.882  24.816  1.00  0.00     0.314 C 
BRANCH   9  18
ATOM     18  C   UNL A   1      30.692  29.085  24.108  1.00  0.00     0.039 C 
BRANCH  18  19
ATOM     19  C   UNL A   1      30.842  29.077  22.575  1.00  0.00     0.001 C 
ATOM     20  C   UNL A   1      29.836  29.939  21.822  1.00  0.00     0.004 C 
ENDBRANCH  18  19
ENDBRANCH   9  18
BRANCH  12  21
ATOM     21  O   UNL A   1      34.947  29.850  26.584  1.00  0.00    -0.406 OA
BRANCH  21  22
ATOM     22  C   UNL A   1      34.603  30.693  27.671  1.00  0.00     0.573 C 
ATOM     23  F   UNL A   1      34.864  31.987  27.384  1.00  0.00    -0.132 F 
ATOM     24  F   UNL A   1      33.300  30.561  28.002  1.00  0.00    -0.132 F 
ATOM     25  F   UNL A   1      35.345  30.344  28.744  1.00  0.00    -0.132 F 
ENDBRANCH  21  22
ENDBRANCH  12  21
BRANCH  17  26
ATOM     26  C   UNL A   1      30.810  24.127  23.572  1.00  0.00     0.429 C 
ATOM     27  F   UNL A   1      29.674  24.661  23.074  1.00  0.00    -0.167 F 
ATOM     28  F   UNL A   1      31.711  24.196  22.552  1.00  0.00    -0.167 F 
ATOM     29  F   UNL A   1      30.596  22.814  23.812  1.00  0.00    -0.167 F 
ENDBRANCH  17  26
ENDBRANCH   5   8
ENDBRANCH   3   4
ENDBRANCH   2   3
ENDBRANCH   1   2
BRANCH   1  30
ATOM     30  C   UNL A   1      36.928  23.322  26.167  1.00  0.00     0.116 C 
BRANCH  30  31
ATOM     31  N   UNL A   1      37.957  22.296  26.109  1.00  0.00    -0.352 N 
ATOM     32  C   UNL A   1      39.307  22.420  26.332  1.00  0.00     0.251 C 
ATOM     33  H   UNL A   1      37.643  21.392  25.880  1.00  0.00     0.163 HD
ATOM     34  O   UNL A   1      40.051  21.476  26.107  1.00  0.00    -0.269 OA
BRANCH  32  35
ATOM     35  C   UNL A   1      39.848  23.709  26.811  1.00  0.00     0.039 A 
ATOM     36  C   UNL A   1      40.222  23.820  28.151  1.00  0.00     0.014 A 
ATOM     37  C   UNL A   1      39.995  24.795  25.945  1.00  0.00     0.014 A 
ATOM     38  C   UNL A   1      40.782  25.012  28.612  1.00  0.00     0.010 A 
ATOM     39  C   UNL A   1      40.631  25.951  26.385  1.00  0.00     0.010 A 
ATOM     40  C   UNL A   1      41.015  26.079  27.727  1.00  0.00    -0.014 A 
BRANCH  40  41
ATOM     41  C   UNL A   1      41.639  27.338  28.204  1.00  0.00     0.031 A 
ATOM     42  C   UNL A   1      43.134  27.507  28.155  1.00  0.00     0.074 A 
ATOM     43  C   UNL A   1      40.860  28.316  28.705  1.00  0.00     0.049 A 
ATOM     44  N   UNL A   1      43.857  28.540  28.506  1.00  0.00    -0.248 NA
ATOM     45  C   UNL A   1      43.923  26.361  27.673  1.00  0.00     0.031 C 
ATOM     46  C   UNL A   1      39.405  28.248  28.853  1.00  0.00     0.029 A 
ATOM     47  N   UNL A   1      41.183  29.564  29.176  1.00  0.00    -0.354 N 
ATOM     48  C   UNL A   1      45.179  28.166  28.296  1.00  0.00     0.074 A 
ATOM     49  C   UNL A   1      45.164  26.792  27.848  1.00  0.00     0.031 C 
ATOM     50  C   UNL A   1      38.956  29.417  29.337  1.00  0.00     0.029 A 
ATOM     51  C   UNL A   1      40.092  30.303  29.570  1.00  0.00     0.049 A 
ATOM     52  H   UNL A   1      42.107  29.898  29.227  1.00  0.00     0.167 HD
ATOM     53  C   UNL A   1      46.305  28.907  28.436  1.00  0.00     0.031 A 
ATOM     54  C   UNL A   1      40.016  31.556  30.059  1.00  0.00     0.031 A 
ATOM     55  C   UNL A   1      46.313  30.277  28.875  1.00  0.00     0.049 A 
ATOM     56  C   UNL A   1      41.279  32.357  30.210  1.00  0.00     0.074 A 
ATOM     57  C   UNL A   1      47.393  31.135  28.999  1.00  0.00     0.029 A 
ATOM     58  N   UNL A   1      45.190  30.989  29.268  1.00  0.00    -0.354 N 
ATOM     59  N   UNL A   1      42.515  32.011  29.930  1.00  0.00    -0.248 NA
ATOM     60  C   UNL A   1      41.137  33.725  30.725  1.00  0.00     0.031 C 
ATOM     61  C   UNL A   1      46.930  32.346  29.523  1.00  0.00     0.029 A 
ATOM     62  C   UNL A   1      45.553  32.267  29.661  1.00  0.00     0.049 A 
ATOM     63  H   UNL A   1      44.270  30.639  29.267  1.00  0.00     0.167 HD
ATOM     64  C   UNL A   1      43.293  33.128  30.215  1.00  0.00     0.074 A 
ATOM     65  C   UNL A   1      42.385  34.166  30.661  1.00  0.00     0.031 C 
ATOM     66  C   UNL A   1      44.637  33.283  30.117  1.00  0.00     0.031 A 
BRANCH  53  67
ATOM     67  C   UNL A   1      47.620  28.245  28.113  1.00  0.00    -0.014 A 
ATOM     68  C   UNL A   1      48.376  27.602  29.112  1.00  0.00     0.010 A 
ATOM     69  C   UNL A   1      48.095  28.237  26.789  1.00  0.00     0.010 A 
ATOM     70  C   UNL A   1      49.598  27.001  28.801  1.00  0.00     0.020 A 
ATOM     71  C   UNL A   1      49.301  27.608  26.467  1.00  0.00     0.020 A 
ATOM     72  C   UNL A   1      50.054  27.009  27.480  1.00  0.00     0.054 A 
BRANCH  72  73
ATOM     73  S   UNL A   1      51.633  26.200  27.101  1.00  0.00     0.124 S 
ATOM     74  O   UNL A   1      51.200  24.853  26.738  1.00  0.00    -0.237 OA
ATOM     75  O   UNL A   1      52.150  27.011  26.001  1.00  0.00    -0.237 OA
ATOM     76  O   UNL A   1      52.382  26.297  28.350  1.00  0.00    -0.744 OA
ENDBRANCH  72  73
ENDBRANCH  53  67
BRANCH  54  77
ATOM     77  C   UNL A   1      38.692  32.135  30.420  1.00  0.00    -0.014 A 
ATOM     78  C   UNL A   1      37.897  32.768  29.449  1.00  0.00     0.010 A 
ATOM     79  C   UNL A   1      38.216  32.050  31.742  1.00  0.00     0.010 A 
ATOM     80  C   UNL A   1      36.661  33.324  29.795  1.00  0.00     0.020 A 
ATOM     81  C   UNL A   1      36.968  32.576  32.086  1.00  0.00     0.020 A 
ATOM     82  C   UNL A   1      36.204  33.221  31.112  1.00  0.00     0.054 A 
BRANCH  82  83
ATOM     83  S   UNL A   1      34.576  33.908  31.528  1.00  0.00     0.124 S 
ATOM     84  O   UNL A   1      34.100  34.370  30.229  1.00  0.00    -0.237 OA
ATOM     85  O   UNL A   1      33.880  32.750  32.084  1.00  0.00    -0.237 OA
ATOM     86  O   UNL A   1      34.887  34.961  32.493  1.00  0.00    -0.744 OA
ENDBRANCH  82  83
ENDBRANCH  54  77
BRANCH  66  87
ATOM     87  C   UNL A   1      45.202  34.633  30.479  1.00  0.00    -0.014 A 
ATOM     88  C   UNL A   1      45.623  34.921  31.789  1.00  0.00     0.010 A 
ATOM     89  C   UNL A   1      45.332  35.620  29.485  1.00  0.00     0.010 A 
ATOM     90  C   UNL A   1      46.115  36.189  32.110  1.00  0.00     0.020 A 
ATOM     91  C   UNL A   1      45.855  36.878  29.793  1.00  0.00     0.020 A 
ATOM     92  C   UNL A   1      46.223  37.162  31.111  1.00  0.00     0.054 A 
BRANCH  92  93
ATOM     93  S   UNL A   1      46.873  38.796  31.550  1.00  0.00     0.124 S 
ATOM     94  O   UNL A   1      47.490  38.537  32.848  1.00  0.00    -0.237 OA
ATOM     95  O   UNL A   1      47.800  39.077  30.457  1.00  0.00    -0.237 OA
ATOM     96  O   UNL A   1      45.684  39.645  31.585  1.00  0.00    -0.744 OA
ENDBRANCH  92  93
ENDBRANCH  66  87
ENDBRANCH  40  41
ENDBRANCH  32  35
ENDBRANCH  30  31
ENDBRANCH   1  30
TORSDOF 19
ENDMDL
