MODEL 1
REMARK VINA RESULT:     -10.9      0.000      0.000
REMARK SMILES CC(C)[C@H](NS(=O)(=O)CCC(=O)NCCCCNC(=O)c1ccc(-c2c3nc(c(-c4ccc(S(=O)(=O)[O-])cc4)c4ccc([nH]4)c(-c4ccc(S(=O)(=O)[O-])cc4)c4nc(c(-c5ccc(S(=O)(=O)[O-])cc5)c5ccc2[nH]5)C=C4)C=C3)cc1)c1ccccc1
REMARK SMILES IDX 14 1 13 2 11 3 12 4 10 6 9 7 6 8 7 9 8 10 5 11 4 13 2 14
REMARK SMILES IDX 1 15 3 16 81 17 82 18 86 19 83 20 85 21 84 22 15 23 16 24
REMARK SMILES IDX 17 25 18 26 19 27 20 29 21 30 22 31 80 32 23 33 79 34 24 35
REMARK SMILES IDX 25 36 26 37 73 38 27 39 78 40 72 41 74 42 28 43 77 44 71 45
REMARK SMILES IDX 70 46 29 48 59 49 40 50 58 51 41 52 44 53 57 54 75 55 42 56
REMARK SMILES IDX 43 57 56 59 76 60 45 61 30 62 31 63 39 64 32 65 38 66 33 67
REMARK SMILES IDX 34 68 35 69 36 70 37 71 60 72 61 73 69 74 62 75 68 76 63 77
REMARK SMILES IDX 64 78 65 79 66 80 67 81 46 82 47 83 55 84 48 85 54 86 49 87
REMARK SMILES IDX 50 88 51 89 52 90 53 91
REMARK H PARENT 13 5 5 12 18 28 74 47 44 58
REMARK Flexibility Score: inf
ROOT
ATOM      1  C   UNL A   1      32.346  30.029  26.440  1.00  0.00     0.116 C 
ENDROOT
BRANCH   1   2
ATOM      2  N   UNL A   1      31.484  29.569  25.383  1.00  0.00    -0.356 N 
ATOM      3  C   UNL A   1      31.463  28.340  24.781  1.00  0.00     0.221 C 
ATOM      4  O   UNL A   1      30.911  27.350  25.250  1.00  0.00    -0.275 OA
ATOM      5  H   UNL A   1      30.825  30.222  25.050  1.00  0.00     0.163 HD
BRANCH   3   6
ATOM      6  C   UNL A   1      32.004  28.344  23.386  1.00  0.00     0.117 C 
BRANCH   6   7
ATOM      7  C   UNL A   1      33.232  27.471  23.215  1.00  0.00     0.164 C 
BRANCH   7   8
ATOM      8  S   UNL A   1      32.985  25.819  22.540  1.00  0.00     0.212 S 
ATOM      9  O   UNL A   1      33.503  25.915  21.176  1.00  0.00    -0.212 OA
ATOM     10  O   UNL A   1      31.618  25.453  22.707  1.00  0.00    -0.212 OA
BRANCH   8  11
ATOM     11  N   UNL A   1      34.021  24.695  23.192  1.00  0.00    -0.207 NA
ATOM     12  H   UNL A   1      34.451  24.342  22.337  1.00  0.00     0.141 HD
BRANCH  11  13
ATOM     13  C   UNL A   1      34.156  23.462  24.077  1.00  0.00     0.102 C 
BRANCH  13  14
ATOM     14  C   UNL A   1      33.100  22.302  23.972  1.00  0.00     0.005 C 
ATOM     15  C   UNL A   1      31.890  22.308  24.949  1.00  0.00     0.009 C 
ATOM     16  C   UNL A   1      32.557  22.137  22.541  1.00  0.00     0.009 C 
ENDBRANCH  13  14
BRANCH  13  17
ATOM     17  C   UNL A   1      35.541  23.065  24.614  1.00  0.00    -0.030 A 
ATOM     18  C   UNL A   1      35.955  21.712  24.519  1.00  0.00     0.005 A 
ATOM     19  C   UNL A   1      36.395  23.930  25.303  1.00  0.00     0.005 A 
ATOM     20  C   UNL A   1      37.198  21.264  24.960  1.00  0.00     0.000 A 
ATOM     21  C   UNL A   1      37.620  23.466  25.816  1.00  0.00     0.000 A 
ATOM     22  C   UNL A   1      38.024  22.143  25.628  1.00  0.00     0.000 A 
ENDBRANCH  13  17
ENDBRANCH  11  13
ENDBRANCH   8  11
ENDBRANCH   7   8
ENDBRANCH   6   7
ENDBRANCH   3   6
ENDBRANCH   1   2
BRANCH   1  23
ATOM     23  C   UNL A   1      33.130  28.878  27.112  1.00  0.00     0.023 C 
BRANCH  23  24
ATOM     24  C   UNL A   1      34.680  28.879  27.074  1.00  0.00     0.023 C 
BRANCH  24  25
ATOM     25  C   UNL A   1      35.463  30.007  27.740  1.00  0.00     0.116 C 
BRANCH  25  26
ATOM     26  N   UNL A   1      35.415  29.953  29.184  1.00  0.00    -0.352 N 
ATOM     27  C   UNL A   1      36.371  29.606  30.107  1.00  0.00     0.251 C 
ATOM     28  H   UNL A   1      34.546  30.208  29.572  1.00  0.00     0.163 HD
ATOM     29  O   UNL A   1      36.023  29.494  31.282  1.00  0.00    -0.269 OA
BRANCH  27  30
ATOM     30  C   UNL A   1      37.796  29.361  29.752  1.00  0.00     0.039 A 
ATOM     31  C   UNL A   1      38.190  29.559  28.421  1.00  0.00     0.014 A 
ATOM     32  C   UNL A   1      38.723  28.826  30.648  1.00  0.00     0.014 A 
ATOM     33  C   UNL A   1      39.495  29.258  28.001  1.00  0.00     0.010 A 
ATOM     34  C   UNL A   1      40.040  28.564  30.232  1.00  0.00     0.010 A 
ATOM     35  C   UNL A   1      40.452  28.775  28.907  1.00  0.00    -0.014 A 
BRANCH  35  36
ATOM     36  C   UNL A   1      41.864  28.503  28.482  1.00  0.00     0.031 A 
ATOM     37  C   UNL A   1      42.300  27.129  28.020  1.00  0.00     0.074 A 
ATOM     38  C   UNL A   1      42.790  29.485  28.551  1.00  0.00     0.049 A 
ATOM     39  N   UNL A   1      43.481  26.729  27.613  1.00  0.00    -0.248 NA
ATOM     40  C   UNL A   1      41.291  26.059  28.046  1.00  0.00     0.031 C 
ATOM     41  C   UNL A   1      42.548  30.845  29.036  1.00  0.00     0.029 A 
ATOM     42  N   UNL A   1      44.125  29.492  28.210  1.00  0.00    -0.354 N 
ATOM     43  C   UNL A   1      43.363  25.366  27.354  1.00  0.00     0.074 A 
ATOM     44  C   UNL A   1      42.008  24.997  27.704  1.00  0.00     0.031 C 
ATOM     45  C   UNL A   1      43.676  31.564  28.919  1.00  0.00     0.029 A 
ATOM     46  C   UNL A   1      44.737  30.713  28.387  1.00  0.00     0.049 A 
ATOM     47  H   UNL A   1      44.598  28.699  27.871  1.00  0.00     0.167 HD
ATOM     48  C   UNL A   1      44.279  24.503  26.849  1.00  0.00     0.031 A 
ATOM     49  C   UNL A   1      46.002  31.117  28.146  1.00  0.00     0.031 A 
ATOM     50  C   UNL A   1      45.621  24.865  26.471  1.00  0.00     0.049 A 
ATOM     51  C   UNL A   1      46.998  30.145  27.571  1.00  0.00     0.074 A 
ATOM     52  C   UNL A   1      46.587  24.074  25.869  1.00  0.00     0.029 A 
ATOM     53  N   UNL A   1      46.191  26.115  26.655  1.00  0.00    -0.354 N 
ATOM     54  N   UNL A   1      46.829  28.887  27.244  1.00  0.00    -0.248 NA
ATOM     55  C   UNL A   1      48.355  30.655  27.315  1.00  0.00     0.031 C 
ATOM     56  C   UNL A   1      47.758  24.829  25.743  1.00  0.00     0.029 A 
ATOM     57  C   UNL A   1      47.503  26.108  26.207  1.00  0.00     0.049 A 
ATOM     58  H   UNL A   1      45.732  26.892  27.047  1.00  0.00     0.167 HD
ATOM     59  C   UNL A   1      48.046  28.466  26.716  1.00  0.00     0.074 A 
ATOM     60  C   UNL A   1      48.937  29.605  26.753  1.00  0.00     0.031 C 
ATOM     61  C   UNL A   1      48.390  27.243  26.241  1.00  0.00     0.031 A 
BRANCH  48  62
ATOM     62  C   UNL A   1      43.863  23.062  26.664  1.00  0.00    -0.014 A 
ATOM     63  C   UNL A   1      42.903  22.469  27.504  1.00  0.00     0.010 A 
ATOM     64  C   UNL A   1      44.391  22.311  25.597  1.00  0.00     0.010 A 
ATOM     65  C   UNL A   1      42.514  21.140  27.311  1.00  0.00     0.020 A 
ATOM     66  C   UNL A   1      43.981  20.991  25.380  1.00  0.00     0.020 A 
ATOM     67  C   UNL A   1      43.058  20.409  26.251  1.00  0.00     0.054 A 
BRANCH  67  68
ATOM     68  S   UNL A   1      42.518  18.694  26.013  1.00  0.00     0.124 S 
ATOM     69  O   UNL A   1      43.373  18.260  24.911  1.00  0.00    -0.237 OA
ATOM     70  O   UNL A   1      42.804  18.084  27.308  1.00  0.00    -0.237 OA
ATOM     71  O   UNL A   1      41.099  18.817  25.685  1.00  0.00    -0.744 OA
ENDBRANCH  67  68
ENDBRANCH  48  62
BRANCH  49  72
ATOM     72  C   UNL A   1      46.400  32.528  28.417  1.00  0.00    -0.014 A 
ATOM     73  C   UNL A   1      46.317  33.499  27.402  1.00  0.00     0.010 A 
ATOM     74  C   UNL A   1      46.868  32.908  29.688  1.00  0.00     0.010 A 
ATOM     75  C   UNL A   1      46.716  34.816  27.646  1.00  0.00     0.020 A 
ATOM     76  C   UNL A   1      47.239  34.232  29.944  1.00  0.00     0.020 A 
ATOM     77  C   UNL A   1      47.173  35.176  28.917  1.00  0.00     0.054 A 
BRANCH  77  78
ATOM     78  S   UNL A   1      47.643  36.901  29.221  1.00  0.00     0.124 S 
ATOM     79  O   UNL A   1      48.043  37.347  27.890  1.00  0.00    -0.237 OA
ATOM     80  O   UNL A   1      46.404  37.479  29.738  1.00  0.00    -0.237 OA
ATOM     81  O   UNL A   1      48.725  36.793  30.197  1.00  0.00    -0.744 OA
ENDBRANCH  77  78
ENDBRANCH  49  72
BRANCH  61  82
ATOM     82  C   UNL A   1      49.780  27.071  25.683  1.00  0.00    -0.014 A 
ATOM     83  C   UNL A   1      50.803  26.467  26.434  1.00  0.00     0.010 A 
ATOM     84  C   UNL A   1      50.050  27.472  24.360  1.00  0.00     0.010 A 
ATOM     85  C   UNL A   1      52.078  26.296  25.885  1.00  0.00     0.020 A 
ATOM     86  C   UNL A   1      51.314  27.274  23.797  1.00  0.00     0.020 A 
ATOM     87  C   UNL A   1      52.325  26.699  24.569  1.00  0.00     0.054 A 
BRANCH  87  88
ATOM     88  S   UNL A   1      53.974  26.423  23.865  1.00  0.00     0.124 S 
ATOM     89  O   UNL A   1      53.666  26.153  22.463  1.00  0.00    -0.237 OA
ATOM     90  O   UNL A   1      54.650  27.690  24.127  1.00  0.00    -0.237 OA
ATOM     91  O   UNL A   1      54.487  25.281  24.620  1.00  0.00    -0.744 OA
ENDBRANCH  87  88
ENDBRANCH  61  82
ENDBRANCH  35  36
ENDBRANCH  27  30
ENDBRANCH  25  26
ENDBRANCH  24  25
ENDBRANCH  23  24
ENDBRANCH   1  23
TORSDOF 20
ENDMDL
MODEL 2
REMARK VINA RESULT:     -10.7      4.098      7.080
REMARK SMILES CC(C)[C@H](NS(=O)(=O)CCC(=O)NCCCCNC(=O)c1ccc(-c2c3nc(c(-c4ccc(S(=O)(=O)[O-])cc4)c4ccc([nH]4)c(-c4ccc(S(=O)(=O)[O-])cc4)c4nc(c(-c5ccc(S(=O)(=O)[O-])cc5)c5ccc2[nH]5)C=C4)C=C3)cc1)c1ccccc1
REMARK SMILES IDX 14 1 13 2 11 3 12 4 10 6 9 7 6 8 7 9 8 10 5 11 4 13 2 14
REMARK SMILES IDX 1 15 3 16 81 17 82 18 86 19 83 20 85 21 84 22 15 23 16 24
REMARK SMILES IDX 17 25 18 26 19 27 20 29 21 30 22 31 80 32 23 33 79 34 24 35
REMARK SMILES IDX 25 36 26 37 73 38 27 39 78 40 72 41 74 42 28 43 77 44 71 45
REMARK SMILES IDX 70 46 29 48 59 49 40 50 58 51 41 52 44 53 57 54 75 55 42 56
REMARK SMILES IDX 43 57 56 59 76 60 45 61 30 62 31 63 39 64 32 65 38 66 33 67
REMARK SMILES IDX 34 68 35 69 36 70 37 71 60 72 61 73 69 74 62 75 68 76 63 77
REMARK SMILES IDX 64 78 65 79 66 80 67 81 46 82 47 83 55 84 48 85 54 86 49 87
REMARK SMILES IDX 50 88 51 89 52 90 53 91
REMARK H PARENT 13 5 5 12 18 28 74 47 44 58
REMARK Flexibility Score: inf
ROOT
ATOM      1  C   UNL A   1      34.541  35.187  29.889  1.00  0.00     0.116 C 
ENDROOT
BRANCH   1   2
ATOM      2  N   UNL A   1      35.146  34.375  30.913  1.00  0.00    -0.356 N 
ATOM      3  C   UNL A   1      34.638  34.044  32.140  1.00  0.00     0.221 C 
ATOM      4  O   UNL A   1      33.826  33.145  32.333  1.00  0.00    -0.275 OA
ATOM      5  H   UNL A   1      36.037  34.012  30.703  1.00  0.00     0.163 HD
BRANCH   3   6
ATOM      6  C   UNL A   1      35.314  34.742  33.278  1.00  0.00     0.117 C 
BRANCH   6   7
ATOM      7  C   UNL A   1      36.826  34.639  33.235  1.00  0.00     0.164 C 
BRANCH   7   8
ATOM      8  S   UNL A   1      37.546  32.990  33.301  1.00  0.00     0.212 S 
ATOM      9  O   UNL A   1      37.554  32.553  31.906  1.00  0.00    -0.212 OA
ATOM     10  O   UNL A   1      36.813  32.205  34.238  1.00  0.00    -0.212 OA
BRANCH   8  11
ATOM     11  N   UNL A   1      39.174  33.010  33.635  1.00  0.00    -0.207 NA
ATOM     12  H   UNL A   1      39.524  33.381  32.752  1.00  0.00     0.141 HD
BRANCH  11  13
ATOM     13  C   UNL A   1      40.386  32.198  34.073  1.00  0.00     0.102 C 
BRANCH  13  14
ATOM     14  C   UNL A   1      41.188  32.618  35.360  1.00  0.00     0.005 C 
ATOM     15  C   UNL A   1      40.999  34.057  35.917  1.00  0.00     0.009 C 
ATOM     16  C   UNL A   1      40.986  31.626  36.520  1.00  0.00     0.009 C 
ENDBRANCH  13  14
BRANCH  13  17
ATOM     17  C   UNL A   1      40.494  30.720  33.665  1.00  0.00    -0.030 A 
ATOM     18  C   UNL A   1      41.774  30.112  33.610  1.00  0.00     0.005 A 
ATOM     19  C   UNL A   1      39.417  29.944  33.226  1.00  0.00     0.005 A 
ATOM     20  C   UNL A   1      41.968  28.776  33.269  1.00  0.00     0.000 A 
ATOM     21  C   UNL A   1      39.617  28.615  32.811  1.00  0.00     0.000 A 
ATOM     22  C   UNL A   1      40.884  28.031  32.851  1.00  0.00     0.000 A 
ENDBRANCH  13  17
ENDBRANCH  11  13
ENDBRANCH   8  11
ENDBRANCH   7   8
ENDBRANCH   6   7
ENDBRANCH   3   6
ENDBRANCH   1   2
BRANCH   1  23
ATOM     23  C   UNL A   1      33.271  34.541  29.289  1.00  0.00     0.023 C 
BRANCH  23  24
ATOM     24  C   UNL A   1      33.382  33.672  28.010  1.00  0.00     0.023 C 
BRANCH  24  25
ATOM     25  C   UNL A   1      34.416  32.553  27.930  1.00  0.00     0.116 C 
BRANCH  25  26
ATOM     26  N   UNL A   1      33.824  31.234  27.921  1.00  0.00    -0.352 N 
ATOM     27  C   UNL A   1      34.395  29.987  27.997  1.00  0.00     0.251 C 
ATOM     28  H   UNL A   1      32.841  31.229  27.848  1.00  0.00     0.163 HD
ATOM     29  O   UNL A   1      33.671  29.010  27.811  1.00  0.00    -0.269 OA
BRANCH  27  30
ATOM     30  C   UNL A   1      35.838  29.768  28.290  1.00  0.00     0.039 A 
ATOM     31  C   UNL A   1      36.746  29.827  27.222  1.00  0.00     0.014 A 
ATOM     32  C   UNL A   1      36.311  29.384  29.545  1.00  0.00     0.014 A 
ATOM     33  C   UNL A   1      38.106  29.538  27.413  1.00  0.00     0.010 A 
ATOM     34  C   UNL A   1      37.681  29.136  29.740  1.00  0.00     0.010 A 
ATOM     35  C   UNL A   1      38.603  29.209  28.684  1.00  0.00    -0.014 A 
BRANCH  35  36
ATOM     36  C   UNL A   1      40.063  28.954  28.911  1.00  0.00     0.031 A 
ATOM     37  C   UNL A   1      40.701  27.631  28.543  1.00  0.00     0.074 A 
ATOM     38  C   UNL A   1      40.830  29.899  29.496  1.00  0.00     0.049 A 
ATOM     39  N   UNL A   1      41.951  27.252  28.668  1.00  0.00    -0.248 NA
ATOM     40  C   UNL A   1      39.821  26.589  27.994  1.00  0.00     0.031 C 
ATOM     41  C   UNL A   1      40.355  31.201  29.970  1.00  0.00     0.029 A 
ATOM     42  N   UNL A   1      42.175  29.914  29.794  1.00  0.00    -0.354 N 
ATOM     43  C   UNL A   1      42.002  25.931  28.233  1.00  0.00     0.074 A 
ATOM     44  C   UNL A   1      40.646  25.556  27.894  1.00  0.00     0.031 C 
ATOM     45  C   UNL A   1      41.394  31.903  30.453  1.00  0.00     0.029 A 
ATOM     46  C   UNL A   1      42.606  31.093  30.362  1.00  0.00     0.049 A 
ATOM     47  H   UNL A   1      42.774  29.154  29.618  1.00  0.00     0.167 HD
ATOM     48  C   UNL A   1      43.073  25.109  28.101  1.00  0.00     0.031 A 
ATOM     49  C   UNL A   1      43.832  31.491  30.761  1.00  0.00     0.031 A 
ATOM     50  C   UNL A   1      44.431  25.480  28.408  1.00  0.00     0.049 A 
ATOM     51  C   UNL A   1      45.009  30.568  30.590  1.00  0.00     0.074 A 
ATOM     52  C   UNL A   1      45.588  24.740  28.219  1.00  0.00     0.029 A 
ATOM     53  N   UNL A   1      44.819  26.687  28.966  1.00  0.00    -0.354 N 
ATOM     54  N   UNL A   1      45.043  29.359  30.084  1.00  0.00    -0.248 NA
ATOM     55  C   UNL A   1      46.320  31.072  31.029  1.00  0.00     0.031 C 
ATOM     56  C   UNL A   1      46.667  25.476  28.718  1.00  0.00     0.029 A 
ATOM     57  C   UNL A   1      46.193  26.701  29.157  1.00  0.00     0.049 A 
ATOM     58  H   UNL A   1      44.210  27.426  29.195  1.00  0.00     0.167 HD
ATOM     59  C   UNL A   1      46.379  28.972  30.115  1.00  0.00     0.074 A 
ATOM     60  C   UNL A   1      47.124  30.079  30.675  1.00  0.00     0.031 C 
ATOM     61  C   UNL A   1      46.936  27.803  29.712  1.00  0.00     0.031 A 
BRANCH  48  62
ATOM     62  C   UNL A   1      42.828  23.708  27.589  1.00  0.00    -0.014 A 
ATOM     63  C   UNL A   1      43.003  23.390  26.230  1.00  0.00     0.010 A 
ATOM     64  C   UNL A   1      42.481  22.683  28.489  1.00  0.00     0.010 A 
ATOM     65  C   UNL A   1      42.790  22.086  25.773  1.00  0.00     0.020 A 
ATOM     66  C   UNL A   1      42.297  21.370  28.042  1.00  0.00     0.020 A 
ATOM     67  C   UNL A   1      42.436  21.085  26.683  1.00  0.00     0.054 A 
BRANCH  67  68
ATOM     68  S   UNL A   1      42.188  19.398  26.063  1.00  0.00     0.124 S 
ATOM     69  O   UNL A   1      42.671  18.593  27.182  1.00  0.00    -0.237 OA
ATOM     70  O   UNL A   1      40.747  19.350  25.830  1.00  0.00    -0.237 OA
ATOM     71  O   UNL A   1      43.013  19.344  24.858  1.00  0.00    -0.744 OA
ENDBRANCH  67  68
ENDBRANCH  48  62
BRANCH  49  72
ATOM     72  C   UNL A   1      44.023  32.853  31.338  1.00  0.00    -0.014 A 
ATOM     73  C   UNL A   1      44.401  33.929  30.513  1.00  0.00     0.010 A 
ATOM     74  C   UNL A   1      43.834  33.082  32.713  1.00  0.00     0.010 A 
ATOM     75  C   UNL A   1      44.609  35.200  31.056  1.00  0.00     0.020 A 
ATOM     76  C   UNL A   1      44.010  34.359  33.254  1.00  0.00     0.020 A 
ATOM     77  C   UNL A   1      44.410  35.408  32.423  1.00  0.00     0.054 A 
BRANCH  77  78
ATOM     78  S   UNL A   1      44.642  37.077  33.097  1.00  0.00     0.124 S 
ATOM     79  O   UNL A   1      43.518  37.801  32.512  1.00  0.00    -0.237 OA
ATOM     80  O   UNL A   1      44.567  36.848  34.539  1.00  0.00    -0.237 OA
ATOM     81  O   UNL A   1      45.962  37.463  32.604  1.00  0.00    -0.744 OA
ENDBRANCH  77  78
ENDBRANCH  49  72
BRANCH  61  82
ATOM     82  C   UNL A   1      48.433  27.664  29.822  1.00  0.00    -0.014 A 
ATOM     83  C   UNL A   1      49.031  27.014  30.916  1.00  0.00     0.010 A 
ATOM     84  C   UNL A   1      49.252  28.142  28.781  1.00  0.00     0.010 A 
ATOM     85  C   UNL A   1      50.421  26.874  30.983  1.00  0.00     0.020 A 
ATOM     86  C   UNL A   1      50.639  27.977  28.829  1.00  0.00     0.020 A 
ATOM     87  C   UNL A   1      51.216  27.355  29.938  1.00  0.00     0.054 A 
BRANCH  87  88
ATOM     88  S   UNL A   1      53.013  27.119  30.027  1.00  0.00     0.124 S 
ATOM     89  O   UNL A   1      53.194  26.679  31.409  1.00  0.00    -0.237 OA
ATOM     90  O   UNL A   1      53.253  26.102  29.007  1.00  0.00    -0.237 OA
ATOM     91  O   UNL A   1      53.553  28.443  29.721  1.00  0.00    -0.744 OA
ENDBRANCH  87  88
ENDBRANCH  61  82
ENDBRANCH  35  36
ENDBRANCH  27  30
ENDBRANCH  25  26
ENDBRANCH  24  25
ENDBRANCH  23  24
ENDBRANCH   1  23
TORSDOF 20
ENDMDL
MODEL 3
REMARK VINA RESULT:     -10.4      1.492      8.438
REMARK SMILES CC(C)[C@H](NS(=O)(=O)CCC(=O)NCCCCNC(=O)c1ccc(-c2c3nc(c(-c4ccc(S(=O)(=O)[O-])cc4)c4ccc([nH]4)c(-c4ccc(S(=O)(=O)[O-])cc4)c4nc(c(-c5ccc(S(=O)(=O)[O-])cc5)c5ccc2[nH]5)C=C4)C=C3)cc1)c1ccccc1
REMARK SMILES IDX 14 1 13 2 11 3 12 4 10 6 9 7 6 8 7 9 8 10 5 11 4 13 2 14
REMARK SMILES IDX 1 15 3 16 81 17 82 18 86 19 83 20 85 21 84 22 15 23 16 24
REMARK SMILES IDX 17 25 18 26 19 27 20 29 21 30 22 31 80 32 23 33 79 34 24 35
REMARK SMILES IDX 25 36 26 37 73 38 27 39 78 40 72 41 74 42 28 43 77 44 71 45
REMARK SMILES IDX 70 46 29 48 59 49 40 50 58 51 41 52 44 53 57 54 75 55 42 56
REMARK SMILES IDX 43 57 56 59 76 60 45 61 30 62 31 63 39 64 32 65 38 66 33 67
REMARK SMILES IDX 34 68 35 69 36 70 37 71 60 72 61 73 69 74 62 75 68 76 63 77
REMARK SMILES IDX 64 78 65 79 66 80 67 81 46 82 47 83 55 84 48 85 54 86 49 87
REMARK SMILES IDX 50 88 51 89 52 90 53 91
REMARK H PARENT 13 5 5 12 18 28 74 47 44 58
REMARK Flexibility Score: inf
ROOT
ATOM      1  C   UNL A   1      34.043  28.105  26.011  1.00  0.00     0.116 C 
ENDROOT
BRANCH   1   2
ATOM      2  N   UNL A   1      32.828  27.392  25.713  1.00  0.00    -0.356 N 
ATOM      3  C   UNL A   1      31.988  26.750  26.583  1.00  0.00     0.221 C 
ATOM      4  O   UNL A   1      31.133  27.312  27.259  1.00  0.00    -0.275 OA
ATOM      5  H   UNL A   1      32.570  27.362  24.763  1.00  0.00     0.163 HD
BRANCH   3   6
ATOM      6  C   UNL A   1      32.058  25.258  26.495  1.00  0.00     0.117 C 
BRANCH   6   7
ATOM      7  C   UNL A   1      31.221  24.682  25.369  1.00  0.00     0.164 C 
BRANCH   7   8
ATOM      8  S   UNL A   1      32.069  24.274  23.833  1.00  0.00     0.212 S 
ATOM      9  O   UNL A   1      33.302  25.058  23.894  1.00  0.00    -0.212 OA
ATOM     10  O   UNL A   1      31.185  24.510  22.742  1.00  0.00    -0.212 OA
BRANCH   8  11
ATOM     11  N   UNL A   1      32.679  22.728  23.826  1.00  0.00    -0.207 NA
ATOM     12  H   UNL A   1      31.806  22.200  23.827  1.00  0.00     0.141 HD
BRANCH  11  13
ATOM     13  C   UNL A   1      33.589  21.722  24.521  1.00  0.00     0.102 C 
BRANCH  13  14
ATOM     14  C   UNL A   1      34.234  22.078  25.910  1.00  0.00     0.005 C 
ATOM     15  C   UNL A   1      33.590  21.496  27.199  1.00  0.00     0.009 C 
ATOM     16  C   UNL A   1      35.742  21.767  25.948  1.00  0.00     0.009 C 
ENDBRANCH  13  14
BRANCH  13  17
ATOM     17  C   UNL A   1      33.433  20.224  24.214  1.00  0.00    -0.030 A 
ATOM     18  C   UNL A   1      34.472  19.333  24.586  1.00  0.00     0.005 A 
ATOM     19  C   UNL A   1      32.375  19.676  23.483  1.00  0.00     0.005 A 
ATOM     20  C   UNL A   1      34.411  17.959  24.367  1.00  0.00     0.000 A 
ATOM     21  C   UNL A   1      32.344  18.299  23.195  1.00  0.00     0.000 A 
ATOM     22  C   UNL A   1      33.350  17.445  23.651  1.00  0.00     0.000 A 
ENDBRANCH  13  17
ENDBRANCH  11  13
ENDBRANCH   8  11
ENDBRANCH   7   8
ENDBRANCH   6   7
ENDBRANCH   3   6
ENDBRANCH   1   2
BRANCH   1  23
ATOM     23  C   UNL A   1      33.897  29.045  27.230  1.00  0.00     0.023 C 
BRANCH  23  24
ATOM     24  C   UNL A   1      35.159  29.482  28.019  1.00  0.00     0.023 C 
BRANCH  24  25
ATOM     25  C   UNL A   1      35.272  30.906  28.557  1.00  0.00     0.116 C 
BRANCH  25  26
ATOM     26  N   UNL A   1      35.461  30.956  29.989  1.00  0.00    -0.352 N 
ATOM     27  C   UNL A   1      36.524  30.580  30.773  1.00  0.00     0.251 C 
ATOM     28  H   UNL A   1      34.694  31.321  30.489  1.00  0.00     0.163 HD
ATOM     29  O   UNL A   1      36.369  30.583  31.994  1.00  0.00    -0.269 OA
BRANCH  27  30
ATOM     30  C   UNL A   1      37.844  30.171  30.218  1.00  0.00     0.039 A 
ATOM     31  C   UNL A   1      38.719  29.458  31.050  1.00  0.00     0.014 A 
ATOM     32  C   UNL A   1      38.297  30.570  28.960  1.00  0.00     0.014 A 
ATOM     33  C   UNL A   1      40.013  29.123  30.619  1.00  0.00     0.010 A 
ATOM     34  C   UNL A   1      39.578  30.197  28.518  1.00  0.00     0.010 A 
ATOM     35  C   UNL A   1      40.458  29.468  29.333  1.00  0.00    -0.014 A 
BRANCH  35  36
ATOM     36  C   UNL A   1      41.817  29.067  28.843  1.00  0.00     0.031 A 
ATOM     37  C   UNL A   1      42.961  30.056  28.785  1.00  0.00     0.074 A 
ATOM     38  C   UNL A   1      42.028  27.809  28.396  1.00  0.00     0.049 A 
ATOM     39  N   UNL A   1      44.199  29.868  28.393  1.00  0.00    -0.248 NA
ATOM     40  C   UNL A   1      42.674  31.441  29.190  1.00  0.00     0.031 C 
ATOM     41  C   UNL A   1      41.015  26.755  28.323  1.00  0.00     0.029 A 
ATOM     42  N   UNL A   1      43.168  27.200  27.919  1.00  0.00    -0.354 N 
ATOM     43  C   UNL A   1      44.828  31.106  28.486  1.00  0.00     0.074 A 
ATOM     44  C   UNL A   1      43.820  32.050  28.918  1.00  0.00     0.031 C 
ATOM     45  C   UNL A   1      41.585  25.623  27.878  1.00  0.00     0.029 A 
ATOM     46  C   UNL A   1      42.995  25.873  27.595  1.00  0.00     0.049 A 
ATOM     47  H   UNL A   1      44.027  27.669  27.819  1.00  0.00     0.167 HD
ATOM     48  C   UNL A   1      46.126  31.432  28.260  1.00  0.00     0.031 A 
ATOM     49  C   UNL A   1      43.864  24.951  27.129  1.00  0.00     0.031 A 
ATOM     50  C   UNL A   1      47.145  30.495  27.857  1.00  0.00     0.049 A 
ATOM     51  C   UNL A   1      45.304  25.331  26.901  1.00  0.00     0.074 A 
ATOM     52  C   UNL A   1      48.502  30.721  27.693  1.00  0.00     0.029 A 
ATOM     53  N   UNL A   1      46.925  29.161  27.555  1.00  0.00    -0.354 N 
ATOM     54  N   UNL A   1      45.892  26.486  27.091  1.00  0.00    -0.248 NA
ATOM     55  C   UNL A   1      46.201  24.273  26.410  1.00  0.00     0.031 C 
ATOM     56  C   UNL A   1      49.093  29.539  27.235  1.00  0.00     0.029 A 
ATOM     57  C   UNL A   1      48.116  28.560  27.176  1.00  0.00     0.049 A 
ATOM     58  H   UNL A   1      46.053  28.708  27.601  1.00  0.00     0.167 HD
ATOM     59  C   UNL A   1      47.233  26.285  26.775  1.00  0.00     0.074 A 
ATOM     60  C   UNL A   1      47.371  24.896  26.395  1.00  0.00     0.031 C 
ATOM     61  C   UNL A   1      48.255  27.176  26.800  1.00  0.00     0.031 A 
BRANCH  48  62
ATOM     62  C   UNL A   1      46.535  32.874  28.450  1.00  0.00    -0.014 A 
ATOM     63  C   UNL A   1      47.010  33.337  29.690  1.00  0.00     0.010 A 
ATOM     64  C   UNL A   1      46.504  33.761  27.358  1.00  0.00     0.010 A 
ATOM     65  C   UNL A   1      47.402  34.670  29.848  1.00  0.00     0.020 A 
ATOM     66  C   UNL A   1      46.925  35.088  27.503  1.00  0.00     0.020 A 
ATOM     67  C   UNL A   1      47.354  35.537  28.753  1.00  0.00     0.054 A 
BRANCH  67  68
ATOM     68  S   UNL A   1      47.890  37.255  28.983  1.00  0.00     0.124 S 
ATOM     69  O   UNL A   1      48.087  37.696  27.604  1.00  0.00    -0.237 OA
ATOM     70  O   UNL A   1      46.754  37.855  29.678  1.00  0.00    -0.237 OA
ATOM     71  O   UNL A   1      49.110  37.137  29.778  1.00  0.00    -0.744 OA
ENDBRANCH  67  68
ENDBRANCH  48  62
BRANCH  49  72
ATOM     72  C   UNL A   1      43.406  23.555  26.875  1.00  0.00    -0.014 A 
ATOM     73  C   UNL A   1      43.035  22.721  27.946  1.00  0.00     0.010 A 
ATOM     74  C   UNL A   1      43.344  23.049  25.564  1.00  0.00     0.010 A 
ATOM     75  C   UNL A   1      42.632  21.403  27.713  1.00  0.00     0.020 A 
ATOM     76  C   UNL A   1      42.911  21.741  25.324  1.00  0.00     0.020 A 
ATOM     77  C   UNL A   1      42.571  20.921  26.402  1.00  0.00     0.054 A 
BRANCH  77  78
ATOM     78  S   UNL A   1      42.003  19.221  26.121  1.00  0.00     0.124 S 
ATOM     79  O   UNL A   1      42.763  18.838  24.936  1.00  0.00    -0.237 OA
ATOM     80  O   UNL A   1      42.386  18.552  27.363  1.00  0.00    -0.237 OA
ATOM     81  O   UNL A   1      40.563  19.370  25.922  1.00  0.00    -0.744 OA
ENDBRANCH  77  78
ENDBRANCH  49  72
BRANCH  61  82
ATOM     82  C   UNL A   1      49.631  26.675  26.444  1.00  0.00    -0.014 A 
ATOM     83  C   UNL A   1      50.174  26.869  25.161  1.00  0.00     0.010 A 
ATOM     84  C   UNL A   1      50.418  26.048  27.430  1.00  0.00     0.010 A 
ATOM     85  C   UNL A   1      51.464  26.417  24.862  1.00  0.00     0.020 A 
ATOM     86  C   UNL A   1      51.718  25.623  27.144  1.00  0.00     0.020 A 
ATOM     87  C   UNL A   1      52.228  25.799  25.856  1.00  0.00     0.054 A 
BRANCH  87  88
ATOM     88  S   UNL A   1      53.916  25.265  25.455  1.00  0.00     0.124 S 
ATOM     89  O   UNL A   1      53.996  25.559  24.027  1.00  0.00    -0.237 OA
ATOM     90  O   UNL A   1      54.733  26.113  26.318  1.00  0.00    -0.237 OA
ATOM     91  O   UNL A   1      53.921  23.844  25.799  1.00  0.00    -0.744 OA
ENDBRANCH  87  88
ENDBRANCH  61  82
ENDBRANCH  35  36
ENDBRANCH  27  30
ENDBRANCH  25  26
ENDBRANCH  24  25
ENDBRANCH  23  24
ENDBRANCH   1  23
TORSDOF 20
ENDMDL
