MODEL 1
REMARK VINA RESULT:      -8.6      0.000      0.000
REMARK SMILES CC(C)[C@H](C(=O)NCCCCNC(=O)c1ccc(-c2c3nc(c(-c4ccc(S(=O)(=O)[O-])cc4)c4ccc([nH]4)c(-c4ccc(S(=O)(=O)[O-])cc4)c4nc(c(-c5ccc(S(=O)(=O)[O-])cc5)c5ccc2[nH]5)C=C4)C=C3)cc1)c1ccc(Cl)cc1F
REMARK SMILES IDX 10 1 9 2 8 3 7 4 5 5 6 6 4 8 2 9 1 10 3 11 75 12 76 13 81 14
REMARK SMILES IDX 77 15 80 16 82 17 78 18 79 19 11 20 12 21 13 22 14 24 15 25
REMARK SMILES IDX 16 26 74 27 17 28 73 29 18 30 19 31 20 32 67 33 21 34 72 35
REMARK SMILES IDX 66 36 68 37 22 38 71 39 65 40 64 41 23 43 53 44 34 45 52 46
REMARK SMILES IDX 35 47 38 48 51 49 69 50 36 51 37 52 50 54 70 55 39 56 24 57
REMARK SMILES IDX 25 58 33 59 26 60 32 61 27 62 28 63 29 64 30 65 31 66 54 67
REMARK SMILES IDX 55 68 63 69 56 70 62 71 57 72 58 73 59 74 60 75 61 76 40 77
REMARK SMILES IDX 41 78 49 79 42 80 48 81 43 82 44 83 45 84 46 85 47 86
REMARK H PARENT 7 7 12 23 68 42 38 53
REMARK Flexibility Score: inf
ROOT
ATOM      1  C   UNL A   1      34.711  32.654  31.520  1.00  0.00     0.023 C 
ENDROOT
BRANCH   1   2
ATOM      2  C   UNL A   1      35.743  32.727  32.641  1.00  0.00     0.023 C 
BRANCH   2   3
ATOM      3  C   UNL A   1      36.834  31.658  32.577  1.00  0.00     0.116 C 
BRANCH   3   4
ATOM      4  N   UNL A   1      37.204  31.242  33.913  1.00  0.00    -0.356 N 
ATOM      5  C   UNL A   1      38.382  30.852  34.462  1.00  0.00     0.227 C 
ATOM      6  O   UNL A   1      38.262  30.308  35.570  1.00  0.00    -0.274 OA
ATOM      7  H   UNL A   1      36.452  31.245  34.548  1.00  0.00     0.163 HD
BRANCH   5   8
ATOM      8  C   UNL A   1      39.789  31.210  33.929  1.00  0.00     0.114 C 
BRANCH   8   9
ATOM      9  C   UNL A   1      40.257  32.602  34.487  1.00  0.00    -0.000 C 
ATOM     10  C   UNL A   1      39.938  33.807  33.602  1.00  0.00     0.008 C 
ATOM     11  C   UNL A   1      39.747  32.848  35.910  1.00  0.00     0.008 C 
ENDBRANCH   8   9
BRANCH   8  12
ATOM     12  C   UNL A   1      40.871  30.139  33.866  1.00  0.00     0.001 A 
ATOM     13  C   UNL A   1      42.144  30.413  34.405  1.00  0.00     0.009 A 
ATOM     14  C   UNL A   1      40.689  28.888  33.263  1.00  0.00     0.128 A 
ATOM     15  C   UNL A   1      43.191  29.492  34.294  1.00  0.00     0.021 A 
ATOM     16  C   UNL A   1      41.726  27.964  33.142  1.00  0.00     0.060 A 
ATOM     17  F   UNL A   1      39.510  28.562  32.723  1.00  0.00    -0.207 F 
ATOM     18  C   UNL A   1      42.979  28.275  33.651  1.00  0.00     0.043 A 
ATOM     19  Cl  UNL A   1      44.277  27.162  33.474  1.00  0.00    -0.084 Cl
ENDBRANCH   8  12
ENDBRANCH   5   8
ENDBRANCH   3   4
ENDBRANCH   2   3
ENDBRANCH   1   2
BRANCH   1  20
ATOM     20  C   UNL A   1      35.296  32.598  30.118  1.00  0.00     0.116 C 
BRANCH  20  21
ATOM     21  N   UNL A   1      34.403  32.004  29.130  1.00  0.00    -0.352 N 
ATOM     22  C   UNL A   1      34.635  30.914  28.321  1.00  0.00     0.251 C 
ATOM     23  H   UNL A   1      33.524  32.438  29.028  1.00  0.00     0.163 HD
ATOM     24  O   UNL A   1      33.819  30.567  27.482  1.00  0.00    -0.269 OA
BRANCH  22  25
ATOM     25  C   UNL A   1      35.925  30.209  28.465  1.00  0.00     0.039 A 
ATOM     26  C   UNL A   1      36.877  30.336  27.452  1.00  0.00     0.014 A 
ATOM     27  C   UNL A   1      36.224  29.544  29.655  1.00  0.00     0.014 A 
ATOM     28  C   UNL A   1      38.176  29.879  27.679  1.00  0.00     0.010 A 
ATOM     29  C   UNL A   1      37.535  29.161  29.907  1.00  0.00     0.010 A 
ATOM     30  C   UNL A   1      38.526  29.341  28.928  1.00  0.00    -0.014 A 
BRANCH  30  31
ATOM     31  C   UNL A   1      39.928  28.983  29.257  1.00  0.00     0.031 A 
ATOM     32  C   UNL A   1      40.826  30.001  29.898  1.00  0.00     0.074 A 
ATOM     33  C   UNL A   1      40.416  27.782  28.886  1.00  0.00     0.049 A 
ATOM     34  N   UNL A   1      42.109  29.932  30.141  1.00  0.00    -0.248 NA
ATOM     35  C   UNL A   1      40.206  31.279  30.287  1.00  0.00     0.031 C 
ATOM     36  C   UNL A   1      39.655  26.723  28.217  1.00  0.00     0.029 A 
ATOM     37  N   UNL A   1      41.676  27.255  29.010  1.00  0.00    -0.354 N 
ATOM     38  C   UNL A   1      42.455  31.163  30.683  1.00  0.00     0.074 A 
ATOM     39  C   UNL A   1      41.257  31.975  30.692  1.00  0.00     0.031 C 
ATOM     40  C   UNL A   1      40.456  25.664  28.018  1.00  0.00     0.029 A 
ATOM     41  C   UNL A   1      41.795  25.982  28.502  1.00  0.00     0.049 A 
ATOM     42  H   UNL A   1      42.425  27.741  29.423  1.00  0.00     0.167 HD
ATOM     43  C   UNL A   1      43.658  31.578  31.145  1.00  0.00     0.031 A 
ATOM     44  C   UNL A   1      42.864  25.167  28.428  1.00  0.00     0.031 A 
ATOM     45  C   UNL A   1      44.841  30.761  31.157  1.00  0.00     0.049 A 
ATOM     46  C   UNL A   1      44.188  25.644  28.955  1.00  0.00     0.074 A 
ATOM     47  C   UNL A   1      46.094  31.068  31.655  1.00  0.00     0.029 A 
ATOM     48  N   UNL A   1      44.913  29.472  30.653  1.00  0.00    -0.354 N 
ATOM     49  N   UNL A   1      44.487  26.799  29.502  1.00  0.00    -0.248 NA
ATOM     50  C   UNL A   1      45.318  24.710  28.856  1.00  0.00     0.031 C 
ATOM     51  C   UNL A   1      46.934  29.972  31.424  1.00  0.00     0.029 A 
ATOM     52  C   UNL A   1      46.192  28.972  30.817  1.00  0.00     0.049 A 
ATOM     53  H   UNL A   1      44.165  28.984  30.239  1.00  0.00     0.167 HD
ATOM     54  C   UNL A   1      45.835  26.722  29.830  1.00  0.00     0.074 A 
ATOM     55  C   UNL A   1      46.290  25.406  29.430  1.00  0.00     0.031 C 
ATOM     56  C   UNL A   1      46.624  27.658  30.412  1.00  0.00     0.031 A 
BRANCH  43  57
ATOM     57  C   UNL A   1      43.739  32.983  31.674  1.00  0.00    -0.014 A 
ATOM     58  C   UNL A   1      43.640  33.243  33.053  1.00  0.00     0.010 A 
ATOM     59  C   UNL A   1      43.907  34.058  30.783  1.00  0.00     0.010 A 
ATOM     60  C   UNL A   1      43.648  34.556  33.527  1.00  0.00     0.020 A 
ATOM     61  C   UNL A   1      43.942  35.372  31.257  1.00  0.00     0.020 A 
ATOM     62  C   UNL A   1      43.787  35.614  32.623  1.00  0.00     0.054 A 
BRANCH  62  63
ATOM     63  S   UNL A   1      43.782  37.313  33.260  1.00  0.00     0.124 S 
ATOM     64  O   UNL A   1      45.011  37.339  34.049  1.00  0.00    -0.237 OA
ATOM     65  O   UNL A   1      43.803  38.116  32.039  1.00  0.00    -0.237 OA
ATOM     66  O   UNL A   1      42.544  37.389  34.030  1.00  0.00    -0.744 OA
ENDBRANCH  62  63
ENDBRANCH  43  57
BRANCH  44  67
ATOM     67  C   UNL A   1      42.718  23.803  27.856  1.00  0.00    -0.014 A 
ATOM     68  C   UNL A   1      42.417  22.715  28.694  1.00  0.00     0.010 A 
ATOM     69  C   UNL A   1      42.854  23.585  26.473  1.00  0.00     0.010 A 
ATOM     70  C   UNL A   1      42.264  21.431  28.163  1.00  0.00     0.020 A 
ATOM     71  C   UNL A   1      42.683  22.305  25.936  1.00  0.00     0.020 A 
ATOM     72  C   UNL A   1      42.397  21.235  26.786  1.00  0.00     0.054 A 
BRANCH  72  73
ATOM     73  S   UNL A   1      42.134  19.572  26.109  1.00  0.00     0.124 S 
ATOM     74  O   UNL A   1      43.042  19.562  24.966  1.00  0.00    -0.237 OA
ATOM     75  O   UNL A   1      42.513  18.710  27.227  1.00  0.00    -0.237 OA
ATOM     76  O   UNL A   1      40.710  19.560  25.781  1.00  0.00    -0.744 OA
ENDBRANCH  72  73
ENDBRANCH  44  67
BRANCH  56  77
ATOM     77  C   UNL A   1      48.056  27.285  30.676  1.00  0.00    -0.014 A 
ATOM     78  C   UNL A   1      48.419  26.594  31.845  1.00  0.00     0.010 A 
ATOM     79  C   UNL A   1      49.037  27.569  29.709  1.00  0.00     0.010 A 
ATOM     80  C   UNL A   1      49.745  26.207  32.050  1.00  0.00     0.020 A 
ATOM     81  C   UNL A   1      50.359  27.165  29.901  1.00  0.00     0.020 A 
ATOM     82  C   UNL A   1      50.707  26.493  31.076  1.00  0.00     0.054 A 
BRANCH  82  83
ATOM     83  S   UNL A   1      52.410  25.923  31.332  1.00  0.00     0.124 S 
ATOM     84  O   UNL A   1      52.949  25.956  29.976  1.00  0.00    -0.237 OA
ATOM     85  O   UNL A   1      52.951  26.926  32.248  1.00  0.00    -0.237 OA
ATOM     86  O   UNL A   1      52.244  24.590  31.907  1.00  0.00    -0.744 OA
ENDBRANCH  82  83
ENDBRANCH  56  77
ENDBRANCH  30  31
ENDBRANCH  22  25
ENDBRANCH  20  21
ENDBRANCH   1  20
TORSDOF 16
ENDMDL
MODEL 2
REMARK VINA RESULT:      -8.5      4.206      6.478
REMARK SMILES CC(C)[C@H](C(=O)NCCCCNC(=O)c1ccc(-c2c3nc(c(-c4ccc(S(=O)(=O)[O-])cc4)c4ccc([nH]4)c(-c4ccc(S(=O)(=O)[O-])cc4)c4nc(c(-c5ccc(S(=O)(=O)[O-])cc5)c5ccc2[nH]5)C=C4)C=C3)cc1)c1ccc(Cl)cc1F
REMARK SMILES IDX 10 1 9 2 8 3 7 4 5 5 6 6 4 8 2 9 1 10 3 11 75 12 76 13 81 14
REMARK SMILES IDX 77 15 80 16 82 17 78 18 79 19 11 20 12 21 13 22 14 24 15 25
REMARK SMILES IDX 16 26 74 27 17 28 73 29 18 30 19 31 20 32 67 33 21 34 72 35
REMARK SMILES IDX 66 36 68 37 22 38 71 39 65 40 64 41 23 43 53 44 34 45 52 46
REMARK SMILES IDX 35 47 38 48 51 49 69 50 36 51 37 52 50 54 70 55 39 56 24 57
REMARK SMILES IDX 25 58 33 59 26 60 32 61 27 62 28 63 29 64 30 65 31 66 54 67
REMARK SMILES IDX 55 68 63 69 56 70 62 71 57 72 58 73 59 74 60 75 61 76 40 77
REMARK SMILES IDX 41 78 49 79 42 80 48 81 43 82 44 83 45 84 46 85 47 86
REMARK H PARENT 7 7 12 23 68 42 38 53
REMARK Flexibility Score: inf
ROOT
ATOM      1  C   UNL A   1      32.488  27.957  27.368  1.00  0.00     0.023 C 
ENDROOT
BRANCH   1   2
ATOM      2  C   UNL A   1      31.185  27.795  26.589  1.00  0.00     0.023 C 
BRANCH   2   3
ATOM      3  C   UNL A   1      31.042  26.463  25.853  1.00  0.00     0.116 C 
BRANCH   3   4
ATOM      4  N   UNL A   1      31.208  25.363  26.778  1.00  0.00    -0.356 N 
ATOM      5  C   UNL A   1      31.739  24.120  26.645  1.00  0.00     0.227 C 
ATOM      6  O   UNL A   1      31.462  23.354  27.580  1.00  0.00    -0.274 OA
ATOM      7  H   UNL A   1      30.871  25.554  27.683  1.00  0.00     0.163 HD
BRANCH   5   8
ATOM      8  C   UNL A   1      32.774  23.691  25.580  1.00  0.00     0.114 C 
BRANCH   8   9
ATOM      9  C   UNL A   1      34.187  24.298  25.902  1.00  0.00    -0.000 C 
ATOM     10  C   UNL A   1      35.375  23.373  25.639  1.00  0.00     0.008 C 
ATOM     11  C   UNL A   1      34.405  25.641  25.201  1.00  0.00     0.008 C 
ENDBRANCH   8   9
BRANCH   8  12
ATOM     12  C   UNL A   1      32.785  22.255  25.069  1.00  0.00     0.001 A 
ATOM     13  C   UNL A   1      32.434  21.998  23.728  1.00  0.00     0.009 A 
ATOM     14  C   UNL A   1      33.095  21.150  25.871  1.00  0.00     0.128 A 
ATOM     15  C   UNL A   1      32.349  20.689  23.241  1.00  0.00     0.021 A 
ATOM     16  C   UNL A   1      33.009  19.841  25.397  1.00  0.00     0.060 A 
ATOM     17  F   UNL A   1      33.429  21.318  27.155  1.00  0.00    -0.207 F 
ATOM     18  C   UNL A   1      32.626  19.616  24.083  1.00  0.00     0.043 A 
ATOM     19  Cl  UNL A   1      32.477  18.007  23.497  1.00  0.00    -0.084 Cl
ENDBRANCH   8  12
ENDBRANCH   5   8
ENDBRANCH   3   4
ENDBRANCH   2   3
ENDBRANCH   1   2
BRANCH   1  20
ATOM     20  C   UNL A   1      33.465  28.960  26.776  1.00  0.00     0.116 C 
BRANCH  20  21
ATOM     21  N   UNL A   1      33.414  30.274  27.405  1.00  0.00    -0.352 N 
ATOM     22  C   UNL A   1      34.382  30.888  28.168  1.00  0.00     0.251 C 
ATOM     23  H   UNL A   1      32.583  30.785  27.268  1.00  0.00     0.163 HD
ATOM     24  O   UNL A   1      34.175  31.970  28.696  1.00  0.00    -0.269 OA
BRANCH  22  25
ATOM     25  C   UNL A   1      35.659  30.175  28.370  1.00  0.00     0.039 A 
ATOM     26  C   UNL A   1      36.588  30.152  27.329  1.00  0.00     0.014 A 
ATOM     27  C   UNL A   1      35.973  29.655  29.627  1.00  0.00     0.014 A 
ATOM     28  C   UNL A   1      37.882  29.694  27.583  1.00  0.00     0.010 A 
ATOM     29  C   UNL A   1      37.280  29.272  29.896  1.00  0.00     0.010 A 
ATOM     30  C   UNL A   1      38.251  29.306  28.881  1.00  0.00    -0.014 A 
BRANCH  30  31
ATOM     31  C   UNL A   1      39.652  28.957  29.221  1.00  0.00     0.031 A 
ATOM     32  C   UNL A   1      40.538  29.978  29.874  1.00  0.00     0.074 A 
ATOM     33  C   UNL A   1      40.151  27.760  28.852  1.00  0.00     0.049 A 
ATOM     34  N   UNL A   1      41.818  29.918  30.128  1.00  0.00    -0.248 NA
ATOM     35  C   UNL A   1      39.905  31.251  30.261  1.00  0.00     0.031 C 
ATOM     36  C   UNL A   1      39.404  26.697  28.173  1.00  0.00     0.029 A 
ATOM     37  N   UNL A   1      41.414  27.241  28.985  1.00  0.00    -0.354 N 
ATOM     38  C   UNL A   1      42.151  31.150  30.676  1.00  0.00     0.074 A 
ATOM     39  C   UNL A   1      40.948  31.953  30.677  1.00  0.00     0.031 C 
ATOM     40  C   UNL A   1      40.213  25.644  27.978  1.00  0.00     0.029 A 
ATOM     41  C   UNL A   1      41.546  25.970  28.475  1.00  0.00     0.049 A 
ATOM     42  H   UNL A   1      42.156  27.731  29.407  1.00  0.00     0.167 HD
ATOM     43  C   UNL A   1      43.347  31.571  31.150  1.00  0.00     0.031 A 
ATOM     44  C   UNL A   1      42.622  25.163  28.409  1.00  0.00     0.031 A 
ATOM     45  C   UNL A   1      44.535  30.762  31.171  1.00  0.00     0.049 A 
ATOM     46  C   UNL A   1      43.937  25.647  28.948  1.00  0.00     0.074 A 
ATOM     47  C   UNL A   1      45.782  31.076  31.680  1.00  0.00     0.029 A 
ATOM     48  N   UNL A   1      44.621  29.475  30.663  1.00  0.00    -0.354 N 
ATOM     49  N   UNL A   1      44.223  26.803  29.501  1.00  0.00    -0.248 NA
ATOM     50  C   UNL A   1      45.074  24.721  28.857  1.00  0.00     0.031 C 
ATOM     51  C   UNL A   1      46.632  29.987  31.454  1.00  0.00     0.029 A 
ATOM     52  C   UNL A   1      45.902  28.983  30.837  1.00  0.00     0.049 A 
ATOM     53  H   UNL A   1      43.880  28.983  30.242  1.00  0.00     0.167 HD
ATOM     54  C   UNL A   1      45.569  26.734  29.841  1.00  0.00     0.074 A 
ATOM     55  C   UNL A   1      46.037  25.422  29.441  1.00  0.00     0.031 C 
ATOM     56  C   UNL A   1      46.346  27.673  30.433  1.00  0.00     0.031 A 
BRANCH  43  57
ATOM     57  C   UNL A   1      43.414  32.975  31.684  1.00  0.00    -0.014 A 
ATOM     58  C   UNL A   1      43.600  34.068  30.819  1.00  0.00     0.010 A 
ATOM     59  C   UNL A   1      43.296  33.205  33.066  1.00  0.00     0.010 A 
ATOM     60  C   UNL A   1      43.728  35.361  31.332  1.00  0.00     0.020 A 
ATOM     61  C   UNL A   1      43.398  34.501  33.580  1.00  0.00     0.020 A 
ATOM     62  C   UNL A   1      43.638  35.567  32.711  1.00  0.00     0.054 A 
BRANCH  62  63
ATOM     63  S   UNL A   1      43.820  37.253  33.356  1.00  0.00     0.124 S 
ATOM     64  O   UNL A   1      42.614  37.393  34.168  1.00  0.00    -0.237 OA
ATOM     65  O   UNL A   1      45.074  37.180  34.103  1.00  0.00    -0.237 OA
ATOM     66  O   UNL A   1      43.863  38.080  32.153  1.00  0.00    -0.744 OA
ENDBRANCH  62  63
ENDBRANCH  43  57
BRANCH  44  67
ATOM     67  C   UNL A   1      42.490  23.799  27.831  1.00  0.00    -0.014 A 
ATOM     68  C   UNL A   1      42.752  23.584  26.466  1.00  0.00     0.010 A 
ATOM     69  C   UNL A   1      42.128  22.707  28.640  1.00  0.00     0.010 A 
ATOM     70  C   UNL A   1      42.644  22.304  25.917  1.00  0.00     0.020 A 
ATOM     71  C   UNL A   1      42.038  21.421  28.097  1.00  0.00     0.020 A 
ATOM     72  C   UNL A   1      42.289  21.229  26.737  1.00  0.00     0.054 A 
BRANCH  72  73
ATOM     73  S   UNL A   1      42.215  19.565  26.018  1.00  0.00     0.124 S 
ATOM     74  O   UNL A   1      42.672  18.734  27.128  1.00  0.00    -0.237 OA
ATOM     75  O   UNL A   1      40.802  19.432  25.667  1.00  0.00    -0.237 OA
ATOM     76  O   UNL A   1      43.126  19.647  24.878  1.00  0.00    -0.744 OA
ENDBRANCH  72  73
ENDBRANCH  44  67
BRANCH  56  77
ATOM     77  C   UNL A   1      47.778  27.310  30.708  1.00  0.00    -0.014 A 
ATOM     78  C   UNL A   1      48.119  26.498  31.804  1.00  0.00     0.010 A 
ATOM     79  C   UNL A   1      48.784  27.728  29.819  1.00  0.00     0.010 A 
ATOM     80  C   UNL A   1      49.448  26.123  32.015  1.00  0.00     0.020 A 
ATOM     81  C   UNL A   1      50.111  27.340  30.016  1.00  0.00     0.020 A 
ATOM     82  C   UNL A   1      50.436  26.546  31.119  1.00  0.00     0.054 A 
BRANCH  82  83
ATOM     83  S   UNL A   1      52.145  25.994  31.374  1.00  0.00     0.124 S 
ATOM     84  O   UNL A   1      52.680  27.048  32.230  1.00  0.00    -0.237 OA
ATOM     85  O   UNL A   1      51.971  24.692  32.015  1.00  0.00    -0.237 OA
ATOM     86  O   UNL A   1      52.697  25.945  30.022  1.00  0.00    -0.744 OA
ENDBRANCH  82  83
ENDBRANCH  56  77
ENDBRANCH  30  31
ENDBRANCH  22  25
ENDBRANCH  20  21
ENDBRANCH   1  20
TORSDOF 16
ENDMDL
MODEL 3
REMARK VINA RESULT:      -7.8      4.658      7.027
REMARK SMILES CC(C)[C@H](C(=O)NCCCCNC(=O)c1ccc(-c2c3nc(c(-c4ccc(S(=O)(=O)[O-])cc4)c4ccc([nH]4)c(-c4ccc(S(=O)(=O)[O-])cc4)c4nc(c(-c5ccc(S(=O)(=O)[O-])cc5)c5ccc2[nH]5)C=C4)C=C3)cc1)c1ccc(Cl)cc1F
REMARK SMILES IDX 10 1 9 2 8 3 7 4 5 5 6 6 4 8 2 9 1 10 3 11 75 12 76 13 81 14
REMARK SMILES IDX 77 15 80 16 82 17 78 18 79 19 11 20 12 21 13 22 14 24 15 25
REMARK SMILES IDX 16 26 74 27 17 28 73 29 18 30 19 31 20 32 67 33 21 34 72 35
REMARK SMILES IDX 66 36 68 37 22 38 71 39 65 40 64 41 23 43 53 44 34 45 52 46
REMARK SMILES IDX 35 47 38 48 51 49 69 50 36 51 37 52 50 54 70 55 39 56 24 57
REMARK SMILES IDX 25 58 33 59 26 60 32 61 27 62 28 63 29 64 30 65 31 66 54 67
REMARK SMILES IDX 55 68 63 69 56 70 62 71 57 72 58 73 59 74 60 75 61 76 40 77
REMARK SMILES IDX 41 78 49 79 42 80 48 81 43 82 44 83 45 84 46 85 47 86
REMARK H PARENT 7 7 12 23 68 42 38 53
REMARK Flexibility Score: inf
ROOT
ATOM      1  C   UNL A   1      33.292  28.392  27.299  1.00  0.00     0.023 C 
ENDROOT
BRANCH   1   2
ATOM      2  C   UNL A   1      31.770  28.292  27.263  1.00  0.00     0.023 C 
BRANCH   2   3
ATOM      3  C   UNL A   1      31.221  27.255  26.282  1.00  0.00     0.116 C 
BRANCH   3   4
ATOM      4  N   UNL A   1      31.157  25.956  26.916  1.00  0.00    -0.356 N 
ATOM      5  C   UNL A   1      31.455  24.705  26.483  1.00  0.00     0.227 C 
ATOM      6  O   UNL A   1      31.017  23.803  27.213  1.00  0.00    -0.274 OA
ATOM      7  H   UNL A   1      30.833  25.986  27.845  1.00  0.00     0.163 HD
BRANCH   5   8
ATOM      8  C   UNL A   1      32.426  24.357  25.330  1.00  0.00     0.114 C 
BRANCH   8   9
ATOM      9  C   UNL A   1      33.815  25.060  25.541  1.00  0.00    -0.000 C 
ATOM     10  C   UNL A   1      35.021  24.125  25.617  1.00  0.00     0.008 C 
ATOM     11  C   UNL A   1      34.066  26.155  24.501  1.00  0.00     0.008 C 
ENDBRANCH   8   9
BRANCH   8  12
ATOM     12  C   UNL A   1      32.495  22.929  24.802  1.00  0.00     0.001 A 
ATOM     13  C   UNL A   1      32.211  22.682  23.443  1.00  0.00     0.009 A 
ATOM     14  C   UNL A   1      32.795  21.821  25.603  1.00  0.00     0.128 A 
ATOM     15  C   UNL A   1      32.180  21.379  22.936  1.00  0.00     0.021 A 
ATOM     16  C   UNL A   1      32.762  20.517  25.109  1.00  0.00     0.060 A 
ATOM     17  F   UNL A   1      33.066  21.978  26.903  1.00  0.00    -0.207 F 
ATOM     18  C   UNL A   1      32.445  20.301  23.776  1.00  0.00     0.043 A 
ATOM     19  Cl  UNL A   1      32.361  18.697  23.163  1.00  0.00    -0.084 Cl
ENDBRANCH   8  12
ENDBRANCH   5   8
ENDBRANCH   3   4
ENDBRANCH   2   3
ENDBRANCH   1   2
BRANCH   1  20
ATOM     20  C   UNL A   1      33.871  29.587  26.558  1.00  0.00     0.116 C 
BRANCH  20  21
ATOM     21  N   UNL A   1      33.682  30.856  27.249  1.00  0.00    -0.352 N 
ATOM     22  C   UNL A   1      34.499  31.440  28.192  1.00  0.00     0.251 C 
ATOM     23  H   UNL A   1      32.868  31.358  27.013  1.00  0.00     0.163 HD
ATOM     24  O   UNL A   1      34.179  32.481  28.745  1.00  0.00    -0.269 OA
BRANCH  22  25
ATOM     25  C   UNL A   1      35.749  30.741  28.551  1.00  0.00     0.039 A 
ATOM     26  C   UNL A   1      36.954  31.203  28.019  1.00  0.00     0.014 A 
ATOM     27  C   UNL A   1      35.727  29.726  29.510  1.00  0.00     0.014 A 
ATOM     28  C   UNL A   1      38.156  30.710  28.530  1.00  0.00     0.010 A 
ATOM     29  C   UNL A   1      36.923  29.295  30.069  1.00  0.00     0.010 A 
ATOM     30  C   UNL A   1      38.147  29.797  29.596  1.00  0.00    -0.014 A 
BRANCH  30  31
ATOM     31  C   UNL A   1      39.400  29.367  30.264  1.00  0.00     0.031 A 
ATOM     32  C   UNL A   1      39.889  30.102  31.478  1.00  0.00     0.074 A 
ATOM     33  C   UNL A   1      40.145  28.384  29.718  1.00  0.00     0.049 A 
ATOM     34  N   UNL A   1      41.018  29.970  32.123  1.00  0.00    -0.248 NA
ATOM     35  C   UNL A   1      39.004  31.148  32.019  1.00  0.00     0.031 C 
ATOM     36  C   UNL A   1      39.800  27.622  28.514  1.00  0.00     0.029 A 
ATOM     37  N   UNL A   1      41.357  27.867  30.100  1.00  0.00    -0.354 N 
ATOM     38  C   UNL A   1      40.994  30.933  33.124  1.00  0.00     0.074 A 
ATOM     39  C   UNL A   1      39.757  31.670  32.975  1.00  0.00     0.031 C 
ATOM     40  C   UNL A   1      40.761  26.715  28.276  1.00  0.00     0.029 A 
ATOM     41  C   UNL A   1      41.810  26.860  29.280  1.00  0.00     0.049 A 
ATOM     42  H   UNL A   1      41.854  28.185  30.887  1.00  0.00     0.167 HD
ATOM     43  C   UNL A   1      41.909  31.173  34.092  1.00  0.00     0.031 A 
ATOM     44  C   UNL A   1      42.948  26.141  29.327  1.00  0.00     0.031 A 
ATOM     45  C   UNL A   1      43.125  30.423  34.254  1.00  0.00     0.049 A 
ATOM     46  C   UNL A   1      43.947  26.419  30.413  1.00  0.00     0.074 A 
ATOM     47  C   UNL A   1      44.092  30.552  35.234  1.00  0.00     0.029 A 
ATOM     48  N   UNL A   1      43.537  29.400  33.414  1.00  0.00    -0.354 N 
ATOM     49  N   UNL A   1      43.887  27.307  31.377  1.00  0.00    -0.248 NA
ATOM     50  C   UNL A   1      45.167  25.598  30.421  1.00  0.00     0.031 C 
ATOM     51  C   UNL A   1      45.106  29.623  34.970  1.00  0.00     0.029 A 
ATOM     52  C   UNL A   1      44.750  28.893  33.847  1.00  0.00     0.049 A 
ATOM     53  H   UNL A   1      43.041  29.080  32.627  1.00  0.00     0.167 HD
ATOM     54  C   UNL A   1      45.052  27.139  32.118  1.00  0.00     0.074 A 
ATOM     55  C   UNL A   1      45.791  26.059  31.497  1.00  0.00     0.031 C 
ATOM     56  C   UNL A   1      45.469  27.817  33.214  1.00  0.00     0.031 A 
BRANCH  43  57
ATOM     57  C   UNL A   1      41.616  32.298  35.045  1.00  0.00    -0.014 A 
ATOM     58  C   UNL A   1      42.004  33.616  34.748  1.00  0.00     0.010 A 
ATOM     59  C   UNL A   1      40.952  32.035  36.256  1.00  0.00     0.010 A 
ATOM     60  C   UNL A   1      41.788  34.642  35.670  1.00  0.00     0.020 A 
ATOM     61  C   UNL A   1      40.710  33.064  37.171  1.00  0.00     0.020 A 
ATOM     62  C   UNL A   1      41.152  34.356  36.881  1.00  0.00     0.054 A 
BRANCH  62  63
ATOM     63  S   UNL A   1      40.892  35.702  38.070  1.00  0.00     0.124 S 
ATOM     64  O   UNL A   1      40.090  36.640  37.288  1.00  0.00    -0.237 OA
ATOM     65  O   UNL A   1      40.189  35.036  39.165  1.00  0.00    -0.237 OA
ATOM     66  O   UNL A   1      42.246  36.150  38.386  1.00  0.00    -0.744 OA
ENDBRANCH  62  63
ENDBRANCH  43  57
BRANCH  44  67
ATOM     67  C   UNL A   1      43.189  25.069  28.325  1.00  0.00    -0.014 A 
ATOM     68  C   UNL A   1      43.868  25.361  27.129  1.00  0.00     0.010 A 
ATOM     69  C   UNL A   1      42.767  23.749  28.568  1.00  0.00     0.010 A 
ATOM     70  C   UNL A   1      44.111  24.357  26.188  1.00  0.00     0.020 A 
ATOM     71  C   UNL A   1      43.026  22.738  27.638  1.00  0.00     0.020 A 
ATOM     72  C   UNL A   1      43.689  23.050  26.449  1.00  0.00     0.054 A 
BRANCH  72  73
ATOM     73  S   UNL A   1      44.069  21.749  25.243  1.00  0.00     0.124 S 
ATOM     74  O   UNL A   1      45.424  21.366  25.627  1.00  0.00    -0.237 OA
ATOM     75  O   UNL A   1      43.030  20.756  25.509  1.00  0.00    -0.237 OA
ATOM     76  O   UNL A   1      43.949  22.433  23.957  1.00  0.00    -0.744 OA
ENDBRANCH  72  73
ENDBRANCH  44  67
BRANCH  56  77
ATOM     77  C   UNL A   1      46.773  27.396  33.831  1.00  0.00    -0.014 A 
ATOM     78  C   UNL A   1      47.981  28.006  33.451  1.00  0.00     0.010 A 
ATOM     79  C   UNL A   1      46.779  26.430  34.852  1.00  0.00     0.010 A 
ATOM     80  C   UNL A   1      49.178  27.644  34.072  1.00  0.00     0.020 A 
ATOM     81  C   UNL A   1      47.971  26.079  35.489  1.00  0.00     0.020 A 
ATOM     82  C   UNL A   1      49.165  26.683  35.089  1.00  0.00     0.054 A 
BRANCH  82  83
ATOM     83  S   UNL A   1      50.721  26.274  35.928  1.00  0.00     0.124 S 
ATOM     84  O   UNL A   1      51.679  27.118  35.220  1.00  0.00    -0.237 OA
ATOM     85  O   UNL A   1      50.450  26.655  37.313  1.00  0.00    -0.237 OA
ATOM     86  O   UNL A   1      50.867  24.838  35.702  1.00  0.00    -0.744 OA
ENDBRANCH  82  83
ENDBRANCH  56  77
ENDBRANCH  30  31
ENDBRANCH  22  25
ENDBRANCH  20  21
ENDBRANCH   1  20
TORSDOF 16
ENDMDL
