MODEL 1
REMARK VINA RESULT:     -11.4      0.000      0.000
REMARK SMILES Cc1n[nH]c(C(=O)NCCCCNC(=O)c2ccc(-c3c4nc(c(-c5ccc(S(=O)(=O)[O-])cc5)c5ccc([nH]5)c(-c5ccc(S(=O)(=O)[O-])cc5)c5nc(c(-c6ccc(S(=O)(=O)[O-])cc6)c6ccc3[nH]6)C=C5)C=C4)cc2)c1Br
REMARK SMILES IDX 12 1 11 2 10 3 9 4 8 5 6 6 7 7 5 9 1 10 2 11 3 12 76 13 4 14
REMARK SMILES IDX 77 15 13 17 14 18 15 20 16 21 17 22 75 23 18 24 74 25 19 26
REMARK SMILES IDX 20 27 21 28 68 29 22 30 73 31 67 32 69 33 23 34 72 35 66 36
REMARK SMILES IDX 65 37 24 39 54 40 35 41 53 42 36 43 39 44 52 45 70 46 37 47
REMARK SMILES IDX 38 48 51 50 71 51 40 52 25 53 26 54 34 55 27 56 33 57 28 58
REMARK SMILES IDX 29 59 30 60 31 61 32 62 55 63 56 64 64 65 57 66 63 67 58 68
REMARK SMILES IDX 59 69 60 70 61 71 62 72 41 73 42 74 50 75 43 76 49 77 44 78
REMARK SMILES IDX 45 79 46 80 47 81 48 82
REMARK H PARENT 8 8 4 16 13 19 69 38 39 49
REMARK Flexibility Score: inf
ROOT
ATOM      1  C   UNL A   1      40.021  22.707  26.652  1.00  0.00     0.116 C 
ENDROOT
BRANCH   1   2
ATOM      2  C   UNL A   1      38.885  22.039  25.882  1.00  0.00     0.023 C 
BRANCH   2   3
ATOM      3  C   UNL A   1      37.487  22.639  26.117  1.00  0.00     0.023 C 
BRANCH   3   4
ATOM      4  C   UNL A   1      36.305  21.700  25.847  1.00  0.00     0.116 C 
BRANCH   4   5
ATOM      5  N   UNL A   1      35.213  21.925  26.772  1.00  0.00    -0.351 N 
ATOM      6  C   UNL A   1      33.953  21.417  26.953  1.00  0.00     0.270 C 
ATOM      7  O   UNL A   1      33.330  21.955  27.871  1.00  0.00    -0.267 OA
ATOM      8  H   UNL A   1      35.431  22.617  27.438  1.00  0.00     0.163 HD
BRANCH   6   9
ATOM      9  C   UNL A   1      33.383  20.357  26.154  1.00  0.00     0.137 A 
ATOM     10  C   UNL A   1      31.996  18.595  23.197  1.00  0.00     0.070 C 
ATOM     11  C   UNL A   1      32.525  19.107  24.486  1.00  0.00     0.074 A 
ATOM     12  N   UNL A   1      32.528  18.312  25.562  1.00  0.00    -0.179 NA
ATOM     13  C   UNL A   1      33.056  20.374  24.807  1.00  0.00     0.071 A 
ATOM     14  N   UNL A   1      33.043  19.087  26.532  1.00  0.00    -0.272 N 
ATOM     15  Br  UNL A   1      33.238  21.774  23.564  1.00  0.00    -0.046 Br
ATOM     16  H   UNL A   1      33.169  18.762  27.454  1.00  0.00     0.190 HD
ENDBRANCH   6   9
ENDBRANCH   4   5
ENDBRANCH   3   4
ENDBRANCH   2   3
ENDBRANCH   1   2
BRANCH   1  17
ATOM     17  N   UNL A   1      41.345  22.423  26.097  1.00  0.00    -0.352 N 
ATOM     18  C   UNL A   1      42.301  23.331  25.662  1.00  0.00     0.251 C 
ATOM     19  H   UNL A   1      41.589  21.472  26.024  1.00  0.00     0.163 HD
ATOM     20  O   UNL A   1      43.173  22.997  24.876  1.00  0.00    -0.269 OA
BRANCH  18  21
ATOM     21  C   UNL A   1      42.244  24.708  26.188  1.00  0.00     0.039 A 
ATOM     22  C   UNL A   1      41.457  25.703  25.601  1.00  0.00     0.014 A 
ATOM     23  C   UNL A   1      42.977  24.969  27.338  1.00  0.00     0.014 A 
ATOM     24  C   UNL A   1      41.350  26.935  26.245  1.00  0.00     0.010 A 
ATOM     25  C   UNL A   1      42.723  26.101  28.062  1.00  0.00     0.010 A 
ATOM     26  C   UNL A   1      41.972  27.119  27.490  1.00  0.00    -0.014 A 
BRANCH  26  27
ATOM     27  C   UNL A   1      41.789  28.340  28.267  1.00  0.00     0.031 A 
ATOM     28  C   UNL A   1      42.828  29.383  28.055  1.00  0.00     0.074 A 
ATOM     29  C   UNL A   1      40.645  28.611  28.932  1.00  0.00     0.049 A 
ATOM     30  N   UNL A   1      43.720  29.788  28.897  1.00  0.00    -0.248 NA
ATOM     31  C   UNL A   1      42.983  29.954  26.707  1.00  0.00     0.031 C 
ATOM     32  C   UNL A   1      39.390  27.844  28.958  1.00  0.00     0.029 A 
ATOM     33  N   UNL A   1      40.314  29.726  29.632  1.00  0.00    -0.354 N 
ATOM     34  C   UNL A   1      44.408  30.820  28.265  1.00  0.00     0.074 A 
ATOM     35  C   UNL A   1      44.043  30.748  26.873  1.00  0.00     0.031 C 
ATOM     36  C   UNL A   1      38.385  28.630  29.401  1.00  0.00     0.029 A 
ATOM     37  C   UNL A   1      38.952  29.879  29.870  1.00  0.00     0.049 A 
ATOM     38  H   UNL A   1      40.984  30.375  29.945  1.00  0.00     0.167 HD
ATOM     39  C   UNL A   1      45.038  31.799  28.974  1.00  0.00     0.031 A 
ATOM     40  C   UNL A   1      38.334  30.972  30.384  1.00  0.00     0.031 A 
ATOM     41  C   UNL A   1      45.144  31.459  30.370  1.00  0.00     0.049 A 
ATOM     42  C   UNL A   1      39.376  31.752  31.100  1.00  0.00     0.074 A 
ATOM     43  C   UNL A   1      45.722  30.419  31.071  1.00  0.00     0.029 A 
ATOM     44  N   UNL A   1      44.228  32.027  31.227  1.00  0.00    -0.354 N 
ATOM     45  N   UNL A   1      40.005  31.305  32.153  1.00  0.00    -0.248 NA
ATOM     46  C   UNL A   1      40.061  32.804  30.366  1.00  0.00     0.031 C 
ATOM     47  C   UNL A   1      44.775  30.101  32.090  1.00  0.00     0.029 A 
ATOM     48  C   UNL A   1      43.725  31.018  32.009  1.00  0.00     0.049 A 
ATOM     49  H   UNL A   1      43.981  32.979  31.270  1.00  0.00     0.167 HD
ATOM     50  C   UNL A   1      41.327  31.688  31.970  1.00  0.00     0.074 A 
ATOM     51  C   UNL A   1      41.283  32.684  30.897  1.00  0.00     0.031 C 
ATOM     52  C   UNL A   1      42.361  30.969  32.499  1.00  0.00     0.031 A 
BRANCH  39  53
ATOM     53  C   UNL A   1      45.208  33.219  28.488  1.00  0.00    -0.014 A 
ATOM     54  C   UNL A   1      46.485  33.813  28.553  1.00  0.00     0.010 A 
ATOM     55  C   UNL A   1      44.120  34.074  28.223  1.00  0.00     0.010 A 
ATOM     56  C   UNL A   1      46.652  35.199  28.426  1.00  0.00     0.020 A 
ATOM     57  C   UNL A   1      44.279  35.450  28.049  1.00  0.00     0.020 A 
ATOM     58  C   UNL A   1      45.542  36.009  28.187  1.00  0.00     0.054 A 
BRANCH  58  59
ATOM     59  S   UNL A   1      45.752  37.805  28.125  1.00  0.00     0.124 S 
ATOM     60  O   UNL A   1      44.469  38.276  28.636  1.00  0.00    -0.237 OA
ATOM     61  O   UNL A   1      46.900  38.012  29.004  1.00  0.00    -0.237 OA
ATOM     62  O   UNL A   1      46.000  38.072  26.711  1.00  0.00    -0.744 OA
ENDBRANCH  58  59
ENDBRANCH  39  53
BRANCH  40  63
ATOM     63  C   UNL A   1      37.017  31.537  29.993  1.00  0.00    -0.014 A 
ATOM     64  C   UNL A   1      36.099  31.991  30.959  1.00  0.00     0.010 A 
ATOM     65  C   UNL A   1      36.773  31.890  28.648  1.00  0.00     0.010 A 
ATOM     66  C   UNL A   1      35.018  32.818  30.601  1.00  0.00     0.020 A 
ATOM     67  C   UNL A   1      35.697  32.709  28.283  1.00  0.00     0.020 A 
ATOM     68  C   UNL A   1      34.837  33.190  29.266  1.00  0.00     0.054 A 
BRANCH  68  69
ATOM     69  S   UNL A   1      33.552  34.404  28.838  1.00  0.00     0.124 S 
ATOM     70  O   UNL A   1      32.959  34.703  30.139  1.00  0.00    -0.237 OA
ATOM     71  O   UNL A   1      34.324  35.486  28.233  1.00  0.00    -0.237 OA
ATOM     72  O   UNL A   1      32.685  33.675  27.915  1.00  0.00    -0.744 OA
ENDBRANCH  68  69
ENDBRANCH  40  63
BRANCH  52  73
ATOM     73  C   UNL A   1      42.055  29.879  33.506  1.00  0.00    -0.014 A 
ATOM     74  C   UNL A   1      41.688  28.563  33.161  1.00  0.00     0.010 A 
ATOM     75  C   UNL A   1      42.316  30.162  34.858  1.00  0.00     0.010 A 
ATOM     76  C   UNL A   1      41.564  27.568  34.146  1.00  0.00     0.020 A 
ATOM     77  C   UNL A   1      42.212  29.173  35.840  1.00  0.00     0.020 A 
ATOM     78  C   UNL A   1      41.827  27.882  35.482  1.00  0.00     0.054 A 
BRANCH  78  79
ATOM     79  S   UNL A   1      41.706  26.589  36.751  1.00  0.00     0.124 S 
ATOM     80  O   UNL A   1      40.475  26.945  37.452  1.00  0.00    -0.237 OA
ATOM     81  O   UNL A   1      41.649  25.361  35.961  1.00  0.00    -0.237 OA
ATOM     82  O   UNL A   1      42.931  26.753  37.534  1.00  0.00    -0.744 OA
ENDBRANCH  78  79
ENDBRANCH  52  73
ENDBRANCH  26  27
ENDBRANCH  18  21
ENDBRANCH   1  17
TORSDOF 14
ENDMDL
MODEL 2
REMARK VINA RESULT:     -11.2      1.964      2.504
REMARK SMILES Cc1n[nH]c(C(=O)NCCCCNC(=O)c2ccc(-c3c4nc(c(-c5ccc(S(=O)(=O)[O-])cc5)c5ccc([nH]5)c(-c5ccc(S(=O)(=O)[O-])cc5)c5nc(c(-c6ccc(S(=O)(=O)[O-])cc6)c6ccc3[nH]6)C=C5)C=C4)cc2)c1Br
REMARK SMILES IDX 12 1 11 2 10 3 9 4 8 5 6 6 7 7 5 9 1 10 2 11 3 12 76 13 4 14
REMARK SMILES IDX 77 15 13 17 14 18 15 20 16 21 17 22 75 23 18 24 74 25 19 26
REMARK SMILES IDX 20 27 21 28 68 29 22 30 73 31 67 32 69 33 23 34 72 35 66 36
REMARK SMILES IDX 65 37 24 39 54 40 35 41 53 42 36 43 39 44 52 45 70 46 37 47
REMARK SMILES IDX 38 48 51 50 71 51 40 52 25 53 26 54 34 55 27 56 33 57 28 58
REMARK SMILES IDX 29 59 30 60 31 61 32 62 55 63 56 64 64 65 57 66 63 67 58 68
REMARK SMILES IDX 59 69 60 70 61 71 62 72 41 73 42 74 50 75 43 76 49 77 44 78
REMARK SMILES IDX 45 79 46 80 47 81 48 82
REMARK H PARENT 8 8 4 16 13 19 69 38 39 49
REMARK Flexibility Score: inf
ROOT
ATOM      1  C   UNL A   1      37.592  23.174  25.899  1.00  0.00     0.116 C 
ENDROOT
BRANCH   1   2
ATOM      2  C   UNL A   1      36.973  22.888  24.534  1.00  0.00     0.023 C 
BRANCH   2   3
ATOM      3  C   UNL A   1      35.954  21.735  24.500  1.00  0.00     0.023 C 
BRANCH   3   4
ATOM      4  C   UNL A   1      34.896  21.748  25.610  1.00  0.00     0.116 C 
BRANCH   4   5
ATOM      5  N   UNL A   1      33.757  20.915  25.282  1.00  0.00    -0.351 N 
ATOM      6  C   UNL A   1      32.393  21.032  25.363  1.00  0.00     0.270 C 
ATOM      7  O   UNL A   1      31.789  20.020  25.001  1.00  0.00    -0.267 OA
ATOM      8  H   UNL A   1      34.031  20.046  24.908  1.00  0.00     0.163 HD
BRANCH   6   9
ATOM      9  C   UNL A   1      31.706  22.215  25.828  1.00  0.00     0.137 A 
ATOM     10  C   UNL A   1      30.130  25.573  25.753  1.00  0.00     0.070 C 
ATOM     11  C   UNL A   1      30.697  24.223  25.996  1.00  0.00     0.074 A 
ATOM     12  N   UNL A   1      30.644  23.693  27.223  1.00  0.00    -0.179 NA
ATOM     13  C   UNL A   1      31.335  23.336  25.102  1.00  0.00     0.071 A 
ATOM     14  N   UNL A   1      31.252  22.503  27.086  1.00  0.00    -0.272 N 
ATOM     15  Br  UNL A   1      31.596  23.703  23.277  1.00  0.00    -0.046 Br
ATOM     16  H   UNL A   1      31.363  21.878  27.840  1.00  0.00     0.190 HD
ENDBRANCH   6   9
ENDBRANCH   4   5
ENDBRANCH   3   4
ENDBRANCH   2   3
ENDBRANCH   1   2
BRANCH   1  17
ATOM     17  N   UNL A   1      38.654  22.235  26.264  1.00  0.00    -0.352 N 
ATOM     18  C   UNL A   1      39.982  22.518  26.555  1.00  0.00     0.251 C 
ATOM     19  H   UNL A   1      38.396  21.286  26.309  1.00  0.00     0.163 HD
ATOM     20  O   UNL A   1      40.843  21.661  26.457  1.00  0.00    -0.269 OA
BRANCH  18  21
ATOM     21  C   UNL A   1      40.321  23.883  27.001  1.00  0.00     0.039 A 
ATOM     22  C   UNL A   1      39.673  25.018  26.504  1.00  0.00     0.014 A 
ATOM     23  C   UNL A   1      41.290  23.996  27.989  1.00  0.00     0.014 A 
ATOM     24  C   UNL A   1      39.954  26.255  27.084  1.00  0.00     0.010 A 
ATOM     25  C   UNL A   1      41.423  25.169  28.679  1.00  0.00     0.010 A 
ATOM     26  C   UNL A   1      40.818  26.318  28.189  1.00  0.00    -0.014 A 
BRANCH  26  27
ATOM     27  C   UNL A   1      41.047  27.563  28.913  1.00  0.00     0.031 A 
ATOM     28  C   UNL A   1      42.120  28.429  28.353  1.00  0.00     0.074 A 
ATOM     29  C   UNL A   1      40.198  28.018  29.860  1.00  0.00     0.049 A 
ATOM     30  N   UNL A   1      43.267  28.701  28.881  1.00  0.00    -0.248 NA
ATOM     31  C   UNL A   1      41.957  28.950  26.986  1.00  0.00     0.031 C 
ATOM     32  C   UNL A   1      38.908  27.456  30.287  1.00  0.00     0.029 A 
ATOM     33  N   UNL A   1      40.250  29.181  30.559  1.00  0.00    -0.354 N 
ATOM     34  C   UNL A   1      43.883  29.605  28.020  1.00  0.00     0.074 A 
ATOM     35  C   UNL A   1      43.123  29.572  26.796  1.00  0.00     0.031 C 
ATOM     36  C   UNL A   1      38.200  28.395  30.952  1.00  0.00     0.029 A 
ATOM     37  C   UNL A   1      39.054  29.547  31.166  1.00  0.00     0.049 A 
ATOM     38  H   UNL A   1      41.070  29.722  30.630  1.00  0.00     0.167 HD
ATOM     39  C   UNL A   1      44.827  30.484  28.461  1.00  0.00     0.031 A 
ATOM     40  C   UNL A   1      38.778  30.729  31.771  1.00  0.00     0.031 A 
ATOM     41  C   UNL A   1      45.285  30.150  29.787  1.00  0.00     0.049 A 
ATOM     42  C   UNL A   1      40.085  31.347  32.113  1.00  0.00     0.074 A 
ATOM     43  C   UNL A   1      45.884  29.042  30.353  1.00  0.00     0.029 A 
ATOM     44  N   UNL A   1      44.750  30.866  30.834  1.00  0.00    -0.354 N 
ATOM     45  N   UNL A   1      40.921  30.822  32.967  1.00  0.00    -0.248 NA
ATOM     46  C   UNL A   1      40.672  32.270  31.154  1.00  0.00     0.031 C 
ATOM     47  C   UNL A   1      45.239  28.890  31.616  1.00  0.00     0.029 A 
ATOM     48  C   UNL A   1      44.355  29.958  31.785  1.00  0.00     0.049 A 
ATOM     49  H   UNL A   1      44.666  31.844  30.890  1.00  0.00     0.167 HD
ATOM     50  C   UNL A   1      42.173  30.993  32.392  1.00  0.00     0.074 A 
ATOM     51  C   UNL A   1      41.964  31.968  31.320  1.00  0.00     0.031 C 
ATOM     52  C   UNL A   1      43.201  30.128  32.645  1.00  0.00     0.031 A 
BRANCH  39  53
ATOM     53  C   UNL A   1      45.053  31.853  27.865  1.00  0.00    -0.014 A 
ATOM     54  C   UNL A   1      46.361  32.229  27.498  1.00  0.00     0.010 A 
ATOM     55  C   UNL A   1      44.082  32.873  27.900  1.00  0.00     0.010 A 
ATOM     56  C   UNL A   1      46.691  33.568  27.246  1.00  0.00     0.020 A 
ATOM     57  C   UNL A   1      44.388  34.204  27.607  1.00  0.00     0.020 A 
ATOM     58  C   UNL A   1      45.701  34.548  27.314  1.00  0.00     0.054 A 
BRANCH  58  59
ATOM     59  S   UNL A   1      46.155  36.284  27.087  1.00  0.00     0.124 S 
ATOM     60  O   UNL A   1      44.862  36.951  27.204  1.00  0.00    -0.237 OA
ATOM     61  O   UNL A   1      47.086  36.507  28.190  1.00  0.00    -0.237 OA
ATOM     62  O   UNL A   1      46.756  36.309  25.756  1.00  0.00    -0.744 OA
ENDBRANCH  58  59
ENDBRANCH  39  53
BRANCH  40  63
ATOM     63  C   UNL A   1      37.500  31.487  31.739  1.00  0.00    -0.014 A 
ATOM     64  C   UNL A   1      36.659  31.551  32.867  1.00  0.00     0.010 A 
ATOM     65  C   UNL A   1      37.239  32.385  30.682  1.00  0.00     0.010 A 
ATOM     66  C   UNL A   1      35.640  32.517  32.959  1.00  0.00     0.020 A 
ATOM     67  C   UNL A   1      36.224  33.346  30.764  1.00  0.00     0.020 A 
ATOM     68  C   UNL A   1      35.444  33.424  31.914  1.00  0.00     0.054 A 
BRANCH  68  69
ATOM     69  S   UNL A   1      34.252  34.784  32.116  1.00  0.00     0.124 S 
ATOM     70  O   UNL A   1      33.931  35.125  30.732  1.00  0.00    -0.237 OA
ATOM     71  O   UNL A   1      33.176  34.153  32.876  1.00  0.00    -0.237 OA
ATOM     72  O   UNL A   1      35.008  35.799  32.845  1.00  0.00    -0.744 OA
ENDBRANCH  68  69
ENDBRANCH  40  63
BRANCH  52  73
ATOM     73  C   UNL A   1      43.045  29.113  33.760  1.00  0.00    -0.014 A 
ATOM     74  C   UNL A   1      43.445  29.334  35.092  1.00  0.00     0.010 A 
ATOM     75  C   UNL A   1      42.307  27.951  33.472  1.00  0.00     0.010 A 
ATOM     76  C   UNL A   1      43.134  28.406  36.101  1.00  0.00     0.020 A 
ATOM     77  C   UNL A   1      41.979  27.033  34.473  1.00  0.00     0.020 A 
ATOM     78  C   UNL A   1      42.402  27.258  35.782  1.00  0.00     0.054 A 
BRANCH  78  79
ATOM     79  S   UNL A   1      41.965  26.078  37.090  1.00  0.00     0.124 S 
ATOM     80  O   UNL A   1      42.971  26.350  38.113  1.00  0.00    -0.237 OA
ATOM     81  O   UNL A   1      40.598  26.462  37.434  1.00  0.00    -0.237 OA
ATOM     82  O   UNL A   1      42.085  24.774  36.438  1.00  0.00    -0.744 OA
ENDBRANCH  78  79
ENDBRANCH  52  73
ENDBRANCH  26  27
ENDBRANCH  18  21
ENDBRANCH   1  17
TORSDOF 14
ENDMDL
MODEL 3
REMARK VINA RESULT:     -11.2      3.391      5.680
REMARK SMILES Cc1n[nH]c(C(=O)NCCCCNC(=O)c2ccc(-c3c4nc(c(-c5ccc(S(=O)(=O)[O-])cc5)c5ccc([nH]5)c(-c5ccc(S(=O)(=O)[O-])cc5)c5nc(c(-c6ccc(S(=O)(=O)[O-])cc6)c6ccc3[nH]6)C=C5)C=C4)cc2)c1Br
REMARK SMILES IDX 12 1 11 2 10 3 9 4 8 5 6 6 7 7 5 9 1 10 2 11 3 12 76 13 4 14
REMARK SMILES IDX 77 15 13 17 14 18 15 20 16 21 17 22 75 23 18 24 74 25 19 26
REMARK SMILES IDX 20 27 21 28 68 29 22 30 73 31 67 32 69 33 23 34 72 35 66 36
REMARK SMILES IDX 65 37 24 39 54 40 35 41 53 42 36 43 39 44 52 45 70 46 37 47
REMARK SMILES IDX 38 48 51 50 71 51 40 52 25 53 26 54 34 55 27 56 33 57 28 58
REMARK SMILES IDX 29 59 30 60 31 61 32 62 55 63 56 64 64 65 57 66 63 67 58 68
REMARK SMILES IDX 59 69 60 70 61 71 62 72 41 73 42 74 50 75 43 76 49 77 44 78
REMARK SMILES IDX 45 79 46 80 47 81 48 82
REMARK H PARENT 8 8 4 16 13 19 69 38 39 49
REMARK Flexibility Score: inf
ROOT
ATOM      1  C   UNL A   1      42.843  22.246  25.941  1.00  0.00     0.116 C 
ENDROOT
BRANCH   1   2
ATOM      2  C   UNL A   1      43.414  23.043  24.772  1.00  0.00     0.023 C 
BRANCH   2   3
ATOM      3  C   UNL A   1      44.424  22.288  23.889  1.00  0.00     0.023 C 
BRANCH   3   4
ATOM      4  C   UNL A   1      45.873  22.286  24.387  1.00  0.00     0.116 C 
BRANCH   4   5
ATOM      5  N   UNL A   1      46.561  23.518  24.057  1.00  0.00    -0.351 N 
ATOM      6  C   UNL A   1      46.940  24.649  24.733  1.00  0.00     0.270 C 
ATOM      7  O   UNL A   1      47.481  25.494  24.017  1.00  0.00    -0.267 OA
ATOM      8  H   UNL A   1      46.822  23.551  23.108  1.00  0.00     0.163 HD
BRANCH   6   9
ATOM      9  C   UNL A   1      46.731  24.857  26.147  1.00  0.00     0.137 A 
ATOM     10  C   UNL A   1      45.140  26.024  29.290  1.00  0.00     0.070 C 
ATOM     11  C   UNL A   1      45.926  25.460  28.164  1.00  0.00     0.074 A 
ATOM     12  N   UNL A   1      47.057  24.791  28.416  1.00  0.00    -0.179 NA
ATOM     13  C   UNL A   1      45.683  25.513  26.775  1.00  0.00     0.071 A 
ATOM     14  N   UNL A   1      47.506  24.448  27.197  1.00  0.00    -0.272 N 
ATOM     15  Br  UNL A   1      44.185  26.353  26.010  1.00  0.00    -0.046 Br
ATOM     16  H   UNL A   1      48.338  23.937  27.068  1.00  0.00     0.190 HD
ENDBRANCH   6   9
ENDBRANCH   4   5
ENDBRANCH   3   4
ENDBRANCH   2   3
ENDBRANCH   1   2
BRANCH   1  17
ATOM     17  N   UNL A   1      41.402  22.013  25.838  1.00  0.00    -0.352 N 
ATOM     18  C   UNL A   1      40.378  22.692  26.484  1.00  0.00     0.251 C 
ATOM     19  H   UNL A   1      41.124  21.286  25.235  1.00  0.00     0.163 HD
ATOM     20  O   UNL A   1      39.281  22.180  26.633  1.00  0.00    -0.269 OA
BRANCH  18  21
ATOM     21  C   UNL A   1      40.648  24.058  26.972  1.00  0.00     0.039 A 
ATOM     22  C   UNL A   1      40.009  25.183  26.443  1.00  0.00     0.014 A 
ATOM     23  C   UNL A   1      41.540  24.180  28.029  1.00  0.00     0.014 A 
ATOM     24  C   UNL A   1      40.215  26.418  27.058  1.00  0.00     0.010 A 
ATOM     25  C   UNL A   1      41.593  25.345  28.742  1.00  0.00     0.010 A 
ATOM     26  C   UNL A   1      40.995  26.486  28.223  1.00  0.00    -0.014 A 
BRANCH  26  27
ATOM     27  C   UNL A   1      41.140  27.725  28.979  1.00  0.00     0.031 A 
ATOM     28  C   UNL A   1      42.170  28.664  28.458  1.00  0.00     0.074 A 
ATOM     29  C   UNL A   1      40.249  28.110  29.919  1.00  0.00     0.049 A 
ATOM     30  N   UNL A   1      43.290  28.990  29.012  1.00  0.00    -0.248 NA
ATOM     31  C   UNL A   1      42.001  29.206  27.099  1.00  0.00     0.031 C 
ATOM     32  C   UNL A   1      38.986  27.465  30.309  1.00  0.00     0.029 A 
ATOM     33  N   UNL A   1      40.221  29.258  30.643  1.00  0.00    -0.354 N 
ATOM     34  C   UNL A   1      43.868  29.947  28.183  1.00  0.00     0.074 A 
ATOM     35  C   UNL A   1      43.132  29.898  26.945  1.00  0.00     0.031 C 
ATOM     36  C   UNL A   1      38.214  28.346  30.981  1.00  0.00     0.029 A 
ATOM     37  C   UNL A   1      38.996  29.541  31.236  1.00  0.00     0.049 A 
ATOM     38  H   UNL A   1      41.007  29.843  30.741  1.00  0.00     0.167 HD
ATOM     39  C   UNL A   1      44.752  30.868  28.660  1.00  0.00     0.031 A 
ATOM     40  C   UNL A   1      38.641  30.691  31.861  1.00  0.00     0.031 A 
ATOM     41  C   UNL A   1      45.204  30.532  29.987  1.00  0.00     0.049 A 
ATOM     42  C   UNL A   1      39.904  31.375  32.241  1.00  0.00     0.074 A 
ATOM     43  C   UNL A   1      45.857  29.448  30.541  1.00  0.00     0.029 A 
ATOM     44  N   UNL A   1      44.611  31.192  31.040  1.00  0.00    -0.354 N 
ATOM     45  N   UNL A   1      40.754  30.880  33.098  1.00  0.00    -0.248 NA
ATOM     46  C   UNL A   1      40.453  32.352  31.313  1.00  0.00     0.031 C 
ATOM     47  C   UNL A   1      45.199  29.230  31.788  1.00  0.00     0.029 A 
ATOM     48  C   UNL A   1      44.252  30.242  31.963  1.00  0.00     0.049 A 
ATOM     49  H   UNL A   1      44.470  32.162  31.115  1.00  0.00     0.167 HD
ATOM     50  C   UNL A   1      42.004  31.135  32.551  1.00  0.00     0.074 A 
ATOM     51  C   UNL A   1      41.757  32.121  31.497  1.00  0.00     0.031 C 
ATOM     52  C   UNL A   1      43.075  30.326  32.805  1.00  0.00     0.031 A 
BRANCH  39  53
ATOM     53  C   UNL A   1      44.908  32.261  28.099  1.00  0.00    -0.014 A 
ATOM     54  C   UNL A   1      46.191  32.699  27.709  1.00  0.00     0.010 A 
ATOM     55  C   UNL A   1      43.899  33.241  28.187  1.00  0.00     0.010 A 
ATOM     56  C   UNL A   1      46.461  34.056  27.487  1.00  0.00     0.020 A 
ATOM     57  C   UNL A   1      44.146  34.590  27.925  1.00  0.00     0.020 A 
ATOM     58  C   UNL A   1      45.436  34.994  27.609  1.00  0.00     0.054 A 
BRANCH  58  59
ATOM     59  S   UNL A   1      45.816  36.752  27.420  1.00  0.00     0.124 S 
ATOM     60  O   UNL A   1      46.641  37.010  28.596  1.00  0.00    -0.237 OA
ATOM     61  O   UNL A   1      46.513  36.781  26.137  1.00  0.00    -0.237 OA
ATOM     62  O   UNL A   1      44.502  37.389  27.424  1.00  0.00    -0.744 OA
ENDBRANCH  58  59
ENDBRANCH  39  53
BRANCH  40  63
ATOM     63  C   UNL A   1      37.322  31.375  31.821  1.00  0.00    -0.014 A 
ATOM     64  C   UNL A   1      36.601  31.642  33.001  1.00  0.00     0.010 A 
ATOM     65  C   UNL A   1      36.897  32.019  30.640  1.00  0.00     0.010 A 
ATOM     66  C   UNL A   1      35.539  32.565  33.009  1.00  0.00     0.020 A 
ATOM     67  C   UNL A   1      35.839  32.936  30.638  1.00  0.00     0.020 A 
ATOM     68  C   UNL A   1      35.179  33.224  31.830  1.00  0.00     0.054 A 
BRANCH  68  69
ATOM     69  S   UNL A   1      33.932  34.548  31.884  1.00  0.00     0.124 S 
ATOM     70  O   UNL A   1      32.976  34.035  32.862  1.00  0.00    -0.237 OA
ATOM     71  O   UNL A   1      34.714  35.704  32.312  1.00  0.00    -0.237 OA
ATOM     72  O   UNL A   1      33.439  34.612  30.510  1.00  0.00    -0.744 OA
ENDBRANCH  68  69
ENDBRANCH  40  63
BRANCH  52  73
ATOM     73  C   UNL A   1      42.959  29.279  33.894  1.00  0.00    -0.014 A 
ATOM     74  C   UNL A   1      43.286  29.504  35.246  1.00  0.00     0.010 A 
ATOM     75  C   UNL A   1      42.331  28.067  33.556  1.00  0.00     0.010 A 
ATOM     76  C   UNL A   1      43.012  28.532  36.225  1.00  0.00     0.020 A 
ATOM     77  C   UNL A   1      42.040  27.104  34.526  1.00  0.00     0.020 A 
ATOM     78  C   UNL A   1      42.390  27.336  35.855  1.00  0.00     0.054 A 
BRANCH  78  79
ATOM     79  S   UNL A   1      41.999  26.097  37.123  1.00  0.00     0.124 S 
ATOM     80  O   UNL A   1      42.974  26.394  38.170  1.00  0.00    -0.237 OA
ATOM     81  O   UNL A   1      40.608  26.396  37.456  1.00  0.00    -0.237 OA
ATOM     82  O   UNL A   1      42.201  24.821  36.438  1.00  0.00    -0.744 OA
ENDBRANCH  78  79
ENDBRANCH  52  73
ENDBRANCH  26  27
ENDBRANCH  18  21
ENDBRANCH   1  17
TORSDOF 14
ENDMDL
