MODEL 1
REMARK VINA RESULT:     -14.8      0.000      0.000
REMARK SMILES Cc1c(NC(=O)c2cccc(-c3cc4ccccc4oc3=O)c2)cccc1C(=O)NCCCCNC(=O)c1ccc(-c2c3nc(c(-c4ccc(S(=O)(=O)[O-])cc4)c4ccc([nH]4)c(-c4ccc(S(=O)(=O)[O-])cc4)c4nc(c(-c5ccc(S(=O)(=O)[O-])cc5)c5ccc2[nH]5)C=C4)C=C3)cc1
REMARK SMILES IDX 32 1 31 2 30 3 28 4 29 5 27 7 1 8 2 9 3 10 24 11 26 12 25 13
REMARK SMILES IDX 4 14 5 15 6 17 7 18 8 19 23 20 9 21 11 22 10 23 12 24 13 25
REMARK SMILES IDX 21 26 14 27 20 28 22 29 15 30 19 31 16 32 18 33 17 34 33 35
REMARK SMILES IDX 34 36 35 37 36 38 37 40 38 41 39 42 97 43 40 44 96 45 41 46
REMARK SMILES IDX 42 47 43 48 90 49 44 50 95 51 89 52 91 53 45 54 94 55 88 56
REMARK SMILES IDX 87 57 46 59 76 60 57 61 75 62 58 63 61 64 74 65 92 66 59 67
REMARK SMILES IDX 60 68 73 70 93 71 62 72 47 73 48 74 56 75 49 76 55 77 50 78
REMARK SMILES IDX 51 79 52 80 53 81 54 82 77 83 78 84 86 85 79 86 85 87 80 88
REMARK SMILES IDX 81 89 82 90 83 91 84 92 63 93 64 94 72 95 65 96 71 97 66 98
REMARK SMILES IDX 67 99 68 100 69 101 70 102
REMARK H PARENT 30 6 4 16 35 39 91 58 61 69
REMARK Flexibility Score: inf
ROOT
ATOM      1  C   UNL A   1      37.871  21.150  25.094  1.00  0.00     0.023 C 
ENDROOT
BRANCH   1   2
ATOM      2  C   UNL A   1      36.459  20.532  25.023  1.00  0.00     0.116 C 
BRANCH   2   3
ATOM      3  N   UNL A   1      35.580  21.073  26.048  1.00  0.00    -0.352 N 
ATOM      4  C   UNL A   1      34.390  21.738  26.138  1.00  0.00     0.251 C 
ATOM      5  O   UNL A   1      34.068  21.957  27.318  1.00  0.00    -0.269 OA
ATOM      6  H   UNL A   1      35.954  20.911  26.944  1.00  0.00     0.163 HD
BRANCH   4   7
ATOM      7  C   UNL A   1      33.447  22.261  25.069  1.00  0.00     0.044 A 
ATOM      8  C   UNL A   1      35.056  23.046  23.228  1.00  0.00     0.047 C 
ATOM      9  C   UNL A   1      33.690  22.868  23.812  1.00  0.00    -0.015 A 
ATOM     10  C   UNL A   1      32.600  23.431  23.075  1.00  0.00     0.045 A 
ATOM     11  C   UNL A   1      31.296  23.397  23.569  1.00  0.00     0.026 A 
ATOM     12  C   UNL A   1      32.095  22.236  25.509  1.00  0.00     0.014 A 
ATOM     13  C   UNL A   1      31.041  22.799  24.788  1.00  0.00     0.003 A 
BRANCH  10  14
ATOM     14  N   UNL A   1      32.848  24.001  21.810  1.00  0.00    -0.322 N 
ATOM     15  C   UNL A   1      32.915  25.307  21.388  1.00  0.00     0.255 C 
ATOM     16  H   UNL A   1      33.001  23.340  21.097  1.00  0.00     0.170 HD
ATOM     17  O   UNL A   1      32.843  25.541  20.179  1.00  0.00    -0.269 OA
BRANCH  15  18
ATOM     18  C   UNL A   1      33.203  26.443  22.309  1.00  0.00     0.040 A 
ATOM     19  C   UNL A   1      33.793  27.589  21.762  1.00  0.00     0.014 A 
ATOM     20  C   UNL A   1      33.050  26.359  23.700  1.00  0.00     0.022 A 
ATOM     21  C   UNL A   1      34.185  28.647  22.582  1.00  0.00     0.001 A 
ATOM     22  C   UNL A   1      33.426  27.422  24.540  1.00  0.00    -0.010 A 
ATOM     23  C   UNL A   1      33.994  28.566  23.961  1.00  0.00     0.009 A 
BRANCH  22  24
ATOM     24  C   UNL A   1      33.367  27.354  26.024  1.00  0.00     0.068 A 
ATOM     25  C   UNL A   1      34.120  28.136  26.829  1.00  0.00     0.028 A 
ATOM     26  C   UNL A   1      31.985  27.199  26.579  1.00  0.00     0.344 A 
ATOM     27  C   UNL A   1      33.509  29.467  27.050  1.00  0.00     0.018 A 
ATOM     28  O   UNL A   1      31.328  28.413  26.786  1.00  0.00    -0.422 OA
ATOM     29  O   UNL A   1      31.458  26.105  26.747  1.00  0.00    -0.246 OA
ATOM     30  C   UNL A   1      34.266  30.600  27.327  1.00  0.00     0.012 A 
ATOM     31  C   UNL A   1      32.117  29.575  26.929  1.00  0.00     0.138 A 
ATOM     32  C   UNL A   1      33.625  31.836  27.425  1.00  0.00     0.001 A 
ATOM     33  C   UNL A   1      31.478  30.806  26.980  1.00  0.00     0.048 A 
ATOM     34  C   UNL A   1      32.243  31.943  27.221  1.00  0.00     0.004 A 
ENDBRANCH  22  24
ENDBRANCH  15  18
ENDBRANCH  10  14
ENDBRANCH   4   7
ENDBRANCH   2   3
ENDBRANCH   1   2
BRANCH   1  35
ATOM     35  C   UNL A   1      37.932  22.678  25.102  1.00  0.00     0.023 C 
BRANCH  35  36
ATOM     36  C   UNL A   1      38.044  23.238  26.507  1.00  0.00     0.116 C 
BRANCH  36  37
ATOM     37  N   UNL A   1      39.339  23.079  27.151  1.00  0.00    -0.352 N 
ATOM     38  C   UNL A   1      40.217  24.099  27.489  1.00  0.00     0.251 C 
ATOM     39  H   UNL A   1      39.619  22.160  27.367  1.00  0.00     0.163 HD
ATOM     40  O   UNL A   1      41.405  23.901  27.711  1.00  0.00    -0.269 OA
BRANCH  38  41
ATOM     41  C   UNL A   1      39.619  25.434  27.720  1.00  0.00     0.039 A 
ATOM     42  C   UNL A   1      40.045  26.468  26.878  1.00  0.00     0.014 A 
ATOM     43  C   UNL A   1      39.001  25.709  28.936  1.00  0.00     0.014 A 
ATOM     44  C   UNL A   1      40.051  27.777  27.351  1.00  0.00     0.010 A 
ATOM     45  C   UNL A   1      39.131  26.983  29.451  1.00  0.00     0.010 A 
ATOM     46  C   UNL A   1      39.701  28.010  28.680  1.00  0.00    -0.014 A 
BRANCH  46  47
ATOM     47  C   UNL A   1      39.959  29.262  29.387  1.00  0.00     0.031 A 
ATOM     48  C   UNL A   1      38.971  30.365  29.300  1.00  0.00     0.074 A 
ATOM     49  C   UNL A   1      41.022  29.378  30.219  1.00  0.00     0.049 A 
ATOM     50  N   UNL A   1      39.210  31.597  29.603  1.00  0.00    -0.248 NA
ATOM     51  C   UNL A   1      37.620  30.160  28.783  1.00  0.00     0.031 C 
ATOM     52  C   UNL A   1      41.208  30.393  31.255  1.00  0.00     0.029 A 
ATOM     53  N   UNL A   1      42.259  28.731  30.166  1.00  0.00    -0.354 N 
ATOM     54  C   UNL A   1      37.997  32.251  29.651  1.00  0.00     0.074 A 
ATOM     55  C   UNL A   1      37.065  31.350  29.019  1.00  0.00     0.031 C 
ATOM     56  C   UNL A   1      42.518  30.515  31.507  1.00  0.00     0.029 A 
ATOM     57  C   UNL A   1      43.219  29.688  30.540  1.00  0.00     0.049 A 
ATOM     58  H   UNL A   1      42.426  27.793  29.915  1.00  0.00     0.167 HD
ATOM     59  C   UNL A   1      37.884  33.408  30.365  1.00  0.00     0.031 A 
ATOM     60  C   UNL A   1      44.239  30.113  29.738  1.00  0.00     0.031 A 
ATOM     61  C   UNL A   1      39.195  33.905  30.787  1.00  0.00     0.049 A 
ATOM     62  C   UNL A   1      44.216  31.608  29.488  1.00  0.00     0.074 A 
ATOM     63  C   UNL A   1      39.869  33.905  31.997  1.00  0.00     0.029 A 
ATOM     64  N   UNL A   1      40.128  34.259  29.817  1.00  0.00    -0.354 N 
ATOM     65  N   UNL A   1      43.202  32.375  29.779  1.00  0.00    -0.248 NA
ATOM     66  C   UNL A   1      45.300  32.349  28.845  1.00  0.00     0.031 C 
ATOM     67  C   UNL A   1      41.241  34.159  31.731  1.00  0.00     0.029 A 
ATOM     68  C   UNL A   1      41.391  34.350  30.370  1.00  0.00     0.049 A 
ATOM     69  H   UNL A   1      39.917  34.423  28.870  1.00  0.00     0.167 HD
ATOM     70  C   UNL A   1      43.456  33.657  29.373  1.00  0.00     0.074 A 
ATOM     71  C   UNL A   1      44.791  33.595  28.806  1.00  0.00     0.031 C 
ATOM     72  C   UNL A   1      42.540  34.657  29.525  1.00  0.00     0.031 A 
BRANCH  59  73
ATOM     73  C   UNL A   1      36.570  33.919  30.935  1.00  0.00    -0.014 A 
ATOM     74  C   UNL A   1      35.405  33.886  30.138  1.00  0.00     0.010 A 
ATOM     75  C   UNL A   1      36.425  34.535  32.192  1.00  0.00     0.010 A 
ATOM     76  C   UNL A   1      34.210  34.515  30.529  1.00  0.00     0.020 A 
ATOM     77  C   UNL A   1      35.248  35.186  32.591  1.00  0.00     0.020 A 
ATOM     78  C   UNL A   1      34.148  35.189  31.746  1.00  0.00     0.054 A 
BRANCH  78  79
ATOM     79  S   UNL A   1      32.640  36.078  32.205  1.00  0.00     0.124 S 
ATOM     80  O   UNL A   1      31.726  34.991  32.546  1.00  0.00    -0.237 OA
ATOM     81  O   UNL A   1      33.089  36.902  33.324  1.00  0.00    -0.237 OA
ATOM     82  O   UNL A   1      32.290  36.817  30.993  1.00  0.00    -0.744 OA
ENDBRANCH  78  79
ENDBRANCH  59  73
BRANCH  60  83
ATOM     83  C   UNL A   1      44.734  29.088  28.781  1.00  0.00    -0.014 A 
ATOM     84  C   UNL A   1      44.213  29.136  27.470  1.00  0.00     0.010 A 
ATOM     85  C   UNL A   1      45.968  28.449  29.004  1.00  0.00     0.010 A 
ATOM     86  C   UNL A   1      44.999  28.749  26.384  1.00  0.00     0.020 A 
ATOM     87  C   UNL A   1      46.754  28.054  27.912  1.00  0.00     0.020 A 
ATOM     88  C   UNL A   1      46.294  28.286  26.613  1.00  0.00     0.054 A 
BRANCH  88  89
ATOM     89  S   UNL A   1      47.433  28.219  25.195  1.00  0.00     0.124 S 
ATOM     90  O   UNL A   1      48.654  28.796  25.746  1.00  0.00    -0.237 OA
ATOM     91  O   UNL A   1      47.478  26.782  24.927  1.00  0.00    -0.237 OA
ATOM     92  O   UNL A   1      46.753  29.023  24.185  1.00  0.00    -0.744 OA
ENDBRANCH  88  89
ENDBRANCH  60  83
BRANCH  72  93
ATOM     93  C   UNL A   1      42.652  36.049  28.953  1.00  0.00    -0.014 A 
ATOM     94  C   UNL A   1      43.411  37.078  29.530  1.00  0.00     0.010 A 
ATOM     95  C   UNL A   1      42.071  36.308  27.687  1.00  0.00     0.010 A 
ATOM     96  C   UNL A   1      43.534  38.328  28.904  1.00  0.00     0.020 A 
ATOM     97  C   UNL A   1      42.223  37.535  27.035  1.00  0.00     0.020 A 
ATOM     98  C   UNL A   1      42.936  38.550  27.661  1.00  0.00     0.054 A 
BRANCH  98  99
ATOM     99  S   UNL A   1      43.153  40.141  26.825  1.00  0.00     0.124 S 
ATOM    100  O   UNL A   1      41.838  40.345  26.224  1.00  0.00    -0.237 OA
ATOM    101  O   UNL A   1      43.487  41.047  27.923  1.00  0.00    -0.237 OA
ATOM    102  O   UNL A   1      44.241  39.886  25.885  1.00  0.00    -0.744 OA
ENDBRANCH  98  99
ENDBRANCH  72  93
ENDBRANCH  46  47
ENDBRANCH  38  41
ENDBRANCH  36  37
ENDBRANCH  35  36
ENDBRANCH   1  35
TORSDOF 17
ENDMDL
MODEL 2
REMARK VINA RESULT:     -13.9      2.632      4.719
REMARK SMILES Cc1c(NC(=O)c2cccc(-c3cc4ccccc4oc3=O)c2)cccc1C(=O)NCCCCNC(=O)c1ccc(-c2c3nc(c(-c4ccc(S(=O)(=O)[O-])cc4)c4ccc([nH]4)c(-c4ccc(S(=O)(=O)[O-])cc4)c4nc(c(-c5ccc(S(=O)(=O)[O-])cc5)c5ccc2[nH]5)C=C4)C=C3)cc1
REMARK SMILES IDX 32 1 31 2 30 3 28 4 29 5 27 7 1 8 2 9 3 10 24 11 26 12 25 13
REMARK SMILES IDX 4 14 5 15 6 17 7 18 8 19 23 20 9 21 11 22 10 23 12 24 13 25
REMARK SMILES IDX 21 26 14 27 20 28 22 29 15 30 19 31 16 32 18 33 17 34 33 35
REMARK SMILES IDX 34 36 35 37 36 38 37 40 38 41 39 42 97 43 40 44 96 45 41 46
REMARK SMILES IDX 42 47 43 48 90 49 44 50 95 51 89 52 91 53 45 54 94 55 88 56
REMARK SMILES IDX 87 57 46 59 76 60 57 61 75 62 58 63 61 64 74 65 92 66 59 67
REMARK SMILES IDX 60 68 73 70 93 71 62 72 47 73 48 74 56 75 49 76 55 77 50 78
REMARK SMILES IDX 51 79 52 80 53 81 54 82 77 83 78 84 86 85 79 86 85 87 80 88
REMARK SMILES IDX 81 89 82 90 83 91 84 92 63 93 64 94 72 95 65 96 71 97 66 98
REMARK SMILES IDX 67 99 68 100 69 101 70 102
REMARK H PARENT 30 6 4 16 35 39 91 58 61 69
REMARK Flexibility Score: inf
ROOT
ATOM      1  C   UNL A   1      34.992  24.246  25.231  1.00  0.00     0.023 C 
ENDROOT
BRANCH   1   2
ATOM      2  C   UNL A   1      34.446  23.688  23.900  1.00  0.00     0.116 C 
BRANCH   2   3
ATOM      3  N   UNL A   1      33.043  24.020  23.709  1.00  0.00    -0.352 N 
ATOM      4  C   UNL A   1      32.254  25.129  23.590  1.00  0.00     0.251 C 
ATOM      5  O   UNL A   1      31.059  24.833  23.418  1.00  0.00    -0.269 OA
ATOM      6  H   UNL A   1      32.500  23.201  23.648  1.00  0.00     0.163 HD
BRANCH   4   7
ATOM      7  C   UNL A   1      32.583  26.610  23.662  1.00  0.00     0.044 A 
ATOM      8  C   UNL A   1      30.912  27.479  25.406  1.00  0.00     0.047 C 
ATOM      9  C   UNL A   1      32.006  27.670  24.405  1.00  0.00    -0.015 A 
ATOM     10  C   UNL A   1      32.407  29.018  24.143  1.00  0.00     0.045 A 
ATOM     11  C   UNL A   1      33.358  29.315  23.167  1.00  0.00     0.026 A 
ATOM     12  C   UNL A   1      33.564  26.973  22.698  1.00  0.00     0.014 A 
ATOM     13  C   UNL A   1      33.939  28.292  22.442  1.00  0.00     0.003 A 
BRANCH  10  14
ATOM     14  N   UNL A   1      31.853  30.061  24.912  1.00  0.00    -0.322 N 
ATOM     15  C   UNL A   1      32.150  30.535  26.167  1.00  0.00     0.255 C 
ATOM     16  H   UNL A   1      31.117  30.537  24.467  1.00  0.00     0.170 HD
ATOM     17  O   UNL A   1      31.326  31.253  26.738  1.00  0.00    -0.269 OA
BRANCH  15  18
ATOM     18  C   UNL A   1      33.476  30.331  26.819  1.00  0.00     0.040 A 
ATOM     19  C   UNL A   1      34.024  29.043  26.785  1.00  0.00     0.014 A 
ATOM     20  C   UNL A   1      34.116  31.320  27.580  1.00  0.00     0.022 A 
ATOM     21  C   UNL A   1      35.209  28.757  27.463  1.00  0.00     0.001 A 
ATOM     22  C   UNL A   1      35.318  31.052  28.257  1.00  0.00    -0.010 A 
ATOM     23  C   UNL A   1      35.855  29.759  28.187  1.00  0.00     0.009 A 
BRANCH  22  24
ATOM     24  C   UNL A   1      35.992  32.035  29.147  1.00  0.00     0.068 A 
ATOM     25  C   UNL A   1      36.317  33.286  28.753  1.00  0.00     0.028 A 
ATOM     26  C   UNL A   1      35.484  32.039  30.556  1.00  0.00     0.344 A 
ATOM     27  C   UNL A   1      35.182  34.228  28.880  1.00  0.00     0.018 A 
ATOM     28  O   UNL A   1      34.390  32.883  30.751  1.00  0.00    -0.422 OA
ATOM     29  O   UNL A   1      35.937  31.303  31.425  1.00  0.00    -0.246 OA
ATOM     30  C   UNL A   1      35.047  35.349  28.069  1.00  0.00     0.012 A 
ATOM     31  C   UNL A   1      34.195  33.936  29.832  1.00  0.00     0.138 A 
ATOM     32  C   UNL A   1      33.898  36.134  28.184  1.00  0.00     0.001 A 
ATOM     33  C   UNL A   1      33.030  34.685  29.920  1.00  0.00     0.048 A 
ATOM     34  C   UNL A   1      32.881  35.786  29.082  1.00  0.00     0.004 A 
ENDBRANCH  22  24
ENDBRANCH  15  18
ENDBRANCH  10  14
ENDBRANCH   4   7
ENDBRANCH   2   3
ENDBRANCH   1   2
BRANCH   1  35
ATOM     35  C   UNL A   1      35.869  23.294  26.045  1.00  0.00     0.023 C 
BRANCH  35  36
ATOM     36  C   UNL A   1      37.157  22.945  25.322  1.00  0.00     0.116 C 
BRANCH  36  37
ATOM     37  N   UNL A   1      38.150  22.230  26.108  1.00  0.00    -0.352 N 
ATOM     38  C   UNL A   1      39.342  22.751  26.593  1.00  0.00     0.251 C 
ATOM     39  H   UNL A   1      37.960  21.286  26.315  1.00  0.00     0.163 HD
ATOM     40  O   UNL A   1      40.277  22.042  26.947  1.00  0.00    -0.269 OA
BRANCH  38  41
ATOM     41  C   UNL A   1      39.381  24.215  26.810  1.00  0.00     0.039 A 
ATOM     42  C   UNL A   1      40.216  24.953  25.962  1.00  0.00     0.014 A 
ATOM     43  C   UNL A   1      38.941  24.742  28.020  1.00  0.00     0.014 A 
ATOM     44  C   UNL A   1      40.787  26.134  26.425  1.00  0.00     0.010 A 
ATOM     45  C   UNL A   1      39.609  25.839  28.525  1.00  0.00     0.010 A 
ATOM     46  C   UNL A   1      40.571  26.509  27.749  1.00  0.00    -0.014 A 
BRANCH  46  47
ATOM     47  C   UNL A   1      41.345  27.533  28.449  1.00  0.00     0.031 A 
ATOM     48  C   UNL A   1      40.699  28.821  28.800  1.00  0.00     0.074 A 
ATOM     49  C   UNL A   1      42.598  27.269  28.889  1.00  0.00     0.049 A 
ATOM     50  N   UNL A   1      41.330  29.900  29.124  1.00  0.00    -0.248 NA
ATOM     51  C   UNL A   1      39.251  29.007  28.743  1.00  0.00     0.031 C 
ATOM     52  C   UNL A   1      43.341  28.023  29.897  1.00  0.00     0.029 A 
ATOM     53  N   UNL A   1      43.549  26.389  28.367  1.00  0.00    -0.354 N 
ATOM     54  C   UNL A   1      40.401  30.782  29.634  1.00  0.00     0.074 A 
ATOM     55  C   UNL A   1      39.122  30.229  29.262  1.00  0.00     0.031 C 
ATOM     56  C   UNL A   1      44.652  27.812  29.712  1.00  0.00     0.029 A 
ATOM     57  C   UNL A   1      44.793  27.035  28.492  1.00  0.00     0.049 A 
ATOM     58  H   UNL A   1      43.384  25.496  27.986  1.00  0.00     0.167 HD
ATOM     59  C   UNL A   1      40.811  31.793  30.453  1.00  0.00     0.031 A 
ATOM     60  C   UNL A   1      45.602  27.363  27.443  1.00  0.00     0.031 A 
ATOM     61  C   UNL A   1      42.270  31.913  30.462  1.00  0.00     0.049 A 
ATOM     62  C   UNL A   1      45.897  28.847  27.359  1.00  0.00     0.074 A 
ATOM     63  C   UNL A   1      43.249  31.556  31.375  1.00  0.00     0.029 A 
ATOM     64  N   UNL A   1      42.931  32.221  29.277  1.00  0.00    -0.354 N 
ATOM     65  N   UNL A   1      45.252  29.753  28.043  1.00  0.00    -0.248 NA
ATOM     66  C   UNL A   1      46.894  29.437  26.469  1.00  0.00     0.031 C 
ATOM     67  C   UNL A   1      44.497  31.549  30.696  1.00  0.00     0.029 A 
ATOM     68  C   UNL A   1      44.279  31.938  29.386  1.00  0.00     0.049 A 
ATOM     69  H   UNL A   1      42.499  32.589  28.474  1.00  0.00     0.167 HD
ATOM     70  C   UNL A   1      45.698  31.000  27.700  1.00  0.00     0.074 A 
ATOM     71  C   UNL A   1      46.740  30.751  26.721  1.00  0.00     0.031 C 
ATOM     72  C   UNL A   1      45.163  32.133  28.243  1.00  0.00     0.031 A 
BRANCH  59  73
ATOM     73  C   UNL A   1      39.906  32.468  31.472  1.00  0.00    -0.014 A 
ATOM     74  C   UNL A   1      39.585  31.798  32.672  1.00  0.00     0.010 A 
ATOM     75  C   UNL A   1      39.257  33.702  31.275  1.00  0.00     0.010 A 
ATOM     76  C   UNL A   1      38.607  32.279  33.561  1.00  0.00     0.020 A 
ATOM     77  C   UNL A   1      38.265  34.187  32.140  1.00  0.00     0.020 A 
ATOM     78  C   UNL A   1      37.930  33.460  33.273  1.00  0.00     0.054 A 
BRANCH  78  79
ATOM     79  S   UNL A   1      36.607  34.028  34.370  1.00  0.00     0.124 S 
ATOM     80  O   UNL A   1      36.173  35.265  33.726  1.00  0.00    -0.237 OA
ATOM     81  O   UNL A   1      35.657  32.920  34.317  1.00  0.00    -0.237 OA
ATOM     82  O   UNL A   1      37.277  34.208  35.658  1.00  0.00    -0.744 OA
ENDBRANCH  78  79
ENDBRANCH  59  73
BRANCH  60  83
ATOM     83  C   UNL A   1      45.505  26.438  26.282  1.00  0.00    -0.014 A 
ATOM     84  C   UNL A   1      46.388  25.338  26.270  1.00  0.00     0.010 A 
ATOM     85  C   UNL A   1      44.320  26.373  25.526  1.00  0.00     0.010 A 
ATOM     86  C   UNL A   1      45.999  24.127  25.694  1.00  0.00     0.020 A 
ATOM     87  C   UNL A   1      43.933  25.159  24.942  1.00  0.00     0.020 A 
ATOM     88  C   UNL A   1      44.740  24.029  25.105  1.00  0.00     0.054 A 
BRANCH  88  89
ATOM     89  S   UNL A   1      44.088  22.363  24.773  1.00  0.00     0.124 S 
ATOM     90  O   UNL A   1      44.733  21.561  25.807  1.00  0.00    -0.237 OA
ATOM     91  O   UNL A   1      42.650  22.575  24.944  1.00  0.00    -0.237 OA
ATOM     92  O   UNL A   1      44.525  22.101  23.406  1.00  0.00    -0.744 OA
ENDBRANCH  88  89
ENDBRANCH  60  83
BRANCH  72  93
ATOM     93  C   UNL A   1      45.459  33.545  27.803  1.00  0.00    -0.014 A 
ATOM     94  C   UNL A   1      44.787  34.203  26.761  1.00  0.00     0.010 A 
ATOM     95  C   UNL A   1      46.375  34.312  28.564  1.00  0.00     0.010 A 
ATOM     96  C   UNL A   1      45.060  35.545  26.454  1.00  0.00     0.020 A 
ATOM     97  C   UNL A   1      46.622  35.661  28.294  1.00  0.00     0.020 A 
ATOM     98  C   UNL A   1      45.979  36.264  27.221  1.00  0.00     0.054 A 
BRANCH  98  99
ATOM     99  S   UNL A   1      46.279  38.014  26.865  1.00  0.00     0.124 S 
ATOM    100  O   UNL A   1      44.925  38.562  26.890  1.00  0.00    -0.237 OA
ATOM    101  O   UNL A   1      47.143  38.431  27.968  1.00  0.00    -0.237 OA
ATOM    102  O   UNL A   1      46.923  37.990  25.555  1.00  0.00    -0.744 OA
ENDBRANCH  98  99
ENDBRANCH  72  93
ENDBRANCH  46  47
ENDBRANCH  38  41
ENDBRANCH  36  37
ENDBRANCH  35  36
ENDBRANCH   1  35
TORSDOF 17
ENDMDL
MODEL 3
REMARK VINA RESULT:     -13.8      1.997      2.396
REMARK SMILES Cc1c(NC(=O)c2cccc(-c3cc4ccccc4oc3=O)c2)cccc1C(=O)NCCCCNC(=O)c1ccc(-c2c3nc(c(-c4ccc(S(=O)(=O)[O-])cc4)c4ccc([nH]4)c(-c4ccc(S(=O)(=O)[O-])cc4)c4nc(c(-c5ccc(S(=O)(=O)[O-])cc5)c5ccc2[nH]5)C=C4)C=C3)cc1
REMARK SMILES IDX 32 1 31 2 30 3 28 4 29 5 27 7 1 8 2 9 3 10 24 11 26 12 25 13
REMARK SMILES IDX 4 14 5 15 6 17 7 18 8 19 23 20 9 21 11 22 10 23 12 24 13 25
REMARK SMILES IDX 21 26 14 27 20 28 22 29 15 30 19 31 16 32 18 33 17 34 33 35
REMARK SMILES IDX 34 36 35 37 36 38 37 40 38 41 39 42 97 43 40 44 96 45 41 46
REMARK SMILES IDX 42 47 43 48 90 49 44 50 95 51 89 52 91 53 45 54 94 55 88 56
REMARK SMILES IDX 87 57 46 59 76 60 57 61 75 62 58 63 61 64 74 65 92 66 59 67
REMARK SMILES IDX 60 68 73 70 93 71 62 72 47 73 48 74 56 75 49 76 55 77 50 78
REMARK SMILES IDX 51 79 52 80 53 81 54 82 77 83 78 84 86 85 79 86 85 87 80 88
REMARK SMILES IDX 81 89 82 90 83 91 84 92 63 93 64 94 72 95 65 96 71 97 66 98
REMARK SMILES IDX 67 99 68 100 69 101 70 102
REMARK H PARENT 30 6 4 16 35 39 91 58 61 69
REMARK Flexibility Score: inf
ROOT
ATOM      1  C   UNL A   1      36.532  20.841  25.278  1.00  0.00     0.023 C 
ENDROOT
BRANCH   1   2
ATOM      2  C   UNL A   1      35.471  21.559  26.139  1.00  0.00     0.116 C 
BRANCH   2   3
ATOM      3  N   UNL A   1      34.182  20.887  26.080  1.00  0.00    -0.352 N 
ATOM      4  C   UNL A   1      32.971  21.035  25.466  1.00  0.00     0.251 C 
ATOM      5  O   UNL A   1      32.183  20.123  25.767  1.00  0.00    -0.269 OA
ATOM      6  H   UNL A   1      34.184  20.087  26.653  1.00  0.00     0.163 HD
BRANCH   4   7
ATOM      7  C   UNL A   1      32.440  22.111  24.536  1.00  0.00     0.044 A 
ATOM      8  C   UNL A   1      34.253  22.237  22.721  1.00  0.00     0.047 C 
ATOM      9  C   UNL A   1      32.977  22.689  23.358  1.00  0.00    -0.015 A 
ATOM     10  C   UNL A   1      32.335  23.825  22.770  1.00  0.00     0.045 A 
ATOM     11  C   UNL A   1      31.187  24.381  23.334  1.00  0.00     0.026 A 
ATOM     12  C   UNL A   1      31.255  22.707  25.050  1.00  0.00     0.014 A 
ATOM     13  C   UNL A   1      30.645  23.823  24.476  1.00  0.00     0.003 A 
BRANCH  10  14
ATOM     14  N   UNL A   1      32.856  24.369  21.580  1.00  0.00    -0.322 N 
ATOM     15  C   UNL A   1      32.814  25.638  21.053  1.00  0.00     0.255 C 
ATOM     16  H   UNL A   1      33.341  23.719  21.022  1.00  0.00     0.170 HD
ATOM     17  O   UNL A   1      33.081  25.791  19.860  1.00  0.00    -0.269 OA
BRANCH  15  18
ATOM     18  C   UNL A   1      32.589  26.854  21.886  1.00  0.00     0.040 A 
ATOM     19  C   UNL A   1      33.716  27.568  22.310  1.00  0.00     0.014 A 
ATOM     20  C   UNL A   1      31.329  27.222  22.381  1.00  0.00     0.022 A 
ATOM     21  C   UNL A   1      33.586  28.653  23.176  1.00  0.00     0.001 A 
ATOM     22  C   UNL A   1      31.179  28.322  23.243  1.00  0.00    -0.010 A 
ATOM     23  C   UNL A   1      32.323  29.031  23.632  1.00  0.00     0.009 A 
BRANCH  22  24
ATOM     24  C   UNL A   1      29.883  28.703  23.865  1.00  0.00     0.068 A 
ATOM     25  C   UNL A   1      29.564  29.977  24.185  1.00  0.00     0.028 A 
ATOM     26  C   UNL A   1      28.694  27.987  23.299  1.00  0.00     0.344 A 
ATOM     27  C   UNL A   1      29.021  30.728  23.031  1.00  0.00     0.018 A 
ATOM     28  O   UNL A   1      28.142  28.619  22.184  1.00  0.00    -0.422 OA
ATOM     29  O   UNL A   1      28.308  26.907  23.728  1.00  0.00    -0.246 OA
ATOM     30  C   UNL A   1      29.147  32.107  22.911  1.00  0.00     0.012 A 
ATOM     31  C   UNL A   1      28.397  29.997  22.011  1.00  0.00     0.138 A 
ATOM     32  C   UNL A   1      28.695  32.731  21.746  1.00  0.00     0.001 A 
ATOM     33  C   UNL A   1      27.987  30.602  20.831  1.00  0.00     0.048 A 
ATOM     34  C   UNL A   1      28.148  31.979  20.699  1.00  0.00     0.004 A 
ENDBRANCH  22  24
ENDBRANCH  15  18
ENDBRANCH  10  14
ENDBRANCH   4   7
ENDBRANCH   2   3
ENDBRANCH   1   2
BRANCH   1  35
ATOM     35  C   UNL A   1      37.789  21.650  24.956  1.00  0.00     0.023 C 
BRANCH  35  36
ATOM     36  C   UNL A   1      38.100  22.675  26.030  1.00  0.00     0.116 C 
BRANCH  36  37
ATOM     37  N   UNL A   1      39.327  22.456  26.779  1.00  0.00    -0.352 N 
ATOM     38  C   UNL A   1      40.229  23.432  27.180  1.00  0.00     0.251 C 
ATOM     39  H   UNL A   1      39.540  21.526  27.024  1.00  0.00     0.163 HD
ATOM     40  O   UNL A   1      41.383  23.174  27.501  1.00  0.00    -0.269 OA
BRANCH  38  41
ATOM     41  C   UNL A   1      39.687  24.800  27.350  1.00  0.00     0.039 A 
ATOM     42  C   UNL A   1      40.234  25.798  26.536  1.00  0.00     0.014 A 
ATOM     43  C   UNL A   1      38.989  25.123  28.510  1.00  0.00     0.014 A 
ATOM     44  C   UNL A   1      40.272  27.111  26.997  1.00  0.00     0.010 A 
ATOM     45  C   UNL A   1      39.146  26.395  29.022  1.00  0.00     0.010 A 
ATOM     46  C   UNL A   1      39.831  27.379  28.291  1.00  0.00    -0.014 A 
BRANCH  46  47
ATOM     47  C   UNL A   1      40.098  28.626  29.006  1.00  0.00     0.031 A 
ATOM     48  C   UNL A   1      39.119  29.737  28.924  1.00  0.00     0.074 A 
ATOM     49  C   UNL A   1      41.160  28.729  29.839  1.00  0.00     0.049 A 
ATOM     50  N   UNL A   1      39.367  30.965  29.235  1.00  0.00    -0.248 NA
ATOM     51  C   UNL A   1      37.767  29.547  28.405  1.00  0.00     0.031 C 
ATOM     52  C   UNL A   1      41.354  29.736  30.882  1.00  0.00     0.029 A 
ATOM     53  N   UNL A   1      42.392  28.071  29.784  1.00  0.00    -0.354 N 
ATOM     54  C   UNL A   1      38.160  31.629  29.285  1.00  0.00     0.074 A 
ATOM     55  C   UNL A   1      37.222  30.740  28.646  1.00  0.00     0.031 C 
ATOM     56  C   UNL A   1      42.665  29.845  31.136  1.00  0.00     0.029 A 
ATOM     57  C   UNL A   1      43.360  29.018  30.165  1.00  0.00     0.049 A 
ATOM     58  H   UNL A   1      42.552  27.133  29.528  1.00  0.00     0.167 HD
ATOM     59  C   UNL A   1      38.056  32.783  30.006  1.00  0.00     0.031 A 
ATOM     60  C   UNL A   1      44.384  29.440  29.366  1.00  0.00     0.031 A 
ATOM     61  C   UNL A   1      39.370  33.267  30.432  1.00  0.00     0.049 A 
ATOM     62  C   UNL A   1      44.374  30.936  29.125  1.00  0.00     0.074 A 
ATOM     63  C   UNL A   1      40.043  33.254  31.643  1.00  0.00     0.029 A 
ATOM     64  N   UNL A   1      40.308  33.618  29.465  1.00  0.00    -0.354 N 
ATOM     65  N   UNL A   1      43.366  31.709  29.420  1.00  0.00    -0.248 NA
ATOM     66  C   UNL A   1      45.465  31.672  28.488  1.00  0.00     0.031 C 
ATOM     67  C   UNL A   1      41.418  33.498  31.380  1.00  0.00     0.029 A 
ATOM     68  C   UNL A   1      41.571  33.696  30.019  1.00  0.00     0.049 A 
ATOM     69  H   UNL A   1      40.099  33.790  28.519  1.00  0.00     0.167 HD
ATOM     70  C   UNL A   1      43.631  32.991  29.021  1.00  0.00     0.074 A 
ATOM     71  C   UNL A   1      44.966  32.922  28.456  1.00  0.00     0.031 C 
ATOM     72  C   UNL A   1      42.722  33.999  29.177  1.00  0.00     0.031 A 
BRANCH  59  73
ATOM     73  C   UNL A   1      36.745  33.301  30.577  1.00  0.00    -0.014 A 
ATOM     74  C   UNL A   1      35.774  33.847  29.710  1.00  0.00     0.010 A 
ATOM     75  C   UNL A   1      36.443  33.380  31.950  1.00  0.00     0.010 A 
ATOM     76  C   UNL A   1      34.633  34.515  30.187  1.00  0.00     0.020 A 
ATOM     77  C   UNL A   1      35.320  34.060  32.445  1.00  0.00     0.020 A 
ATOM     78  C   UNL A   1      34.428  34.643  31.558  1.00  0.00     0.054 A 
BRANCH  78  79
ATOM     79  S   UNL A   1      33.008  35.585  32.170  1.00  0.00     0.124 S 
ATOM     80  O   UNL A   1      33.642  36.614  32.989  1.00  0.00    -0.237 OA
ATOM     81  O   UNL A   1      32.384  36.053  30.935  1.00  0.00    -0.237 OA
ATOM     82  O   UNL A   1      32.233  34.596  32.918  1.00  0.00    -0.744 OA
ENDBRANCH  78  79
ENDBRANCH  59  73
BRANCH  60  83
ATOM     83  C   UNL A   1      44.872  28.416  28.404  1.00  0.00    -0.014 A 
ATOM     84  C   UNL A   1      44.249  28.384  27.138  1.00  0.00     0.010 A 
ATOM     85  C   UNL A   1      46.160  27.867  28.547  1.00  0.00     0.010 A 
ATOM     86  C   UNL A   1      44.972  28.011  26.004  1.00  0.00     0.020 A 
ATOM     87  C   UNL A   1      46.884  27.486  27.408  1.00  0.00     0.020 A 
ATOM     88  C   UNL A   1      46.309  27.642  26.143  1.00  0.00     0.054 A 
BRANCH  88  89
ATOM     89  S   UNL A   1      47.337  27.599  24.642  1.00  0.00     0.124 S 
ATOM     90  O   UNL A   1      46.656  28.549  23.768  1.00  0.00    -0.237 OA
ATOM     91  O   UNL A   1      48.631  28.037  25.164  1.00  0.00    -0.237 OA
ATOM     92  O   UNL A   1      47.267  26.200  24.232  1.00  0.00    -0.744 OA
ENDBRANCH  88  89
ENDBRANCH  60  83
BRANCH  72  93
ATOM     93  C   UNL A   1      42.847  35.392  28.614  1.00  0.00    -0.014 A 
ATOM     94  C   UNL A   1      42.387  35.772  27.344  1.00  0.00     0.010 A 
ATOM     95  C   UNL A   1      43.333  36.422  29.457  1.00  0.00     0.010 A 
ATOM     96  C   UNL A   1      42.465  37.105  26.912  1.00  0.00     0.020 A 
ATOM     97  C   UNL A   1      43.376  37.758  29.053  1.00  0.00     0.020 A 
ATOM     98  C   UNL A   1      42.962  38.090  27.768  1.00  0.00     0.054 A 
BRANCH  98  99
ATOM     99  S   UNL A   1      42.999  39.819  27.233  1.00  0.00     0.124 S 
ATOM    100  O   UNL A   1      41.715  39.948  26.549  1.00  0.00    -0.237 OA
ATOM    101  O   UNL A   1      43.114  40.551  28.493  1.00  0.00    -0.237 OA
ATOM    102  O   UNL A   1      44.178  39.885  26.374  1.00  0.00    -0.744 OA
ENDBRANCH  98  99
ENDBRANCH  72  93
ENDBRANCH  46  47
ENDBRANCH  38  41
ENDBRANCH  36  37
ENDBRANCH  35  36
ENDBRANCH   1  35
TORSDOF 17
ENDMDL
