MODEL 1
REMARK VINA RESULT:     -11.5      0.000      0.000
REMARK SMILES CCc1ccnc(C(=O)c2[nH]c3ccc(OC(F)(F)F)cc3c2CC(=O)NCCCCNC(=O)c2ccc(-c3c4nc(c(-c5ccc(S(=O)(=O)[O-])cc5)c5ccc([nH]5)c(-c5ccc(S(=O)(=O)[O-])cc5)c5nc(c(-c6ccc(S(=O)(=O)[O-])cc6)c6ccc3[nH]6)C=C5)C=C4)cc2)c1
REMARK SMILES IDX 29 1 28 2 27 3 25 4 26 5 24 7 23 8 10 9 11 10 12 11 22 13
REMARK SMILES IDX 13 14 21 15 14 16 15 17 8 18 9 19 7 20 3 21 4 22 95 23 5 24
REMARK SMILES IDX 6 25 2 26 1 27 16 28 17 29 18 30 19 31 20 32 30 33 31 34
REMARK SMILES IDX 32 35 33 36 34 38 35 39 36 40 94 41 37 42 93 43 38 44 39 45
REMARK SMILES IDX 40 46 87 47 41 48 92 49 86 50 88 51 42 52 91 53 85 54 84 55
REMARK SMILES IDX 43 57 73 58 54 59 72 60 55 61 58 62 71 63 89 64 56 65 57 66
REMARK SMILES IDX 70 68 90 69 59 70 44 71 45 72 53 73 46 74 52 75 47 76 48 77
REMARK SMILES IDX 49 78 50 79 51 80 74 81 75 82 83 83 76 84 82 85 77 86 78 87
REMARK SMILES IDX 79 88 80 89 81 90 60 91 61 92 69 93 62 94 68 95 63 96 64 97
REMARK SMILES IDX 65 98 66 99 67 100
REMARK H PARENT 27 6 11 12 32 37 88 56 58 67
REMARK Flexibility Score: inf
ROOT
ATOM      1  C   UNL A   1      35.213  23.067  24.323  1.00  0.00     0.023 C 
ENDROOT
BRANCH   1   2
ATOM      2  C   UNL A   1      34.768  24.516  24.516  1.00  0.00     0.116 C 
BRANCH   2   3
ATOM      3  N   UNL A   1      34.276  25.124  23.298  1.00  0.00    -0.356 N 
ATOM      4  C   UNL A   1      33.351  26.116  23.139  1.00  0.00     0.224 C 
ATOM      5  O   UNL A   1      33.208  26.603  22.013  1.00  0.00    -0.275 OA
ATOM      6  H   UNL A   1      34.664  24.772  22.465  1.00  0.00     0.163 HD
BRANCH   4   7
ATOM      7  C   UNL A   1      32.613  26.705  24.332  1.00  0.00     0.138 C 
BRANCH   7   8
ATOM      8  C   UNL A   1      31.127  26.479  24.349  1.00  0.00    -0.002 A 
ATOM      9  C   UNL A   1      30.439  25.412  24.920  1.00  0.00     0.093 A 
ATOM     10  N   UNL A   1      29.094  25.680  24.799  1.00  0.00    -0.352 N 
ATOM     11  C   UNL A   1      28.889  26.814  24.053  1.00  0.00     0.046 A 
ATOM     12  H   UNL A   1      28.377  25.133  25.194  1.00  0.00     0.167 HD
ATOM     13  C   UNL A   1      30.143  27.327  23.737  1.00  0.00     0.008 A 
ATOM     14  C   UNL A   1      27.697  27.433  23.661  1.00  0.00     0.030 A 
ATOM     15  C   UNL A   1      30.203  28.512  22.974  1.00  0.00     0.057 A 
ATOM     16  C   UNL A   1      27.788  28.615  22.912  1.00  0.00     0.049 A 
ATOM     17  C   UNL A   1      29.025  29.156  22.566  1.00  0.00     0.130 A 
BRANCH   9  18
ATOM     18  C   UNL A   1      30.959  24.258  25.636  1.00  0.00     0.227 C 
ATOM     19  O   UNL A   1      30.995  24.242  26.861  1.00  0.00    -0.285 OA
BRANCH  18  20
ATOM     20  C   UNL A   1      31.425  23.062  24.838  1.00  0.00     0.113 A 
ATOM     21  C   UNL A   1      32.266  20.807  24.650  1.00  0.00    -0.044 A 
ATOM     22  C   UNL A   1      32.326  20.995  23.267  1.00  0.00     0.024 A 
ATOM     23  C   UNL A   1      31.788  21.858  25.444  1.00  0.00     0.036 A 
ATOM     24  C   UNL A   1      31.919  22.211  22.743  1.00  0.00     0.112 A 
ATOM     25  N   UNL A   1      31.487  23.242  23.494  1.00  0.00    -0.253 NA
BRANCH  21  26
ATOM     26  C   UNL A   1      32.745  19.525  25.282  1.00  0.00     0.032 C 
ATOM     27  C   UNL A   1      32.541  18.304  24.399  1.00  0.00     0.009 C 
ENDBRANCH  21  26
ENDBRANCH  18  20
ENDBRANCH   9  18
BRANCH  17  28
ATOM     28  O   UNL A   1      29.240  30.298  21.848  1.00  0.00    -0.406 OA
BRANCH  28  29
ATOM     29  C   UNL A   1      28.652  31.498  22.318  1.00  0.00     0.573 C 
ATOM     30  F   UNL A   1      27.423  31.676  21.786  1.00  0.00    -0.132 F 
ATOM     31  F   UNL A   1      28.567  31.509  23.665  1.00  0.00    -0.132 F 
ATOM     32  F   UNL A   1      29.425  32.538  21.935  1.00  0.00    -0.132 F 
ENDBRANCH  28  29
ENDBRANCH  17  28
ENDBRANCH   7   8
ENDBRANCH   4   7
ENDBRANCH   2   3
ENDBRANCH   1   2
BRANCH   1  33
ATOM     33  C   UNL A   1      35.770  22.376  25.570  1.00  0.00     0.023 C 
BRANCH  33  34
ATOM     34  C   UNL A   1      37.078  22.943  26.114  1.00  0.00     0.116 C 
BRANCH  34  35
ATOM     35  N   UNL A   1      38.163  21.976  26.128  1.00  0.00    -0.352 N 
ATOM     36  C   UNL A   1      39.496  22.175  26.401  1.00  0.00     0.251 C 
ATOM     37  H   UNL A   1      37.909  21.049  25.911  1.00  0.00     0.163 HD
ATOM     38  O   UNL A   1      40.288  21.247  26.268  1.00  0.00    -0.269 OA
BRANCH  36  39
ATOM     39  C   UNL A   1      39.981  23.512  26.814  1.00  0.00     0.039 A 
ATOM     40  C   UNL A   1      40.586  23.643  28.068  1.00  0.00     0.014 A 
ATOM     41  C   UNL A   1      39.837  24.629  25.987  1.00  0.00     0.014 A 
ATOM     42  C   UNL A   1      41.106  24.877  28.466  1.00  0.00     0.010 A 
ATOM     43  C   UNL A   1      40.396  25.849  26.365  1.00  0.00     0.010 A 
ATOM     44  C   UNL A   1      41.039  25.982  27.605  1.00  0.00    -0.014 A 
BRANCH  44  45
ATOM     45  C   UNL A   1      41.638  27.286  27.979  1.00  0.00     0.031 A 
ATOM     46  C   UNL A   1      43.121  27.501  27.850  1.00  0.00     0.074 A 
ATOM     47  C   UNL A   1      40.858  28.256  28.493  1.00  0.00     0.049 A 
ATOM     48  N   UNL A   1      43.838  28.531  28.216  1.00  0.00    -0.248 NA
ATOM     49  C   UNL A   1      43.898  26.407  27.248  1.00  0.00     0.031 C 
ATOM     50  C   UNL A   1      39.410  28.163  28.696  1.00  0.00     0.029 A 
ATOM     51  N   UNL A   1      41.178  29.510  28.951  1.00  0.00    -0.354 N 
ATOM     52  C   UNL A   1      45.154  28.201  27.915  1.00  0.00     0.074 A 
ATOM     53  C   UNL A   1      45.136  26.867  27.353  1.00  0.00     0.031 C 
ATOM     54  C   UNL A   1      38.965  29.317  29.223  1.00  0.00     0.029 A 
ATOM     55  C   UNL A   1      40.097  30.216  29.421  1.00  0.00     0.049 A 
ATOM     56  H   UNL A   1      42.095  29.868  28.943  1.00  0.00     0.167 HD
ATOM     57  C   UNL A   1      46.274  28.943  28.084  1.00  0.00     0.031 A 
ATOM     58  C   UNL A   1      40.027  31.450  29.957  1.00  0.00     0.031 A 
ATOM     59  C   UNL A   1      46.294  30.276  28.625  1.00  0.00     0.049 A 
ATOM     60  C   UNL A   1      41.280  32.267  30.101  1.00  0.00     0.074 A 
ATOM     61  C   UNL A   1      47.380  31.111  28.820  1.00  0.00     0.029 A 
ATOM     62  N   UNL A   1      45.173  30.971  29.046  1.00  0.00    -0.354 N 
ATOM     63  N   UNL A   1      42.513  31.940  29.799  1.00  0.00    -0.248 NA
ATOM     64  C   UNL A   1      41.128  33.621  30.652  1.00  0.00     0.031 C 
ATOM     65  C   UNL A   1      46.914  32.313  29.369  1.00  0.00     0.029 A 
ATOM     66  C   UNL A   1      45.537  32.229  29.493  1.00  0.00     0.049 A 
ATOM     67  H   UNL A   1      44.252  30.623  29.029  1.00  0.00     0.167 HD
ATOM     68  C   UNL A   1      43.282  33.056  30.103  1.00  0.00     0.074 A 
ATOM     69  C   UNL A   1      42.376  34.069  30.607  1.00  0.00     0.031 C 
ATOM     70  C   UNL A   1      44.620  33.227  29.979  1.00  0.00     0.031 A 
BRANCH  57  71
ATOM     71  C   UNL A   1      47.577  28.313  27.679  1.00  0.00    -0.014 A 
ATOM     72  C   UNL A   1      48.089  28.494  26.382  1.00  0.00     0.010 A 
ATOM     73  C   UNL A   1      48.301  27.543  28.606  1.00  0.00     0.010 A 
ATOM     74  C   UNL A   1      49.285  27.879  26.005  1.00  0.00     0.020 A 
ATOM     75  C   UNL A   1      49.507  26.940  28.237  1.00  0.00     0.020 A 
ATOM     76  C   UNL A   1      49.980  27.096  26.931  1.00  0.00     0.054 A 
BRANCH  76  77
ATOM     77  S   UNL A   1      51.533  26.305  26.426  1.00  0.00     0.124 S 
ATOM     78  O   UNL A   1      52.521  27.087  27.164  1.00  0.00    -0.237 OA
ATOM     79  O   UNL A   1      51.361  24.926  26.878  1.00  0.00    -0.237 OA
ATOM     80  O   UNL A   1      51.552  26.483  24.976  1.00  0.00    -0.744 OA
ENDBRANCH  76  77
ENDBRANCH  57  71
BRANCH  58  81
ATOM     81  C   UNL A   1      38.713  32.002  30.375  1.00  0.00    -0.014 A 
ATOM     82  C   UNL A   1      37.870  32.610  29.429  1.00  0.00     0.010 A 
ATOM     83  C   UNL A   1      38.296  31.913  31.714  1.00  0.00     0.010 A 
ATOM     84  C   UNL A   1      36.636  33.138  29.819  1.00  0.00     0.020 A 
ATOM     85  C   UNL A   1      37.056  32.425  32.104  1.00  0.00     0.020 A 
ATOM     86  C   UNL A   1      36.239  33.046  31.155  1.00  0.00     0.054 A 
BRANCH  86  87
ATOM     87  S   UNL A   1      34.612  33.688  31.641  1.00  0.00     0.124 S 
ATOM     88  O   UNL A   1      34.973  34.876  32.406  1.00  0.00    -0.237 OA
ATOM     89  O   UNL A   1      33.964  33.936  30.354  1.00  0.00    -0.237 OA
ATOM     90  O   UNL A   1      34.035  32.591  32.414  1.00  0.00    -0.744 OA
ENDBRANCH  86  87
ENDBRANCH  58  81
BRANCH  70  91
ATOM     91  C   UNL A   1      45.177  34.569  30.355  1.00  0.00    -0.014 A 
ATOM     92  C   UNL A   1      45.231  35.617  29.421  1.00  0.00     0.010 A 
ATOM     93  C   UNL A   1      45.612  34.795  31.673  1.00  0.00     0.010 A 
ATOM     94  C   UNL A   1      45.734  36.867  29.793  1.00  0.00     0.020 A 
ATOM     95  C   UNL A   1      46.103  36.045  32.052  1.00  0.00     0.020 A 
ATOM     96  C   UNL A   1      46.173  37.071  31.105  1.00  0.00     0.054 A 
BRANCH  96  97
ATOM     97  S   UNL A   1      46.782  38.710  31.588  1.00  0.00     0.124 S 
ATOM     98  O   UNL A   1      48.118  38.401  32.091  1.00  0.00    -0.237 OA
ATOM     99  O   UNL A   1      46.741  39.458  30.333  1.00  0.00    -0.237 OA
ATOM    100  O   UNL A   1      45.820  39.149  32.597  1.00  0.00    -0.744 OA
ENDBRANCH  96  97
ENDBRANCH  70  91
ENDBRANCH  44  45
ENDBRANCH  36  39
ENDBRANCH  34  35
ENDBRANCH  33  34
ENDBRANCH   1  33
TORSDOF 20
ENDMDL
MODEL 2
REMARK VINA RESULT:     -11.5      5.564      7.640
REMARK SMILES CCc1ccnc(C(=O)c2[nH]c3ccc(OC(F)(F)F)cc3c2CC(=O)NCCCCNC(=O)c2ccc(-c3c4nc(c(-c5ccc(S(=O)(=O)[O-])cc5)c5ccc([nH]5)c(-c5ccc(S(=O)(=O)[O-])cc5)c5nc(c(-c6ccc(S(=O)(=O)[O-])cc6)c6ccc3[nH]6)C=C5)C=C4)cc2)c1
REMARK SMILES IDX 29 1 28 2 27 3 25 4 26 5 24 7 23 8 10 9 11 10 12 11 22 13
REMARK SMILES IDX 13 14 21 15 14 16 15 17 8 18 9 19 7 20 3 21 4 22 95 23 5 24
REMARK SMILES IDX 6 25 2 26 1 27 16 28 17 29 18 30 19 31 20 32 30 33 31 34
REMARK SMILES IDX 32 35 33 36 34 38 35 39 36 40 94 41 37 42 93 43 38 44 39 45
REMARK SMILES IDX 40 46 87 47 41 48 92 49 86 50 88 51 42 52 91 53 85 54 84 55
REMARK SMILES IDX 43 57 73 58 54 59 72 60 55 61 58 62 71 63 89 64 56 65 57 66
REMARK SMILES IDX 70 68 90 69 59 70 44 71 45 72 53 73 46 74 52 75 47 76 48 77
REMARK SMILES IDX 49 78 50 79 51 80 74 81 75 82 83 83 76 84 82 85 77 86 78 87
REMARK SMILES IDX 79 88 80 89 81 90 60 91 61 92 69 93 62 94 68 95 63 96 64 97
REMARK SMILES IDX 65 98 66 99 67 100
REMARK H PARENT 27 6 11 12 32 37 88 56 58 67
REMARK Flexibility Score: inf
ROOT
ATOM      1  C   UNL A   1      38.987  24.104  26.830  1.00  0.00     0.023 C 
ENDROOT
BRANCH   1   2
ATOM      2  C   UNL A   1      37.570  23.830  26.328  1.00  0.00     0.116 C 
BRANCH   2   3
ATOM      3  N   UNL A   1      37.528  23.445  24.933  1.00  0.00    -0.356 N 
ATOM      4  C   UNL A   1      36.473  23.451  24.066  1.00  0.00     0.224 C 
ATOM      5  O   UNL A   1      36.701  23.242  22.870  1.00  0.00    -0.275 OA
ATOM      6  H   UNL A   1      38.382  23.133  24.556  1.00  0.00     0.163 HD
BRANCH   4   7
ATOM      7  C   UNL A   1      35.075  23.836  24.527  1.00  0.00     0.138 C 
BRANCH   7   8
ATOM      8  C   UNL A   1      33.946  23.292  23.695  1.00  0.00    -0.002 A 
ATOM      9  C   UNL A   1      33.141  23.991  22.800  1.00  0.00     0.093 A 
ATOM     10  N   UNL A   1      32.325  23.072  22.181  1.00  0.00    -0.352 N 
ATOM     11  C   UNL A   1      32.480  21.828  22.740  1.00  0.00     0.046 A 
ATOM     12  H   UNL A   1      31.712  23.279  21.438  1.00  0.00     0.167 HD
ATOM     13  C   UNL A   1      33.474  21.937  23.707  1.00  0.00     0.008 A 
ATOM     14  C   UNL A   1      31.840  20.620  22.445  1.00  0.00     0.030 A 
ATOM     15  C   UNL A   1      33.830  20.777  24.427  1.00  0.00     0.057 A 
ATOM     16  C   UNL A   1      32.222  19.482  23.169  1.00  0.00     0.049 A 
ATOM     17  C   UNL A   1      33.206  19.551  24.153  1.00  0.00     0.130 A 
BRANCH   9  18
ATOM     18  C   UNL A   1      33.174  25.399  22.437  1.00  0.00     0.227 C 
ATOM     19  O   UNL A   1      33.700  25.766  21.393  1.00  0.00    -0.285 OA
BRANCH  18  20
ATOM     20  C   UNL A   1      32.515  26.399  23.359  1.00  0.00     0.113 A 
ATOM     21  C   UNL A   1      32.430  27.721  25.377  1.00  0.00    -0.044 A 
ATOM     22  C   UNL A   1      31.167  28.163  24.978  1.00  0.00     0.024 A 
ATOM     23  C   UNL A   1      33.120  26.837  24.538  1.00  0.00     0.036 A 
ATOM     24  C   UNL A   1      30.649  27.703  23.779  1.00  0.00     0.112 A 
ATOM     25  N   UNL A   1      31.286  26.828  22.976  1.00  0.00    -0.253 NA
BRANCH  21  26
ATOM     26  C   UNL A   1      33.022  28.146  26.697  1.00  0.00     0.032 C 
ATOM     27  C   UNL A   1      34.401  28.774  26.565  1.00  0.00     0.009 C 
ENDBRANCH  21  26
ENDBRANCH  18  20
ENDBRANCH   9  18
BRANCH  17  28
ATOM     28  O   UNL A   1      33.664  18.515  24.918  1.00  0.00    -0.406 OA
BRANCH  28  29
ATOM     29  C   UNL A   1      34.688  17.696  24.381  1.00  0.00     0.573 C 
ATOM     30  F   UNL A   1      34.434  17.385  23.092  1.00  0.00    -0.132 F 
ATOM     31  F   UNL A   1      35.894  18.296  24.470  1.00  0.00    -0.132 F 
ATOM     32  F   UNL A   1      34.737  16.545  25.086  1.00  0.00    -0.132 F 
ENDBRANCH  28  29
ENDBRANCH  17  28
ENDBRANCH   7   8
ENDBRANCH   4   7
ENDBRANCH   2   3
ENDBRANCH   1   2
BRANCH   1  33
ATOM     33  C   UNL A   1      40.005  22.990  26.574  1.00  0.00     0.023 C 
BRANCH  33  34
ATOM     34  C   UNL A   1      41.461  23.345  26.858  1.00  0.00     0.116 C 
BRANCH  34  35
ATOM     35  N   UNL A   1      42.085  24.114  25.793  1.00  0.00    -0.352 N 
ATOM     36  C   UNL A   1      42.436  25.443  25.778  1.00  0.00     0.251 C 
ATOM     37  H   UNL A   1      42.283  23.613  24.968  1.00  0.00     0.163 HD
ATOM     38  O   UNL A   1      42.868  25.945  24.744  1.00  0.00    -0.269 OA
BRANCH  36  39
ATOM     39  C   UNL A   1      42.255  26.276  26.988  1.00  0.00     0.039 A 
ATOM     40  C   UNL A   1      42.770  27.577  26.984  1.00  0.00     0.014 A 
ATOM     41  C   UNL A   1      41.598  25.788  28.120  1.00  0.00     0.014 A 
ATOM     42  C   UNL A   1      42.569  28.410  28.088  1.00  0.00     0.010 A 
ATOM     43  C   UNL A   1      41.357  26.634  29.202  1.00  0.00     0.010 A 
ATOM     44  C   UNL A   1      41.836  27.953  29.194  1.00  0.00    -0.014 A 
BRANCH  44  45
ATOM     45  C   UNL A   1      41.556  28.837  30.350  1.00  0.00     0.031 A 
ATOM     46  C   UNL A   1      42.406  28.756  31.587  1.00  0.00     0.074 A 
ATOM     47  C   UNL A   1      40.498  29.671  30.311  1.00  0.00     0.049 A 
ATOM     48  N   UNL A   1      42.258  29.373  32.730  1.00  0.00    -0.248 NA
ATOM     49  C   UNL A   1      43.561  27.847  31.537  1.00  0.00     0.031 C 
ATOM     50  C   UNL A   1      39.578  29.825  29.182  1.00  0.00     0.029 A 
ATOM     51  N   UNL A   1      40.011  30.538  31.257  1.00  0.00    -0.354 N 
ATOM     52  C   UNL A   1      43.282  28.910  33.546  1.00  0.00     0.074 A 
ATOM     53  C   UNL A   1      44.035  27.945  32.771  1.00  0.00     0.031 C 
ATOM     54  C   UNL A   1      38.649  30.743  29.494  1.00  0.00     0.029 A 
ATOM     55  C   UNL A   1      38.889  31.220  30.852  1.00  0.00     0.049 A 
ATOM     56  H   UNL A   1      40.428  30.661  32.140  1.00  0.00     0.167 HD
ATOM     57  C   UNL A   1      43.576  29.260  34.820  1.00  0.00     0.031 A 
ATOM     58  C   UNL A   1      38.135  32.125  31.505  1.00  0.00     0.031 A 
ATOM     59  C   UNL A   1      42.843  30.231  35.588  1.00  0.00     0.049 A 
ATOM     60  C   UNL A   1      38.502  32.522  32.906  1.00  0.00     0.074 A 
ATOM     61  C   UNL A   1      43.076  30.662  36.882  1.00  0.00     0.029 A 
ATOM     62  N   UNL A   1      41.741  30.931  35.124  1.00  0.00    -0.354 N 
ATOM     63  N   UNL A   1      39.483  32.080  33.655  1.00  0.00    -0.248 NA
ATOM     64  C   UNL A   1      37.664  33.547  33.546  1.00  0.00     0.031 C 
ATOM     65  C   UNL A   1      42.106  31.619  37.205  1.00  0.00     0.029 A 
ATOM     66  C   UNL A   1      41.287  31.797  36.102  1.00  0.00     0.049 A 
ATOM     67  H   UNL A   1      41.341  30.828  34.231  1.00  0.00     0.167 HD
ATOM     68  C   UNL A   1      39.393  32.788  34.847  1.00  0.00     0.074 A 
ATOM     69  C   UNL A   1      38.267  33.691  34.718  1.00  0.00     0.031 C 
ATOM     70  C   UNL A   1      40.173  32.696  35.951  1.00  0.00     0.031 A 
BRANCH  57  71
ATOM     71  C   UNL A   1      44.747  28.573  35.464  1.00  0.00    -0.014 A 
ATOM     72  C   UNL A   1      44.581  27.346  36.132  1.00  0.00     0.010 A 
ATOM     73  C   UNL A   1      46.026  29.153  35.393  1.00  0.00     0.010 A 
ATOM     74  C   UNL A   1      45.670  26.731  36.754  1.00  0.00     0.020 A 
ATOM     75  C   UNL A   1      47.120  28.530  36.000  1.00  0.00     0.020 A 
ATOM     76  C   UNL A   1      46.930  27.332  36.695  1.00  0.00     0.054 A 
BRANCH  76  77
ATOM     77  S   UNL A   1      48.334  26.519  37.508  1.00  0.00     0.124 S 
ATOM     78  O   UNL A   1      49.343  27.575  37.489  1.00  0.00    -0.237 OA
ATOM     79  O   UNL A   1      47.800  26.186  38.827  1.00  0.00    -0.237 OA
ATOM     80  O   UNL A   1      48.612  25.373  36.646  1.00  0.00    -0.744 OA
ENDBRANCH  76  77
ENDBRANCH  57  71
BRANCH  58  81
ATOM     81  C   UNL A   1      36.964  32.739  30.827  1.00  0.00    -0.014 A 
ATOM     82  C   UNL A   1      37.142  33.841  29.972  1.00  0.00     0.010 A 
ATOM     83  C   UNL A   1      35.672  32.222  31.026  1.00  0.00     0.010 A 
ATOM     84  C   UNL A   1      36.044  34.427  29.339  1.00  0.00     0.020 A 
ATOM     85  C   UNL A   1      34.574  32.797  30.380  1.00  0.00     0.020 A 
ATOM     86  C   UNL A   1      34.766  33.905  29.550  1.00  0.00     0.054 A 
BRANCH  86  87
ATOM     87  S   UNL A   1      33.353  34.643  28.682  1.00  0.00     0.124 S 
ATOM     88  O   UNL A   1      32.967  33.572  27.770  1.00  0.00    -0.237 OA
ATOM     89  O   UNL A   1      32.414  34.918  29.768  1.00  0.00    -0.237 OA
ATOM     90  O   UNL A   1      33.928  35.830  28.054  1.00  0.00    -0.744 OA
ENDBRANCH  86  87
ENDBRANCH  58  81
BRANCH  70  91
ATOM     91  C   UNL A   1      39.859  33.623  37.090  1.00  0.00    -0.014 A 
ATOM     92  C   UNL A   1      39.130  33.176  38.205  1.00  0.00     0.010 A 
ATOM     93  C   UNL A   1      40.337  34.945  37.061  1.00  0.00     0.010 A 
ATOM     94  C   UNL A   1      38.863  34.046  39.266  1.00  0.00     0.020 A 
ATOM     95  C   UNL A   1      40.084  35.813  38.124  1.00  0.00     0.020 A 
ATOM     96  C   UNL A   1      39.337  35.361  39.216  1.00  0.00     0.054 A 
BRANCH  96  97
ATOM     97  S   UNL A   1      39.023  36.468  40.619  1.00  0.00     0.124 S 
ATOM     98  O   UNL A   1      38.611  37.698  39.948  1.00  0.00    -0.237 OA
ATOM     99  O   UNL A   1      37.970  35.772  41.356  1.00  0.00    -0.237 OA
ATOM    100  O   UNL A   1      40.313  36.529  41.302  1.00  0.00    -0.744 OA
ENDBRANCH  96  97
ENDBRANCH  70  91
ENDBRANCH  44  45
ENDBRANCH  36  39
ENDBRANCH  34  35
ENDBRANCH  33  34
ENDBRANCH   1  33
TORSDOF 20
ENDMDL
MODEL 3
REMARK VINA RESULT:     -11.4      4.970      8.969
REMARK SMILES CCc1ccnc(C(=O)c2[nH]c3ccc(OC(F)(F)F)cc3c2CC(=O)NCCCCNC(=O)c2ccc(-c3c4nc(c(-c5ccc(S(=O)(=O)[O-])cc5)c5ccc([nH]5)c(-c5ccc(S(=O)(=O)[O-])cc5)c5nc(c(-c6ccc(S(=O)(=O)[O-])cc6)c6ccc3[nH]6)C=C5)C=C4)cc2)c1
REMARK SMILES IDX 29 1 28 2 27 3 25 4 26 5 24 7 23 8 10 9 11 10 12 11 22 13
REMARK SMILES IDX 13 14 21 15 14 16 15 17 8 18 9 19 7 20 3 21 4 22 95 23 5 24
REMARK SMILES IDX 6 25 2 26 1 27 16 28 17 29 18 30 19 31 20 32 30 33 31 34
REMARK SMILES IDX 32 35 33 36 34 38 35 39 36 40 94 41 37 42 93 43 38 44 39 45
REMARK SMILES IDX 40 46 87 47 41 48 92 49 86 50 88 51 42 52 91 53 85 54 84 55
REMARK SMILES IDX 43 57 73 58 54 59 72 60 55 61 58 62 71 63 89 64 56 65 57 66
REMARK SMILES IDX 70 68 90 69 59 70 44 71 45 72 53 73 46 74 52 75 47 76 48 77
REMARK SMILES IDX 49 78 50 79 51 80 74 81 75 82 83 83 76 84 82 85 77 86 78 87
REMARK SMILES IDX 79 88 80 89 81 90 60 91 61 92 69 93 62 94 68 95 63 96 64 97
REMARK SMILES IDX 65 98 66 99 67 100
REMARK H PARENT 27 6 11 12 32 37 88 56 58 67
REMARK Flexibility Score: inf
ROOT
ATOM      1  C   UNL A   1      36.884  23.115  24.920  1.00  0.00     0.023 C 
ENDROOT
BRANCH   1   2
ATOM      2  C   UNL A   1      35.706  24.081  25.043  1.00  0.00     0.116 C 
BRANCH   2   3
ATOM      3  N   UNL A   1      35.028  24.311  23.785  1.00  0.00    -0.356 N 
ATOM      4  C   UNL A   1      33.981  25.142  23.506  1.00  0.00     0.224 C 
ATOM      5  O   UNL A   1      33.670  25.309  22.322  1.00  0.00    -0.275 OA
ATOM      6  H   UNL A   1      35.369  23.792  23.022  1.00  0.00     0.163 HD
BRANCH   4   7
ATOM      7  C   UNL A   1      33.301  25.950  24.602  1.00  0.00     0.138 C 
BRANCH   7   8
ATOM      8  C   UNL A   1      31.816  25.749  24.727  1.00  0.00    -0.002 A 
ATOM      9  C   UNL A   1      31.153  24.785  25.481  1.00  0.00     0.093 A 
ATOM     10  N   UNL A   1      29.806  25.051  25.391  1.00  0.00    -0.352 N 
ATOM     11  C   UNL A   1      29.568  26.068  24.500  1.00  0.00     0.046 A 
ATOM     12  H   UNL A   1      29.107  24.576  25.897  1.00  0.00     0.167 HD
ATOM     13  C   UNL A   1      30.807  26.513  24.050  1.00  0.00     0.008 A 
ATOM     14  C   UNL A   1      28.362  26.640  24.084  1.00  0.00     0.030 A 
ATOM     15  C   UNL A   1      30.834  27.574  23.121  1.00  0.00     0.057 A 
ATOM     16  C   UNL A   1      28.420  27.700  23.169  1.00  0.00     0.049 A 
ATOM     17  C   UNL A   1      29.640  28.169  22.685  1.00  0.00     0.130 A 
BRANCH   9  18
ATOM     18  C   UNL A   1      31.703  23.739  26.329  1.00  0.00     0.227 C 
ATOM     19  O   UNL A   1      31.609  23.806  27.549  1.00  0.00    -0.285 OA
BRANCH  18  20
ATOM     20  C   UNL A   1      32.364  22.549  25.672  1.00  0.00     0.113 A 
ATOM     21  C   UNL A   1      32.614  20.959  23.874  1.00  0.00    -0.044 A 
ATOM     22  C   UNL A   1      33.598  20.325  24.634  1.00  0.00     0.024 A 
ATOM     23  C   UNL A   1      32.001  22.103  24.400  1.00  0.00     0.036 A 
ATOM     24  C   UNL A   1      33.920  20.848  25.875  1.00  0.00     0.112 A 
ATOM     25  N   UNL A   1      33.320  21.929  26.410  1.00  0.00    -0.253 NA
BRANCH  21  26
ATOM     26  C   UNL A   1      32.183  20.404  22.539  1.00  0.00     0.032 C 
ATOM     27  C   UNL A   1      32.237  18.885  22.472  1.00  0.00     0.009 C 
ENDBRANCH  21  26
ENDBRANCH  18  20
ENDBRANCH   9  18
BRANCH  17  28
ATOM     28  O   UNL A   1      29.825  29.192  21.799  1.00  0.00    -0.406 OA
BRANCH  28  29
ATOM     29  C   UNL A   1      28.910  30.274  21.835  1.00  0.00     0.573 C 
ATOM     30  F   UNL A   1      29.422  31.362  21.220  1.00  0.00    -0.132 F 
ATOM     31  F   UNL A   1      27.735  29.942  21.260  1.00  0.00    -0.132 F 
ATOM     32  F   UNL A   1      28.673  30.598  23.125  1.00  0.00    -0.132 F 
ENDBRANCH  28  29
ENDBRANCH  17  28
ENDBRANCH   7   8
ENDBRANCH   4   7
ENDBRANCH   2   3
ENDBRANCH   1   2
BRANCH   1  33
ATOM     33  C   UNL A   1      37.805  23.038  26.140  1.00  0.00     0.023 C 
BRANCH  33  34
ATOM     34  C   UNL A   1      38.561  24.319  26.481  1.00  0.00     0.116 C 
BRANCH  34  35
ATOM     35  N   UNL A   1      39.942  24.310  26.028  1.00  0.00    -0.352 N 
ATOM     36  C   UNL A   1      40.994  25.091  26.444  1.00  0.00     0.251 C 
ATOM     37  H   UNL A   1      40.154  23.654  25.324  1.00  0.00     0.163 HD
ATOM     38  O   UNL A   1      42.077  25.007  25.872  1.00  0.00    -0.269 OA
BRANCH  36  39
ATOM     39  C   UNL A   1      40.812  26.060  27.549  1.00  0.00     0.039 A 
ATOM     40  C   UNL A   1      39.814  25.809  28.497  1.00  0.00     0.014 A 
ATOM     41  C   UNL A   1      41.603  27.206  27.654  1.00  0.00     0.014 A 
ATOM     42  C   UNL A   1      39.652  26.672  29.584  1.00  0.00     0.010 A 
ATOM     43  C   UNL A   1      41.472  28.042  28.763  1.00  0.00     0.010 A 
ATOM     44  C   UNL A   1      40.499  27.779  29.739  1.00  0.00    -0.014 A 
BRANCH  44  45
ATOM     45  C   UNL A   1      40.389  28.673  30.916  1.00  0.00     0.031 A 
ATOM     46  C   UNL A   1      39.375  29.784  30.929  1.00  0.00     0.074 A 
ATOM     47  C   UNL A   1      41.242  28.527  31.948  1.00  0.00     0.049 A 
ATOM     48  N   UNL A   1      39.194  30.724  31.820  1.00  0.00    -0.248 NA
ATOM     49  C   UNL A   1      38.458  29.855  29.781  1.00  0.00     0.031 C 
ATOM     50  C   UNL A   1      42.289  27.507  32.047  1.00  0.00     0.029 A 
ATOM     51  N   UNL A   1      41.369  29.247  33.110  1.00  0.00    -0.354 N 
ATOM     52  C   UNL A   1      38.163  31.515  31.329  1.00  0.00     0.074 A 
ATOM     53  C   UNL A   1      37.771  30.955  30.054  1.00  0.00     0.031 C 
ATOM     54  C   UNL A   1      42.942  27.658  33.212  1.00  0.00     0.029 A 
ATOM     55  C   UNL A   1      42.378  28.799  33.927  1.00  0.00     0.049 A 
ATOM     56  H   UNL A   1      40.792  30.012  33.335  1.00  0.00     0.167 HD
ATOM     57  C   UNL A   1      37.590  32.605  31.893  1.00  0.00     0.031 A 
ATOM     58  C   UNL A   1      42.807  29.260  35.118  1.00  0.00     0.031 A 
ATOM     59  C   UNL A   1      37.964  33.155  33.168  1.00  0.00     0.049 A 
ATOM     60  C   UNL A   1      42.131  30.449  35.738  1.00  0.00     0.074 A 
ATOM     61  C   UNL A   1      37.429  34.248  33.826  1.00  0.00     0.029 A 
ATOM     62  N   UNL A   1      38.960  32.643  33.984  1.00  0.00    -0.354 N 
ATOM     63  N   UNL A   1      41.149  31.177  35.263  1.00  0.00    -0.248 NA
ATOM     64  C   UNL A   1      42.617  30.874  37.059  1.00  0.00     0.031 C 
ATOM     65  C   UNL A   1      38.110  34.403  35.041  1.00  0.00     0.029 A 
ATOM     66  C   UNL A   1      39.051  33.392  35.143  1.00  0.00     0.049 A 
ATOM     67  H   UNL A   1      39.519  31.862  33.770  1.00  0.00     0.167 HD
ATOM     68  C   UNL A   1      40.886  32.133  36.236  1.00  0.00     0.074 A 
ATOM     69  C   UNL A   1      41.806  31.888  37.328  1.00  0.00     0.031 C 
ATOM     70  C   UNL A   1      39.964  33.126  36.224  1.00  0.00     0.031 A 
BRANCH  57  71
ATOM     71  C   UNL A   1      36.494  33.278  31.115  1.00  0.00    -0.014 A 
ATOM     72  C   UNL A   1      36.767  33.908  29.888  1.00  0.00     0.010 A 
ATOM     73  C   UNL A   1      35.178  33.272  31.611  1.00  0.00     0.010 A 
ATOM     74  C   UNL A   1      35.748  34.558  29.189  1.00  0.00     0.020 A 
ATOM     75  C   UNL A   1      34.153  33.906  30.903  1.00  0.00     0.020 A 
ATOM     76  C   UNL A   1      34.449  34.563  29.706  1.00  0.00     0.054 A 
BRANCH  76  77
ATOM     77  S   UNL A   1      33.136  35.411  28.784  1.00  0.00     0.124 S 
ATOM     78  O   UNL A   1      33.905  36.320  27.938  1.00  0.00    -0.237 OA
ATOM     79  O   UNL A   1      32.468  34.316  28.083  1.00  0.00    -0.237 OA
ATOM     80  O   UNL A   1      32.342  36.051  29.830  1.00  0.00    -0.744 OA
ENDBRANCH  76  77
ENDBRANCH  57  71
BRANCH  58  81
ATOM     81  C   UNL A   1      43.923  28.575  35.819  1.00  0.00    -0.014 A 
ATOM     82  C   UNL A   1      45.249  28.990  35.608  1.00  0.00     0.010 A 
ATOM     83  C   UNL A   1      43.665  27.514  36.704  1.00  0.00     0.010 A 
ATOM     84  C   UNL A   1      46.303  28.344  36.258  1.00  0.00     0.020 A 
ATOM     85  C   UNL A   1      44.717  26.876  37.368  1.00  0.00     0.020 A 
ATOM     86  C   UNL A   1      46.031  27.288  37.131  1.00  0.00     0.054 A 
BRANCH  86  87
ATOM     87  S   UNL A   1      47.404  26.489  38.009  1.00  0.00     0.124 S 
ATOM     88  O   UNL A   1      48.339  26.216  36.924  1.00  0.00    -0.237 OA
ATOM     89  O   UNL A   1      47.821  27.517  38.961  1.00  0.00    -0.237 OA
ATOM     90  O   UNL A   1      46.778  25.315  38.613  1.00  0.00    -0.744 OA
ENDBRANCH  86  87
ENDBRANCH  58  81
BRANCH  70  91
ATOM     91  C   UNL A   1      39.880  33.996  37.445  1.00  0.00    -0.014 A 
ATOM     92  C   UNL A   1      40.605  35.197  37.528  1.00  0.00     0.010 A 
ATOM     93  C   UNL A   1      39.031  33.627  38.503  1.00  0.00     0.010 A 
ATOM     94  C   UNL A   1      40.501  36.005  38.662  1.00  0.00     0.020 A 
ATOM     95  C   UNL A   1      38.914  34.439  39.633  1.00  0.00     0.020 A 
ATOM     96  C   UNL A   1      39.660  35.618  39.711  1.00  0.00     0.054 A 
BRANCH  96  97
ATOM     97  S   UNL A   1      39.498  36.698  41.159  1.00  0.00     0.124 S 
ATOM     98  O   UNL A   1      40.873  36.758  41.648  1.00  0.00    -0.237 OA
ATOM     99  O   UNL A   1      38.981  37.939  40.588  1.00  0.00    -0.237 OA
ATOM    100  O   UNL A   1      38.559  35.979  42.019  1.00  0.00    -0.744 OA
ENDBRANCH  96  97
ENDBRANCH  70  91
ENDBRANCH  44  45
ENDBRANCH  36  39
ENDBRANCH  34  35
ENDBRANCH  33  34
ENDBRANCH   1  33
TORSDOF 20
ENDMDL
