MODEL 1
REMARK VINA RESULT:     -11.0      0.000      0.000
REMARK SMILES COC(=O)C1=C(C)NC(C)=C(C(=O)OC)C1c1ccc(C(=O)NCCCCNC(=O)c2ccc(-c3c4nc(c(-c5ccc(S(=O)(=O)[O-])cc5)c5ccc([nH]5)c(-c5ccc(S(=O)(=O)[O-])cc5)c5nc(c(-c6ccc(S(=O)(=O)[O-])cc6)c6ccc3[nH]6)C=C5)C=C4)cc2)cc1
REMARK SMILES IDX 25 1 24 2 23 3 21 4 22 5 20 7 17 8 18 9 92 10 19 11 91 12
REMARK SMILES IDX 16 13 5 14 6 15 7 16 8 17 11 18 9 19 10 21 3 22 4 23 2 24
REMARK SMILES IDX 1 25 12 26 13 27 14 28 15 29 26 30 27 31 28 32 29 33 30 35
REMARK SMILES IDX 31 36 32 37 90 38 33 39 89 40 34 41 35 42 36 43 83 44 37 45
REMARK SMILES IDX 88 46 82 47 84 48 38 49 87 50 81 51 80 52 39 54 69 55 50 56
REMARK SMILES IDX 68 57 51 58 54 59 67 60 85 61 52 62 53 63 66 65 86 66 55 67
REMARK SMILES IDX 40 68 41 69 49 70 42 71 48 72 43 73 44 74 45 75 46 76 47 77
REMARK SMILES IDX 70 78 71 79 79 80 72 81 78 82 73 83 74 84 75 85 76 86 77 87
REMARK SMILES IDX 56 88 57 89 65 90 58 91 64 92 59 93 60 94 61 95 62 96 63 97
REMARK H PARENT 23 6 8 20 28 34 84 53 54 64
REMARK Flexibility Score: inf
ROOT
ATOM      1  C   UNL A   1      31.745  28.887  25.448  1.00  0.00     0.023 C 
ENDROOT
BRANCH   1   2
ATOM      2  C   UNL A   1      31.447  28.008  24.233  1.00  0.00     0.116 C 
BRANCH   2   3
ATOM      3  N   UNL A   1      32.423  28.219  23.179  1.00  0.00    -0.352 N 
ATOM      4  C   UNL A   1      33.432  27.398  22.740  1.00  0.00     0.251 C 
ATOM      5  O   UNL A   1      34.096  27.716  21.756  1.00  0.00    -0.269 OA
ATOM      6  H   UNL A   1      32.351  29.081  22.708  1.00  0.00     0.163 HD
BRANCH   4   7
ATOM      7  C   UNL A   1      33.708  26.108  23.411  1.00  0.00     0.039 A 
ATOM      8  C   UNL A   1      34.244  23.706  24.770  1.00  0.00    -0.035 A 
ATOM      9  C   UNL A   1      34.357  24.939  25.433  1.00  0.00     0.005 A 
ATOM     10  C   UNL A   1      33.851  23.697  23.418  1.00  0.00     0.005 A 
ATOM     11  C   UNL A   1      34.072  26.130  24.761  1.00  0.00     0.014 A 
ATOM     12  C   UNL A   1      33.569  24.887  22.749  1.00  0.00     0.014 A 
BRANCH   8  13
ATOM     13  C   UNL A   1      34.510  22.371  25.467  1.00  0.00     0.098 C 
ATOM     14  C   UNL A   1      33.338  21.400  25.360  1.00  0.00     0.068 C 
ATOM     15  C   UNL A   1      33.535  20.072  25.209  1.00  0.00     0.023 C 
ATOM     16  C   UNL A   1      32.438  19.040  25.117  1.00  0.00     0.065 C 
ATOM     17  N   UNL A   1      34.825  19.584  25.100  1.00  0.00    -0.362 N 
ATOM     18  C   UNL A   1      35.855  21.721  25.103  1.00  0.00     0.068 C 
ATOM     19  C   UNL A   1      35.957  20.376  24.969  1.00  0.00     0.023 C 
ATOM     20  H   UNL A   1      34.949  18.608  25.116  1.00  0.00     0.166 HD
ATOM     21  C   UNL A   1      37.227  19.616  24.678  1.00  0.00     0.065 C 
BRANCH  14  22
ATOM     22  C   UNL A   1      31.962  21.930  25.425  1.00  0.00     0.336 C 
ATOM     23  O   UNL A   1      31.163  21.877  24.506  1.00  0.00    -0.246 OA
BRANCH  22  24
ATOM     24  O   UNL A   1      31.720  22.406  26.674  1.00  0.00    -0.466 OA
ATOM     25  C   UNL A   1      30.352  22.756  26.901  1.00  0.00     0.282 C 
ENDBRANCH  22  24
ENDBRANCH  14  22
BRANCH  18  26
ATOM     26  C   UNL A   1      37.017  22.599  24.815  1.00  0.00     0.336 C 
ATOM     27  O   UNL A   1      37.198  23.164  23.747  1.00  0.00    -0.246 OA
BRANCH  26  28
ATOM     28  O   UNL A   1      37.790  22.738  25.920  1.00  0.00    -0.466 OA
ATOM     29  C   UNL A   1      37.982  24.097  26.328  1.00  0.00     0.282 C 
ENDBRANCH  26  28
ENDBRANCH  18  26
ENDBRANCH   8  13
ENDBRANCH   4   7
ENDBRANCH   2   3
ENDBRANCH   1   2
BRANCH   1  30
ATOM     30  C   UNL A   1      32.303  28.131  26.657  1.00  0.00     0.023 C 
BRANCH  30  31
ATOM     31  C   UNL A   1      33.596  28.698  27.233  1.00  0.00     0.116 C 
BRANCH  31  32
ATOM     32  N   UNL A   1      33.488  30.099  27.611  1.00  0.00    -0.352 N 
ATOM     33  C   UNL A   1      34.429  30.892  28.222  1.00  0.00     0.251 C 
ATOM     34  H   UNL A   1      32.631  30.534  27.403  1.00  0.00     0.163 HD
ATOM     35  O   UNL A   1      34.137  32.030  28.580  1.00  0.00    -0.269 OA
BRANCH  33  36
ATOM     36  C   UNL A   1      35.779  30.349  28.480  1.00  0.00     0.039 A 
ATOM     37  C   UNL A   1      36.717  30.361  27.447  1.00  0.00     0.014 A 
ATOM     38  C   UNL A   1      36.122  29.860  29.743  1.00  0.00     0.014 A 
ATOM     39  C   UNL A   1      38.026  29.942  27.700  1.00  0.00     0.010 A 
ATOM     40  C   UNL A   1      37.441  29.505  30.010  1.00  0.00     0.010 A 
ATOM     41  C   UNL A   1      38.405  29.542  28.991  1.00  0.00    -0.014 A 
BRANCH  41  42
ATOM     42  C   UNL A   1      39.809  29.170  29.296  1.00  0.00     0.031 A 
ATOM     43  C   UNL A   1      40.739  30.173  29.921  1.00  0.00     0.074 A 
ATOM     44  C   UNL A   1      40.264  27.951  28.945  1.00  0.00     0.049 A 
ATOM     45  N   UNL A   1      42.004  30.044  30.225  1.00  0.00    -0.248 NA
ATOM     46  C   UNL A   1      40.183  31.504  30.216  1.00  0.00     0.031 C 
ATOM     47  C   UNL A   1      39.475  26.914  28.277  1.00  0.00     0.029 A 
ATOM     48  N   UNL A   1      41.503  27.383  29.092  1.00  0.00    -0.354 N 
ATOM     49  C   UNL A   1      42.402  31.278  30.725  1.00  0.00     0.074 A 
ATOM     50  C   UNL A   1      41.255  32.156  30.642  1.00  0.00     0.031 C 
ATOM     51  C   UNL A   1      40.245  25.829  28.091  1.00  0.00     0.029 A 
ATOM     52  C   UNL A   1      41.585  26.103  28.598  1.00  0.00     0.049 A 
ATOM     53  H   UNL A   1      42.263  27.848  29.513  1.00  0.00     0.167 HD
ATOM     54  C   UNL A   1      43.607  31.643  31.223  1.00  0.00     0.031 A 
ATOM     55  C   UNL A   1      42.623  25.245  28.555  1.00  0.00     0.031 A 
ATOM     56  C   UNL A   1      44.740  30.763  31.319  1.00  0.00     0.049 A 
ATOM     57  C   UNL A   1      43.942  25.662  29.144  1.00  0.00     0.074 A 
ATOM     58  C   UNL A   1      45.981  31.014  31.877  1.00  0.00     0.029 A 
ATOM     59  N   UNL A   1      44.772  29.461  30.841  1.00  0.00    -0.354 N 
ATOM     60  N   UNL A   1      44.274  26.806  29.692  1.00  0.00    -0.248 NA
ATOM     61  C   UNL A   1      45.021  24.665  29.125  1.00  0.00     0.031 C 
ATOM     62  C   UNL A   1      46.779  29.879  31.698  1.00  0.00     0.029 A 
ATOM     63  C   UNL A   1      46.018  28.903  31.073  1.00  0.00     0.049 A 
ATOM     64  H   UNL A   1      44.021  29.002  30.402  1.00  0.00     0.167 HD
ATOM     65  C   UNL A   1      45.594  26.661  30.102  1.00  0.00     0.074 A 
ATOM     66  C   UNL A   1      45.993  25.311  29.753  1.00  0.00     0.031 C 
ATOM     67  C   UNL A   1      46.402  27.562  30.713  1.00  0.00     0.031 A 
BRANCH  54  68
ATOM     68  C   UNL A   1      43.757  33.065  31.695  1.00  0.00    -0.014 A 
ATOM     69  C   UNL A   1      44.066  34.102  30.796  1.00  0.00     0.010 A 
ATOM     70  C   UNL A   1      43.564  33.374  33.054  1.00  0.00     0.010 A 
ATOM     71  C   UNL A   1      44.230  35.412  31.254  1.00  0.00     0.020 A 
ATOM     72  C   UNL A   1      43.701  34.688  33.513  1.00  0.00     0.020 A 
ATOM     73  C   UNL A   1      44.054  35.695  32.611  1.00  0.00     0.054 A 
BRANCH  73  74
ATOM     74  S   UNL A   1      44.264  37.405  33.180  1.00  0.00     0.124 S 
ATOM     75  O   UNL A   1      43.219  37.514  34.196  1.00  0.00    -0.237 OA
ATOM     76  O   UNL A   1      45.634  37.410  33.688  1.00  0.00    -0.237 OA
ATOM     77  O   UNL A   1      44.047  38.200  31.974  1.00  0.00    -0.744 OA
ENDBRANCH  73  74
ENDBRANCH  54  68
BRANCH  55  78
ATOM     78  C   UNL A   1      42.441  23.897  27.953  1.00  0.00    -0.014 A 
ATOM     79  C   UNL A   1      42.689  23.688  26.586  1.00  0.00     0.010 A 
ATOM     80  C   UNL A   1      42.054  22.808  28.754  1.00  0.00     0.010 A 
ATOM     81  C   UNL A   1      42.543  22.415  26.026  1.00  0.00     0.020 A 
ATOM     82  C   UNL A   1      41.930  21.529  28.203  1.00  0.00     0.020 A 
ATOM     83  C   UNL A   1      42.167  21.343  26.840  1.00  0.00     0.054 A 
BRANCH  83  84
ATOM     84  S   UNL A   1      42.053  19.686  26.108  1.00  0.00     0.124 S 
ATOM     85  O   UNL A   1      42.978  19.786  24.984  1.00  0.00    -0.237 OA
ATOM     86  O   UNL A   1      42.482  18.823  27.207  1.00  0.00    -0.237 OA
ATOM     87  O   UNL A   1      40.641  19.568  25.752  1.00  0.00    -0.744 OA
ENDBRANCH  83  84
ENDBRANCH  55  78
BRANCH  67  88
ATOM     88  C   UNL A   1      47.795  27.112  31.063  1.00  0.00    -0.014 A 
ATOM     89  C   UNL A   1      48.856  27.248  30.151  1.00  0.00     0.010 A 
ATOM     90  C   UNL A   1      48.052  26.588  32.344  1.00  0.00     0.010 A 
ATOM     91  C   UNL A   1      50.143  26.837  30.501  1.00  0.00     0.020 A 
ATOM     92  C   UNL A   1      49.344  26.198  32.706  1.00  0.00     0.020 A 
ATOM     93  C   UNL A   1      50.379  26.311  31.775  1.00  0.00     0.054 A 
BRANCH  93  94
ATOM     94  S   UNL A   1      52.066  25.817  32.221  1.00  0.00     0.124 S 
ATOM     95  O   UNL A   1      52.005  24.365  32.077  1.00  0.00    -0.237 OA
ATOM     96  O   UNL A   1      52.879  26.512  31.226  1.00  0.00    -0.237 OA
ATOM     97  O   UNL A   1      52.219  26.302  33.591  1.00  0.00    -0.744 OA
ENDBRANCH  93  94
ENDBRANCH  67  88
ENDBRANCH  41  42
ENDBRANCH  33  36
ENDBRANCH  31  32
ENDBRANCH  30  31
ENDBRANCH   1  30
TORSDOF 19
ENDMDL
MODEL 2
REMARK VINA RESULT:     -10.8      2.327      2.942
REMARK SMILES COC(=O)C1=C(C)NC(C)=C(C(=O)OC)C1c1ccc(C(=O)NCCCCNC(=O)c2ccc(-c3c4nc(c(-c5ccc(S(=O)(=O)[O-])cc5)c5ccc([nH]5)c(-c5ccc(S(=O)(=O)[O-])cc5)c5nc(c(-c6ccc(S(=O)(=O)[O-])cc6)c6ccc3[nH]6)C=C5)C=C4)cc2)cc1
REMARK SMILES IDX 25 1 24 2 23 3 21 4 22 5 20 7 17 8 18 9 92 10 19 11 91 12
REMARK SMILES IDX 16 13 5 14 6 15 7 16 8 17 11 18 9 19 10 21 3 22 4 23 2 24
REMARK SMILES IDX 1 25 12 26 13 27 14 28 15 29 26 30 27 31 28 32 29 33 30 35
REMARK SMILES IDX 31 36 32 37 90 38 33 39 89 40 34 41 35 42 36 43 83 44 37 45
REMARK SMILES IDX 88 46 82 47 84 48 38 49 87 50 81 51 80 52 39 54 69 55 50 56
REMARK SMILES IDX 68 57 51 58 54 59 67 60 85 61 52 62 53 63 66 65 86 66 55 67
REMARK SMILES IDX 40 68 41 69 49 70 42 71 48 72 43 73 44 74 45 75 46 76 47 77
REMARK SMILES IDX 70 78 71 79 79 80 72 81 78 82 73 83 74 84 75 85 76 86 77 87
REMARK SMILES IDX 56 88 57 89 65 90 58 91 64 92 59 93 60 94 61 95 62 96 63 97
REMARK H PARENT 23 6 8 20 28 34 84 53 54 64
REMARK Flexibility Score: inf
ROOT
ATOM      1  C   UNL A   1      31.582  29.594  25.461  1.00  0.00     0.023 C 
ENDROOT
BRANCH   1   2
ATOM      2  C   UNL A   1      31.501  28.535  24.362  1.00  0.00     0.116 C 
BRANCH   2   3
ATOM      3  N   UNL A   1      32.501  28.765  23.335  1.00  0.00    -0.352 N 
ATOM      4  C   UNL A   1      33.513  27.948  22.897  1.00  0.00     0.251 C 
ATOM      5  O   UNL A   1      34.200  28.286  21.936  1.00  0.00    -0.269 OA
ATOM      6  H   UNL A   1      32.446  29.640  22.885  1.00  0.00     0.163 HD
BRANCH   4   7
ATOM      7  C   UNL A   1      33.765  26.638  23.539  1.00  0.00     0.039 A 
ATOM      8  C   UNL A   1      34.236  24.195  24.846  1.00  0.00    -0.035 A 
ATOM      9  C   UNL A   1      34.148  25.389  25.580  1.00  0.00     0.005 A 
ATOM     10  C   UNL A   1      34.077  24.245  23.448  1.00  0.00     0.005 A 
ATOM     11  C   UNL A   1      33.894  26.599  24.931  1.00  0.00     0.014 A 
ATOM     12  C   UNL A   1      33.827  25.454  22.803  1.00  0.00     0.014 A 
BRANCH   8  13
ATOM     13  C   UNL A   1      34.477  22.838  25.511  1.00  0.00     0.098 C 
ATOM     14  C   UNL A   1      33.361  21.835  25.234  1.00  0.00     0.068 C 
ATOM     15  C   UNL A   1      33.624  20.522  25.049  1.00  0.00     0.023 C 
ATOM     16  C   UNL A   1      32.584  19.459  24.794  1.00  0.00     0.065 C 
ATOM     17  N   UNL A   1      34.936  20.084  25.061  1.00  0.00    -0.362 N 
ATOM     18  C   UNL A   1      35.877  22.252  25.268  1.00  0.00     0.068 C 
ATOM     19  C   UNL A   1      36.044  20.919  25.090  1.00  0.00     0.023 C 
ATOM     20  H   UNL A   1      35.095  19.113  25.049  1.00  0.00     0.166 HD
ATOM     21  C   UNL A   1      37.366  20.216  24.907  1.00  0.00     0.065 C 
BRANCH  14  22
ATOM     22  C   UNL A   1      31.967  22.314  25.171  1.00  0.00     0.336 C 
ATOM     23  O   UNL A   1      31.339  22.463  24.137  1.00  0.00    -0.246 OA
BRANCH  22  24
ATOM     24  O   UNL A   1      31.489  22.485  26.432  1.00  0.00    -0.466 OA
ATOM     25  C   UNL A   1      30.910  23.772  26.659  1.00  0.00     0.282 C 
ENDBRANCH  22  24
ENDBRANCH  14  22
BRANCH  18  26
ATOM     26  C   UNL A   1      37.029  23.181  25.148  1.00  0.00     0.336 C 
ATOM     27  O   UNL A   1      37.498  23.551  24.082  1.00  0.00    -0.246 OA
BRANCH  26  28
ATOM     28  O   UNL A   1      37.423  23.608  26.373  1.00  0.00    -0.466 OA
ATOM     29  C   UNL A   1      38.843  23.698  26.528  1.00  0.00     0.282 C 
ENDBRANCH  26  28
ENDBRANCH  18  26
ENDBRANCH   8  13
ENDBRANCH   4   7
ENDBRANCH   2   3
ENDBRANCH   1   2
BRANCH   1  30
ATOM     30  C   UNL A   1      32.397  29.177  26.687  1.00  0.00     0.023 C 
BRANCH  30  31
ATOM     31  C   UNL A   1      33.707  29.932  26.880  1.00  0.00     0.116 C 
BRANCH  31  32
ATOM     32  N   UNL A   1      33.518  31.288  27.373  1.00  0.00    -0.352 N 
ATOM     33  C   UNL A   1      34.296  31.988  28.264  1.00  0.00     0.251 C 
ATOM     34  H   UNL A   1      32.732  31.765  27.024  1.00  0.00     0.163 HD
ATOM     35  O   UNL A   1      33.932  33.089  28.667  1.00  0.00    -0.269 OA
BRANCH  33  36
ATOM     36  C   UNL A   1      35.550  31.385  28.761  1.00  0.00     0.039 A 
ATOM     37  C   UNL A   1      36.768  31.915  28.330  1.00  0.00     0.014 A 
ATOM     38  C   UNL A   1      35.522  30.325  29.671  1.00  0.00     0.014 A 
ATOM     39  C   UNL A   1      37.961  31.422  28.863  1.00  0.00     0.010 A 
ATOM     40  C   UNL A   1      36.706  29.880  30.249  1.00  0.00     0.010 A 
ATOM     41  C   UNL A   1      37.937  30.424  29.851  1.00  0.00    -0.014 A 
BRANCH  41  42
ATOM     42  C   UNL A   1      39.190  29.946  30.486  1.00  0.00     0.031 A 
ATOM     43  C   UNL A   1      39.741  30.646  31.697  1.00  0.00     0.074 A 
ATOM     44  C   UNL A   1      39.869  28.923  29.929  1.00  0.00     0.049 A 
ATOM     45  N   UNL A   1      40.837  30.397  32.365  1.00  0.00    -0.248 NA
ATOM     46  C   UNL A   1      38.974  31.795  32.208  1.00  0.00     0.031 C 
ATOM     47  C   UNL A   1      39.469  28.203  28.718  1.00  0.00     0.029 A 
ATOM     48  N   UNL A   1      41.042  28.320  30.302  1.00  0.00    -0.354 N 
ATOM     49  C   UNL A   1      40.905  31.368  33.357  1.00  0.00     0.074 A 
ATOM     50  C   UNL A   1      39.762  32.236  33.177  1.00  0.00     0.031 C 
ATOM     51  C   UNL A   1      40.372  27.242  28.461  1.00  0.00     0.029 A 
ATOM     52  C   UNL A   1      41.426  27.297  29.468  1.00  0.00     0.049 A 
ATOM     53  H   UNL A   1      41.560  28.593  31.094  1.00  0.00     0.167 HD
ATOM     54  C   UNL A   1      41.826  31.513  34.340  1.00  0.00     0.031 A 
ATOM     55  C   UNL A   1      42.506  26.493  29.507  1.00  0.00     0.031 A 
ATOM     56  C   UNL A   1      42.952  30.638  34.526  1.00  0.00     0.049 A 
ATOM     57  C   UNL A   1      43.498  26.652  30.626  1.00  0.00     0.074 A 
ATOM     58  C   UNL A   1      43.898  30.655  35.535  1.00  0.00     0.029 A 
ATOM     59  N   UNL A   1      43.286  29.590  33.682  1.00  0.00    -0.354 N 
ATOM     60  N   UNL A   1      43.498  27.523  31.608  1.00  0.00    -0.248 NA
ATOM     61  C   UNL A   1      44.624  25.710  30.653  1.00  0.00     0.031 C 
ATOM     62  C   UNL A   1      44.830  29.644  35.277  1.00  0.00     0.029 A 
ATOM     63  C   UNL A   1      44.435  28.965  34.135  1.00  0.00     0.049 A 
ATOM     64  H   UNL A   1      42.780  29.328  32.878  1.00  0.00     0.167 HD
ATOM     65  C   UNL A   1      44.612  27.220  32.381  1.00  0.00     0.074 A 
ATOM     66  C   UNL A   1      45.252  26.076  31.762  1.00  0.00     0.031 C 
ATOM     67  C   UNL A   1      45.064  27.833  33.503  1.00  0.00     0.031 A 
BRANCH  54  68
ATOM     68  C   UNL A   1      41.650  32.673  35.285  1.00  0.00    -0.014 A 
ATOM     69  C   UNL A   1      40.907  32.537  36.472  1.00  0.00     0.010 A 
ATOM     70  C   UNL A   1      42.257  33.908  34.995  1.00  0.00     0.010 A 
ATOM     71  C   UNL A   1      40.729  33.630  37.325  1.00  0.00     0.020 A 
ATOM     72  C   UNL A   1      42.104  34.997  35.859  1.00  0.00     0.020 A 
ATOM     73  C   UNL A   1      41.323  34.855  37.009  1.00  0.00     0.054 A 
BRANCH  73  74
ATOM     74  S   UNL A   1      41.085  36.256  38.136  1.00  0.00     0.124 S 
ATOM     75  O   UNL A   1      42.312  37.021  37.927  1.00  0.00    -0.237 OA
ATOM     76  O   UNL A   1      39.865  36.878  37.626  1.00  0.00    -0.237 OA
ATOM     77  O   UNL A   1      40.958  35.627  39.449  1.00  0.00    -0.744 OA
ENDBRANCH  73  74
ENDBRANCH  54  68
BRANCH  55  78
ATOM     78  C   UNL A   1      42.687  25.450  28.462  1.00  0.00    -0.014 A 
ATOM     79  C   UNL A   1      43.380  25.742  27.275  1.00  0.00     0.010 A 
ATOM     80  C   UNL A   1      42.198  24.147  28.668  1.00  0.00     0.010 A 
ATOM     81  C   UNL A   1      43.572  24.752  26.306  1.00  0.00     0.020 A 
ATOM     82  C   UNL A   1      42.409  23.149  27.711  1.00  0.00     0.020 A 
ATOM     83  C   UNL A   1      43.087  23.461  26.532  1.00  0.00     0.054 A 
BRANCH  83  84
ATOM     84  S   UNL A   1      43.409  22.175  25.293  1.00  0.00     0.124 S 
ATOM     85  O   UNL A   1      44.717  21.678  25.705  1.00  0.00    -0.237 OA
ATOM     86  O   UNL A   1      42.291  21.255  25.492  1.00  0.00    -0.237 OA
ATOM     87  O   UNL A   1      43.384  22.907  24.029  1.00  0.00    -0.744 OA
ENDBRANCH  83  84
ENDBRANCH  55  78
BRANCH  67  88
ATOM     88  C   UNL A   1      46.300  27.265  34.148  1.00  0.00    -0.014 A 
ATOM     89  C   UNL A   1      46.211  26.319  35.183  1.00  0.00     0.010 A 
ATOM     90  C   UNL A   1      47.568  27.651  33.676  1.00  0.00     0.010 A 
ATOM     91  C   UNL A   1      47.370  25.793  35.759  1.00  0.00     0.020 A 
ATOM     92  C   UNL A   1      48.729  27.109  34.232  1.00  0.00     0.020 A 
ATOM     93  C   UNL A   1      48.622  26.194  35.282  1.00  0.00     0.054 A 
BRANCH  93  94
ATOM     94  S   UNL A   1      50.113  25.471  36.020  1.00  0.00     0.124 S 
ATOM     95  O   UNL A   1      50.769  26.645  36.590  1.00  0.00    -0.237 OA
ATOM     96  O   UNL A   1      49.566  24.524  36.989  1.00  0.00    -0.237 OA
ATOM     97  O   UNL A   1      50.801  24.862  34.883  1.00  0.00    -0.744 OA
ENDBRANCH  93  94
ENDBRANCH  67  88
ENDBRANCH  41  42
ENDBRANCH  33  36
ENDBRANCH  31  32
ENDBRANCH  30  31
ENDBRANCH   1  30
TORSDOF 19
ENDMDL
MODEL 3
REMARK VINA RESULT:     -10.6      2.958      3.631
REMARK SMILES COC(=O)C1=C(C)NC(C)=C(C(=O)OC)C1c1ccc(C(=O)NCCCCNC(=O)c2ccc(-c3c4nc(c(-c5ccc(S(=O)(=O)[O-])cc5)c5ccc([nH]5)c(-c5ccc(S(=O)(=O)[O-])cc5)c5nc(c(-c6ccc(S(=O)(=O)[O-])cc6)c6ccc3[nH]6)C=C5)C=C4)cc2)cc1
REMARK SMILES IDX 25 1 24 2 23 3 21 4 22 5 20 7 17 8 18 9 92 10 19 11 91 12
REMARK SMILES IDX 16 13 5 14 6 15 7 16 8 17 11 18 9 19 10 21 3 22 4 23 2 24
REMARK SMILES IDX 1 25 12 26 13 27 14 28 15 29 26 30 27 31 28 32 29 33 30 35
REMARK SMILES IDX 31 36 32 37 90 38 33 39 89 40 34 41 35 42 36 43 83 44 37 45
REMARK SMILES IDX 88 46 82 47 84 48 38 49 87 50 81 51 80 52 39 54 69 55 50 56
REMARK SMILES IDX 68 57 51 58 54 59 67 60 85 61 52 62 53 63 66 65 86 66 55 67
REMARK SMILES IDX 40 68 41 69 49 70 42 71 48 72 43 73 44 74 45 75 46 76 47 77
REMARK SMILES IDX 70 78 71 79 79 80 72 81 78 82 73 83 74 84 75 85 76 86 77 87
REMARK SMILES IDX 56 88 57 89 65 90 58 91 64 92 59 93 60 94 61 95 62 96 63 97
REMARK H PARENT 23 6 8 20 28 34 84 53 54 64
REMARK Flexibility Score: inf
ROOT
ATOM      1  C   UNL A   1      33.694  29.975  26.393  1.00  0.00     0.023 C 
ENDROOT
BRANCH   1   2
ATOM      2  C   UNL A   1      32.734  29.268  25.437  1.00  0.00     0.116 C 
BRANCH   2   3
ATOM      3  N   UNL A   1      33.244  29.276  24.078  1.00  0.00    -0.352 N 
ATOM      4  C   UNL A   1      33.753  28.247  23.326  1.00  0.00     0.251 C 
ATOM      5  O   UNL A   1      34.042  28.435  22.146  1.00  0.00    -0.269 OA
ATOM      6  H   UNL A   1      33.223  30.152  23.628  1.00  0.00     0.163 HD
BRANCH   4   7
ATOM      7  C   UNL A   1      33.921  26.894  23.903  1.00  0.00     0.039 A 
ATOM      8  C   UNL A   1      34.236  24.365  25.089  1.00  0.00    -0.035 A 
ATOM      9  C   UNL A   1      34.233  25.526  25.879  1.00  0.00     0.005 A 
ATOM     10  C   UNL A   1      34.071  24.492  23.696  1.00  0.00     0.005 A 
ATOM     11  C   UNL A   1      34.057  26.780  25.290  1.00  0.00     0.014 A 
ATOM     12  C   UNL A   1      33.898  25.745  23.111  1.00  0.00     0.014 A 
BRANCH   8  13
ATOM     13  C   UNL A   1      34.390  22.965  25.686  1.00  0.00     0.098 C 
ATOM     14  C   UNL A   1      33.185  22.069  25.417  1.00  0.00     0.068 C 
ATOM     15  C   UNL A   1      33.330  20.748  25.167  1.00  0.00     0.023 C 
ATOM     16  C   UNL A   1      32.197  19.786  24.913  1.00  0.00     0.065 C 
ATOM     17  N   UNL A   1      34.601  20.205  25.104  1.00  0.00    -0.362 N 
ATOM     18  C   UNL A   1      35.726  22.278  25.360  1.00  0.00     0.068 C 
ATOM     19  C   UNL A   1      35.775  20.945  25.119  1.00  0.00     0.023 C 
ATOM     20  H   UNL A   1      34.679  19.226  25.045  1.00  0.00     0.166 HD
ATOM     21  C   UNL A   1      37.026  20.147  24.851  1.00  0.00     0.065 C 
BRANCH  14  22
ATOM     22  C   UNL A   1      31.834  22.662  25.433  1.00  0.00     0.336 C 
ATOM     23  O   UNL A   1      31.152  22.842  24.439  1.00  0.00    -0.246 OA
BRANCH  22  24
ATOM     24  O   UNL A   1      31.458  22.896  26.718  1.00  0.00    -0.466 OA
ATOM     25  C   UNL A   1      30.046  22.821  26.928  1.00  0.00     0.282 C 
ENDBRANCH  22  24
ENDBRANCH  14  22
BRANCH  18  26
ATOM     26  C   UNL A   1      36.945  23.116  25.228  1.00  0.00     0.336 C 
ATOM     27  O   UNL A   1      37.328  23.602  24.174  1.00  0.00    -0.246 OA
BRANCH  26  28
ATOM     28  O   UNL A   1      37.513  23.318  26.442  1.00  0.00    -0.466 OA
ATOM     29  C   UNL A   1      38.482  24.372  26.461  1.00  0.00     0.282 C 
ENDBRANCH  26  28
ENDBRANCH  18  26
ENDBRANCH   8  13
ENDBRANCH   4   7
ENDBRANCH   2   3
ENDBRANCH   1   2
BRANCH   1  30
ATOM     30  C   UNL A   1      34.271  29.079  27.492  1.00  0.00     0.023 C 
BRANCH  30  31
ATOM     31  C   UNL A   1      35.614  29.532  28.056  1.00  0.00     0.116 C 
BRANCH  31  32
ATOM     32  N   UNL A   1      35.534  29.963  29.444  1.00  0.00    -0.352 N 
ATOM     33  C   UNL A   1      36.554  30.094  30.356  1.00  0.00     0.251 C 
ATOM     34  H   UNL A   1      34.635  30.190  29.771  1.00  0.00     0.163 HD
ATOM     35  O   UNL A   1      36.302  30.360  31.528  1.00  0.00    -0.269 OA
BRANCH  33  36
ATOM     36  C   UNL A   1      37.948  29.869  29.922  1.00  0.00     0.039 A 
ATOM     37  C   UNL A   1      38.923  29.627  30.892  1.00  0.00     0.014 A 
ATOM     38  C   UNL A   1      38.283  29.868  28.566  1.00  0.00     0.014 A 
ATOM     39  C   UNL A   1      40.227  29.318  30.495  1.00  0.00     0.010 A 
ATOM     40  C   UNL A   1      39.564  29.495  28.171  1.00  0.00     0.010 A 
ATOM     41  C   UNL A   1      40.548  29.217  29.132  1.00  0.00    -0.014 A 
BRANCH  41  42
ATOM     42  C   UNL A   1      41.907  28.810  28.694  1.00  0.00     0.031 A 
ATOM     43  C   UNL A   1      43.008  29.829  28.597  1.00  0.00     0.074 A 
ATOM     44  C   UNL A   1      42.128  27.535  28.317  1.00  0.00     0.049 A 
ATOM     45  N   UNL A   1      44.244  29.670  28.200  1.00  0.00    -0.248 NA
ATOM     46  C   UNL A   1      42.669  31.214  28.965  1.00  0.00     0.031 C 
ATOM     47  C   UNL A   1      41.125  26.469  28.308  1.00  0.00     0.029 A 
ATOM     48  N   UNL A   1      43.267  26.924  27.860  1.00  0.00    -0.354 N 
ATOM     49  C   UNL A   1      44.823  30.933  28.249  1.00  0.00     0.074 A 
ATOM     50  C   UNL A   1      43.791  31.854  28.672  1.00  0.00     0.031 C 
ATOM     51  C   UNL A   1      41.698  25.330  27.886  1.00  0.00     0.029 A 
ATOM     52  C   UNL A   1      43.098  25.591  27.567  1.00  0.00     0.049 A 
ATOM     53  H   UNL A   1      44.125  27.394  27.751  1.00  0.00     0.167 HD
ATOM     54  C   UNL A   1      46.102  31.290  27.983  1.00  0.00     0.031 A 
ATOM     55  C   UNL A   1      43.970  24.680  27.094  1.00  0.00     0.031 A 
ATOM     56  C   UNL A   1      47.129  30.368  27.578  1.00  0.00     0.049 A 
ATOM     57  C   UNL A   1      45.393  25.093  26.837  1.00  0.00     0.074 A 
ATOM     58  C   UNL A   1      48.472  30.618  27.358  1.00  0.00     0.029 A 
ATOM     59  N   UNL A   1      46.927  29.019  27.330  1.00  0.00    -0.354 N 
ATOM     60  N   UNL A   1      45.944  26.276  26.973  1.00  0.00    -0.248 NA
ATOM     61  C   UNL A   1      46.316  24.045  26.380  1.00  0.00     0.031 C 
ATOM     62  C   UNL A   1      49.074  29.429  26.934  1.00  0.00     0.029 A 
ATOM     63  C   UNL A   1      48.116  28.427  26.938  1.00  0.00     0.049 A 
ATOM     64  H   UNL A   1      46.065  28.552  27.418  1.00  0.00     0.167 HD
ATOM     65  C   UNL A   1      47.283  26.110  26.638  1.00  0.00     0.074 A 
ATOM     66  C   UNL A   1      47.460  24.710  26.309  1.00  0.00     0.031 C 
ATOM     67  C   UNL A   1      48.275  27.034  26.607  1.00  0.00     0.031 A 
BRANCH  54  68
ATOM     68  C   UNL A   1      46.453  32.749  28.115  1.00  0.00    -0.014 A 
ATOM     69  C   UNL A   1      46.901  33.280  29.339  1.00  0.00     0.010 A 
ATOM     70  C   UNL A   1      46.358  33.596  26.996  1.00  0.00     0.010 A 
ATOM     71  C   UNL A   1      47.196  34.641  29.454  1.00  0.00     0.020 A 
ATOM     72  C   UNL A   1      46.678  34.953  27.100  1.00  0.00     0.020 A 
ATOM     73  C   UNL A   1      47.076  35.470  28.335  1.00  0.00     0.054 A 
BRANCH  73  74
ATOM     74  S   UNL A   1      47.473  37.232  28.508  1.00  0.00     0.124 S 
ATOM     75  O   UNL A   1      48.826  37.289  27.956  1.00  0.00    -0.237 OA
ATOM     76  O   UNL A   1      46.440  37.876  27.701  1.00  0.00    -0.237 OA
ATOM     77  O   UNL A   1      47.376  37.469  29.946  1.00  0.00    -0.744 OA
ENDBRANCH  73  74
ENDBRANCH  54  68
BRANCH  55  78
ATOM     78  C   UNL A   1      43.522  23.282  26.860  1.00  0.00    -0.014 A 
ATOM     79  C   UNL A   1      43.754  22.657  25.623  1.00  0.00     0.010 A 
ATOM     80  C   UNL A   1      42.891  22.556  27.887  1.00  0.00     0.010 A 
ATOM     81  C   UNL A   1      43.355  21.333  25.413  1.00  0.00     0.020 A 
ATOM     82  C   UNL A   1      42.513  21.225  27.688  1.00  0.00     0.020 A 
ATOM     83  C   UNL A   1      42.739  20.625  26.449  1.00  0.00     0.054 A 
BRANCH  83  84
ATOM     84  S   UNL A   1      42.294  18.887  26.178  1.00  0.00     0.124 S 
ATOM     85  O   UNL A   1      42.598  18.290  27.474  1.00  0.00    -0.237 OA
ATOM     86  O   UNL A   1      40.876  18.971  25.837  1.00  0.00    -0.237 OA
ATOM     87  O   UNL A   1      43.166  18.480  25.078  1.00  0.00    -0.744 OA
ENDBRANCH  83  84
ENDBRANCH  55  78
BRANCH  67  88
ATOM     88  C   UNL A   1      49.649  26.555  26.224  1.00  0.00    -0.014 A 
ATOM     89  C   UNL A   1      50.170  26.788  24.939  1.00  0.00     0.010 A 
ATOM     90  C   UNL A   1      50.449  25.904  27.181  1.00  0.00     0.010 A 
ATOM     91  C   UNL A   1      51.452  26.348  24.607  1.00  0.00     0.020 A 
ATOM     92  C   UNL A   1      51.742  25.485  26.861  1.00  0.00     0.020 A 
ATOM     93  C   UNL A   1      52.230  25.696  25.569  1.00  0.00     0.054 A 
BRANCH  93  94
ATOM     94  S   UNL A   1      53.907  25.165  25.128  1.00  0.00     0.124 S 
ATOM     95  O   UNL A   1      54.663  25.520  26.325  1.00  0.00    -0.237 OA
ATOM     96  O   UNL A   1      53.740  23.732  24.891  1.00  0.00    -0.237 OA
ATOM     97  O   UNL A   1      54.217  25.954  23.937  1.00  0.00    -0.744 OA
ENDBRANCH  93  94
ENDBRANCH  67  88
ENDBRANCH  41  42
ENDBRANCH  33  36
ENDBRANCH  31  32
ENDBRANCH  30  31
ENDBRANCH   1  30
TORSDOF 19
ENDMDL
