MODEL 1
REMARK VINA RESULT:     -10.7      0.000      0.000
REMARK SMILES CC(C)(C)[NH2+]Cc1ccn(CC(C)(C)C(=O)NCCCCNC(=O)c2ccc(-c3c4nc(c(-c5ccc(S(=O)(=O)[O-])cc5)c5ccc([nH]5)c(-c5ccc(S(=O)(=O)[O-])cc5)c5nc(c(-c6ccc(S(=O)(=O)[O-])cc6)c6ccc3[nH]6)C=C5)C=C4)cc2)c1
REMARK SMILES IDX 18 1 17 2 15 3 16 4 12 6 13 7 14 8 11 9 10 10 7 11 8 12
REMARK SMILES IDX 85 13 9 14 6 15 5 16 2 19 1 20 3 21 4 22 19 23 20 24 21 25
REMARK SMILES IDX 22 26 23 27 24 29 25 30 26 31 84 32 27 33 83 34 28 35 29 36
REMARK SMILES IDX 30 37 77 38 31 39 82 40 76 41 78 42 32 43 81 44 75 45 74 46
REMARK SMILES IDX 33 48 63 49 44 50 62 51 45 52 48 53 61 54 79 55 46 56 47 57
REMARK SMILES IDX 60 59 80 60 49 61 34 62 35 63 43 64 36 65 42 66 37 67 38 68
REMARK SMILES IDX 39 69 40 70 41 71 64 72 65 73 73 74 66 75 72 76 67 77 68 78
REMARK SMILES IDX 69 79 70 80 71 81 50 82 51 83 59 84 52 85 58 86 53 87 54 88
REMARK SMILES IDX 55 89 56 90 57 91
REMARK H PARENT 17 5 5 17 5 18 22 28 78 47 48 58
REMARK Flexibility Score: inf
ROOT
ATOM      1  C   UNL A   1      33.602  31.581  27.628  1.00  0.00     0.116 C 
ENDROOT
BRANCH   1   2
ATOM      2  N   UNL A   1      34.278  30.476  26.976  1.00  0.00    -0.356 N 
ATOM      3  C   UNL A   1      33.817  29.239  26.642  1.00  0.00     0.227 C 
ATOM      4  O   UNL A   1      34.621  28.317  26.793  1.00  0.00    -0.274 OA
ATOM      5  H   UNL A   1      35.218  30.648  26.738  1.00  0.00     0.163 HD
BRANCH   3   6
ATOM      6  C   UNL A   1      32.352  28.954  26.274  1.00  0.00     0.061 C 
ATOM      7  C   UNL A   1      31.556  30.204  25.881  1.00  0.00     0.023 C 
ATOM      8  C   UNL A   1      31.726  28.293  27.518  1.00  0.00     0.023 C 
BRANCH   6   9
ATOM      9  C   UNL A   1      32.277  27.890  25.117  1.00  0.00     0.137 C 
BRANCH   9  10
ATOM     10  N   UNL A   1      31.205  27.968  24.133  1.00  0.00    -0.353 N 
ATOM     11  C   UNL A   1      29.943  28.938  22.578  1.00  0.00     0.024 A 
ATOM     12  C   UNL A   1      29.209  27.879  23.182  1.00  0.00     0.029 A 
ATOM     13  C   UNL A   1      31.244  28.778  23.023  1.00  0.00     0.095 A 
ATOM     14  C   UNL A   1      30.055  27.234  24.061  1.00  0.00     0.086 A 
BRANCH  11  15
ATOM     15  C   UNL A   1      29.423  29.975  21.637  1.00  0.00     0.299 C 
BRANCH  15  16
ATOM     16  N   UNL A   1      29.730  31.328  22.102  1.00  0.00    -0.338 N 
ATOM     17  H   UNL A   1      30.335  31.227  22.917  1.00  0.00     0.347 HD
ATOM     18  H   UNL A   1      30.121  31.773  21.271  1.00  0.00     0.347 HD
BRANCH  16  19
ATOM     19  C   UNL A   1      28.648  32.250  22.490  1.00  0.00     0.088 C 
ATOM     20  C   UNL A   1      29.148  33.537  23.164  1.00  0.00     0.078 C 
ATOM     21  C   UNL A   1      27.584  31.583  23.365  1.00  0.00     0.078 C 
ATOM     22  C   UNL A   1      27.916  32.634  21.189  1.00  0.00     0.078 C 
ENDBRANCH  16  19
ENDBRANCH  15  16
ENDBRANCH  11  15
ENDBRANCH   9  10
ENDBRANCH   6   9
ENDBRANCH   3   6
ENDBRANCH   1   2
BRANCH   1  23
ATOM     23  C   UNL A   1      34.572  32.740  27.875  1.00  0.00     0.023 C 
BRANCH  23  24
ATOM     24  C   UNL A   1      33.917  34.045  28.351  1.00  0.00     0.023 C 
BRANCH  24  25
ATOM     25  C   UNL A   1      34.602  34.688  29.558  1.00  0.00     0.116 C 
BRANCH  25  26
ATOM     26  N   UNL A   1      34.146  34.077  30.799  1.00  0.00    -0.352 N 
ATOM     27  C   UNL A   1      34.778  33.171  31.602  1.00  0.00     0.251 C 
ATOM     28  H   UNL A   1      33.252  34.356  31.103  1.00  0.00     0.163 HD
ATOM     29  O   UNL A   1      34.088  32.462  32.353  1.00  0.00    -0.269 OA
BRANCH  27  30
ATOM     30  C   UNL A   1      36.243  33.021  31.614  1.00  0.00     0.039 A 
ATOM     31  C   UNL A   1      36.832  32.143  30.694  1.00  0.00     0.014 A 
ATOM     32  C   UNL A   1      37.025  33.644  32.595  1.00  0.00     0.014 A 
ATOM     33  C   UNL A   1      38.204  31.922  30.725  1.00  0.00     0.010 A 
ATOM     34  C   UNL A   1      38.397  33.440  32.622  1.00  0.00     0.010 A 
ATOM     35  C   UNL A   1      38.985  32.590  31.679  1.00  0.00    -0.014 A 
BRANCH  35  36
ATOM     36  C   UNL A   1      40.455  32.600  31.536  1.00  0.00     0.031 A 
ATOM     37  C   UNL A   1      41.082  31.476  32.418  1.00  0.00     0.074 A 
ATOM     38  C   UNL A   1      40.978  33.541  30.680  1.00  0.00     0.049 A 
ATOM     39  N   UNL A   1      42.305  31.310  32.806  1.00  0.00    -0.248 NA
ATOM     40  C   UNL A   1      40.221  30.389  32.988  1.00  0.00     0.031 C 
ATOM     41  C   UNL A   1      40.177  34.501  29.873  1.00  0.00     0.029 A 
ATOM     42  N   UNL A   1      42.256  33.892  30.287  1.00  0.00    -0.354 N 
ATOM     43  C   UNL A   1      42.409  30.050  33.452  1.00  0.00     0.074 A 
ATOM     44  C   UNL A   1      41.074  29.568  33.610  1.00  0.00     0.031 C 
ATOM     45  C   UNL A   1      40.971  35.364  29.192  1.00  0.00     0.029 A 
ATOM     46  C   UNL A   1      42.362  35.045  29.446  1.00  0.00     0.049 A 
ATOM     47  H   UNL A   1      43.047  33.379  30.568  1.00  0.00     0.167 HD
ATOM     48  C   UNL A   1      43.611  29.444  33.693  1.00  0.00     0.031 A 
ATOM     49  C   UNL A   1      43.493  35.701  29.021  1.00  0.00     0.031 A 
ATOM     50  C   UNL A   1      44.657  30.332  33.318  1.00  0.00     0.049 A 
ATOM     51  C   UNL A   1      44.592  34.806  29.399  1.00  0.00     0.074 A 
ATOM     52  C   UNL A   1      45.084  31.512  33.867  1.00  0.00     0.029 A 
ATOM     53  N   UNL A   1      45.081  30.242  32.013  1.00  0.00    -0.354 N 
ATOM     54  N   UNL A   1      44.865  33.685  28.808  1.00  0.00    -0.248 NA
ATOM     55  C   UNL A   1      45.412  35.147  30.569  1.00  0.00     0.031 C 
ATOM     56  C   UNL A   1      45.244  32.324  32.728  1.00  0.00     0.029 A 
ATOM     57  C   UNL A   1      45.234  31.528  31.574  1.00  0.00     0.049 A 
ATOM     58  H   UNL A   1      45.242  29.418  31.500  1.00  0.00     0.167 HD
ATOM     59  C   UNL A   1      45.571  33.024  29.777  1.00  0.00     0.074 A 
ATOM     60  C   UNL A   1      46.149  34.042  30.633  1.00  0.00     0.031 C 
ATOM     61  C   UNL A   1      45.170  31.784  30.159  1.00  0.00     0.031 A 
BRANCH  48  62
ATOM     62  C   UNL A   1      44.030  28.031  34.015  1.00  0.00    -0.014 A 
ATOM     63  C   UNL A   1      43.885  27.080  32.966  1.00  0.00     0.010 A 
ATOM     64  C   UNL A   1      44.174  27.534  35.316  1.00  0.00     0.010 A 
ATOM     65  C   UNL A   1      43.712  25.719  33.215  1.00  0.00     0.020 A 
ATOM     66  C   UNL A   1      44.048  26.152  35.571  1.00  0.00     0.020 A 
ATOM     67  C   UNL A   1      43.760  25.267  34.526  1.00  0.00     0.054 A 
BRANCH  67  68
ATOM     68  S   UNL A   1      43.363  23.522  34.832  1.00  0.00     0.124 S 
ATOM     69  O   UNL A   1      41.955  23.588  35.213  1.00  0.00    -0.237 OA
ATOM     70  O   UNL A   1      43.627  22.907  33.532  1.00  0.00    -0.237 OA
ATOM     71  O   UNL A   1      44.289  23.140  35.893  1.00  0.00    -0.744 OA
ENDBRANCH  67  68
ENDBRANCH  48  62
BRANCH  49  72
ATOM     72  C   UNL A   1      43.953  37.013  28.396  1.00  0.00    -0.014 A 
ATOM     73  C   UNL A   1      44.683  37.177  27.214  1.00  0.00     0.010 A 
ATOM     74  C   UNL A   1      43.442  38.224  28.962  1.00  0.00     0.010 A 
ATOM     75  C   UNL A   1      44.731  38.439  26.555  1.00  0.00     0.020 A 
ATOM     76  C   UNL A   1      43.424  39.452  28.297  1.00  0.00     0.020 A 
ATOM     77  C   UNL A   1      44.039  39.548  27.066  1.00  0.00     0.054 A 
BRANCH  77  78
ATOM     78  S   UNL A   1      43.790  41.051  26.068  1.00  0.00     0.124 S 
ATOM     79  O   UNL A   1      42.417  40.900  25.601  1.00  0.00    -0.237 OA
ATOM     80  O   UNL A   1      44.016  42.119  27.038  1.00  0.00    -0.237 OA
ATOM     81  O   UNL A   1      44.816  40.949  25.029  1.00  0.00    -0.744 OA
ENDBRANCH  77  78
ENDBRANCH  49  72
BRANCH  61  82
ATOM     82  C   UNL A   1      44.380  30.976  29.131  1.00  0.00    -0.014 A 
ATOM     83  C   UNL A   1      43.006  30.757  29.347  1.00  0.00     0.010 A 
ATOM     84  C   UNL A   1      44.950  30.369  27.990  1.00  0.00     0.010 A 
ATOM     85  C   UNL A   1      42.232  29.979  28.474  1.00  0.00     0.020 A 
ATOM     86  C   UNL A   1      44.181  29.583  27.105  1.00  0.00     0.020 A 
ATOM     87  C   UNL A   1      42.820  29.398  27.352  1.00  0.00     0.054 A 
BRANCH  87  88
ATOM     88  S   UNL A   1      41.771  28.420  26.231  1.00  0.00     0.124 S 
ATOM     89  O   UNL A   1      42.185  28.883  24.910  1.00  0.00    -0.237 OA
ATOM     90  O   UNL A   1      42.153  27.048  26.559  1.00  0.00    -0.237 OA
ATOM     91  O   UNL A   1      40.408  28.791  26.612  1.00  0.00    -0.744 OA
ENDBRANCH  87  88
ENDBRANCH  61  82
ENDBRANCH  35  36
ENDBRANCH  27  30
ENDBRANCH  25  26
ENDBRANCH  24  25
ENDBRANCH  23  24
ENDBRANCH   1  23
TORSDOF 19
ENDMDL
MODEL 2
REMARK VINA RESULT:     -10.7      5.778     10.058
REMARK SMILES CC(C)(C)[NH2+]Cc1ccn(CC(C)(C)C(=O)NCCCCNC(=O)c2ccc(-c3c4nc(c(-c5ccc(S(=O)(=O)[O-])cc5)c5ccc([nH]5)c(-c5ccc(S(=O)(=O)[O-])cc5)c5nc(c(-c6ccc(S(=O)(=O)[O-])cc6)c6ccc3[nH]6)C=C5)C=C4)cc2)c1
REMARK SMILES IDX 18 1 17 2 15 3 16 4 12 6 13 7 14 8 11 9 10 10 7 11 8 12
REMARK SMILES IDX 85 13 9 14 6 15 5 16 2 19 1 20 3 21 4 22 19 23 20 24 21 25
REMARK SMILES IDX 22 26 23 27 24 29 25 30 26 31 84 32 27 33 83 34 28 35 29 36
REMARK SMILES IDX 30 37 77 38 31 39 82 40 76 41 78 42 32 43 81 44 75 45 74 46
REMARK SMILES IDX 33 48 63 49 44 50 62 51 45 52 48 53 61 54 79 55 46 56 47 57
REMARK SMILES IDX 60 59 80 60 49 61 34 62 35 63 43 64 36 65 42 66 37 67 38 68
REMARK SMILES IDX 39 69 40 70 41 71 64 72 65 73 73 74 66 75 72 76 67 77 68 78
REMARK SMILES IDX 69 79 70 80 71 81 50 82 51 83 59 84 52 85 58 86 53 87 54 88
REMARK SMILES IDX 55 89 56 90 57 91
REMARK H PARENT 17 5 5 17 5 18 22 28 78 47 48 58
REMARK Flexibility Score: inf
ROOT
ATOM      1  C   UNL A   1      36.569  21.422  25.721  1.00  0.00     0.116 C 
ENDROOT
BRANCH   1   2
ATOM      2  N   UNL A   1      35.422  21.433  26.608  1.00  0.00    -0.356 N 
ATOM      3  C   UNL A   1      34.515  22.419  26.857  1.00  0.00     0.227 C 
ATOM      4  O   UNL A   1      34.147  22.515  28.030  1.00  0.00    -0.274 OA
ATOM      5  H   UNL A   1      35.276  20.598  27.109  1.00  0.00     0.163 HD
BRANCH   3   6
ATOM      6  C   UNL A   1      34.099  23.468  25.814  1.00  0.00     0.061 C 
ATOM      7  C   UNL A   1      35.240  24.394  25.376  1.00  0.00     0.023 C 
ATOM      8  C   UNL A   1      32.968  24.287  26.466  1.00  0.00     0.023 C 
BRANCH   6   9
ATOM      9  C   UNL A   1      33.472  22.765  24.553  1.00  0.00     0.137 C 
BRANCH   9  10
ATOM     10  N   UNL A   1      32.503  23.481  23.734  1.00  0.00    -0.353 N 
ATOM     11  C   UNL A   1      31.782  25.111  22.401  1.00  0.00     0.024 A 
ATOM     12  C   UNL A   1      30.671  24.530  23.072  1.00  0.00     0.029 A 
ATOM     13  C   UNL A   1      32.845  24.260  22.652  1.00  0.00     0.095 A 
ATOM     14  C   UNL A   1      31.139  23.458  23.804  1.00  0.00     0.086 A 
BRANCH  11  15
ATOM     15  C   UNL A   1      31.788  26.355  21.573  1.00  0.00     0.299 C 
BRANCH  15  16
ATOM     16  N   UNL A   1      30.792  27.320  22.041  1.00  0.00    -0.338 N 
ATOM     17  H   UNL A   1      30.286  27.640  21.216  1.00  0.00     0.347 HD
ATOM     18  H   UNL A   1      30.273  26.792  22.743  1.00  0.00     0.347 HD
BRANCH  16  19
ATOM     19  C   UNL A   1      31.208  28.527  22.777  1.00  0.00     0.088 C 
ATOM     20  C   UNL A   1      32.709  28.831  22.664  1.00  0.00     0.078 C 
ATOM     21  C   UNL A   1      30.792  28.498  24.250  1.00  0.00     0.078 C 
ATOM     22  C   UNL A   1      30.425  29.703  22.160  1.00  0.00     0.078 C 
ENDBRANCH  16  19
ENDBRANCH  15  16
ENDBRANCH  11  15
ENDBRANCH   9  10
ENDBRANCH   6   9
ENDBRANCH   3   6
ENDBRANCH   1   2
BRANCH   1  23
ATOM     23  C   UNL A   1      36.571  20.159  24.854  1.00  0.00     0.023 C 
BRANCH  23  24
ATOM     24  C   UNL A   1      37.852  19.316  24.936  1.00  0.00     0.023 C 
BRANCH  24  25
ATOM     25  C   UNL A   1      39.027  20.023  25.612  1.00  0.00     0.116 C 
BRANCH  25  26
ATOM     26  N   UNL A   1      40.076  19.073  25.955  1.00  0.00    -0.352 N 
ATOM     27  C   UNL A   1      41.420  19.275  26.085  1.00  0.00     0.251 C 
ATOM     28  H   UNL A   1      39.773  18.150  26.116  1.00  0.00     0.163 HD
ATOM     29  O   UNL A   1      42.181  18.302  25.958  1.00  0.00    -0.269 OA
BRANCH  27  30
ATOM     30  C   UNL A   1      41.988  20.601  26.384  1.00  0.00     0.039 A 
ATOM     31  C   UNL A   1      42.518  21.354  25.326  1.00  0.00     0.014 A 
ATOM     32  C   UNL A   1      42.109  21.055  27.703  1.00  0.00     0.014 A 
ATOM     33  C   UNL A   1      43.128  22.577  25.582  1.00  0.00     0.010 A 
ATOM     34  C   UNL A   1      42.702  22.282  27.963  1.00  0.00     0.010 A 
ATOM     35  C   UNL A   1      43.199  23.045  26.901  1.00  0.00    -0.014 A 
BRANCH  35  36
ATOM     36  C   UNL A   1      43.566  24.454  27.153  1.00  0.00     0.031 A 
ATOM     37  C   UNL A   1      42.276  25.312  27.343  1.00  0.00     0.074 A 
ATOM     38  C   UNL A   1      44.911  24.736  27.191  1.00  0.00     0.049 A 
ATOM     39  N   UNL A   1      42.120  26.596  27.303  1.00  0.00    -0.248 NA
ATOM     40  C   UNL A   1      40.951  24.651  27.576  1.00  0.00     0.031 C 
ATOM     41  C   UNL A   1      45.999  23.733  27.039  1.00  0.00     0.029 A 
ATOM     42  N   UNL A   1      45.657  25.886  27.373  1.00  0.00    -0.354 N 
ATOM     43  C   UNL A   1      40.792  26.904  27.701  1.00  0.00     0.074 A 
ATOM     44  C   UNL A   1      40.095  25.660  27.772  1.00  0.00     0.031 C 
ATOM     45  C   UNL A   1      47.221  24.320  27.032  1.00  0.00     0.029 A 
ATOM     46  C   UNL A   1      47.072  25.752  27.211  1.00  0.00     0.049 A 
ATOM     47  H   UNL A   1      45.238  26.748  27.601  1.00  0.00     0.167 HD
ATOM     48  C   UNL A   1      40.407  28.165  28.065  1.00  0.00     0.031 A 
ATOM     49  C   UNL A   1      48.035  26.732  27.195  1.00  0.00     0.031 A 
ATOM     50  C   UNL A   1      41.491  29.058  27.845  1.00  0.00     0.049 A 
ATOM     51  C   UNL A   1      47.330  27.938  27.644  1.00  0.00     0.074 A 
ATOM     52  C   UNL A   1      42.071  29.514  26.690  1.00  0.00     0.029 A 
ATOM     53  N   UNL A   1      42.360  29.218  28.898  1.00  0.00    -0.354 N 
ATOM     54  N   UNL A   1      46.948  28.155  28.864  1.00  0.00    -0.248 NA
ATOM     55  C   UNL A   1      46.957  28.952  26.650  1.00  0.00     0.031 C 
ATOM     56  C   UNL A   1      43.442  29.392  26.982  1.00  0.00     0.029 A 
ATOM     57  C   UNL A   1      43.618  29.200  28.360  1.00  0.00     0.049 A 
ATOM     58  H   UNL A   1      42.125  29.323  29.848  1.00  0.00     0.167 HD
ATOM     59  C   UNL A   1      45.955  29.079  28.684  1.00  0.00     0.074 A 
ATOM     60  C   UNL A   1      46.240  29.754  27.432  1.00  0.00     0.031 C 
ATOM     61  C   UNL A   1      44.724  28.839  29.207  1.00  0.00     0.031 A 
BRANCH  48  62
ATOM     62  C   UNL A   1      39.238  28.725  28.836  1.00  0.00    -0.014 A 
ATOM     63  C   UNL A   1      38.690  29.943  28.345  1.00  0.00     0.010 A 
ATOM     64  C   UNL A   1      38.921  28.363  30.150  1.00  0.00     0.010 A 
ATOM     65  C   UNL A   1      38.013  30.840  29.170  1.00  0.00     0.020 A 
ATOM     66  C   UNL A   1      38.194  29.244  30.978  1.00  0.00     0.020 A 
ATOM     67  C   UNL A   1      37.799  30.498  30.498  1.00  0.00     0.054 A 
BRANCH  67  68
ATOM     68  S   UNL A   1      37.068  31.754  31.586  1.00  0.00     0.124 S 
ATOM     69  O   UNL A   1      35.952  32.245  30.783  1.00  0.00    -0.237 OA
ATOM     70  O   UNL A   1      36.692  30.970  32.762  1.00  0.00    -0.237 OA
ATOM     71  O   UNL A   1      38.159  32.700  31.800  1.00  0.00    -0.744 OA
ENDBRANCH  67  68
ENDBRANCH  48  62
BRANCH  49  72
ATOM     72  C   UNL A   1      49.488  26.977  26.806  1.00  0.00    -0.014 A 
ATOM     73  C   UNL A   1      50.533  27.380  27.645  1.00  0.00     0.010 A 
ATOM     74  C   UNL A   1      49.890  26.585  25.489  1.00  0.00     0.010 A 
ATOM     75  C   UNL A   1      51.891  27.219  27.248  1.00  0.00     0.020 A 
ATOM     76  C   UNL A   1      51.216  26.360  25.110  1.00  0.00     0.020 A 
ATOM     77  C   UNL A   1      52.220  26.642  26.012  1.00  0.00     0.054 A 
BRANCH  77  78
ATOM     78  S   UNL A   1      53.919  26.101  25.642  1.00  0.00     0.124 S 
ATOM     79  O   UNL A   1      54.707  27.288  25.954  1.00  0.00    -0.237 OA
ATOM     80  O   UNL A   1      54.096  24.967  26.546  1.00  0.00    -0.237 OA
ATOM     81  O   UNL A   1      53.866  25.743  24.225  1.00  0.00    -0.744 OA
ENDBRANCH  77  78
ENDBRANCH  49  72
BRANCH  61  82
ATOM     82  C   UNL A   1      44.668  27.911  30.418  1.00  0.00    -0.014 A 
ATOM     83  C   UNL A   1      44.295  26.566  30.228  1.00  0.00     0.010 A 
ATOM     84  C   UNL A   1      44.906  28.325  31.747  1.00  0.00     0.010 A 
ATOM     85  C   UNL A   1      44.168  25.672  31.302  1.00  0.00     0.020 A 
ATOM     86  C   UNL A   1      44.780  27.434  32.836  1.00  0.00     0.020 A 
ATOM     87  C   UNL A   1      44.417  26.107  32.603  1.00  0.00     0.054 A 
BRANCH  87  88
ATOM     88  S   UNL A   1      44.268  24.905  33.962  1.00  0.00     0.124 S 
ATOM     89  O   UNL A   1      44.175  23.628  33.259  1.00  0.00    -0.237 OA
ATOM     90  O   UNL A   1      45.506  25.117  34.708  1.00  0.00    -0.237 OA
ATOM     91  O   UNL A   1      43.048  25.312  34.659  1.00  0.00    -0.744 OA
ENDBRANCH  87  88
ENDBRANCH  61  82
ENDBRANCH  35  36
ENDBRANCH  27  30
ENDBRANCH  25  26
ENDBRANCH  24  25
ENDBRANCH  23  24
ENDBRANCH   1  23
TORSDOF 19
ENDMDL
MODEL 3
REMARK VINA RESULT:     -10.6      3.830      6.671
REMARK SMILES CC(C)(C)[NH2+]Cc1ccn(CC(C)(C)C(=O)NCCCCNC(=O)c2ccc(-c3c4nc(c(-c5ccc(S(=O)(=O)[O-])cc5)c5ccc([nH]5)c(-c5ccc(S(=O)(=O)[O-])cc5)c5nc(c(-c6ccc(S(=O)(=O)[O-])cc6)c6ccc3[nH]6)C=C5)C=C4)cc2)c1
REMARK SMILES IDX 18 1 17 2 15 3 16 4 12 6 13 7 14 8 11 9 10 10 7 11 8 12
REMARK SMILES IDX 85 13 9 14 6 15 5 16 2 19 1 20 3 21 4 22 19 23 20 24 21 25
REMARK SMILES IDX 22 26 23 27 24 29 25 30 26 31 84 32 27 33 83 34 28 35 29 36
REMARK SMILES IDX 30 37 77 38 31 39 82 40 76 41 78 42 32 43 81 44 75 45 74 46
REMARK SMILES IDX 33 48 63 49 44 50 62 51 45 52 48 53 61 54 79 55 46 56 47 57
REMARK SMILES IDX 60 59 80 60 49 61 34 62 35 63 43 64 36 65 42 66 37 67 38 68
REMARK SMILES IDX 39 69 40 70 41 71 64 72 65 73 73 74 66 75 72 76 67 77 68 78
REMARK SMILES IDX 69 79 70 80 71 81 50 82 51 83 59 84 52 85 58 86 53 87 54 88
REMARK SMILES IDX 55 89 56 90 57 91
REMARK H PARENT 17 5 5 17 5 18 22 28 78 47 48 58
REMARK Flexibility Score: inf
ROOT
ATOM      1  C   UNL A   1      33.426  28.229  26.176  1.00  0.00     0.116 C 
ENDROOT
BRANCH   1   2
ATOM      2  N   UNL A   1      33.409  28.622  24.781  1.00  0.00    -0.356 N 
ATOM      3  C   UNL A   1      33.612  27.879  23.657  1.00  0.00     0.227 C 
ATOM      4  O   UNL A   1      34.242  28.440  22.759  1.00  0.00    -0.274 OA
ATOM      5  H   UNL A   1      33.221  29.575  24.620  1.00  0.00     0.163 HD
BRANCH   3   6
ATOM      6  C   UNL A   1      33.255  26.387  23.555  1.00  0.00     0.061 C 
ATOM      7  C   UNL A   1      34.198  25.468  24.338  1.00  0.00     0.023 C 
ATOM      8  C   UNL A   1      33.301  26.045  22.052  1.00  0.00     0.023 C 
BRANCH   6   9
ATOM      9  C   UNL A   1      31.771  26.148  24.022  1.00  0.00     0.137 C 
BRANCH   9  10
ATOM     10  N   UNL A   1      30.695  26.942  23.443  1.00  0.00    -0.353 N 
ATOM     11  C   UNL A   1      29.802  28.669  22.359  1.00  0.00     0.024 A 
ATOM     12  C   UNL A   1      28.816  28.086  23.203  1.00  0.00     0.029 A 
ATOM     13  C   UNL A   1      30.856  27.771  22.357  1.00  0.00     0.095 A 
ATOM     14  C   UNL A   1      29.369  26.959  23.775  1.00  0.00     0.086 A 
BRANCH  11  15
ATOM     15  C   UNL A   1      29.702  29.957  21.610  1.00  0.00     0.299 C 
BRANCH  15  16
ATOM     16  N   UNL A   1      29.744  31.110  22.511  1.00  0.00    -0.338 N 
ATOM     17  H   UNL A   1      29.808  30.739  23.458  1.00  0.00     0.347 HD
ATOM     18  H   UNL A   1      30.534  31.649  22.156  1.00  0.00     0.347 HD
BRANCH  16  19
ATOM     19  C   UNL A   1      28.648  32.096  22.516  1.00  0.00     0.088 C 
ATOM     20  C   UNL A   1      28.018  32.323  21.134  1.00  0.00     0.078 C 
ATOM     21  C   UNL A   1      29.058  33.437  23.129  1.00  0.00     0.078 C 
ATOM     22  C   UNL A   1      27.564  31.536  23.459  1.00  0.00     0.078 C 
ENDBRANCH  16  19
ENDBRANCH  15  16
ENDBRANCH  11  15
ENDBRANCH   9  10
ENDBRANCH   6   9
ENDBRANCH   3   6
ENDBRANCH   1   2
BRANCH   1  23
ATOM     23  C   UNL A   1      34.423  29.082  26.967  1.00  0.00     0.023 C 
BRANCH  23  24
ATOM     24  C   UNL A   1      34.166  30.595  26.919  1.00  0.00     0.023 C 
BRANCH  24  25
ATOM     25  C   UNL A   1      32.732  31.000  27.264  1.00  0.00     0.116 C 
BRANCH  25  26
ATOM     26  N   UNL A   1      32.574  32.446  27.205  1.00  0.00    -0.352 N 
ATOM     27  C   UNL A   1      33.127  33.411  27.997  1.00  0.00     0.251 C 
ATOM     28  H   UNL A   1      31.981  32.776  26.492  1.00  0.00     0.163 HD
ATOM     29  O   UNL A   1      32.559  34.514  28.072  1.00  0.00    -0.269 OA
BRANCH  27  30
ATOM     30  C   UNL A   1      34.375  33.191  28.747  1.00  0.00     0.039 A 
ATOM     31  C   UNL A   1      34.310  32.496  29.963  1.00  0.00     0.014 A 
ATOM     32  C   UNL A   1      35.582  33.760  28.324  1.00  0.00     0.014 A 
ATOM     33  C   UNL A   1      35.456  32.333  30.732  1.00  0.00     0.010 A 
ATOM     34  C   UNL A   1      36.734  33.588  29.079  1.00  0.00     0.010 A 
ATOM     35  C   UNL A   1      36.670  32.864  30.275  1.00  0.00    -0.014 A 
BRANCH  35  36
ATOM     36  C   UNL A   1      37.933  32.448  30.918  1.00  0.00     0.031 A 
ATOM     37  C   UNL A   1      38.536  31.225  30.160  1.00  0.00     0.074 A 
ATOM     38  C   UNL A   1      38.338  33.190  32.003  1.00  0.00     0.049 A 
ATOM     39  N   UNL A   1      39.450  30.387  30.531  1.00  0.00    -0.248 NA
ATOM     40  C   UNL A   1      38.028  30.846  28.801  1.00  0.00     0.031 C 
ATOM     41  C   UNL A   1      37.625  34.382  32.537  1.00  0.00     0.029 A 
ATOM     42  N   UNL A   1      39.410  33.130  32.875  1.00  0.00    -0.354 N 
ATOM     43  C   UNL A   1      39.774  29.552  29.429  1.00  0.00     0.074 A 
ATOM     44  C   UNL A   1      38.803  29.826  28.419  1.00  0.00     0.031 C 
ATOM     45  C   UNL A   1      38.213  34.850  33.665  1.00  0.00     0.029 A 
ATOM     46  C   UNL A   1      39.381  34.047  33.972  1.00  0.00     0.049 A 
ATOM     47  H   UNL A   1      40.150  32.493  32.747  1.00  0.00     0.167 HD
ATOM     48  C   UNL A   1      40.905  28.784  29.395  1.00  0.00     0.031 A 
ATOM     49  C   UNL A   1      40.224  34.122  35.056  1.00  0.00     0.031 A 
ATOM     50  C   UNL A   1      41.565  28.882  30.651  1.00  0.00     0.049 A 
ATOM     51  C   UNL A   1      41.329  33.220  34.715  1.00  0.00     0.074 A 
ATOM     52  C   UNL A   1      41.225  28.415  31.893  1.00  0.00     0.029 A 
ATOM     53  N   UNL A   1      42.481  29.901  30.769  1.00  0.00    -0.354 N 
ATOM     54  N   UNL A   1      42.239  33.474  33.827  1.00  0.00    -0.248 NA
ATOM     55  C   UNL A   1      41.392  31.902  35.359  1.00  0.00     0.031 C 
ATOM     56  C   UNL A   1      41.497  29.529  32.709  1.00  0.00     0.029 A 
ATOM     57  C   UNL A   1      42.274  30.457  32.002  1.00  0.00     0.049 A 
ATOM     58  H   UNL A   1      43.150  30.175  30.101  1.00  0.00     0.167 HD
ATOM     59  C   UNL A   1      42.689  32.218  33.521  1.00  0.00     0.074 A 
ATOM     60  C   UNL A   1      42.411  31.387  34.678  1.00  0.00     0.031 C 
ATOM     61  C   UNL A   1      42.696  31.815  32.224  1.00  0.00     0.031 A 
BRANCH  48  62
ATOM     62  C   UNL A   1      41.680  28.102  28.295  1.00  0.00    -0.014 A 
ATOM     63  C   UNL A   1      42.186  26.806  28.595  1.00  0.00     0.010 A 
ATOM     64  C   UNL A   1      42.242  28.773  27.202  1.00  0.00     0.010 A 
ATOM     65  C   UNL A   1      43.308  26.280  27.957  1.00  0.00     0.020 A 
ATOM     66  C   UNL A   1      43.349  28.224  26.520  1.00  0.00     0.020 A 
ATOM     67  C   UNL A   1      43.907  27.013  26.942  1.00  0.00     0.054 A 
BRANCH  67  68
ATOM     68  S   UNL A   1      45.461  26.381  26.250  1.00  0.00     0.124 S 
ATOM     69  O   UNL A   1      45.059  25.978  24.905  1.00  0.00    -0.237 OA
ATOM     70  O   UNL A   1      46.333  27.553  26.314  1.00  0.00    -0.237 OA
ATOM     71  O   UNL A   1      45.824  25.294  27.154  1.00  0.00    -0.744 OA
ENDBRANCH  67  68
ENDBRANCH  48  62
BRANCH  49  72
ATOM     72  C   UNL A   1      40.336  34.737  36.446  1.00  0.00    -0.014 A 
ATOM     73  C   UNL A   1      41.152  35.803  36.837  1.00  0.00     0.010 A 
ATOM     74  C   UNL A   1      39.383  34.314  37.428  1.00  0.00     0.010 A 
ATOM     75  C   UNL A   1      40.899  36.510  38.047  1.00  0.00     0.020 A 
ATOM     76  C   UNL A   1      39.081  35.036  38.586  1.00  0.00     0.020 A 
ATOM     77  C   UNL A   1      39.820  36.165  38.875  1.00  0.00     0.054 A 
BRANCH  77  78
ATOM     78  S   UNL A   1      39.267  37.263  40.218  1.00  0.00     0.124 S 
ATOM     79  O   UNL A   1      38.495  36.364  41.068  1.00  0.00    -0.237 OA
ATOM     80  O   UNL A   1      40.529  37.740  40.780  1.00  0.00    -0.237 OA
ATOM     81  O   UNL A   1      38.487  38.289  39.525  1.00  0.00    -0.744 OA
ENDBRANCH  77  78
ENDBRANCH  49  72
BRANCH  61  82
ATOM     82  C   UNL A   1      42.786  32.916  31.169  1.00  0.00    -0.014 A 
ATOM     83  C   UNL A   1      44.054  33.411  30.809  1.00  0.00     0.010 A 
ATOM     84  C   UNL A   1      41.667  33.528  30.563  1.00  0.00     0.010 A 
ATOM     85  C   UNL A   1      44.208  34.459  29.890  1.00  0.00     0.020 A 
ATOM     86  C   UNL A   1      41.810  34.584  29.637  1.00  0.00     0.020 A 
ATOM     87  C   UNL A   1      43.085  35.039  29.301  1.00  0.00     0.054 A 
BRANCH  87  88
ATOM     88  S   UNL A   1      43.334  36.377  28.092  1.00  0.00     0.124 S 
ATOM     89  O   UNL A   1      44.776  36.345  27.862  1.00  0.00    -0.237 OA
ATOM     90  O   UNL A   1      42.513  35.940  26.965  1.00  0.00    -0.237 OA
ATOM     91  O   UNL A   1      42.850  37.571  28.784  1.00  0.00    -0.744 OA
ENDBRANCH  87  88
ENDBRANCH  61  82
ENDBRANCH  35  36
ENDBRANCH  27  30
ENDBRANCH  25  26
ENDBRANCH  24  25
ENDBRANCH  23  24
ENDBRANCH   1  23
TORSDOF 19
ENDMDL
