MODEL 1
REMARK VINA RESULT:     -11.8      0.000      0.000
REMARK SMILES Cc1cc(C)c2c(c1)C=C(C(=O)NCCCCNC(=O)c1ccc(-c3c4nc(c(-c5ccc(S(=O)(=O)[O-])cc5)c5ccc([nH]5)c(-c5ccc(S(=O)(=O)[O-])cc5)c5nc(c(-c6ccc(S(=O)(=O)[O-])cc6)c6ccc3[nH]6)C=C5)C=C4)cc1)[C@@H](C(F)(F)F)O2
REMARK SMILES IDX 16 1 15 2 14 3 13 4 11 5 12 6 10 8 1 9 2 10 3 11 8 12 4 13
REMARK SMILES IDX 7 14 5 15 6 16 9 17 86 18 81 19 82 20 83 21 84 22 85 23
REMARK SMILES IDX 17 24 18 25 19 26 20 28 21 29 22 30 80 31 23 32 79 33 24 34
REMARK SMILES IDX 25 35 26 36 73 37 27 38 78 39 72 40 74 41 28 42 77 43 71 44
REMARK SMILES IDX 70 45 29 47 59 48 40 49 58 50 41 51 44 52 57 53 75 54 42 55
REMARK SMILES IDX 43 56 56 58 76 59 45 60 30 61 31 62 39 63 32 64 38 65 33 66
REMARK SMILES IDX 34 67 35 68 36 69 37 70 60 71 61 72 69 73 62 74 68 75 63 76
REMARK SMILES IDX 64 77 65 78 66 79 67 80 46 81 47 82 55 83 48 84 54 85 49 86
REMARK SMILES IDX 50 87 51 88 52 89 53 90
REMARK H PARENT 13 7 18 27 74 46 44 57
REMARK Flexibility Score: inf
ROOT
ATOM      1  C   UNL A   1      33.879  28.251  25.775  1.00  0.00     0.023 C 
ENDROOT
BRANCH   1   2
ATOM      2  C   UNL A   1      32.802  28.727  24.797  1.00  0.00     0.023 C 
BRANCH   2   3
ATOM      3  C   UNL A   1      31.973  27.602  24.185  1.00  0.00     0.116 C 
BRANCH   3   4
ATOM      4  N   UNL A   1      31.094  26.983  25.162  1.00  0.00    -0.352 N 
ATOM      5  C   UNL A   1      30.991  25.781  25.773  1.00  0.00     0.251 C 
ATOM      6  O   UNL A   1      30.047  25.672  26.564  1.00  0.00    -0.270 OA
ATOM      7  H   UNL A   1      30.386  27.602  25.455  1.00  0.00     0.163 HD
BRANCH   5   8
ATOM      8  C   UNL A   1      31.911  24.624  25.565  1.00  0.00     0.067 C 
ATOM      9  C   UNL A   1      37.917  23.214  25.881  1.00  0.00     0.044 C 
ATOM     10  C   UNL A   1      36.450  22.946  25.723  1.00  0.00    -0.050 A 
ATOM     11  C   UNL A   1      35.986  21.670  25.378  1.00  0.00     0.010 A 
ATOM     12  C   UNL A   1      35.528  23.986  25.904  1.00  0.00     0.015 A 
ATOM     13  C   UNL A   1      34.616  21.420  25.221  1.00  0.00    -0.008 A 
ATOM     14  C   UNL A   1      34.159  23.755  25.741  1.00  0.00     0.018 A 
ATOM     15  C   UNL A   1      34.128  20.049  24.849  1.00  0.00     0.048 C 
ATOM     16  C   UNL A   1      33.712  22.477  25.397  1.00  0.00     0.130 A 
ATOM     17  C   UNL A   1      33.186  24.820  25.952  1.00  0.00     0.025 C 
ATOM     18  O   UNL A   1      32.380  22.196  25.260  1.00  0.00    -0.475 OA
ATOM     19  C   UNL A   1      31.521  23.322  24.928  1.00  0.00     0.314 C 
BRANCH  19  20
ATOM     20  C   UNL A   1      31.386  23.423  23.397  1.00  0.00     0.429 C 
ATOM     21  F   UNL A   1      30.128  23.807  23.058  1.00  0.00    -0.167 F 
ATOM     22  F   UNL A   1      32.224  24.341  22.860  1.00  0.00    -0.167 F 
ATOM     23  F   UNL A   1      31.631  22.251  22.769  1.00  0.00    -0.167 F 
ENDBRANCH  19  20
ENDBRANCH   5   8
ENDBRANCH   3   4
ENDBRANCH   2   3
ENDBRANCH   1   2
BRANCH   1  24
ATOM     24  C   UNL A   1      33.558  28.454  27.256  1.00  0.00     0.116 C 
BRANCH  24  25
ATOM     25  N   UNL A   1      33.460  29.852  27.648  1.00  0.00    -0.352 N 
ATOM     26  C   UNL A   1      34.440  30.649  28.188  1.00  0.00     0.251 C 
ATOM     27  H   UNL A   1      32.584  30.279  27.509  1.00  0.00     0.163 HD
ATOM     28  O   UNL A   1      34.189  31.796  28.542  1.00  0.00    -0.269 OA
BRANCH  26  29
ATOM     29  C   UNL A   1      35.788  30.082  28.376  1.00  0.00     0.039 A 
ATOM     30  C   UNL A   1      36.688  30.122  27.310  1.00  0.00     0.014 A 
ATOM     31  C   UNL A   1      36.175  29.587  29.625  1.00  0.00     0.014 A 
ATOM     32  C   UNL A   1      38.010  29.725  27.518  1.00  0.00     0.010 A 
ATOM     33  C   UNL A   1      37.506  29.246  29.843  1.00  0.00     0.010 A 
ATOM     34  C   UNL A   1      38.434  29.317  28.793  1.00  0.00    -0.014 A 
BRANCH  34  35
ATOM     35  C   UNL A   1      39.848  28.957  29.044  1.00  0.00     0.031 A 
ATOM     36  C   UNL A   1      40.775  29.958  29.673  1.00  0.00     0.074 A 
ATOM     37  C   UNL A   1      40.306  27.747  28.666  1.00  0.00     0.049 A 
ATOM     38  N   UNL A   1      42.049  29.843  29.941  1.00  0.00    -0.248 NA
ATOM     39  C   UNL A   1      40.198  31.265  30.027  1.00  0.00     0.031 C 
ATOM     40  C   UNL A   1      39.510  26.703  28.015  1.00  0.00     0.029 A 
ATOM     41  N   UNL A   1      41.554  27.189  28.780  1.00  0.00    -0.354 N 
ATOM     42  C   UNL A   1      42.429  31.062  30.487  1.00  0.00     0.074 A 
ATOM     43  C   UNL A   1      41.263  31.919  30.466  1.00  0.00     0.031 C 
ATOM     44  C   UNL A   1      40.280  25.620  27.821  1.00  0.00     0.029 A 
ATOM     45  C   UNL A   1      41.628  25.902  28.305  1.00  0.00     0.049 A 
ATOM     46  H   UNL A   1      42.324  27.666  29.165  1.00  0.00     0.167 HD
ATOM     47  C   UNL A   1      43.632  31.429  30.985  1.00  0.00     0.031 A 
ATOM     48  C   UNL A   1      42.665  25.042  28.270  1.00  0.00     0.031 A 
ATOM     49  C   UNL A   1      44.785  30.572  31.020  1.00  0.00     0.049 A 
ATOM     50  C   UNL A   1      43.995  25.474  28.819  1.00  0.00     0.074 A 
ATOM     51  C   UNL A   1      46.039  30.836  31.540  1.00  0.00     0.029 A 
ATOM     52  N   UNL A   1      44.821  29.279  30.520  1.00  0.00    -0.354 N 
ATOM     53  N   UNL A   1      44.324  26.620  29.368  1.00  0.00    -0.248 NA
ATOM     54  C   UNL A   1      45.092  24.499  28.749  1.00  0.00     0.031 C 
ATOM     55  C   UNL A   1      46.845  29.713  31.326  1.00  0.00     0.029 A 
ATOM     56  C   UNL A   1      46.080  28.737  30.705  1.00  0.00     0.049 A 
ATOM     57  H   UNL A   1      44.064  28.816  30.094  1.00  0.00     0.167 HD
ATOM     58  C   UNL A   1      45.663  26.498  29.720  1.00  0.00     0.074 A 
ATOM     59  C   UNL A   1      46.079  25.164  29.335  1.00  0.00     0.031 C 
ATOM     60  C   UNL A   1      46.475  27.409  30.309  1.00  0.00     0.031 A 
BRANCH  47  61
ATOM     61  C   UNL A   1      43.750  32.821  31.540  1.00  0.00    -0.014 A 
ATOM     62  C   UNL A   1      43.492  33.074  32.899  1.00  0.00     0.010 A 
ATOM     63  C   UNL A   1      44.131  33.884  30.703  1.00  0.00     0.010 A 
ATOM     64  C   UNL A   1      43.572  34.373  33.403  1.00  0.00     0.020 A 
ATOM     65  C   UNL A   1      44.234  35.182  31.209  1.00  0.00     0.020 A 
ATOM     66  C   UNL A   1      43.936  35.421  32.552  1.00  0.00     0.054 A 
BRANCH  66  67
ATOM     67  S   UNL A   1      44.038  37.098  33.235  1.00  0.00     0.124 S 
ATOM     68  O   UNL A   1      44.046  37.915  32.024  1.00  0.00    -0.237 OA
ATOM     69  O   UNL A   1      42.828  37.190  34.047  1.00  0.00    -0.237 OA
ATOM     70  O   UNL A   1      45.290  37.090  33.988  1.00  0.00    -0.744 OA
ENDBRANCH  66  67
ENDBRANCH  47  61
BRANCH  48  71
ATOM     71  C   UNL A   1      42.472  23.673  27.726  1.00  0.00    -0.014 A 
ATOM     72  C   UNL A   1      42.782  23.399  26.383  1.00  0.00     0.010 A 
ATOM     73  C   UNL A   1      42.008  22.631  28.549  1.00  0.00     0.010 A 
ATOM     74  C   UNL A   1      42.627  22.108  25.868  1.00  0.00     0.020 A 
ATOM     75  C   UNL A   1      41.868  21.335  28.043  1.00  0.00     0.020 A 
ATOM     76  C   UNL A   1      42.172  21.084  26.703  1.00  0.00     0.054 A 
BRANCH  76  77
ATOM     77  S   UNL A   1      42.040  19.403  26.032  1.00  0.00     0.124 S 
ATOM     78  O   UNL A   1      42.885  19.484  24.844  1.00  0.00    -0.237 OA
ATOM     79  O   UNL A   1      42.559  18.584  27.125  1.00  0.00    -0.237 OA
ATOM     80  O   UNL A   1      40.610  19.251  25.775  1.00  0.00    -0.744 OA
ENDBRANCH  76  77
ENDBRANCH  48  71
BRANCH  60  81
ATOM     81  C   UNL A   1      47.894  26.999  30.580  1.00  0.00    -0.014 A 
ATOM     82  C   UNL A   1      48.918  27.309  29.668  1.00  0.00     0.010 A 
ATOM     83  C   UNL A   1      48.219  26.368  31.794  1.00  0.00     0.010 A 
ATOM     84  C   UNL A   1      50.243  26.986  29.962  1.00  0.00     0.020 A 
ATOM     85  C   UNL A   1      49.546  26.061  32.099  1.00  0.00     0.020 A 
ATOM     86  C   UNL A   1      50.550  26.365  31.177  1.00  0.00     0.054 A 
BRANCH  86  87
ATOM     87  S   UNL A   1      52.287  26.018  31.566  1.00  0.00     0.124 S 
ATOM     88  O   UNL A   1      52.219  24.649  32.069  1.00  0.00    -0.237 OA
ATOM     89  O   UNL A   1      52.945  26.179  30.272  1.00  0.00    -0.237 OA
ATOM     90  O   UNL A   1      52.628  27.032  32.561  1.00  0.00    -0.744 OA
ENDBRANCH  86  87
ENDBRANCH  60  81
ENDBRANCH  34  35
ENDBRANCH  26  29
ENDBRANCH  24  25
ENDBRANCH   1  24
TORSDOF 15
ENDMDL
MODEL 2
REMARK VINA RESULT:     -11.4      2.550      9.107
REMARK SMILES Cc1cc(C)c2c(c1)C=C(C(=O)NCCCCNC(=O)c1ccc(-c3c4nc(c(-c5ccc(S(=O)(=O)[O-])cc5)c5ccc([nH]5)c(-c5ccc(S(=O)(=O)[O-])cc5)c5nc(c(-c6ccc(S(=O)(=O)[O-])cc6)c6ccc3[nH]6)C=C5)C=C4)cc1)[C@@H](C(F)(F)F)O2
REMARK SMILES IDX 16 1 15 2 14 3 13 4 11 5 12 6 10 8 1 9 2 10 3 11 8 12 4 13
REMARK SMILES IDX 7 14 5 15 6 16 9 17 86 18 81 19 82 20 83 21 84 22 85 23
REMARK SMILES IDX 17 24 18 25 19 26 20 28 21 29 22 30 80 31 23 32 79 33 24 34
REMARK SMILES IDX 25 35 26 36 73 37 27 38 78 39 72 40 74 41 28 42 77 43 71 44
REMARK SMILES IDX 70 45 29 47 59 48 40 49 58 50 41 51 44 52 57 53 75 54 42 55
REMARK SMILES IDX 43 56 56 58 76 59 45 60 30 61 31 62 39 63 32 64 38 65 33 66
REMARK SMILES IDX 34 67 35 68 36 69 37 70 60 71 61 72 69 73 62 74 68 75 63 76
REMARK SMILES IDX 64 77 65 78 66 79 67 80 46 81 47 82 55 83 48 84 54 85 49 86
REMARK SMILES IDX 50 87 51 88 52 89 53 90
REMARK H PARENT 13 7 18 27 74 46 44 57
REMARK Flexibility Score: inf
ROOT
ATOM      1  C   UNL A   1      35.655  22.991  24.671  1.00  0.00     0.023 C 
ENDROOT
BRANCH   1   2
ATOM      2  C   UNL A   1      35.086  21.976  25.665  1.00  0.00     0.023 C 
BRANCH   2   3
ATOM      3  C   UNL A   1      33.707  21.440  25.289  1.00  0.00     0.116 C 
BRANCH   3   4
ATOM      4  N   UNL A   1      32.667  21.962  26.157  1.00  0.00    -0.352 N 
ATOM      5  C   UNL A   1      32.101  23.166  26.402  1.00  0.00     0.251 C 
ATOM      6  O   UNL A   1      31.215  23.165  27.264  1.00  0.00    -0.270 OA
ATOM      7  H   UNL A   1      32.269  21.254  26.712  1.00  0.00     0.163 HD
BRANCH   5   8
ATOM      8  C   UNL A   1      32.461  24.446  25.722  1.00  0.00     0.067 C 
ATOM      9  C   UNL A   1      33.791  30.327  27.060  1.00  0.00     0.044 C 
ATOM     10  C   UNL A   1      33.647  29.116  26.187  1.00  0.00    -0.050 A 
ATOM     11  C   UNL A   1      33.827  29.205  24.800  1.00  0.00     0.010 A 
ATOM     12  C   UNL A   1      33.310  27.882  26.758  1.00  0.00     0.015 A 
ATOM     13  C   UNL A   1      33.683  28.076  23.982  1.00  0.00    -0.008 A 
ATOM     14  C   UNL A   1      33.153  26.749  25.954  1.00  0.00     0.018 A 
ATOM     15  C   UNL A   1      33.876  28.181  22.496  1.00  0.00     0.048 C 
ATOM     16  C   UNL A   1      33.335  26.854  24.573  1.00  0.00     0.130 A 
ATOM     17  C   UNL A   1      32.829  25.452  26.537  1.00  0.00     0.025 C 
ATOM     18  O   UNL A   1      33.226  25.765  23.752  1.00  0.00    -0.475 OA
ATOM     19  C   UNL A   1      32.393  24.677  24.240  1.00  0.00     0.314 C 
BRANCH  19  20
ATOM     20  C   UNL A   1      30.952  24.874  23.732  1.00  0.00     0.429 C 
ATOM     21  F   UNL A   1      30.219  25.561  24.646  1.00  0.00    -0.167 F 
ATOM     22  F   UNL A   1      30.898  25.588  22.583  1.00  0.00    -0.167 F 
ATOM     23  F   UNL A   1      30.313  23.705  23.500  1.00  0.00    -0.167 F 
ENDBRANCH  19  20
ENDBRANCH   5   8
ENDBRANCH   3   4
ENDBRANCH   2   3
ENDBRANCH   1   2
BRANCH   1  24
ATOM     24  C   UNL A   1      37.007  23.595  25.049  1.00  0.00     0.116 C 
BRANCH  24  25
ATOM     25  N   UNL A   1      37.991  22.610  25.477  1.00  0.00    -0.352 N 
ATOM     26  C   UNL A   1      39.094  22.808  26.270  1.00  0.00     0.251 C 
ATOM     27  H   UNL A   1      37.846  21.690  25.160  1.00  0.00     0.163 HD
ATOM     28  O   UNL A   1      39.881  21.893  26.487  1.00  0.00    -0.269 OA
BRANCH  26  29
ATOM     29  C   UNL A   1      39.338  24.155  26.817  1.00  0.00     0.039 A 
ATOM     30  C   UNL A   1      38.925  24.436  28.121  1.00  0.00     0.014 A 
ATOM     31  C   UNL A   1      40.041  25.103  26.067  1.00  0.00     0.014 A 
ATOM     32  C   UNL A   1      39.280  25.654  28.702  1.00  0.00     0.010 A 
ATOM     33  C   UNL A   1      40.441  26.292  26.668  1.00  0.00     0.010 A 
ATOM     34  C   UNL A   1      40.068  26.574  27.991  1.00  0.00    -0.014 A 
BRANCH  34  35
ATOM     35  C   UNL A   1      40.508  27.841  28.619  1.00  0.00     0.031 A 
ATOM     36  C   UNL A   1      41.917  27.977  29.121  1.00  0.00     0.074 A 
ATOM     37  C   UNL A   1      39.628  28.850  28.774  1.00  0.00     0.049 A 
ATOM     38  N   UNL A   1      42.479  28.990  29.727  1.00  0.00    -0.248 NA
ATOM     39  C   UNL A   1      42.802  26.816  28.938  1.00  0.00     0.031 C 
ATOM     40  C   UNL A   1      38.224  28.823  28.357  1.00  0.00     0.029 A 
ATOM     41  N   UNL A   1      39.787  30.098  29.321  1.00  0.00    -0.354 N 
ATOM     42  C   UNL A   1      43.779  28.587  30.004  1.00  0.00     0.074 A 
ATOM     43  C   UNL A   1      43.907  27.221  29.546  1.00  0.00     0.031 C 
ATOM     44  C   UNL A   1      37.661  30.012  28.631  1.00  0.00     0.029 A 
ATOM     45  C   UNL A   1      38.654  30.872  29.268  1.00  0.00     0.049 A 
ATOM     46  H   UNL A   1      40.634  30.409  29.717  1.00  0.00     0.167 HD
ATOM     47  C   UNL A   1      44.784  29.297  30.566  1.00  0.00     0.031 A 
ATOM     48  C   UNL A   1      38.439  32.137  29.681  1.00  0.00     0.031 A 
ATOM     49  C   UNL A   1      44.661  30.659  31.007  1.00  0.00     0.049 A 
ATOM     50  C   UNL A   1      39.568  32.903  30.313  1.00  0.00     0.074 A 
ATOM     51  C   UNL A   1      45.631  31.479  31.553  1.00  0.00     0.029 A 
ATOM     52  N   UNL A   1      43.493  31.404  30.945  1.00  0.00    -0.354 N 
ATOM     53  N   UNL A   1      40.802  32.517  30.530  1.00  0.00    -0.248 NA
ATOM     54  C   UNL A   1      39.277  34.275  30.750  1.00  0.00     0.031 C 
ATOM     55  C   UNL A   1      45.042  32.713  31.851  1.00  0.00     0.029 A 
ATOM     56  C   UNL A   1      43.714  32.671  31.456  1.00  0.00     0.049 A 
ATOM     57  H   UNL A   1      42.634  31.080  30.591  1.00  0.00     0.167 HD
ATOM     58  C   UNL A   1      41.439  33.603  31.118  1.00  0.00     0.074 A 
ATOM     59  C   UNL A   1      40.458  34.666  31.210  1.00  0.00     0.031 C 
ATOM     60  C   UNL A   1      42.721  33.711  31.544  1.00  0.00     0.031 A 
BRANCH  47  61
ATOM     61  C   UNL A   1      46.109  28.605  30.723  1.00  0.00    -0.014 A 
ATOM     62  C   UNL A   1      47.069  28.654  29.697  1.00  0.00     0.010 A 
ATOM     63  C   UNL A   1      46.404  27.909  31.908  1.00  0.00     0.010 A 
ATOM     64  C   UNL A   1      48.286  27.983  29.835  1.00  0.00     0.020 A 
ATOM     65  C   UNL A   1      47.630  27.254  32.059  1.00  0.00     0.020 A 
ATOM     66  C   UNL A   1      48.556  27.281  31.013  1.00  0.00     0.054 A 
BRANCH  66  67
ATOM     67  S   UNL A   1      50.146  26.424  31.168  1.00  0.00     0.124 S 
ATOM     68  O   UNL A   1      50.619  26.901  32.466  1.00  0.00    -0.237 OA
ATOM     69  O   UNL A   1      49.761  25.017  31.120  1.00  0.00    -0.237 OA
ATOM     70  O   UNL A   1      50.909  26.898  30.016  1.00  0.00    -0.744 OA
ENDBRANCH  66  67
ENDBRANCH  47  61
BRANCH  48  71
ATOM     71  C   UNL A   1      37.110  32.767  29.475  1.00  0.00    -0.014 A 
ATOM     72  C   UNL A   1      36.208  32.875  30.548  1.00  0.00     0.010 A 
ATOM     73  C   UNL A   1      36.749  33.288  28.219  1.00  0.00     0.010 A 
ATOM     74  C   UNL A   1      34.965  33.488  30.369  1.00  0.00     0.020 A 
ATOM     75  C   UNL A   1      35.512  33.917  28.041  1.00  0.00     0.020 A 
ATOM     76  C   UNL A   1      34.625  34.007  29.117  1.00  0.00     0.054 A 
BRANCH  76  77
ATOM     77  S   UNL A   1      33.033  34.855  28.924  1.00  0.00     0.124 S 
ATOM     78  O   UNL A   1      32.513  34.838  30.288  1.00  0.00    -0.237 OA
ATOM     79  O   UNL A   1      33.432  36.165  28.414  1.00  0.00    -0.237 OA
ATOM     80  O   UNL A   1      32.314  34.017  27.968  1.00  0.00    -0.744 OA
ENDBRANCH  76  77
ENDBRANCH  48  71
BRANCH  60  81
ATOM     81  C   UNL A   1      43.143  35.021  32.144  1.00  0.00    -0.014 A 
ATOM     82  C   UNL A   1      43.794  35.992  31.363  1.00  0.00     0.010 A 
ATOM     83  C   UNL A   1      42.815  35.317  33.479  1.00  0.00     0.010 A 
ATOM     84  C   UNL A   1      44.118  37.234  31.911  1.00  0.00     0.020 A 
ATOM     85  C   UNL A   1      43.122  36.564  34.025  1.00  0.00     0.020 A 
ATOM     86  C   UNL A   1      43.779  37.514  33.239  1.00  0.00     0.054 A 
BRANCH  86  87
ATOM     87  S   UNL A   1      44.150  39.159  33.907  1.00  0.00     0.124 S 
ATOM     88  O   UNL A   1      44.596  38.844  35.260  1.00  0.00    -0.237 OA
ATOM     89  O   UNL A   1      45.185  39.648  33.001  1.00  0.00    -0.237 OA
ATOM     90  O   UNL A   1      42.872  39.863  33.820  1.00  0.00    -0.744 OA
ENDBRANCH  86  87
ENDBRANCH  60  81
ENDBRANCH  34  35
ENDBRANCH  26  29
ENDBRANCH  24  25
ENDBRANCH   1  24
TORSDOF 15
ENDMDL
MODEL 3
REMARK VINA RESULT:     -11.2      1.105      1.479
REMARK SMILES Cc1cc(C)c2c(c1)C=C(C(=O)NCCCCNC(=O)c1ccc(-c3c4nc(c(-c5ccc(S(=O)(=O)[O-])cc5)c5ccc([nH]5)c(-c5ccc(S(=O)(=O)[O-])cc5)c5nc(c(-c6ccc(S(=O)(=O)[O-])cc6)c6ccc3[nH]6)C=C5)C=C4)cc1)[C@@H](C(F)(F)F)O2
REMARK SMILES IDX 16 1 15 2 14 3 13 4 11 5 12 6 10 8 1 9 2 10 3 11 8 12 4 13
REMARK SMILES IDX 7 14 5 15 6 16 9 17 86 18 81 19 82 20 83 21 84 22 85 23
REMARK SMILES IDX 17 24 18 25 19 26 20 28 21 29 22 30 80 31 23 32 79 33 24 34
REMARK SMILES IDX 25 35 26 36 73 37 27 38 78 39 72 40 74 41 28 42 77 43 71 44
REMARK SMILES IDX 70 45 29 47 59 48 40 49 58 50 41 51 44 52 57 53 75 54 42 55
REMARK SMILES IDX 43 56 56 58 76 59 45 60 30 61 31 62 39 63 32 64 38 65 33 66
REMARK SMILES IDX 34 67 35 68 36 69 37 70 60 71 61 72 69 73 62 74 68 75 63 76
REMARK SMILES IDX 64 77 65 78 66 79 67 80 46 81 47 82 55 83 48 84 54 85 49 86
REMARK SMILES IDX 50 87 51 88 52 89 53 90
REMARK H PARENT 13 7 18 27 74 46 44 57
REMARK Flexibility Score: inf
ROOT
ATOM      1  C   UNL A   1      32.636  28.244  25.991  1.00  0.00     0.023 C 
ENDROOT
BRANCH   1   2
ATOM      2  C   UNL A   1      32.540  28.729  24.542  1.00  0.00     0.023 C 
BRANCH   2   3
ATOM      3  C   UNL A   1      33.802  28.486  23.719  1.00  0.00     0.116 C 
BRANCH   3   4
ATOM      4  N   UNL A   1      33.553  27.604  22.592  1.00  0.00    -0.352 N 
ATOM      5  C   UNL A   1      33.453  26.270  22.389  1.00  0.00     0.251 C 
ATOM      6  O   UNL A   1      33.232  25.931  21.221  1.00  0.00    -0.270 OA
ATOM      7  H   UNL A   1      33.424  28.110  21.758  1.00  0.00     0.163 HD
BRANCH   5   8
ATOM      8  C   UNL A   1      33.584  25.223  23.445  1.00  0.00     0.067 C 
ATOM      9  C   UNL A   1      37.128  20.385  24.925  1.00  0.00     0.044 C 
ATOM     10  C   UNL A   1      36.059  21.418  25.128  1.00  0.00    -0.050 A 
ATOM     11  C   UNL A   1      35.222  21.374  26.251  1.00  0.00     0.010 A 
ATOM     12  C   UNL A   1      35.880  22.431  24.177  1.00  0.00     0.015 A 
ATOM     13  C   UNL A   1      34.217  22.334  26.437  1.00  0.00    -0.008 A 
ATOM     14  C   UNL A   1      34.875  23.389  24.343  1.00  0.00     0.018 A 
ATOM     15  C   UNL A   1      33.323  22.277  27.642  1.00  0.00     0.048 C 
ATOM     16  C   UNL A   1      34.049  23.331  25.467  1.00  0.00     0.130 A 
ATOM     17  C   UNL A   1      34.694  24.464  23.375  1.00  0.00     0.025 C 
ATOM     18  O   UNL A   1      33.075  24.267  25.689  1.00  0.00    -0.475 OA
ATOM     19  C   UNL A   1      32.562  24.947  24.510  1.00  0.00     0.314 C 
BRANCH  19  20
ATOM     20  C   UNL A   1      31.335  24.182  23.976  1.00  0.00     0.429 C 
ATOM     21  F   UNL A   1      30.386  25.053  23.547  1.00  0.00    -0.167 F 
ATOM     22  F   UNL A   1      31.635  23.391  22.919  1.00  0.00    -0.167 F 
ATOM     23  F   UNL A   1      30.763  23.390  24.911  1.00  0.00    -0.167 F 
ENDBRANCH  19  20
ENDBRANCH   5   8
ENDBRANCH   3   4
ENDBRANCH   2   3
ENDBRANCH   1   2
BRANCH   1  24
ATOM     24  C   UNL A   1      33.871  28.710  26.761  1.00  0.00     0.116 C 
BRANCH  24  25
ATOM     25  N   UNL A   1      33.706  30.005  27.407  1.00  0.00    -0.352 N 
ATOM     26  C   UNL A   1      34.613  30.683  28.183  1.00  0.00     0.251 C 
ATOM     27  H   UNL A   1      32.838  30.449  27.268  1.00  0.00     0.163 HD
ATOM     28  O   UNL A   1      34.305  31.738  28.728  1.00  0.00    -0.269 OA
BRANCH  26  29
ATOM     29  C   UNL A   1      35.949  30.093  28.387  1.00  0.00     0.039 A 
ATOM     30  C   UNL A   1      36.880  30.163  27.350  1.00  0.00     0.014 A 
ATOM     31  C   UNL A   1      36.295  29.546  29.627  1.00  0.00     0.014 A 
ATOM     32  C   UNL A   1      38.190  29.744  27.579  1.00  0.00     0.010 A 
ATOM     33  C   UNL A   1      37.615  29.182  29.869  1.00  0.00     0.010 A 
ATOM     34  C   UNL A   1      38.573  29.282  28.849  1.00  0.00    -0.014 A 
BRANCH  34  35
ATOM     35  C   UNL A   1      39.976  28.895  29.125  1.00  0.00     0.031 A 
ATOM     36  C   UNL A   1      40.903  29.871  29.792  1.00  0.00     0.074 A 
ATOM     37  C   UNL A   1      40.424  27.686  28.737  1.00  0.00     0.049 A 
ATOM     38  N   UNL A   1      42.169  29.732  30.087  1.00  0.00    -0.248 NA
ATOM     39  C   UNL A   1      40.338  31.181  30.156  1.00  0.00     0.031 C 
ATOM     40  C   UNL A   1      39.628  26.665  28.051  1.00  0.00     0.029 A 
ATOM     41  N   UNL A   1      41.660  27.106  28.869  1.00  0.00    -0.354 N 
ATOM     42  C   UNL A   1      42.555  30.936  30.663  1.00  0.00     0.074 A 
ATOM     43  C   UNL A   1      41.403  31.811  30.630  1.00  0.00     0.031 C 
ATOM     44  C   UNL A   1      40.385  25.573  27.855  1.00  0.00     0.029 A 
ATOM     45  C   UNL A   1      41.726  25.826  28.375  1.00  0.00     0.049 A 
ATOM     46  H   UNL A   1      42.429  27.565  29.280  1.00  0.00     0.167 HD
ATOM     47  C   UNL A   1      43.752  31.276  31.194  1.00  0.00     0.031 A 
ATOM     48  C   UNL A   1      42.751  24.951  28.348  1.00  0.00     0.031 A 
ATOM     49  C   UNL A   1      44.890  30.401  31.241  1.00  0.00     0.049 A 
ATOM     50  C   UNL A   1      44.075  25.354  28.934  1.00  0.00     0.074 A 
ATOM     51  C   UNL A   1      46.136  30.637  31.793  1.00  0.00     0.029 A 
ATOM     52  N   UNL A   1      44.918  29.117  30.719  1.00  0.00    -0.354 N 
ATOM     53  N   UNL A   1      44.408  26.485  29.510  1.00  0.00    -0.248 NA
ATOM     54  C   UNL A   1      45.158  24.364  28.872  1.00  0.00     0.031 C 
ATOM     55  C   UNL A   1      46.930  29.505  31.578  1.00  0.00     0.029 A 
ATOM     56  C   UNL A   1      46.165  28.552  30.923  1.00  0.00     0.049 A 
ATOM     57  H   UNL A   1      44.165  28.673  30.268  1.00  0.00     0.167 HD
ATOM     58  C   UNL A   1      45.736  26.336  29.890  1.00  0.00     0.074 A 
ATOM     59  C   UNL A   1      46.141  25.004  29.491  1.00  0.00     0.031 C 
ATOM     60  C   UNL A   1      46.548  27.225  30.513  1.00  0.00     0.031 A 
BRANCH  47  61
ATOM     61  C   UNL A   1      43.877  32.656  31.775  1.00  0.00    -0.014 A 
ATOM     62  C   UNL A   1      43.535  32.902  33.117  1.00  0.00     0.010 A 
ATOM     63  C   UNL A   1      44.351  33.715  30.982  1.00  0.00     0.010 A 
ATOM     64  C   UNL A   1      43.623  34.191  33.644  1.00  0.00     0.020 A 
ATOM     65  C   UNL A   1      44.462  35.003  31.512  1.00  0.00     0.020 A 
ATOM     66  C   UNL A   1      44.080  35.237  32.835  1.00  0.00     0.054 A 
BRANCH  66  67
ATOM     67  S   UNL A   1      44.191  36.901  33.547  1.00  0.00     0.124 S 
ATOM     68  O   UNL A   1      45.620  37.010  33.831  1.00  0.00    -0.237 OA
ATOM     69  O   UNL A   1      43.700  37.748  32.465  1.00  0.00    -0.237 OA
ATOM     70  O   UNL A   1      43.327  36.833  34.723  1.00  0.00    -0.744 OA
ENDBRANCH  66  67
ENDBRANCH  47  61
BRANCH  48  71
ATOM     71  C   UNL A   1      42.550  23.595  27.776  1.00  0.00    -0.014 A 
ATOM     72  C   UNL A   1      42.720  23.380  26.397  1.00  0.00     0.010 A 
ATOM     73  C   UNL A   1      42.218  22.508  28.604  1.00  0.00     0.010 A 
ATOM     74  C   UNL A   1      42.557  22.102  25.854  1.00  0.00     0.020 A 
ATOM     75  C   UNL A   1      42.071  21.225  28.067  1.00  0.00     0.020 A 
ATOM     76  C   UNL A   1      42.235  21.032  26.693  1.00  0.00     0.054 A 
BRANCH  76  77
ATOM     77  S   UNL A   1      42.092  19.372  25.977  1.00  0.00     0.124 S 
ATOM     78  O   UNL A   1      40.658  19.271  25.728  1.00  0.00    -0.237 OA
ATOM     79  O   UNL A   1      42.936  19.466  24.788  1.00  0.00    -0.237 OA
ATOM     80  O   UNL A   1      42.610  18.500  27.029  1.00  0.00    -0.744 OA
ENDBRANCH  76  77
ENDBRANCH  48  71
BRANCH  60  81
ATOM     81  C   UNL A   1      47.954  26.789  30.809  1.00  0.00    -0.014 A 
ATOM     82  C   UNL A   1      49.004  27.100  29.927  1.00  0.00     0.010 A 
ATOM     83  C   UNL A   1      48.242  26.131  32.018  1.00  0.00     0.010 A 
ATOM     84  C   UNL A   1      50.317  26.751  30.245  1.00  0.00     0.020 A 
ATOM     85  C   UNL A   1      49.557  25.797  32.348  1.00  0.00     0.020 A 
ATOM     86  C   UNL A   1      50.586  26.103  31.455  1.00  0.00     0.054 A 
BRANCH  86  87
ATOM     87  S   UNL A   1      52.309  25.723  31.877  1.00  0.00     0.124 S 
ATOM     88  O   UNL A   1      52.219  24.326  32.291  1.00  0.00    -0.237 OA
ATOM     89  O   UNL A   1      53.009  25.961  30.618  1.00  0.00    -0.237 OA
ATOM     90  O   UNL A   1      52.621  26.671  32.944  1.00  0.00    -0.744 OA
ENDBRANCH  86  87
ENDBRANCH  60  81
ENDBRANCH  34  35
ENDBRANCH  26  29
ENDBRANCH  24  25
ENDBRANCH   1  24
TORSDOF 15
ENDMDL
