MODEL 1
REMARK VINA RESULT:     -11.5      0.000      0.000
REMARK SMILES Cc1cc(C)n(C)c(=O)c1C(=O)N1CCC2(CC1)C[NH2+][C@@H](C(=O)NCCCCNC(=O)c1ccc(-c3c4nc(c(-c5ccc(S(=O)(=O)[O-])cc5)c5ccc([nH]5)c(-c5ccc(S(=O)(=O)[O-])cc5)c5nc(c(-c6ccc(S(=O)(=O)[O-])cc6)c6ccc3[nH]6)C=C5)C=C4)cc1)C2
REMARK SMILES IDX 27 1 26 2 25 3 24 4 22 5 23 6 21 8 11 9 12 10 13 11 14 12
REMARK SMILES IDX 18 13 15 14 17 15 16 16 19 17 92 18 20 19 10 22 1 23 2 24
REMARK SMILES IDX 3 25 4 26 8 27 5 28 6 29 9 30 7 31 28 32 29 33 30 34 31 36
REMARK SMILES IDX 32 37 33 38 91 39 34 40 90 41 35 42 36 43 37 44 84 45 38 46
REMARK SMILES IDX 89 47 83 48 85 49 39 50 88 51 82 52 81 53 40 55 70 56 51 57
REMARK SMILES IDX 69 58 52 59 55 60 68 61 86 62 53 63 54 64 67 66 87 67 56 68
REMARK SMILES IDX 41 69 42 70 50 71 43 72 49 73 44 74 45 75 46 76 47 77 48 78
REMARK SMILES IDX 71 79 72 80 80 81 73 82 79 83 74 84 75 85 76 86 77 87 78 88
REMARK SMILES IDX 57 89 58 90 66 91 59 92 65 93 60 94 61 95 62 96 63 97 64 98
REMARK H PARENT 24 7 20 20 20 21 29 35 85 54 55 65
REMARK Flexibility Score: inf
ROOT
ATOM      1  C   UNL A   1      35.075  33.643  27.988  1.00  0.00     0.023 C 
ENDROOT
BRANCH   1   2
ATOM      2  C   UNL A   1      34.405  35.011  27.922  1.00  0.00     0.023 C 
BRANCH   2   3
ATOM      3  C   UNL A   1      33.153  35.139  28.783  1.00  0.00     0.116 C 
BRANCH   3   4
ATOM      4  N   UNL A   1      33.078  36.427  29.449  1.00  0.00    -0.351 N 
ATOM      5  C   UNL A   1      33.177  36.728  30.776  1.00  0.00     0.278 C 
ATOM      6  O   UNL A   1      33.113  37.915  31.109  1.00  0.00    -0.268 OA
ATOM      7  H   UNL A   1      32.933  37.197  28.854  1.00  0.00     0.163 HD
BRANCH   5   8
ATOM      8  C   UNL A   1      33.336  35.634  31.839  1.00  0.00     0.273 C 
ATOM      9  C   UNL A   1      37.861  31.276  33.797  1.00  0.00     0.259 C 
ATOM     10  O   UNL A   1      37.617  30.101  33.499  1.00  0.00    -0.269 OA
ATOM     11  N   UNL A   1      37.129  32.294  33.199  1.00  0.00    -0.338 N 
ATOM     12  C   UNL A   1      35.832  31.940  32.644  1.00  0.00     0.120 C 
ATOM     13  C   UNL A   1      37.577  33.638  32.853  1.00  0.00     0.120 C 
ATOM     14  C   UNL A   1      34.784  32.827  33.291  1.00  0.00     0.034 C 
ATOM     15  C   UNL A   1      36.531  34.725  33.179  1.00  0.00     0.034 C 
ATOM     16  C   UNL A   1      35.031  34.324  33.013  1.00  0.00     0.029 C 
ATOM     17  C   UNL A   1      34.121  35.136  33.973  1.00  0.00     0.268 C 
ATOM     18  C   UNL A   1      34.519  34.702  31.603  1.00  0.00     0.088 C 
ATOM     19  N   UNL A   1      33.555  36.209  33.177  1.00  0.00    -0.336 N 
ATOM     20  H   UNL A   1      34.202  36.996  33.125  1.00  0.00     0.346 HD
ATOM     21  H   UNL A   1      32.688  36.565  33.583  1.00  0.00     0.346 HD
BRANCH   9  22
ATOM     22  C   UNL A   1      38.829  31.530  34.929  1.00  0.00     0.108 A 
ATOM     23  C   UNL A   1      40.879  30.373  33.910  1.00  0.00     0.045 C 
ATOM     24  C   UNL A   1      40.134  31.172  34.931  1.00  0.00    -0.031 A 
ATOM     25  C   UNL A   1      41.041  31.680  35.943  1.00  0.00     0.026 A 
ATOM     26  C   UNL A   1      40.709  32.695  36.747  1.00  0.00     0.018 A 
ATOM     27  C   UNL A   1      38.392  32.531  35.989  1.00  0.00     0.263 A 
ATOM     28  C   UNL A   1      41.766  33.278  37.644  1.00  0.00     0.064 C 
ATOM     29  N   UNL A   1      39.403  33.164  36.737  1.00  0.00    -0.315 N 
ATOM     30  O   UNL A   1      37.200  32.779  36.172  1.00  0.00    -0.268 OA
ATOM     31  C   UNL A   1      39.020  34.304  37.561  1.00  0.00     0.153 C 
ENDBRANCH   9  22
ENDBRANCH   5   8
ENDBRANCH   3   4
ENDBRANCH   2   3
ENDBRANCH   1   2
BRANCH   1  32
ATOM     32  C   UNL A   1      34.419  32.660  28.949  1.00  0.00     0.116 C 
BRANCH  32  33
ATOM     33  N   UNL A   1      33.789  31.541  28.267  1.00  0.00    -0.352 N 
ATOM     34  C   UNL A   1      34.363  30.367  27.833  1.00  0.00     0.251 C 
ATOM     35  H   UNL A   1      32.824  31.634  28.094  1.00  0.00     0.163 HD
ATOM     36  O   UNL A   1      33.727  29.588  27.141  1.00  0.00    -0.269 OA
BRANCH  34  37
ATOM     37  C   UNL A   1      35.770  30.084  28.193  1.00  0.00     0.039 A 
ATOM     38  C   UNL A   1      36.058  29.615  29.476  1.00  0.00     0.014 A 
ATOM     39  C   UNL A   1      36.791  30.254  27.254  1.00  0.00     0.014 A 
ATOM     40  C   UNL A   1      37.368  29.256  29.798  1.00  0.00     0.010 A 
ATOM     41  C   UNL A   1      38.080  29.829  27.553  1.00  0.00     0.010 A 
ATOM     42  C   UNL A   1      38.383  29.331  28.829  1.00  0.00    -0.014 A 
BRANCH  42  43
ATOM     43  C   UNL A   1      39.778  28.926  29.134  1.00  0.00     0.031 A 
ATOM     44  C   UNL A   1      40.696  29.895  29.830  1.00  0.00     0.074 A 
ATOM     45  C   UNL A   1      40.228  27.714  28.755  1.00  0.00     0.049 A 
ATOM     46  N   UNL A   1      41.969  29.773  30.105  1.00  0.00    -0.248 NA
ATOM     47  C   UNL A   1      40.110  31.176  30.263  1.00  0.00     0.031 C 
ATOM     48  C   UNL A   1      39.434  26.685  28.076  1.00  0.00     0.029 A 
ATOM     49  N   UNL A   1      41.466  27.138  28.890  1.00  0.00    -0.354 N 
ATOM     50  C   UNL A   1      42.332  30.952  30.744  1.00  0.00     0.074 A 
ATOM     51  C   UNL A   1      41.164  31.805  30.761  1.00  0.00     0.031 C 
ATOM     52  C   UNL A   1      40.195  25.594  27.891  1.00  0.00     0.029 A 
ATOM     53  C   UNL A   1      41.541  25.858  28.389  1.00  0.00     0.049 A 
ATOM     54  H   UNL A   1      42.230  27.597  29.308  1.00  0.00     0.167 HD
ATOM     55  C   UNL A   1      43.522  31.285  31.295  1.00  0.00     0.031 A 
ATOM     56  C   UNL A   1      42.579  25.001  28.334  1.00  0.00     0.031 A 
ATOM     57  C   UNL A   1      44.682  30.434  31.283  1.00  0.00     0.049 A 
ATOM     58  C   UNL A   1      43.913  25.434  28.885  1.00  0.00     0.074 A 
ATOM     59  C   UNL A   1      45.936  30.685  31.812  1.00  0.00     0.029 A 
ATOM     60  N   UNL A   1      44.726  29.164  30.731  1.00  0.00    -0.354 N 
ATOM     61  N   UNL A   1      44.236  26.556  29.483  1.00  0.00    -0.248 NA
ATOM     62  C   UNL A   1      45.022  24.477  28.758  1.00  0.00     0.031 C 
ATOM     63  C   UNL A   1      46.752  29.582  31.543  1.00  0.00     0.029 A 
ATOM     64  C   UNL A   1      45.989  28.621  30.900  1.00  0.00     0.049 A 
ATOM     65  H   UNL A   1      43.972  28.715  30.285  1.00  0.00     0.167 HD
ATOM     66  C   UNL A   1      45.574  26.420  29.840  1.00  0.00     0.074 A 
ATOM     67  C   UNL A   1      45.993  25.105  29.405  1.00  0.00     0.031 C 
ATOM     68  C   UNL A   1      46.385  27.305  30.471  1.00  0.00     0.031 A 
BRANCH  55  69
ATOM     69  C   UNL A   1      43.627  32.615  31.989  1.00  0.00    -0.014 A 
ATOM     70  C   UNL A   1      43.713  33.804  31.243  1.00  0.00     0.010 A 
ATOM     71  C   UNL A   1      43.544  32.690  33.392  1.00  0.00     0.010 A 
ATOM     72  C   UNL A   1      43.721  35.044  31.885  1.00  0.00     0.020 A 
ATOM     73  C   UNL A   1      43.525  33.930  34.037  1.00  0.00     0.020 A 
ATOM     74  C   UNL A   1      43.617  35.099  33.277  1.00  0.00     0.054 A 
BRANCH  74  75
ATOM     75  S   UNL A   1      43.551  36.728  34.073  1.00  0.00     0.124 S 
ATOM     76  O   UNL A   1      44.417  36.534  35.233  1.00  0.00    -0.237 OA
ATOM     77  O   UNL A   1      44.081  37.609  33.035  1.00  0.00    -0.237 OA
ATOM     78  O   UNL A   1      42.134  36.910  34.378  1.00  0.00    -0.744 OA
ENDBRANCH  74  75
ENDBRANCH  55  69
BRANCH  56  79
ATOM     79  C   UNL A   1      42.413  23.640  27.752  1.00  0.00    -0.014 A 
ATOM     80  C   UNL A   1      42.054  22.558  28.576  1.00  0.00     0.010 A 
ATOM     81  C   UNL A   1      42.653  23.406  26.386  1.00  0.00     0.010 A 
ATOM     82  C   UNL A   1      41.981  21.262  28.057  1.00  0.00     0.020 A 
ATOM     83  C   UNL A   1      42.548  22.116  25.855  1.00  0.00     0.020 A 
ATOM     84  C   UNL A   1      42.233  21.049  26.700  1.00  0.00     0.054 A 
BRANCH  84  85
ATOM     85  S   UNL A   1      42.132  19.359  26.049  1.00  0.00     0.124 S 
ATOM     86  O   UNL A   1      42.653  18.573  27.164  1.00  0.00    -0.237 OA
ATOM     87  O   UNL A   1      40.703  19.210  25.782  1.00  0.00    -0.237 OA
ATOM     88  O   UNL A   1      42.980  19.398  24.861  1.00  0.00    -0.744 OA
ENDBRANCH  84  85
ENDBRANCH  56  79
BRANCH  68  89
ATOM     89  C   UNL A   1      47.791  26.862  30.778  1.00  0.00    -0.014 A 
ATOM     90  C   UNL A   1      48.860  27.175  29.921  1.00  0.00     0.010 A 
ATOM     91  C   UNL A   1      48.049  26.152  31.966  1.00  0.00     0.010 A 
ATOM     92  C   UNL A   1      50.155  26.750  30.225  1.00  0.00     0.020 A 
ATOM     93  C   UNL A   1      49.348  25.754  32.290  1.00  0.00     0.020 A 
ATOM     94  C   UNL A   1      50.391  26.041  31.408  1.00  0.00     0.054 A 
BRANCH  94  95
ATOM     95  S   UNL A   1      52.086  25.521  31.786  1.00  0.00     0.124 S 
ATOM     96  O   UNL A   1      51.911  24.101  32.079  1.00  0.00    -0.237 OA
ATOM     97  O   UNL A   1      52.797  25.825  30.547  1.00  0.00    -0.237 OA
ATOM     98  O   UNL A   1      52.457  26.351  32.930  1.00  0.00    -0.744 OA
ENDBRANCH  94  95
ENDBRANCH  68  89
ENDBRANCH  42  43
ENDBRANCH  34  37
ENDBRANCH  32  33
ENDBRANCH   1  32
TORSDOF 15
ENDMDL
MODEL 2
REMARK VINA RESULT:     -11.1      4.893     12.280
REMARK SMILES Cc1cc(C)n(C)c(=O)c1C(=O)N1CCC2(CC1)C[NH2+][C@@H](C(=O)NCCCCNC(=O)c1ccc(-c3c4nc(c(-c5ccc(S(=O)(=O)[O-])cc5)c5ccc([nH]5)c(-c5ccc(S(=O)(=O)[O-])cc5)c5nc(c(-c6ccc(S(=O)(=O)[O-])cc6)c6ccc3[nH]6)C=C5)C=C4)cc1)C2
REMARK SMILES IDX 27 1 26 2 25 3 24 4 22 5 23 6 21 8 11 9 12 10 13 11 14 12
REMARK SMILES IDX 18 13 15 14 17 15 16 16 19 17 92 18 20 19 10 22 1 23 2 24
REMARK SMILES IDX 3 25 4 26 8 27 5 28 6 29 9 30 7 31 28 32 29 33 30 34 31 36
REMARK SMILES IDX 32 37 33 38 91 39 34 40 90 41 35 42 36 43 37 44 84 45 38 46
REMARK SMILES IDX 89 47 83 48 85 49 39 50 88 51 82 52 81 53 40 55 70 56 51 57
REMARK SMILES IDX 69 58 52 59 55 60 68 61 86 62 53 63 54 64 67 66 87 67 56 68
REMARK SMILES IDX 41 69 42 70 50 71 43 72 49 73 44 74 45 75 46 76 47 77 48 78
REMARK SMILES IDX 71 79 72 80 80 81 73 82 79 83 74 84 75 85 76 86 77 87 78 88
REMARK SMILES IDX 57 89 58 90 66 91 59 92 65 93 60 94 61 95 62 96 63 97 64 98
REMARK H PARENT 24 7 20 20 20 21 29 35 85 54 55 65
REMARK Flexibility Score: inf
ROOT
ATOM      1  C   UNL A   1      40.522  22.166  27.427  1.00  0.00     0.023 C 
ENDROOT
BRANCH   1   2
ATOM      2  C   UNL A   1      39.969  21.761  26.065  1.00  0.00     0.023 C 
BRANCH   2   3
ATOM      3  C   UNL A   1      38.532  22.205  25.813  1.00  0.00     0.116 C 
BRANCH   3   4
ATOM      4  N   UNL A   1      37.706  21.122  25.313  1.00  0.00    -0.351 N 
ATOM      5  C   UNL A   1      36.346  21.003  25.289  1.00  0.00     0.278 C 
ATOM      6  O   UNL A   1      35.860  19.989  24.778  1.00  0.00    -0.268 OA
ATOM      7  H   UNL A   1      38.200  20.359  24.935  1.00  0.00     0.163 HD
BRANCH   5   8
ATOM      8  C   UNL A   1      35.435  22.074  25.900  1.00  0.00     0.273 C 
ATOM      9  C   UNL A   1      32.398  27.611  24.047  1.00  0.00     0.259 C 
ATOM     10  O   UNL A   1      32.897  28.651  24.488  1.00  0.00    -0.269 OA
ATOM     11  N   UNL A   1      33.111  26.423  24.141  1.00  0.00    -0.338 N 
ATOM     12  C   UNL A   1      34.157  26.355  25.149  1.00  0.00     0.120 C 
ATOM     13  C   UNL A   1      33.105  25.295  23.216  1.00  0.00     0.120 C 
ATOM     14  C   UNL A   1      33.865  25.172  26.054  1.00  0.00     0.034 C 
ATOM     15  C   UNL A   1      33.084  23.928  23.932  1.00  0.00     0.034 C 
ATOM     16  C   UNL A   1      33.856  23.835  25.286  1.00  0.00     0.029 C 
ATOM     17  C   UNL A   1      33.234  22.762  26.217  1.00  0.00     0.268 C 
ATOM     18  C   UNL A   1      35.303  23.336  25.056  1.00  0.00     0.088 C 
ATOM     19  N   UNL A   1      34.059  21.577  26.073  1.00  0.00    -0.336 N 
ATOM     20  H   UNL A   1      33.770  21.037  25.258  1.00  0.00     0.346 HD
ATOM     21  H   UNL A   1      33.979  20.959  26.882  1.00  0.00     0.346 HD
BRANCH   9  22
ATOM     22  C   UNL A   1      30.961  27.658  23.583  1.00  0.00     0.108 A 
ATOM     23  C   UNL A   1      30.020  25.869  25.164  1.00  0.00     0.045 C 
ATOM     24  C   UNL A   1      29.949  26.931  24.113  1.00  0.00    -0.031 A 
ATOM     25  C   UNL A   1      28.569  27.227  23.780  1.00  0.00     0.026 A 
ATOM     26  C   UNL A   1      28.217  28.356  23.155  1.00  0.00     0.018 A 
ATOM     27  C   UNL A   1      30.569  28.824  22.687  1.00  0.00     0.263 A 
ATOM     28  C   UNL A   1      26.754  28.671  23.006  1.00  0.00     0.064 C 
ATOM     29  N   UNL A   1      29.209  29.187  22.655  1.00  0.00    -0.315 N 
ATOM     30  O   UNL A   1      31.417  29.426  22.027  1.00  0.00    -0.268 OA
ATOM     31  C   UNL A   1      28.864  30.452  22.017  1.00  0.00     0.153 C 
ENDBRANCH   9  22
ENDBRANCH   5   8
ENDBRANCH   3   4
ENDBRANCH   2   3
ENDBRANCH   1   2
BRANCH   1  32
ATOM     32  C   UNL A   1      41.746  23.069  27.371  1.00  0.00     0.116 C 
BRANCH  32  33
ATOM     33  N   UNL A   1      41.765  23.921  26.193  1.00  0.00    -0.352 N 
ATOM     34  C   UNL A   1      41.575  25.283  26.115  1.00  0.00     0.251 C 
ATOM     35  H   UNL A   1      41.938  23.465  25.338  1.00  0.00     0.163 HD
ATOM     36  O   UNL A   1      41.473  25.830  25.029  1.00  0.00    -0.269 OA
BRANCH  34  37
ATOM     37  C   UNL A   1      41.467  26.062  27.368  1.00  0.00     0.039 A 
ATOM     38  C   UNL A   1      42.499  26.938  27.711  1.00  0.00     0.014 A 
ATOM     39  C   UNL A   1      40.335  25.947  28.180  1.00  0.00     0.014 A 
ATOM     40  C   UNL A   1      42.366  27.746  28.841  1.00  0.00     0.010 A 
ATOM     41  C   UNL A   1      40.174  26.804  29.262  1.00  0.00     0.010 A 
ATOM     42  C   UNL A   1      41.189  27.708  29.607  1.00  0.00    -0.014 A 
BRANCH  42  43
ATOM     43  C   UNL A   1      41.008  28.579  30.795  1.00  0.00     0.031 A 
ATOM     44  C   UNL A   1      39.956  29.654  30.773  1.00  0.00     0.074 A 
ATOM     45  C   UNL A   1      41.809  28.431  31.869  1.00  0.00     0.049 A 
ATOM     46  N   UNL A   1      39.699  30.575  31.665  1.00  0.00    -0.248 NA
ATOM     47  C   UNL A   1      39.084  29.711  29.585  1.00  0.00     0.031 C 
ATOM     48  C   UNL A   1      42.864  27.424  32.012  1.00  0.00     0.029 A 
ATOM     49  N   UNL A   1      41.858  29.128  33.050  1.00  0.00    -0.354 N 
ATOM     50  C   UNL A   1      38.640  31.313  31.151  1.00  0.00     0.074 A 
ATOM     51  C   UNL A   1      38.340  30.776  29.843  1.00  0.00     0.031 C 
ATOM     52  C   UNL A   1      43.427  27.546  33.226  1.00  0.00     0.029 A 
ATOM     53  C   UNL A   1      42.812  28.668  33.928  1.00  0.00     0.049 A 
ATOM     54  H   UNL A   1      41.265  29.888  33.251  1.00  0.00     0.167 HD
ATOM     55  C   UNL A   1      37.955  32.328  31.730  1.00  0.00     0.031 A 
ATOM     56  C   UNL A   1      43.153  29.105  35.155  1.00  0.00     0.031 A 
ATOM     57  C   UNL A   1      38.249  32.858  33.034  1.00  0.00     0.049 A 
ATOM     58  C   UNL A   1      42.424  30.289  35.738  1.00  0.00     0.074 A 
ATOM     59  C   UNL A   1      37.615  33.890  33.704  1.00  0.00     0.029 A 
ATOM     60  N   UNL A   1      39.248  32.390  33.872  1.00  0.00    -0.354 N 
ATOM     61  N   UNL A   1      41.426  30.975  35.233  1.00  0.00    -0.248 NA
ATOM     62  C   UNL A   1      42.868  30.751  37.061  1.00  0.00     0.031 C 
ATOM     63  C   UNL A   1      38.257  34.072  34.932  1.00  0.00     0.029 A 
ATOM     64  C   UNL A   1      39.252  33.116  35.051  1.00  0.00     0.049 A 
ATOM     65  H   UNL A   1      39.863  31.650  33.661  1.00  0.00     0.167 HD
ATOM     66  C   UNL A   1      41.097  31.923  36.197  1.00  0.00     0.074 A 
ATOM     67  C   UNL A   1      41.990  31.711  37.316  1.00  0.00     0.031 C 
ATOM     68  C   UNL A   1      40.140  32.883  36.161  1.00  0.00     0.031 A 
BRANCH  55  69
ATOM     69  C   UNL A   1      36.797  32.916  30.971  1.00  0.00    -0.014 A 
ATOM     70  C   UNL A   1      35.475  32.628  31.354  1.00  0.00     0.010 A 
ATOM     71  C   UNL A   1      37.025  33.836  29.932  1.00  0.00     0.010 A 
ATOM     72  C   UNL A   1      34.401  33.243  30.706  1.00  0.00     0.020 A 
ATOM     73  C   UNL A   1      35.954  34.473  29.299  1.00  0.00     0.020 A 
ATOM     74  C   UNL A   1      34.648  34.169  29.690  1.00  0.00     0.054 A 
BRANCH  74  75
ATOM     75  S   UNL A   1      33.233  35.007  28.925  1.00  0.00     0.124 S 
ATOM     76  O   UNL A   1      33.872  36.150  28.276  1.00  0.00    -0.237 OA
ATOM     77  O   UNL A   1      32.711  33.985  28.021  1.00  0.00    -0.237 OA
ATOM     78  O   UNL A   1      32.370  35.337  30.056  1.00  0.00    -0.744 OA
ENDBRANCH  74  75
ENDBRANCH  55  69
BRANCH  56  79
ATOM     79  C   UNL A   1      44.223  28.424  35.937  1.00  0.00    -0.014 A 
ATOM     80  C   UNL A   1      45.565  28.823  35.796  1.00  0.00     0.010 A 
ATOM     81  C   UNL A   1      43.919  27.349  36.791  1.00  0.00     0.010 A 
ATOM     82  C   UNL A   1      46.585  28.135  36.457  1.00  0.00     0.020 A 
ATOM     83  C   UNL A   1      44.934  26.678  37.482  1.00  0.00     0.020 A 
ATOM     84  C   UNL A   1      46.263  27.063  37.293  1.00  0.00     0.054 A 
BRANCH  84  85
ATOM     85  S   UNL A   1      47.605  26.185  38.142  1.00  0.00     0.124 S 
ATOM     86  O   UNL A   1      47.426  26.621  39.523  1.00  0.00    -0.237 OA
ATOM     87  O   UNL A   1      47.286  24.786  37.871  1.00  0.00    -0.237 OA
ATOM     88  O   UNL A   1      48.810  26.682  37.480  1.00  0.00    -0.744 OA
ENDBRANCH  84  85
ENDBRANCH  56  79
BRANCH  68  89
ATOM     89  C   UNL A   1      39.973  33.744  37.384  1.00  0.00    -0.014 A 
ATOM     90  C   UNL A   1      40.574  35.011  37.475  1.00  0.00     0.010 A 
ATOM     91  C   UNL A   1      39.167  33.289  38.445  1.00  0.00     0.010 A 
ATOM     92  C   UNL A   1      40.407  35.790  38.622  1.00  0.00     0.020 A 
ATOM     93  C   UNL A   1      38.971  34.079  39.580  1.00  0.00     0.020 A 
ATOM     94  C   UNL A   1      39.607  35.318  39.668  1.00  0.00     0.054 A 
BRANCH  94  95
ATOM     95  S   UNL A   1      39.392  36.361  41.136  1.00  0.00     0.124 S 
ATOM     96  O   UNL A   1      39.540  37.703  40.581  1.00  0.00    -0.237 OA
ATOM     97  O   UNL A   1      38.046  36.009  41.582  1.00  0.00    -0.237 OA
ATOM     98  O   UNL A   1      40.468  35.933  42.027  1.00  0.00    -0.744 OA
ENDBRANCH  94  95
ENDBRANCH  68  89
ENDBRANCH  42  43
ENDBRANCH  34  37
ENDBRANCH  32  33
ENDBRANCH   1  32
TORSDOF 15
ENDMDL
MODEL 3
REMARK VINA RESULT:     -11.0      2.439      5.165
REMARK SMILES Cc1cc(C)n(C)c(=O)c1C(=O)N1CCC2(CC1)C[NH2+][C@@H](C(=O)NCCCCNC(=O)c1ccc(-c3c4nc(c(-c5ccc(S(=O)(=O)[O-])cc5)c5ccc([nH]5)c(-c5ccc(S(=O)(=O)[O-])cc5)c5nc(c(-c6ccc(S(=O)(=O)[O-])cc6)c6ccc3[nH]6)C=C5)C=C4)cc1)C2
REMARK SMILES IDX 27 1 26 2 25 3 24 4 22 5 23 6 21 8 11 9 12 10 13 11 14 12
REMARK SMILES IDX 18 13 15 14 17 15 16 16 19 17 92 18 20 19 10 22 1 23 2 24
REMARK SMILES IDX 3 25 4 26 8 27 5 28 6 29 9 30 7 31 28 32 29 33 30 34 31 36
REMARK SMILES IDX 32 37 33 38 91 39 34 40 90 41 35 42 36 43 37 44 84 45 38 46
REMARK SMILES IDX 89 47 83 48 85 49 39 50 88 51 82 52 81 53 40 55 70 56 51 57
REMARK SMILES IDX 69 58 52 59 55 60 68 61 86 62 53 63 54 64 67 66 87 67 56 68
REMARK SMILES IDX 41 69 42 70 50 71 43 72 49 73 44 74 45 75 46 76 47 77 48 78
REMARK SMILES IDX 71 79 72 80 80 81 73 82 79 83 74 84 75 85 76 86 77 87 78 88
REMARK SMILES IDX 57 89 58 90 66 91 59 92 65 93 60 94 61 95 62 96 63 97 64 98
REMARK H PARENT 24 7 20 20 20 21 29 35 85 54 55 65
REMARK Flexibility Score: inf
ROOT
ATOM      1  C   UNL A   1      34.837  32.288  31.073  1.00  0.00     0.023 C 
ENDROOT
BRANCH   1   2
ATOM      2  C   UNL A   1      35.980  32.810  31.938  1.00  0.00     0.023 C 
BRANCH   2   3
ATOM      3  C   UNL A   1      37.094  31.798  32.183  1.00  0.00     0.116 C 
BRANCH   3   4
ATOM      4  N   UNL A   1      37.434  31.691  33.591  1.00  0.00    -0.351 N 
ATOM      5  C   UNL A   1      38.436  30.988  34.194  1.00  0.00     0.278 C 
ATOM      6  O   UNL A   1      38.551  31.075  35.420  1.00  0.00    -0.268 OA
ATOM      7  H   UNL A   1      36.855  32.203  34.201  1.00  0.00     0.163 HD
BRANCH   5   8
ATOM      8  C   UNL A   1      39.382  30.088  33.391  1.00  0.00     0.273 C 
ATOM      9  C   UNL A   1      44.748  26.415  34.406  1.00  0.00     0.259 C 
ATOM     10  O   UNL A   1      45.797  26.889  33.954  1.00  0.00    -0.269 OA
ATOM     11  N   UNL A   1      43.622  27.224  34.495  1.00  0.00    -0.338 N 
ATOM     12  C   UNL A   1      43.579  28.398  33.638  1.00  0.00     0.120 C 
ATOM     13  C   UNL A   1      42.562  27.179  35.496  1.00  0.00     0.120 C 
ATOM     14  C   UNL A   1      42.317  28.321  32.797  1.00  0.00     0.034 C 
ATOM     15  C   UNL A   1      41.154  27.359  34.891  1.00  0.00     0.034 C 
ATOM     16  C   UNL A   1      41.038  28.311  33.659  1.00  0.00     0.029 C 
ATOM     17  C   UNL A   1      39.856  27.903  32.741  1.00  0.00     0.268 C 
ATOM     18  C   UNL A   1      40.682  29.747  34.111  1.00  0.00     0.088 C 
ATOM     19  N   UNL A   1      38.759  28.790  33.080  1.00  0.00    -0.336 N 
ATOM     20  H   UNL A   1      38.251  28.436  33.891  1.00  0.00     0.346 HD
ATOM     21  H   UNL A   1      38.084  28.866  32.318  1.00  0.00     0.346 HD
BRANCH   9  22
ATOM     22  C   UNL A   1      44.703  24.930  34.676  1.00  0.00     0.108 A 
ATOM     23  C   UNL A   1      44.346  24.142  32.259  1.00  0.00     0.045 C 
ATOM     24  C   UNL A   1      44.575  23.971  33.728  1.00  0.00    -0.031 A 
ATOM     25  C   UNL A   1      44.797  22.575  34.051  1.00  0.00     0.026 A 
ATOM     26  C   UNL A   1      45.369  22.195  35.198  1.00  0.00     0.018 A 
ATOM     27  C   UNL A   1      45.149  24.472  36.056  1.00  0.00     0.263 A 
ATOM     28  C   UNL A   1      45.725  20.745  35.379  1.00  0.00     0.064 C 
ATOM     29  N   UNL A   1      45.600  23.144  36.184  1.00  0.00    -0.315 N 
ATOM     30  O   UNL A   1      45.122  25.242  37.017  1.00  0.00    -0.268 OA
ATOM     31  C   UNL A   1      46.271  22.775  37.424  1.00  0.00     0.153 C 
ENDBRANCH   9  22
ENDBRANCH   5   8
ENDBRANCH   3   4
ENDBRANCH   2   3
ENDBRANCH   1   2
BRANCH   1  32
ATOM     32  C   UNL A   1      35.035  32.483  29.576  1.00  0.00     0.116 C 
BRANCH  32  33
ATOM     33  N   UNL A   1      34.252  31.553  28.779  1.00  0.00    -0.352 N 
ATOM     34  C   UNL A   1      34.672  30.411  28.133  1.00  0.00     0.251 C 
ATOM     35  H   UNL A   1      33.296  31.767  28.688  1.00  0.00     0.163 HD
ATOM     36  O   UNL A   1      33.920  29.818  27.378  1.00  0.00    -0.269 OA
BRANCH  34  37
ATOM     37  C   UNL A   1      36.057  29.937  28.348  1.00  0.00     0.039 A 
ATOM     38  C   UNL A   1      37.009  30.153  27.350  1.00  0.00     0.014 A 
ATOM     39  C   UNL A   1      36.414  29.311  29.546  1.00  0.00     0.014 A 
ATOM     40  C   UNL A   1      38.338  29.794  27.580  1.00  0.00     0.010 A 
ATOM     41  C   UNL A   1      37.750  29.022  29.800  1.00  0.00     0.010 A 
ATOM     42  C   UNL A   1      38.724  29.254  28.818  1.00  0.00    -0.014 A 
BRANCH  42  43
ATOM     43  C   UNL A   1      40.136  28.894  29.100  1.00  0.00     0.031 A 
ATOM     44  C   UNL A   1      41.045  29.904  29.745  1.00  0.00     0.074 A 
ATOM     45  C   UNL A   1      40.607  27.682  28.744  1.00  0.00     0.049 A 
ATOM     46  N   UNL A   1      42.327  29.822  29.992  1.00  0.00    -0.248 NA
ATOM     47  C   UNL A   1      40.437  31.183  30.157  1.00  0.00     0.031 C 
ATOM     48  C   UNL A   1      39.824  26.615  28.114  1.00  0.00     0.029 A 
ATOM     49  N   UNL A   1      41.862  27.141  28.865  1.00  0.00    -0.354 N 
ATOM     50  C   UNL A   1      42.675  31.028  30.588  1.00  0.00     0.074 A 
ATOM     51  C   UNL A   1      41.486  31.851  30.611  1.00  0.00     0.031 C 
ATOM     52  C   UNL A   1      40.608  25.538  27.941  1.00  0.00     0.029 A 
ATOM     53  C   UNL A   1      41.958  25.850  28.397  1.00  0.00     0.049 A 
ATOM     54  H   UNL A   1      42.624  27.631  29.250  1.00  0.00     0.167 HD
ATOM     55  C   UNL A   1      43.869  31.405  31.100  1.00  0.00     0.031 A 
ATOM     56  C   UNL A   1      43.016  25.018  28.341  1.00  0.00     0.031 A 
ATOM     57  C   UNL A   1      45.050  30.584  31.084  1.00  0.00     0.049 A 
ATOM     58  C   UNL A   1      44.352  25.500  28.847  1.00  0.00     0.074 A 
ATOM     59  C   UNL A   1      46.309  30.881  31.574  1.00  0.00     0.029 A 
ATOM     60  N   UNL A   1      45.113  29.300  30.566  1.00  0.00    -0.354 N 
ATOM     61  N   UNL A   1      44.660  26.646  29.405  1.00  0.00    -0.248 NA
ATOM     62  C   UNL A   1      45.481  24.567  28.719  1.00  0.00     0.031 C 
ATOM     63  C   UNL A   1      47.146  29.792  31.315  1.00  0.00     0.029 A 
ATOM     64  C   UNL A   1      46.393  28.794  30.719  1.00  0.00     0.049 A 
ATOM     65  H   UNL A   1      44.360  28.820  30.151  1.00  0.00     0.167 HD
ATOM     66  C   UNL A   1      46.009  26.554  29.732  1.00  0.00     0.074 A 
ATOM     67  C   UNL A   1      46.451  25.237  29.324  1.00  0.00     0.031 C 
ATOM     68  C   UNL A   1      46.812  27.476  30.318  1.00  0.00     0.031 A 
BRANCH  55  69
ATOM     69  C   UNL A   1      43.957  32.757  31.754  1.00  0.00    -0.014 A 
ATOM     70  C   UNL A   1      44.126  33.916  30.975  1.00  0.00     0.010 A 
ATOM     71  C   UNL A   1      43.775  32.885  33.143  1.00  0.00     0.010 A 
ATOM     72  C   UNL A   1      44.118  35.178  31.573  1.00  0.00     0.020 A 
ATOM     73  C   UNL A   1      43.740  34.148  33.742  1.00  0.00     0.020 A 
ATOM     74  C   UNL A   1      43.915  35.286  32.951  1.00  0.00     0.054 A 
BRANCH  74  75
ATOM     75  S   UNL A   1      43.832  36.944  33.683  1.00  0.00     0.124 S 
ATOM     76  O   UNL A   1      45.124  37.042  34.359  1.00  0.00    -0.237 OA
ATOM     77  O   UNL A   1      43.672  37.800  32.510  1.00  0.00    -0.237 OA
ATOM     78  O   UNL A   1      42.672  36.877  34.567  1.00  0.00    -0.744 OA
ENDBRANCH  74  75
ENDBRANCH  55  69
BRANCH  56  79
ATOM     79  C   UNL A   1      42.871  23.637  27.802  1.00  0.00    -0.014 A 
ATOM     80  C   UNL A   1      43.248  23.353  26.475  1.00  0.00     0.010 A 
ATOM     81  C   UNL A   1      42.319  22.610  28.588  1.00  0.00     0.010 A 
ATOM     82  C   UNL A   1      43.035  22.083  25.933  1.00  0.00     0.020 A 
ATOM     83  C   UNL A   1      42.135  21.328  28.058  1.00  0.00     0.020 A 
ATOM     84  C   UNL A   1      42.476  21.080  26.727  1.00  0.00     0.054 A 
BRANCH  84  85
ATOM     85  S   UNL A   1      42.211  19.439  26.000  1.00  0.00     0.124 S 
ATOM     86  O   UNL A   1      43.065  19.489  24.818  1.00  0.00    -0.237 OA
ATOM     87  O   UNL A   1      42.655  18.546  27.067  1.00  0.00    -0.237 OA
ATOM     88  O   UNL A   1      40.774  19.411  25.732  1.00  0.00    -0.744 OA
ENDBRANCH  84  85
ENDBRANCH  56  79
BRANCH  68  89
ATOM     89  C   UNL A   1      48.236  27.077  30.602  1.00  0.00    -0.014 A 
ATOM     90  C   UNL A   1      49.300  27.556  29.818  1.00  0.00     0.010 A 
ATOM     91  C   UNL A   1      48.514  26.239  31.698  1.00  0.00     0.010 A 
ATOM     92  C   UNL A   1      50.612  27.169  30.099  1.00  0.00     0.020 A 
ATOM     93  C   UNL A   1      49.828  25.876  32.001  1.00  0.00     0.020 A 
ATOM     94  C   UNL A   1      50.868  26.330  31.189  1.00  0.00     0.054 A 
BRANCH  94  95
ATOM     95  S   UNL A   1      52.583  25.862  31.542  1.00  0.00     0.124 S 
ATOM     96  O   UNL A   1      52.422  24.536  32.133  1.00  0.00    -0.237 OA
ATOM     97  O   UNL A   1      53.201  25.890  30.218  1.00  0.00    -0.237 OA
ATOM     98  O   UNL A   1      53.046  26.901  32.460  1.00  0.00    -0.744 OA
ENDBRANCH  94  95
ENDBRANCH  68  89
ENDBRANCH  42  43
ENDBRANCH  34  37
ENDBRANCH  32  33
ENDBRANCH   1  32
TORSDOF 15
ENDMDL
