MODEL 1
REMARK VINA RESULT:     -11.0      0.000      0.000
REMARK SMILES Cc1cc(N2CCCC[C@H]2C(=O)NCCCCNC(=O)c2ccc(-c3c4nc(c(-c5ccc(S(=O)(=O)[O-])cc5)c5ccc([nH]5)c(-c5ccc(S(=O)(=O)[O-])cc5)c5nc(c(-c6ccc(S(=O)(=O)[O-])cc6)c6ccc3[nH]6)C=C5)C=C4)cc2)ncc1[N+](=O)[O-]
REMARK SMILES IDX 16 1 15 2 14 3 13 4 11 5 12 6 10 8 5 9 6 10 7 11 9 12 8 13
REMARK SMILES IDX 4 14 1 15 2 16 3 17 83 18 82 19 81 20 84 21 85 22 86 23
REMARK SMILES IDX 17 24 18 25 19 26 20 28 21 29 22 30 80 31 23 32 79 33 24 34
REMARK SMILES IDX 25 35 26 36 73 37 27 38 78 39 72 40 74 41 28 42 77 43 71 44
REMARK SMILES IDX 70 45 29 47 59 48 40 49 58 50 41 51 44 52 57 53 75 54 42 55
REMARK SMILES IDX 43 56 56 58 76 59 45 60 30 61 31 62 39 63 32 64 38 65 33 66
REMARK SMILES IDX 34 67 35 68 36 69 37 70 60 71 61 72 69 73 62 74 68 75 63 76
REMARK SMILES IDX 64 77 65 78 66 79 67 80 46 81 47 82 55 83 48 84 54 85 49 86
REMARK SMILES IDX 50 87 51 88 52 89 53 90
REMARK H PARENT 13 7 18 27 74 46 44 57
REMARK Flexibility Score: inf
ROOT
ATOM      1  C   UNL A   1      33.240  27.230  25.683  1.00  0.00     0.023 C 
ENDROOT
BRANCH   1   2
ATOM      2  C   UNL A   1      33.461  26.579  24.316  1.00  0.00     0.023 C 
BRANCH   2   3
ATOM      3  C   UNL A   1      33.501  25.054  24.326  1.00  0.00     0.116 C 
BRANCH   3   4
ATOM      4  N   UNL A   1      34.564  24.533  23.491  1.00  0.00    -0.354 N 
ATOM      5  C   UNL A   1      35.432  23.507  23.726  1.00  0.00     0.242 C 
ATOM      6  O   UNL A   1      36.206  23.218  22.807  1.00  0.00    -0.273 OA
ATOM      7  H   UNL A   1      34.676  24.986  22.624  1.00  0.00     0.163 HD
BRANCH   5   8
ATOM      8  C   UNL A   1      35.439  22.762  25.082  1.00  0.00     0.173 C 
ATOM      9  N   UNL A   1      36.275  21.555  25.070  1.00  0.00    -0.345 N 
ATOM     10  C   UNL A   1      37.703  21.726  24.849  1.00  0.00     0.119 C 
ATOM     11  C   UNL A   1      38.267  22.564  25.991  1.00  0.00     0.022 C 
ATOM     12  C   UNL A   1      35.985  23.676  26.205  1.00  0.00     0.035 C 
ATOM     13  C   UNL A   1      37.507  23.877  26.168  1.00  0.00     0.004 C 
BRANCH   9  14
ATOM     14  C   UNL A   1      35.736  20.311  24.853  1.00  0.00     0.129 A 
ATOM     15  C   UNL A   1      32.271  18.960  24.141  1.00  0.00     0.052 C 
ATOM     16  C   UNL A   1      33.744  18.959  24.426  1.00  0.00     0.032 A 
ATOM     17  C   UNL A   1      34.362  20.206  24.621  1.00  0.00     0.057 A 
ATOM     18  C   UNL A   1      34.559  17.830  24.543  1.00  0.00     0.290 A 
ATOM     19  C   UNL A   1      35.921  18.004  24.757  1.00  0.00     0.199 A 
ATOM     20  N   UNL A   1      36.516  19.218  24.891  1.00  0.00    -0.232 NA
BRANCH  18  21
ATOM     21  N   UNL A   1      34.061  16.465  24.470  1.00  0.00     0.064 N 
ATOM     22  O   UNL A   1      33.682  15.942  25.527  1.00  0.00    -0.258 OA
ATOM     23  O   UNL A   1      34.024  15.917  23.361  1.00  0.00    -0.258 OA
ENDBRANCH  18  21
ENDBRANCH   9  14
ENDBRANCH   5   8
ENDBRANCH   3   4
ENDBRANCH   2   3
ENDBRANCH   1   2
BRANCH   1  24
ATOM     24  C   UNL A   1      34.355  28.155  26.158  1.00  0.00     0.116 C 
BRANCH  24  25
ATOM     25  N   UNL A   1      33.860  29.423  26.672  1.00  0.00    -0.352 N 
ATOM     26  C   UNL A   1      34.450  30.288  27.561  1.00  0.00     0.251 C 
ATOM     27  H   UNL A   1      32.978  29.701  26.334  1.00  0.00     0.163 HD
ATOM     28  O   UNL A   1      33.821  31.252  27.991  1.00  0.00    -0.269 OA
BRANCH  26  29
ATOM     29  C   UNL A   1      35.831  30.036  28.026  1.00  0.00     0.039 A 
ATOM     30  C   UNL A   1      36.036  29.616  29.343  1.00  0.00     0.014 A 
ATOM     31  C   UNL A   1      36.918  30.188  27.160  1.00  0.00     0.014 A 
ATOM     32  C   UNL A   1      37.322  29.277  29.769  1.00  0.00     0.010 A 
ATOM     33  C   UNL A   1      38.186  29.783  27.565  1.00  0.00     0.010 A 
ATOM     34  C   UNL A   1      38.402  29.321  28.872  1.00  0.00    -0.014 A 
BRANCH  34  35
ATOM     35  C   UNL A   1      39.759  28.869  29.275  1.00  0.00     0.031 A 
ATOM     36  C   UNL A   1      40.698  29.815  29.973  1.00  0.00     0.074 A 
ATOM     37  C   UNL A   1      40.178  27.634  28.936  1.00  0.00     0.049 A 
ATOM     38  N   UNL A   1      41.939  29.623  30.340  1.00  0.00    -0.248 NA
ATOM     39  C   UNL A   1      40.185  31.161  30.272  1.00  0.00     0.031 C 
ATOM     40  C   UNL A   1      39.386  26.642  28.204  1.00  0.00     0.029 A 
ATOM     41  N   UNL A   1      41.381  27.007  29.145  1.00  0.00    -0.354 N 
ATOM     42  C   UNL A   1      42.364  30.829  30.884  1.00  0.00     0.074 A 
ATOM     43  C   UNL A   1      41.261  31.758  30.762  1.00  0.00     0.031 C 
ATOM     44  C   UNL A   1      40.119  25.529  28.038  1.00  0.00     0.029 A 
ATOM     45  C   UNL A   1      41.442  25.738  28.617  1.00  0.00     0.049 A 
ATOM     46  H   UNL A   1      42.130  27.426  29.628  1.00  0.00     0.167 HD
ATOM     47  C   UNL A   1      43.558  31.134  31.446  1.00  0.00     0.031 A 
ATOM     48  C   UNL A   1      42.450  24.845  28.591  1.00  0.00     0.031 A 
ATOM     49  C   UNL A   1      44.648  30.202  31.580  1.00  0.00     0.049 A 
ATOM     50  C   UNL A   1      43.758  25.193  29.246  1.00  0.00     0.074 A 
ATOM     51  C   UNL A   1      45.866  30.390  32.208  1.00  0.00     0.029 A 
ATOM     52  N   UNL A   1      44.654  28.913  31.070  1.00  0.00    -0.354 N 
ATOM     53  N   UNL A   1      44.110  26.309  29.838  1.00  0.00    -0.248 NA
ATOM     54  C   UNL A   1      44.799  24.155  29.244  1.00  0.00     0.031 C 
ATOM     55  C   UNL A   1      46.631  29.231  32.034  1.00  0.00     0.029 A 
ATOM     56  C   UNL A   1      45.866  28.301  31.346  1.00  0.00     0.049 A 
ATOM     57  H   UNL A   1      43.908  28.493  30.584  1.00  0.00     0.167 HD
ATOM     58  C   UNL A   1      45.405  26.102  30.297  1.00  0.00     0.074 A 
ATOM     59  C   UNL A   1      45.769  24.748  29.928  1.00  0.00     0.031 C 
ATOM     60  C   UNL A   1      46.219  26.955  30.967  1.00  0.00     0.031 A 
BRANCH  47  61
ATOM     61  C   UNL A   1      43.752  32.542  31.944  1.00  0.00    -0.014 A 
ATOM     62  C   UNL A   1      43.462  32.894  33.276  1.00  0.00     0.010 A 
ATOM     63  C   UNL A   1      44.249  33.528  31.071  1.00  0.00     0.010 A 
ATOM     64  C   UNL A   1      43.612  34.213  33.709  1.00  0.00     0.020 A 
ATOM     65  C   UNL A   1      44.429  34.843  31.509  1.00  0.00     0.020 A 
ATOM     66  C   UNL A   1      44.088  35.181  32.820  1.00  0.00     0.054 A 
BRANCH  66  67
ATOM     67  S   UNL A   1      44.274  36.887  33.407  1.00  0.00     0.124 S 
ATOM     68  O   UNL A   1      45.699  36.942  33.724  1.00  0.00    -0.237 OA
ATOM     69  O   UNL A   1      43.860  37.674  32.248  1.00  0.00    -0.237 OA
ATOM     70  O   UNL A   1      43.376  36.958  34.558  1.00  0.00    -0.744 OA
ENDBRANCH  66  67
ENDBRANCH  47  61
BRANCH  48  71
ATOM     71  C   UNL A   1      42.246  23.529  27.927  1.00  0.00    -0.014 A 
ATOM     72  C   UNL A   1      42.781  23.280  26.652  1.00  0.00     0.010 A 
ATOM     73  C   UNL A   1      41.552  22.500  28.592  1.00  0.00     0.010 A 
ATOM     74  C   UNL A   1      42.623  22.027  26.051  1.00  0.00     0.020 A 
ATOM     75  C   UNL A   1      41.414  21.239  28.005  1.00  0.00     0.020 A 
ATOM     76  C   UNL A   1      41.946  21.013  26.735  1.00  0.00     0.054 A 
BRANCH  76  77
ATOM     77  S   UNL A   1      41.826  19.371  25.970  1.00  0.00     0.124 S 
ATOM     78  O   UNL A   1      42.309  18.501  27.037  1.00  0.00    -0.237 OA
ATOM     79  O   UNL A   1      40.401  19.268  25.665  1.00  0.00    -0.237 OA
ATOM     80  O   UNL A   1      42.699  19.475  24.802  1.00  0.00    -0.744 OA
ENDBRANCH  76  77
ENDBRANCH  48  71
BRANCH  60  81
ATOM     81  C   UNL A   1      47.578  26.448  31.370  1.00  0.00    -0.014 A 
ATOM     82  C   UNL A   1      47.790  25.845  32.621  1.00  0.00     0.010 A 
ATOM     83  C   UNL A   1      48.644  26.524  30.455  1.00  0.00     0.010 A 
ATOM     84  C   UNL A   1      49.052  25.350  32.961  1.00  0.00     0.020 A 
ATOM     85  C   UNL A   1      49.900  26.007  30.781  1.00  0.00     0.020 A 
ATOM     86  C   UNL A   1      50.100  25.434  32.038  1.00  0.00     0.054 A 
BRANCH  86  87
ATOM     87  S   UNL A   1      51.716  24.742  32.483  1.00  0.00     0.124 S 
ATOM     88  O   UNL A   1      51.515  23.317  32.237  1.00  0.00    -0.237 OA
ATOM     89  O   UNL A   1      52.621  25.418  31.557  1.00  0.00    -0.237 OA
ATOM     90  O   UNL A   1      51.879  25.115  33.886  1.00  0.00    -0.744 OA
ENDBRANCH  86  87
ENDBRANCH  60  81
ENDBRANCH  34  35
ENDBRANCH  26  29
ENDBRANCH  24  25
ENDBRANCH   1  24
TORSDOF 16
ENDMDL
MODEL 2
REMARK VINA RESULT:     -10.7      4.365      9.867
REMARK SMILES Cc1cc(N2CCCC[C@H]2C(=O)NCCCCNC(=O)c2ccc(-c3c4nc(c(-c5ccc(S(=O)(=O)[O-])cc5)c5ccc([nH]5)c(-c5ccc(S(=O)(=O)[O-])cc5)c5nc(c(-c6ccc(S(=O)(=O)[O-])cc6)c6ccc3[nH]6)C=C5)C=C4)cc2)ncc1[N+](=O)[O-]
REMARK SMILES IDX 16 1 15 2 14 3 13 4 11 5 12 6 10 8 5 9 6 10 7 11 9 12 8 13
REMARK SMILES IDX 4 14 1 15 2 16 3 17 83 18 82 19 81 20 84 21 85 22 86 23
REMARK SMILES IDX 17 24 18 25 19 26 20 28 21 29 22 30 80 31 23 32 79 33 24 34
REMARK SMILES IDX 25 35 26 36 73 37 27 38 78 39 72 40 74 41 28 42 77 43 71 44
REMARK SMILES IDX 70 45 29 47 59 48 40 49 58 50 41 51 44 52 57 53 75 54 42 55
REMARK SMILES IDX 43 56 56 58 76 59 45 60 30 61 31 62 39 63 32 64 38 65 33 66
REMARK SMILES IDX 34 67 35 68 36 69 37 70 60 71 61 72 69 73 62 74 68 75 63 76
REMARK SMILES IDX 64 77 65 78 66 79 67 80 46 81 47 82 55 83 48 84 54 85 49 86
REMARK SMILES IDX 50 87 51 88 52 89 53 90
REMARK H PARENT 13 7 18 27 74 46 44 57
REMARK Flexibility Score: inf
ROOT
ATOM      1  C   UNL A   1      39.424  22.598  26.780  1.00  0.00     0.023 C 
ENDROOT
BRANCH   1   2
ATOM      2  C   UNL A   1      38.361  23.589  26.301  1.00  0.00     0.023 C 
BRANCH   2   3
ATOM      3  C   UNL A   1      37.177  22.965  25.571  1.00  0.00     0.116 C 
BRANCH   3   4
ATOM      4  N   UNL A   1      36.009  22.857  26.421  1.00  0.00    -0.354 N 
ATOM      5  C   UNL A   1      34.808  22.257  26.178  1.00  0.00     0.242 C 
ATOM      6  O   UNL A   1      33.997  22.248  27.110  1.00  0.00    -0.273 OA
ATOM      7  H   UNL A   1      36.095  23.278  27.306  1.00  0.00     0.163 HD
BRANCH   5   8
ATOM      8  C   UNL A   1      34.492  21.635  24.797  1.00  0.00     0.173 C 
ATOM      9  N   UNL A   1      33.239  20.869  24.786  1.00  0.00    -0.345 N 
ATOM     10  C   UNL A   1      32.003  21.594  25.045  1.00  0.00     0.119 C 
ATOM     11  C   UNL A   1      31.819  22.634  23.946  1.00  0.00     0.022 C 
ATOM     12  C   UNL A   1      34.355  22.736  23.720  1.00  0.00     0.035 C 
ATOM     13  C   UNL A   1      33.045  23.534  23.797  1.00  0.00     0.004 C 
BRANCH   9  14
ATOM     14  C   UNL A   1      33.229  19.505  24.947  1.00  0.00     0.129 A 
ATOM     15  C   UNL A   1      34.359  16.538  22.883  1.00  0.00     0.052 C 
ATOM     16  C   UNL A   1      33.737  17.304  24.015  1.00  0.00     0.032 A 
ATOM     17  C   UNL A   1      33.749  18.706  23.926  1.00  0.00     0.057 A 
ATOM     18  C   UNL A   1      33.120  16.751  25.140  1.00  0.00     0.290 A 
ATOM     19  C   UNL A   1      32.638  17.603  26.127  1.00  0.00     0.199 A 
ATOM     20  N   UNL A   1      32.704  18.958  26.055  1.00  0.00    -0.232 NA
BRANCH  18  21
ATOM     21  N   UNL A   1      32.932  15.322  25.338  1.00  0.00     0.064 N 
ATOM     22  O   UNL A   1      33.945  14.608  25.317  1.00  0.00    -0.258 OA
ATOM     23  O   UNL A   1      31.783  14.908  25.536  1.00  0.00    -0.258 OA
ENDBRANCH  18  21
ENDBRANCH   9  14
ENDBRANCH   5   8
ENDBRANCH   3   4
ENDBRANCH   2   3
ENDBRANCH   1   2
BRANCH   1  24
ATOM     24  C   UNL A   1      40.784  23.202  27.112  1.00  0.00     0.116 C 
BRANCH  24  25
ATOM     25  N   UNL A   1      41.328  24.004  26.027  1.00  0.00    -0.352 N 
ATOM     26  C   UNL A   1      41.645  25.341  26.012  1.00  0.00     0.251 C 
ATOM     27  H   UNL A   1      41.494  23.520  25.185  1.00  0.00     0.163 HD
ATOM     28  O   UNL A   1      41.968  25.884  24.958  1.00  0.00    -0.269 OA
BRANCH  26  29
ATOM     29  C   UNL A   1      41.564  26.130  27.259  1.00  0.00     0.039 A 
ATOM     30  C   UNL A   1      42.612  26.997  27.581  1.00  0.00     0.014 A 
ATOM     31  C   UNL A   1      40.448  26.035  28.096  1.00  0.00     0.014 A 
ATOM     32  C   UNL A   1      42.507  27.822  28.703  1.00  0.00     0.010 A 
ATOM     33  C   UNL A   1      40.315  26.908  29.171  1.00  0.00     0.010 A 
ATOM     34  C   UNL A   1      41.341  27.813  29.485  1.00  0.00    -0.014 A 
BRANCH  34  35
ATOM     35  C   UNL A   1      41.167  28.754  30.622  1.00  0.00     0.031 A 
ATOM     36  C   UNL A   1      41.999  28.604  31.866  1.00  0.00     0.074 A 
ATOM     37  C   UNL A   1      40.198  29.690  30.568  1.00  0.00     0.049 A 
ATOM     38  N   UNL A   1      41.942  29.285  32.982  1.00  0.00    -0.248 NA
ATOM     39  C   UNL A   1      43.006  27.532  31.867  1.00  0.00     0.031 C 
ATOM     40  C   UNL A   1      39.282  29.899  29.444  1.00  0.00     0.029 A 
ATOM     41  N   UNL A   1      39.811  30.630  31.490  1.00  0.00    -0.354 N 
ATOM     42  C   UNL A   1      42.882  28.706  33.826  1.00  0.00     0.074 A 
ATOM     43  C   UNL A   1      43.466  27.594  33.108  1.00  0.00     0.031 C 
ATOM     44  C   UNL A   1      38.449  30.911  29.738  1.00  0.00     0.029 A 
ATOM     45  C   UNL A   1      38.746  31.400  31.081  1.00  0.00     0.049 A 
ATOM     46  H   UNL A   1      40.252  30.744  32.363  1.00  0.00     0.167 HD
ATOM     47  C   UNL A   1      43.238  29.073  35.081  1.00  0.00     0.031 A 
ATOM     48  C   UNL A   1      38.074  32.380  31.715  1.00  0.00     0.031 A 
ATOM     49  C   UNL A   1      42.667  30.190  35.786  1.00  0.00     0.049 A 
ATOM     50  C   UNL A   1      38.504  32.792  33.096  1.00  0.00     0.074 A 
ATOM     51  C   UNL A   1      43.018  30.694  37.027  1.00  0.00     0.029 A 
ATOM     52  N   UNL A   1      41.621  30.971  35.319  1.00  0.00    -0.354 N 
ATOM     53  N   UNL A   1      39.459  32.290  33.843  1.00  0.00    -0.248 NA
ATOM     54  C   UNL A   1      37.778  33.911  33.711  1.00  0.00     0.031 C 
ATOM     55  C   UNL A   1      42.149  31.747  37.333  1.00  0.00     0.029 A 
ATOM     56  C   UNL A   1      41.294  31.936  36.258  1.00  0.00     0.049 A 
ATOM     57  H   UNL A   1      41.175  30.857  34.449  1.00  0.00     0.167 HD
ATOM     58  C   UNL A   1      39.461  33.046  35.009  1.00  0.00     0.074 A 
ATOM     59  C   UNL A   1      38.424  34.048  34.862  1.00  0.00     0.031 C 
ATOM     60  C   UNL A   1      40.255  32.923  36.103  1.00  0.00     0.031 A 
BRANCH  47  61
ATOM     61  C   UNL A   1      44.287  28.244  35.775  1.00  0.00    -0.014 A 
ATOM     62  C   UNL A   1      43.936  27.150  36.587  1.00  0.00     0.010 A 
ATOM     63  C   UNL A   1      45.648  28.554  35.599  1.00  0.00     0.010 A 
ATOM     64  C   UNL A   1      44.920  26.417  37.252  1.00  0.00     0.020 A 
ATOM     65  C   UNL A   1      46.639  27.805  36.239  1.00  0.00     0.020 A 
ATOM     66  C   UNL A   1      46.267  26.754  37.080  1.00  0.00     0.054 A 
BRANCH  66  67
ATOM     67  S   UNL A   1      47.526  25.786  37.956  1.00  0.00     0.124 S 
ATOM     68  O   UNL A   1      47.225  26.093  39.351  1.00  0.00    -0.237 OA
ATOM     69  O   UNL A   1      47.229  24.417  37.537  1.00  0.00    -0.237 OA
ATOM     70  O   UNL A   1      48.788  26.327  37.457  1.00  0.00    -0.744 OA
ENDBRANCH  66  67
ENDBRANCH  47  61
BRANCH  48  71
ATOM     71  C   UNL A   1      36.931  33.045  31.032  1.00  0.00    -0.014 A 
ATOM     72  C   UNL A   1      37.144  33.852  29.902  1.00  0.00     0.010 A 
ATOM     73  C   UNL A   1      35.615  32.835  31.486  1.00  0.00     0.010 A 
ATOM     74  C   UNL A   1      36.063  34.439  29.238  1.00  0.00     0.020 A 
ATOM     75  C   UNL A   1      34.530  33.400  30.809  1.00  0.00     0.020 A 
ATOM     76  C   UNL A   1      34.762  34.204  29.693  1.00  0.00     0.054 A 
BRANCH  76  77
ATOM     77  S   UNL A   1      33.370  34.909  28.766  1.00  0.00     0.124 S 
ATOM     78  O   UNL A   1      33.958  36.122  28.208  1.00  0.00    -0.237 OA
ATOM     79  O   UNL A   1      33.062  33.853  27.805  1.00  0.00    -0.237 OA
ATOM     80  O   UNL A   1      32.350  35.121  29.792  1.00  0.00    -0.744 OA
ENDBRANCH  76  77
ENDBRANCH  48  71
BRANCH  60  81
ATOM     81  C   UNL A   1      40.053  33.909  37.222  1.00  0.00    -0.014 A 
ATOM     82  C   UNL A   1      40.767  35.119  37.267  1.00  0.00     0.010 A 
ATOM     83  C   UNL A   1      39.088  33.645  38.212  1.00  0.00     0.010 A 
ATOM     84  C   UNL A   1      40.539  36.035  38.296  1.00  0.00     0.020 A 
ATOM     85  C   UNL A   1      38.839  34.571  39.228  1.00  0.00     0.020 A 
ATOM     86  C   UNL A   1      39.576  35.756  39.271  1.00  0.00     0.054 A 
BRANCH  86  87
ATOM     87  S   UNL A   1      39.264  36.982  40.571  1.00  0.00     0.124 S 
ATOM     88  O   UNL A   1      38.570  36.185  41.579  1.00  0.00    -0.237 OA
ATOM     89  O   UNL A   1      40.612  37.417  40.933  1.00  0.00    -0.237 OA
ATOM     90  O   UNL A   1      38.448  37.994  39.905  1.00  0.00    -0.744 OA
ENDBRANCH  86  87
ENDBRANCH  60  81
ENDBRANCH  34  35
ENDBRANCH  26  29
ENDBRANCH  24  25
ENDBRANCH   1  24
TORSDOF 16
ENDMDL
MODEL 3
REMARK VINA RESULT:     -10.4      4.845      7.009
REMARK SMILES Cc1cc(N2CCCC[C@H]2C(=O)NCCCCNC(=O)c2ccc(-c3c4nc(c(-c5ccc(S(=O)(=O)[O-])cc5)c5ccc([nH]5)c(-c5ccc(S(=O)(=O)[O-])cc5)c5nc(c(-c6ccc(S(=O)(=O)[O-])cc6)c6ccc3[nH]6)C=C5)C=C4)cc2)ncc1[N+](=O)[O-]
REMARK SMILES IDX 16 1 15 2 14 3 13 4 11 5 12 6 10 8 5 9 6 10 7 11 9 12 8 13
REMARK SMILES IDX 4 14 1 15 2 16 3 17 83 18 82 19 81 20 84 21 85 22 86 23
REMARK SMILES IDX 17 24 18 25 19 26 20 28 21 29 22 30 80 31 23 32 79 33 24 34
REMARK SMILES IDX 25 35 26 36 73 37 27 38 78 39 72 40 74 41 28 42 77 43 71 44
REMARK SMILES IDX 70 45 29 47 59 48 40 49 58 50 41 51 44 52 57 53 75 54 42 55
REMARK SMILES IDX 43 56 56 58 76 59 45 60 30 61 31 62 39 63 32 64 38 65 33 66
REMARK SMILES IDX 34 67 35 68 36 69 37 70 60 71 61 72 69 73 62 74 68 75 63 76
REMARK SMILES IDX 64 77 65 78 66 79 67 80 46 81 47 82 55 83 48 84 54 85 49 86
REMARK SMILES IDX 50 87 51 88 52 89 53 90
REMARK H PARENT 13 7 18 27 74 46 44 57
REMARK Flexibility Score: inf
ROOT
ATOM      1  C   UNL A   1      32.003  31.286  26.958  1.00  0.00     0.023 C 
ENDROOT
BRANCH   1   2
ATOM      2  C   UNL A   1      32.288  30.010  26.164  1.00  0.00     0.023 C 
BRANCH   2   3
ATOM      3  C   UNL A   1      32.093  28.710  26.937  1.00  0.00     0.116 C 
BRANCH   3   4
ATOM      4  N   UNL A   1      32.972  27.659  26.465  1.00  0.00    -0.354 N 
ATOM      5  C   UNL A   1      32.673  26.514  25.787  1.00  0.00     0.242 C 
ATOM      6  O   UNL A   1      33.629  25.814  25.438  1.00  0.00    -0.273 OA
ATOM      7  H   UNL A   1      33.927  27.792  26.662  1.00  0.00     0.163 HD
BRANCH   5   8
ATOM      8  C   UNL A   1      31.205  26.123  25.489  1.00  0.00     0.173 C 
ATOM      9  N   UNL A   1      30.865  26.217  24.063  1.00  0.00    -0.345 N 
ATOM     10  C   UNL A   1      31.571  25.338  23.142  1.00  0.00     0.119 C 
ATOM     11  C   UNL A   1      31.246  23.895  23.513  1.00  0.00     0.022 C 
ATOM     12  C   UNL A   1      30.929  24.664  25.922  1.00  0.00     0.035 C 
ATOM     13  C   UNL A   1      31.530  23.605  24.986  1.00  0.00     0.004 C 
BRANCH   9  14
ATOM     14  C   UNL A   1      30.246  27.327  23.544  1.00  0.00     0.129 A 
ATOM     15  C   UNL A   1      26.678  28.580  23.344  1.00  0.00     0.052 C 
ATOM     16  C   UNL A   1      28.162  28.533  23.123  1.00  0.00     0.032 A 
ATOM     17  C   UNL A   1      28.858  27.439  23.663  1.00  0.00     0.057 A 
ATOM     18  C   UNL A   1      28.916  29.465  22.406  1.00  0.00     0.290 A 
ATOM     19  C   UNL A   1      30.295  29.305  22.340  1.00  0.00     0.199 A 
ATOM     20  N   UNL A   1      30.964  28.270  22.912  1.00  0.00    -0.232 NA
BRANCH  18  21
ATOM     21  N   UNL A   1      28.339  30.599  21.700  1.00  0.00     0.064 N 
ATOM     22  O   UNL A   1      28.200  31.653  22.335  1.00  0.00    -0.258 OA
ATOM     23  O   UNL A   1      28.043  30.452  20.507  1.00  0.00    -0.258 OA
ENDBRANCH  18  21
ENDBRANCH   9  14
ENDBRANCH   5   8
ENDBRANCH   3   4
ENDBRANCH   2   3
ENDBRANCH   1   2
BRANCH   1  24
ATOM     24  C   UNL A   1      33.228  32.113  27.335  1.00  0.00     0.116 C 
BRANCH  24  25
ATOM     25  N   UNL A   1      32.907  33.503  27.620  1.00  0.00    -0.352 N 
ATOM     26  C   UNL A   1      33.418  34.330  28.591  1.00  0.00     0.251 C 
ATOM     27  H   UNL A   1      32.229  33.910  27.032  1.00  0.00     0.163 HD
ATOM     28  O   UNL A   1      32.927  35.441  28.773  1.00  0.00    -0.269 OA
BRANCH  26  29
ATOM     29  C   UNL A   1      34.537  33.864  29.438  1.00  0.00     0.039 A 
ATOM     30  C   UNL A   1      34.259  33.045  30.536  1.00  0.00     0.014 A 
ATOM     31  C   UNL A   1      35.857  34.213  29.137  1.00  0.00     0.014 A 
ATOM     32  C   UNL A   1      35.311  32.515  31.287  1.00  0.00     0.010 A 
ATOM     33  C   UNL A   1      36.903  33.627  29.843  1.00  0.00     0.010 A 
ATOM     34  C   UNL A   1      36.643  32.770  30.923  1.00  0.00    -0.014 A 
BRANCH  34  35
ATOM     35  C   UNL A   1      37.775  32.135  31.647  1.00  0.00     0.031 A 
ATOM     36  C   UNL A   1      38.223  32.675  32.978  1.00  0.00     0.074 A 
ATOM     37  C   UNL A   1      38.456  31.128  31.064  1.00  0.00     0.049 A 
ATOM     38  N   UNL A   1      39.231  32.297  33.722  1.00  0.00    -0.248 NA
ATOM     39  C   UNL A   1      37.458  33.804  33.529  1.00  0.00     0.031 C 
ATOM     40  C   UNL A   1      38.161  30.555  29.749  1.00  0.00     0.029 A 
ATOM     41  N   UNL A   1      39.549  30.420  31.497  1.00  0.00    -0.354 N 
ATOM     42  C   UNL A   1      39.239  33.158  34.813  1.00  0.00     0.074 A 
ATOM     43  C   UNL A   1      38.161  34.103  34.612  1.00  0.00     0.031 C 
ATOM     44  C   UNL A   1      39.042  29.575  29.489  1.00  0.00     0.029 A 
ATOM     45  C   UNL A   1      39.985  29.473  30.598  1.00  0.00     0.049 A 
ATOM     46  H   UNL A   1      39.981  30.573  32.368  1.00  0.00     0.167 HD
ATOM     47  C   UNL A   1      40.059  33.157  35.891  1.00  0.00     0.031 A 
ATOM     48  C   UNL A   1      41.031  28.626  30.651  1.00  0.00     0.031 A 
ATOM     49  C   UNL A   1      41.120  32.205  36.096  1.00  0.00     0.049 A 
ATOM     50  C   UNL A   1      41.911  28.621  31.870  1.00  0.00     0.074 A 
ATOM     51  C   UNL A   1      41.951  32.069  37.194  1.00  0.00     0.029 A 
ATOM     52  N   UNL A   1      41.501  31.236  35.182  1.00  0.00    -0.354 N 
ATOM     53  N   UNL A   1      41.846  29.384  32.935  1.00  0.00    -0.248 NA
ATOM     54  C   UNL A   1      42.996  27.630  31.902  1.00  0.00     0.031 C 
ATOM     55  C   UNL A   1      42.870  31.049  36.921  1.00  0.00     0.029 A 
ATOM     56  C   UNL A   1      42.574  30.513  35.677  1.00  0.00     0.049 A 
ATOM     57  H   UNL A   1      41.073  31.082  34.309  1.00  0.00     0.167 HD
ATOM     58  C   UNL A   1      42.867  28.952  33.772  1.00  0.00     0.074 A 
ATOM     59  C   UNL A   1      43.526  27.851  33.098  1.00  0.00     0.031 C 
ATOM     60  C   UNL A   1      43.225  29.424  34.993  1.00  0.00     0.031 A 
BRANCH  47  61
ATOM     61  C   UNL A   1      39.847  34.231  36.926  1.00  0.00    -0.014 A 
ATOM     62  C   UNL A   1      40.456  35.494  36.805  1.00  0.00     0.010 A 
ATOM     63  C   UNL A   1      39.010  33.980  38.029  1.00  0.00     0.010 A 
ATOM     64  C   UNL A   1      40.278  36.464  37.794  1.00  0.00     0.020 A 
ATOM     65  C   UNL A   1      38.805  34.958  39.005  1.00  0.00     0.020 A 
ATOM     66  C   UNL A   1      39.458  36.187  38.892  1.00  0.00     0.054 A 
BRANCH  66  67
ATOM     67  S   UNL A   1      39.243  37.464  40.163  1.00  0.00     0.124 S 
ATOM     68  O   UNL A   1      40.558  38.100  40.175  1.00  0.00    -0.237 OA
ATOM     69  O   UNL A   1      38.159  38.279  39.619  1.00  0.00    -0.237 OA
ATOM     70  O   UNL A   1      38.906  36.705  41.364  1.00  0.00    -0.744 OA
ENDBRANCH  66  67
ENDBRANCH  47  61
BRANCH  48  71
ATOM     71  C   UNL A   1      41.285  27.704  29.512  1.00  0.00    -0.014 A 
ATOM     72  C   UNL A   1      42.274  28.000  28.559  1.00  0.00     0.010 A 
ATOM     73  C   UNL A   1      40.567  26.498  29.402  1.00  0.00     0.010 A 
ATOM     74  C   UNL A   1      42.540  27.109  27.515  1.00  0.00     0.020 A 
ATOM     75  C   UNL A   1      40.847  25.594  28.373  1.00  0.00     0.020 A 
ATOM     76  C   UNL A   1      41.828  25.908  27.433  1.00  0.00     0.054 A 
BRANCH  76  77
ATOM     77  S   UNL A   1      42.247  24.730  26.117  1.00  0.00     0.124 S 
ATOM     78  O   UNL A   1      41.127  23.797  26.174  1.00  0.00    -0.237 OA
ATOM     79  O   UNL A   1      42.300  25.584  24.933  1.00  0.00    -0.237 OA
ATOM     80  O   UNL A   1      43.537  24.189  26.541  1.00  0.00    -0.744 OA
ENDBRANCH  76  77
ENDBRANCH  48  71
BRANCH  60  81
ATOM     81  C   UNL A   1      44.367  28.739  35.695  1.00  0.00    -0.014 A 
ATOM     82  C   UNL A   1      45.700  29.117  35.461  1.00  0.00     0.010 A 
ATOM     83  C   UNL A   1      44.095  27.741  36.649  1.00  0.00     0.010 A 
ATOM     84  C   UNL A   1      46.743  28.492  36.149  1.00  0.00     0.020 A 
ATOM     85  C   UNL A   1      45.133  27.131  37.358  1.00  0.00     0.020 A 
ATOM     86  C   UNL A   1      46.453  27.502  37.094  1.00  0.00     0.054 A 
BRANCH  86  87
ATOM     87  S   UNL A   1      47.819  26.737  38.008  1.00  0.00     0.124 S 
ATOM     88  O   UNL A   1      47.582  27.217  39.366  1.00  0.00    -0.237 OA
ATOM     89  O   UNL A   1      47.589  25.310  37.797  1.00  0.00    -0.237 OA
ATOM     90  O   UNL A   1      49.014  27.271  37.359  1.00  0.00    -0.744 OA
ENDBRANCH  86  87
ENDBRANCH  60  81
ENDBRANCH  34  35
ENDBRANCH  26  29
ENDBRANCH  24  25
ENDBRANCH   1  24
TORSDOF 16
ENDMDL
