MODEL 1
REMARK VINA RESULT:     -13.3      0.000      0.000
REMARK SMILES Cc1ccc([C@@H](C)Nc2ccc(N)cc2C(=O)NCCCCNC(=O)c2ccc(-c3c4nc(c(-c5ccc(S(=O)(=O)[O-])cc5)c5ccc([nH]5)c(-c5ccc(S(=O)(=O)[O-])cc5)c5nc(c(-c6ccc(S(=O)(=O)[O-])cc6)c6ccc3[nH]6)C=C5)C=C4)cc2)cc1F
REMARK SMILES IDX 20 1 19 2 18 3 16 4 17 5 15 7 9 8 10 9 11 10 14 11 12 12
REMARK SMILES IDX 8 13 6 15 7 16 5 17 1 18 2 19 3 20 87 21 4 22 86 23 88 24
REMARK SMILES IDX 13 25 21 28 22 29 23 30 24 31 25 33 26 34 27 35 85 36 28 37
REMARK SMILES IDX 84 38 29 39 30 40 31 41 78 42 32 43 83 44 77 45 79 46 33 47
REMARK SMILES IDX 82 48 76 49 75 50 34 52 64 53 45 54 63 55 46 56 49 57 62 58
REMARK SMILES IDX 80 59 47 60 48 61 61 63 81 64 50 65 35 66 36 67 44 68 37 69
REMARK SMILES IDX 43 70 38 71 39 72 40 73 41 74 42 75 65 76 66 77 74 78 67 79
REMARK SMILES IDX 73 80 68 81 69 82 70 83 71 84 72 85 51 86 52 87 60 88 53 89
REMARK SMILES IDX 59 90 54 91 55 92 56 93 57 94 58 95
REMARK H PARENT 18 6 8 14 13 26 13 27 23 32 79 51 49 62
REMARK Flexibility Score: inf
ROOT
ATOM      1  C   UNL A   1      36.221  23.093  25.204  1.00  0.00     0.023 C 
ENDROOT
BRANCH   1   2
ATOM      2  C   UNL A   1      35.807  22.712  23.560  1.00  0.00     0.116 C 
BRANCH   2   3
ATOM      3  N   UNL A   1      34.761  23.445  22.856  1.00  0.00    -0.352 N 
ATOM      4  C   UNL A   1      33.393  23.397  22.979  1.00  0.00     0.253 C 
ATOM      5  O   UNL A   1      32.701  24.229  22.394  1.00  0.00    -0.269 OA
ATOM      6  H   UNL A   1      35.089  24.081  22.180  1.00  0.00     0.163 HD
BRANCH   4   7
ATOM      7  C   UNL A   1      32.746  22.262  23.670  1.00  0.00     0.065 A 
ATOM      8  C   UNL A   1      32.637  22.119  25.057  1.00  0.00     0.048 A 
ATOM      9  C   UNL A   1      32.574  20.788  25.513  1.00  0.00     0.028 A 
ATOM     10  C   UNL A   1      32.446  19.696  24.639  1.00  0.00     0.027 A 
ATOM     11  C   UNL A   1      32.457  21.189  22.798  1.00  0.00     0.041 A 
ATOM     12  C   UNL A   1      32.265  19.901  23.278  1.00  0.00     0.032 A 
BRANCH   8  13
ATOM     13  N   UNL A   1      32.587  23.123  26.008  1.00  0.00    -0.378 N 
ATOM     14  H   UNL A   1      33.467  23.399  26.351  1.00  0.00     0.161 HD
BRANCH  13  15
ATOM     15  C   UNL A   1      31.454  23.850  26.596  1.00  0.00     0.106 C 
ATOM     16  C   UNL A   1      30.245  22.991  26.935  1.00  0.00     0.036 C 
BRANCH  15  17
ATOM     17  C   UNL A   1      31.283  25.210  25.932  1.00  0.00    -0.023 A 
ATOM     18  C   UNL A   1      30.357  29.506  23.303  1.00  0.00     0.047 C 
ATOM     19  C   UNL A   1      30.572  28.285  24.136  1.00  0.00    -0.015 A 
ATOM     20  C   UNL A   1      29.935  26.716  23.528  1.00  0.00     0.007 A 
ATOM     21  C   UNL A   1      31.603  28.313  25.619  1.00  0.00     0.126 A 
ATOM     22  C   UNL A   1      30.246  25.196  24.450  1.00  0.00     0.006 A 
ATOM     23  C   UNL A   1      31.966  26.782  26.519  1.00  0.00     0.045 A 
ATOM     24  F   UNL A   1      32.060  29.481  26.086  1.00  0.00    -0.207 F 
ENDBRANCH  15  17
ENDBRANCH  13  15
ENDBRANCH   8  13
BRANCH  12  25
ATOM     25  N   UNL A   1      32.107  18.840  22.400  1.00  0.00    -0.399 N 
ATOM     26  H   UNL A   1      32.884  18.290  22.148  1.00  0.00     0.156 HD
ATOM     27  H   UNL A   1      31.218  18.638  22.028  1.00  0.00     0.156 HD
ENDBRANCH  12  25
ENDBRANCH   4   7
ENDBRANCH   2   3
ENDBRANCH   1   2
BRANCH   1  28
ATOM     28  C   UNL A   1      37.773  24.204  26.262  1.00  0.00     0.023 C 
BRANCH  28  29
ATOM     29  C   UNL A   1      39.304  23.902  26.921  1.00  0.00     0.116 C 
BRANCH  29  30
ATOM     30  N   UNL A   1      40.460  24.328  26.120  1.00  0.00    -0.352 N 
ATOM     31  C   UNL A   1      41.093  25.544  26.052  1.00  0.00     0.251 C 
ATOM     32  H   UNL A   1      40.841  23.629  25.540  1.00  0.00     0.163 HD
ATOM     33  O   UNL A   1      41.764  25.831  25.064  1.00  0.00    -0.269 OA
BRANCH  31  34
ATOM     34  C   UNL A   1      41.001  26.476  27.187  1.00  0.00     0.039 A 
ATOM     35  C   UNL A   1      41.724  27.672  27.182  1.00  0.00     0.014 A 
ATOM     36  C   UNL A   1      40.215  26.125  28.287  1.00  0.00     0.014 A 
ATOM     37  C   UNL A   1      41.608  28.540  28.267  1.00  0.00     0.010 A 
ATOM     38  C   UNL A   1      40.006  27.038  29.301  1.00  0.00     0.010 A 
ATOM     39  C   UNL A   1      40.725  28.238  29.316  1.00  0.00    -0.014 A 
BRANCH  39  40
ATOM     40  C   UNL A   1      40.561  29.133  30.481  1.00  0.00     0.031 A 
ATOM     41  C   UNL A   1      41.428  28.925  31.692  1.00  0.00     0.074 A 
ATOM     42  C   UNL A   1      39.584  30.058  30.462  1.00  0.00     0.049 A 
ATOM     43  N   UNL A   1      41.393  29.539  32.844  1.00  0.00    -0.248 NA
ATOM     44  C   UNL A   1      42.441  27.855  31.614  1.00  0.00     0.031 C 
ATOM     45  C   UNL A   1      38.659  30.290  29.348  1.00  0.00     0.029 A 
ATOM     46  N   UNL A   1      39.202  30.973  31.406  1.00  0.00    -0.354 N 
ATOM     47  C   UNL A   1      42.359  28.917  33.628  1.00  0.00     0.074 A 
ATOM     48  C   UNL A   1      42.909  27.832  32.852  1.00  0.00     0.031 C 
ATOM     49  C   UNL A   1      37.848  31.313  29.657  1.00  0.00     0.029 A 
ATOM     50  C   UNL A   1      38.155  31.771  31.006  1.00  0.00     0.049 A 
ATOM     51  H   UNL A   1      39.635  31.052  32.287  1.00  0.00     0.167 HD
ATOM     52  C   UNL A   1      42.768  29.245  34.875  1.00  0.00     0.031 A 
ATOM     53  C   UNL A   1      37.518  32.757  31.664  1.00  0.00     0.031 A 
ATOM     54  C   UNL A   1      42.207  30.338  35.619  1.00  0.00     0.049 A 
ATOM     55  C   UNL A   1      37.986  33.097  33.052  1.00  0.00     0.074 A 
ATOM     56  C   UNL A   1      42.570  30.808  36.867  1.00  0.00     0.029 A 
ATOM     57  N   UNL A   1      41.158  31.134  35.177  1.00  0.00    -0.354 N 
ATOM     58  N   UNL A   1      38.952  32.549  33.753  1.00  0.00    -0.248 NA
ATOM     59  C   UNL A   1      37.291  34.196  33.732  1.00  0.00     0.031 C 
ATOM     60  C   UNL A   1      41.694  31.841  37.210  1.00  0.00     0.029 A 
ATOM     61  C   UNL A   1      40.839  32.072  36.141  1.00  0.00     0.049 A 
ATOM     62  H   UNL A   1      40.708  31.042  34.306  1.00  0.00     0.167 HD
ATOM     63  C   UNL A   1      39.002  33.257  34.947  1.00  0.00     0.074 A 
ATOM     64  C   UNL A   1      37.981  34.284  34.861  1.00  0.00     0.031 C 
ATOM     65  C   UNL A   1      39.814  33.080  36.019  1.00  0.00     0.031 A 
BRANCH  52  66
ATOM     66  C   UNL A   1      43.857  28.410  35.500  1.00  0.00    -0.014 A 
ATOM     67  C   UNL A   1      43.555  27.288  36.295  1.00  0.00     0.010 A 
ATOM     68  C   UNL A   1      45.205  28.734  35.267  1.00  0.00     0.010 A 
ATOM     69  C   UNL A   1      44.577  26.535  36.879  1.00  0.00     0.020 A 
ATOM     70  C   UNL A   1      46.232  27.962  35.818  1.00  0.00     0.020 A 
ATOM     71  C   UNL A   1      45.910  26.874  36.633  1.00  0.00     0.054 A 
BRANCH  71  72
ATOM     72  S   UNL A   1      47.214  25.853  37.371  1.00  0.00     0.124 S 
ATOM     73  O   UNL A   1      46.526  24.578  37.565  1.00  0.00    -0.237 OA
ATOM     74  O   UNL A   1      48.244  25.858  36.336  1.00  0.00    -0.237 OA
ATOM     75  O   UNL A   1      47.561  26.564  38.598  1.00  0.00    -0.744 OA
ENDBRANCH  71  72
ENDBRANCH  52  66
BRANCH  53  76
ATOM     76  C   UNL A   1      36.400  33.490  31.011  1.00  0.00    -0.014 A 
ATOM     77  C   UNL A   1      35.226  33.794  31.725  1.00  0.00     0.010 A 
ATOM     78  C   UNL A   1      36.509  33.912  29.673  1.00  0.00     0.010 A 
ATOM     79  C   UNL A   1      34.177  34.483  31.107  1.00  0.00     0.020 A 
ATOM     80  C   UNL A   1      35.477  34.632  29.062  1.00  0.00     0.020 A 
ATOM     81  C   UNL A   1      34.311  34.900  29.781  1.00  0.00     0.054 A 
BRANCH  81  82
ATOM     82  S   UNL A   1      32.952  35.826  29.016  1.00  0.00     0.124 S 
ATOM     83  O   UNL A   1      33.662  36.914  28.351  1.00  0.00    -0.237 OA
ATOM     84  O   UNL A   1      32.351  34.828  28.134  1.00  0.00    -0.237 OA
ATOM     85  O   UNL A   1      32.124  36.222  30.153  1.00  0.00    -0.744 OA
ENDBRANCH  81  82
ENDBRANCH  53  76
BRANCH  65  86
ATOM     86  C   UNL A   1      39.661  34.044  37.163  1.00  0.00    -0.014 A 
ATOM     87  C   UNL A   1      38.875  33.732  38.285  1.00  0.00     0.010 A 
ATOM     88  C   UNL A   1      40.374  35.258  37.136  1.00  0.00     0.010 A 
ATOM     89  C   UNL A   1      38.775  34.634  39.345  1.00  0.00     0.020 A 
ATOM     90  C   UNL A   1      40.308  36.143  38.211  1.00  0.00     0.020 A 
ATOM     91  C   UNL A   1      39.496  35.832  39.303  1.00  0.00     0.054 A 
BRANCH  91  92
ATOM     92  S   UNL A   1      39.386  36.961  40.716  1.00  0.00     0.124 S 
ATOM     93  O   UNL A   1      40.793  37.241  40.991  1.00  0.00    -0.237 OA
ATOM     94  O   UNL A   1      38.618  38.078  40.170  1.00  0.00    -0.237 OA
ATOM     95  O   UNL A   1      38.696  36.175  41.736  1.00  0.00    -0.744 OA
ENDBRANCH  91  92
ENDBRANCH  65  86
ENDBRANCH  39  40
ENDBRANCH  31  34
ENDBRANCH  29  30
ENDBRANCH  28  29
ENDBRANCH   1  28
TORSDOF 18
ENDMDL
MODEL 2
REMARK VINA RESULT:     -13.0      6.409     12.001
REMARK SMILES Cc1ccc([C@@H](C)Nc2ccc(N)cc2C(=O)NCCCCNC(=O)c2ccc(-c3c4nc(c(-c5ccc(S(=O)(=O)[O-])cc5)c5ccc([nH]5)c(-c5ccc(S(=O)(=O)[O-])cc5)c5nc(c(-c6ccc(S(=O)(=O)[O-])cc6)c6ccc3[nH]6)C=C5)C=C4)cc2)cc1F
REMARK SMILES IDX 20 1 19 2 18 3 16 4 17 5 15 7 9 8 10 9 11 10 14 11 12 12
REMARK SMILES IDX 8 13 6 15 7 16 5 17 1 18 2 19 3 20 87 21 4 22 86 23 88 24
REMARK SMILES IDX 13 25 21 28 22 29 23 30 24 31 25 33 26 34 27 35 85 36 28 37
REMARK SMILES IDX 84 38 29 39 30 40 31 41 78 42 32 43 83 44 77 45 79 46 33 47
REMARK SMILES IDX 82 48 76 49 75 50 34 52 64 53 45 54 63 55 46 56 49 57 62 58
REMARK SMILES IDX 80 59 47 60 48 61 61 63 81 64 50 65 35 66 36 67 44 68 37 69
REMARK SMILES IDX 43 70 38 71 39 72 40 73 41 74 42 75 65 76 66 77 74 78 67 79
REMARK SMILES IDX 73 80 68 81 69 82 70 83 71 84 72 85 51 86 52 87 60 88 53 89
REMARK SMILES IDX 59 90 54 91 55 92 56 93 57 94 58 95
REMARK H PARENT 18 6 8 14 13 26 13 27 23 32 79 51 49 62
REMARK Flexibility Score: inf
ROOT
ATOM      1  C   UNL A   1      32.939  29.302  25.809  1.00  0.00     0.023 C 
ENDROOT
BRANCH   1   2
ATOM      2  C   UNL A   1      32.356  28.482  24.393  1.00  0.00     0.116 C 
BRANCH   2   3
ATOM      3  N   UNL A   1      30.927  28.355  24.129  1.00  0.00    -0.352 N 
ATOM      4  C   UNL A   1      30.183  27.275  23.720  1.00  0.00     0.253 C 
ATOM      5  O   UNL A   1      28.954  27.349  23.717  1.00  0.00    -0.269 OA
ATOM      6  H   UNL A   1      30.408  29.180  24.268  1.00  0.00     0.163 HD
BRANCH   4   7
ATOM      7  C   UNL A   1      30.846  26.092  23.131  1.00  0.00     0.065 A 
ATOM      8  C   UNL A   1      31.344  25.004  23.855  1.00  0.00     0.048 A 
ATOM      9  C   UNL A   1      32.423  24.333  23.249  1.00  0.00     0.028 A 
ATOM     10  C   UNL A   1      32.850  24.616  21.940  1.00  0.00     0.027 A 
ATOM     11  C   UNL A   1      31.162  26.271  21.765  1.00  0.00     0.041 A 
ATOM     12  C   UNL A   1      32.140  25.506  21.146  1.00  0.00     0.032 A 
BRANCH   8  13
ATOM     13  N   UNL A   1      30.901  24.528  25.075  1.00  0.00    -0.378 N 
ATOM     14  H   UNL A   1      30.401  25.187  25.609  1.00  0.00     0.161 HD
BRANCH  13  15
ATOM     15  C   UNL A   1      31.041  23.214  25.717  1.00  0.00     0.106 C 
ATOM     16  C   UNL A   1      30.205  23.019  26.973  1.00  0.00     0.036 C 
BRANCH  15  17
ATOM     17  C   UNL A   1      32.487  22.739  25.661  1.00  0.00    -0.023 A 
ATOM     18  C   UNL A   1      37.146  20.666  25.180  1.00  0.00     0.047 C 
ATOM     19  C   UNL A   1      35.811  21.332  25.256  1.00  0.00    -0.015 A 
ATOM     20  C   UNL A   1      34.368  20.418  24.692  1.00  0.00     0.007 A 
ATOM     21  C   UNL A   1      35.591  22.933  26.064  1.00  0.00     0.126 A 
ATOM     22  C   UNL A   1      32.722  21.141  24.847  1.00  0.00     0.006 A 
ATOM     23  C   UNL A   1      33.935  23.640  26.274  1.00  0.00     0.045 A 
ATOM     24  F   UNL A   1      36.664  23.626  26.465  1.00  0.00    -0.207 F 
ENDBRANCH  15  17
ENDBRANCH  13  15
ENDBRANCH   8  13
BRANCH  12  25
ATOM     25  N   UNL A   1      32.524  25.779  19.843  1.00  0.00    -0.399 N 
ATOM     26  H   UNL A   1      31.898  25.614  19.101  1.00  0.00     0.156 HD
ATOM     27  H   UNL A   1      33.422  26.137  19.659  1.00  0.00     0.156 HD
ENDBRANCH  12  25
ENDBRANCH   4   7
ENDBRANCH   2   3
ENDBRANCH   1   2
BRANCH   1  28
ATOM     28  C   UNL A   1      34.716  29.272  27.076  1.00  0.00     0.023 C 
BRANCH  28  29
ATOM     29  C   UNL A   1      35.744  30.393  27.822  1.00  0.00     0.116 C 
BRANCH  29  30
ATOM     30  N   UNL A   1      35.680  30.469  29.288  1.00  0.00    -0.352 N 
ATOM     31  C   UNL A   1      36.498  29.917  30.242  1.00  0.00     0.251 C 
ATOM     32  H   UNL A   1      34.931  31.001  29.642  1.00  0.00     0.163 HD
ATOM     33  O   UNL A   1      36.081  29.749  31.385  1.00  0.00    -0.269 OA
BRANCH  31  34
ATOM     34  C   UNL A   1      37.888  29.575  29.898  1.00  0.00     0.039 A 
ATOM     35  C   UNL A   1      38.772  29.124  30.882  1.00  0.00     0.014 A 
ATOM     36  C   UNL A   1      38.320  29.751  28.581  1.00  0.00     0.014 A 
ATOM     37  C   UNL A   1      40.079  28.797  30.524  1.00  0.00     0.010 A 
ATOM     38  C   UNL A   1      39.574  29.313  28.206  1.00  0.00     0.010 A 
ATOM     39  C   UNL A   1      40.475  28.863  29.178  1.00  0.00    -0.014 A 
BRANCH  39  40
ATOM     40  C   UNL A   1      41.846  28.516  28.750  1.00  0.00     0.031 A 
ATOM     41  C   UNL A   1      42.889  29.597  28.690  1.00  0.00     0.074 A 
ATOM     42  C   UNL A   1      42.106  27.260  28.344  1.00  0.00     0.049 A 
ATOM     43  N   UNL A   1      44.123  29.528  28.266  1.00  0.00    -0.248 NA
ATOM     44  C   UNL A   1      42.481  30.947  29.123  1.00  0.00     0.031 C 
ATOM     45  C   UNL A   1      41.135  26.161  28.316  1.00  0.00     0.029 A 
ATOM     46  N   UNL A   1      43.261  26.694  27.875  1.00  0.00    -0.354 N 
ATOM     47  C   UNL A   1      44.624  30.821  28.363  1.00  0.00     0.074 A 
ATOM     48  C   UNL A   1      43.545  31.668  28.810  1.00  0.00     0.031 C 
ATOM     49  C   UNL A   1      41.749  25.043  27.897  1.00  0.00     0.029 A 
ATOM     50  C   UNL A   1      43.135  25.357  27.574  1.00  0.00     0.049 A 
ATOM     51  H   UNL A   1      44.100  27.196  27.762  1.00  0.00     0.167 HD
ATOM     52  C   UNL A   1      45.884  31.254  28.125  1.00  0.00     0.031 A 
ATOM     53  C   UNL A   1      44.042  24.491  27.088  1.00  0.00     0.031 A 
ATOM     54  C   UNL A   1      46.941  30.383  27.690  1.00  0.00     0.049 A 
ATOM     55  C   UNL A   1      45.433  24.997  26.825  1.00  0.00     0.074 A 
ATOM     56  C   UNL A   1      48.270  30.685  27.468  1.00  0.00     0.029 A 
ATOM     57  N   UNL A   1      46.780  29.032  27.410  1.00  0.00    -0.354 N 
ATOM     58  N   UNL A   1      45.914  26.209  26.991  1.00  0.00    -0.248 NA
ATOM     59  C   UNL A   1      46.407  24.022  26.323  1.00  0.00     0.031 C 
ATOM     60  C   UNL A   1      48.898  29.534  26.984  1.00  0.00     0.029 A 
ATOM     61  C   UNL A   1      47.980  28.493  26.986  1.00  0.00     0.049 A 
ATOM     62  H   UNL A   1      45.936  28.533  27.499  1.00  0.00     0.167 HD
ATOM     63  C   UNL A   1      47.257  26.134  26.644  1.00  0.00     0.074 A 
ATOM     64  C   UNL A   1      47.513  24.754  26.278  1.00  0.00     0.031 C 
ATOM     65  C   UNL A   1      48.196  27.112  26.629  1.00  0.00     0.031 A 
BRANCH  52  66
ATOM     66  C   UNL A   1      46.172  32.720  28.324  1.00  0.00    -0.014 A 
ATOM     67  C   UNL A   1      46.695  33.206  29.538  1.00  0.00     0.010 A 
ATOM     68  C   UNL A   1      45.944  33.625  27.273  1.00  0.00     0.010 A 
ATOM     69  C   UNL A   1      46.943  34.570  29.711  1.00  0.00     0.020 A 
ATOM     70  C   UNL A   1      46.225  34.986  27.427  1.00  0.00     0.020 A 
ATOM     71  C   UNL A   1      46.710  35.451  28.651  1.00  0.00     0.054 A 
BRANCH  71  72
ATOM     72  S   UNL A   1      47.080  37.210  28.892  1.00  0.00     0.124 S 
ATOM     73  O   UNL A   1      47.606  37.591  27.583  1.00  0.00    -0.237 OA
ATOM     74  O   UNL A   1      45.773  37.765  29.229  1.00  0.00    -0.237 OA
ATOM     75  O   UNL A   1      48.057  37.215  29.978  1.00  0.00    -0.744 OA
ENDBRANCH  71  72
ENDBRANCH  52  66
BRANCH  53  76
ATOM     76  C   UNL A   1      43.664  23.072  26.845  1.00  0.00    -0.014 A 
ATOM     77  C   UNL A   1      43.023  22.318  27.845  1.00  0.00     0.010 A 
ATOM     78  C   UNL A   1      43.922  22.468  25.600  1.00  0.00     0.010 A 
ATOM     79  C   UNL A   1      42.669  20.985  27.612  1.00  0.00     0.020 A 
ATOM     80  C   UNL A   1      43.538  21.147  25.351  1.00  0.00     0.020 A 
ATOM     81  C   UNL A   1      42.926  20.410  26.366  1.00  0.00     0.054 A 
BRANCH  81  82
ATOM     82  S   UNL A   1      42.422  18.691  26.077  1.00  0.00     0.124 S 
ATOM     83  O   UNL A   1      41.027  18.846  25.678  1.00  0.00    -0.237 OA
ATOM     84  O   UNL A   1      43.340  18.269  25.022  1.00  0.00    -0.237 OA
ATOM     85  O   UNL A   1      42.635  18.049  27.372  1.00  0.00    -0.744 OA
ENDBRANCH  81  82
ENDBRANCH  53  76
BRANCH  65  86
ATOM     86  C   UNL A   1      49.595  26.713  26.244  1.00  0.00    -0.014 A 
ATOM     87  C   UNL A   1      50.459  26.093  27.162  1.00  0.00     0.010 A 
ATOM     88  C   UNL A   1      50.023  26.909  24.917  1.00  0.00     0.010 A 
ATOM     89  C   UNL A   1      51.742  25.707  26.769  1.00  0.00     0.020 A 
ATOM     90  C   UNL A   1      51.289  26.489  24.511  1.00  0.00     0.020 A 
ATOM     91  C   UNL A   1      52.146  25.904  25.444  1.00  0.00     0.054 A 
BRANCH  91  92
ATOM     92  S   UNL A   1      53.798  25.348  24.950  1.00  0.00     0.124 S 
ATOM     93  O   UNL A   1      53.606  23.906  24.816  1.00  0.00    -0.237 OA
ATOM     94  O   UNL A   1      54.015  26.072  23.699  1.00  0.00    -0.237 OA
ATOM     95  O   UNL A   1      54.652  25.762  26.061  1.00  0.00    -0.744 OA
ENDBRANCH  91  92
ENDBRANCH  65  86
ENDBRANCH  39  40
ENDBRANCH  31  34
ENDBRANCH  29  30
ENDBRANCH  28  29
ENDBRANCH   1  28
TORSDOF 18
ENDMDL
MODEL 3
REMARK VINA RESULT:     -12.7      1.130      2.190
REMARK SMILES Cc1ccc([C@@H](C)Nc2ccc(N)cc2C(=O)NCCCCNC(=O)c2ccc(-c3c4nc(c(-c5ccc(S(=O)(=O)[O-])cc5)c5ccc([nH]5)c(-c5ccc(S(=O)(=O)[O-])cc5)c5nc(c(-c6ccc(S(=O)(=O)[O-])cc6)c6ccc3[nH]6)C=C5)C=C4)cc2)cc1F
REMARK SMILES IDX 20 1 19 2 18 3 16 4 17 5 15 7 9 8 10 9 11 10 14 11 12 12
REMARK SMILES IDX 8 13 6 15 7 16 5 17 1 18 2 19 3 20 87 21 4 22 86 23 88 24
REMARK SMILES IDX 13 25 21 28 22 29 23 30 24 31 25 33 26 34 27 35 85 36 28 37
REMARK SMILES IDX 84 38 29 39 30 40 31 41 78 42 32 43 83 44 77 45 79 46 33 47
REMARK SMILES IDX 82 48 76 49 75 50 34 52 64 53 45 54 63 55 46 56 49 57 62 58
REMARK SMILES IDX 80 59 47 60 48 61 61 63 81 64 50 65 35 66 36 67 44 68 37 69
REMARK SMILES IDX 43 70 38 71 39 72 40 73 41 74 42 75 65 76 66 77 74 78 67 79
REMARK SMILES IDX 73 80 68 81 69 82 70 83 71 84 72 85 51 86 52 87 60 88 53 89
REMARK SMILES IDX 59 90 54 91 55 92 56 93 57 94 58 95
REMARK H PARENT 18 6 8 14 13 26 13 27 23 32 79 51 49 62
REMARK Flexibility Score: inf
ROOT
ATOM      1  C   UNL A   1      35.818  23.828  25.058  1.00  0.00     0.023 C 
ENDROOT
BRANCH   1   2
ATOM      2  C   UNL A   1      34.390  22.908  25.419  1.00  0.00     0.116 C 
BRANCH   2   3
ATOM      3  N   UNL A   1      33.792  22.022  24.426  1.00  0.00    -0.352 N 
ATOM      4  C   UNL A   1      32.551  22.042  23.837  1.00  0.00     0.253 C 
ATOM      5  O   UNL A   1      32.314  21.286  22.895  1.00  0.00    -0.269 OA
ATOM      6  H   UNL A   1      34.375  21.287  24.128  1.00  0.00     0.163 HD
BRANCH   4   7
ATOM      7  C   UNL A   1      31.457  22.841  24.428  1.00  0.00     0.065 A 
ATOM      8  C   UNL A   1      31.131  24.152  24.067  1.00  0.00     0.048 A 
ATOM      9  C   UNL A   1      30.537  24.919  25.087  1.00  0.00     0.028 A 
ATOM     10  C   UNL A   1      30.135  24.361  26.313  1.00  0.00     0.027 A 
ATOM     11  C   UNL A   1      30.914  22.244  25.587  1.00  0.00     0.041 A 
ATOM     12  C   UNL A   1      30.213  22.991  26.522  1.00  0.00     0.032 A 
BRANCH   8  13
ATOM     13  N   UNL A   1      31.326  24.764  22.841  1.00  0.00    -0.378 N 
ATOM     14  H   UNL A   1      30.727  24.442  22.129  1.00  0.00     0.161 HD
BRANCH  13  15
ATOM     15  C   UNL A   1      32.267  25.808  22.413  1.00  0.00     0.106 C 
ATOM     16  C   UNL A   1      33.545  25.296  21.767  1.00  0.00     0.036 C 
BRANCH  15  17
ATOM     17  C   UNL A   1      32.306  26.946  23.425  1.00  0.00    -0.023 A 
ATOM     18  C   UNL A   1      31.939  30.971  26.570  1.00  0.00     0.047 C 
ATOM     19  C   UNL A   1      32.019  29.743  25.723  1.00  0.00    -0.015 A 
ATOM     20  C   UNL A   1      30.855  29.569  24.362  1.00  0.00     0.007 A 
ATOM     21  C   UNL A   1      33.355  28.543  25.911  1.00  0.00     0.126 A 
ATOM     22  C   UNL A   1      30.968  28.150  23.253  1.00  0.00     0.006 A 
ATOM     23  C   UNL A   1      33.508  27.146  24.766  1.00  0.00     0.045 A 
ATOM     24  F   UNL A   1      34.210  28.657  26.935  1.00  0.00    -0.207 F 
ENDBRANCH  15  17
ENDBRANCH  13  15
ENDBRANCH   8  13
BRANCH  12  25
ATOM     25  N   UNL A   1      29.795  22.415  27.712  1.00  0.00    -0.399 N 
ATOM     26  H   UNL A   1      29.165  21.659  27.698  1.00  0.00     0.156 HD
ATOM     27  H   UNL A   1      30.128  22.763  28.570  1.00  0.00     0.156 HD
ENDBRANCH  12  25
ENDBRANCH   4   7
ENDBRANCH   2   3
ENDBRANCH   1   2
BRANCH   1  28
ATOM     28  C   UNL A   1      37.606  24.514  26.108  1.00  0.00     0.023 C 
BRANCH  28  29
ATOM     29  C   UNL A   1      38.897  23.830  26.964  1.00  0.00     0.116 C 
BRANCH  29  30
ATOM     30  N   UNL A   1      40.229  23.958  26.357  1.00  0.00    -0.352 N 
ATOM     31  C   UNL A   1      41.116  25.006  26.374  1.00  0.00     0.251 C 
ATOM     32  H   UNL A   1      40.535  23.165  25.859  1.00  0.00     0.163 HD
ATOM     33  O   UNL A   1      41.980  25.092  25.505  1.00  0.00    -0.269 OA
BRANCH  31  34
ATOM     34  C   UNL A   1      41.052  25.994  27.463  1.00  0.00     0.039 A 
ATOM     35  C   UNL A   1      41.886  27.115  27.452  1.00  0.00     0.014 A 
ATOM     36  C   UNL A   1      40.177  25.769  28.528  1.00  0.00     0.014 A 
ATOM     37  C   UNL A   1      41.796  28.039  28.492  1.00  0.00     0.010 A 
ATOM     38  C   UNL A   1      40.003  26.743  29.491  1.00  0.00     0.010 A 
ATOM     39  C   UNL A   1      40.833  27.870  29.499  1.00  0.00    -0.014 A 
BRANCH  39  40
ATOM     40  C   UNL A   1      40.692  28.829  30.615  1.00  0.00     0.031 A 
ATOM     41  C   UNL A   1      41.569  28.674  31.827  1.00  0.00     0.074 A 
ATOM     42  C   UNL A   1      39.728  29.765  30.555  1.00  0.00     0.049 A 
ATOM     43  N   UNL A   1      41.554  29.350  32.945  1.00  0.00    -0.248 NA
ATOM     44  C   UNL A   1      42.567  27.588  31.798  1.00  0.00     0.031 C 
ATOM     45  C   UNL A   1      38.795  29.949  29.440  1.00  0.00     0.029 A 
ATOM     46  N   UNL A   1      39.368  30.735  31.452  1.00  0.00    -0.354 N 
ATOM     47  C   UNL A   1      42.520  28.759  33.752  1.00  0.00     0.074 A 
ATOM     48  C   UNL A   1      43.047  27.625  33.031  1.00  0.00     0.031 C 
ATOM     49  C   UNL A   1      38.000  30.999  29.700  1.00  0.00     0.029 A 
ATOM     50  C   UNL A   1      38.328  31.525  31.019  1.00  0.00     0.049 A 
ATOM     51  H   UNL A   1      39.811  30.855  32.323  1.00  0.00     0.167 HD
ATOM     52  C   UNL A   1      42.946  29.147  34.975  1.00  0.00     0.031 A 
ATOM     53  C   UNL A   1      37.711  32.554  31.629  1.00  0.00     0.031 A 
ATOM     54  C   UNL A   1      42.408  30.288  35.664  1.00  0.00     0.049 A 
ATOM     55  C   UNL A   1      38.197  32.962  32.991  1.00  0.00     0.074 A 
ATOM     56  C   UNL A   1      42.790  30.819  36.881  1.00  0.00     0.029 A 
ATOM     57  N   UNL A   1      41.365  31.073  35.189  1.00  0.00    -0.354 N 
ATOM     58  N   UNL A   1      39.163  32.439  33.712  1.00  0.00    -0.248 NA
ATOM     59  C   UNL A   1      37.525  34.106  33.618  1.00  0.00     0.031 C 
ATOM     60  C   UNL A   1      41.931  31.881  37.175  1.00  0.00     0.029 A 
ATOM     61  C   UNL A   1      41.069  32.066  36.104  1.00  0.00     0.049 A 
ATOM     62  H   UNL A   1      40.905  30.940  34.329  1.00  0.00     0.167 HD
ATOM     63  C   UNL A   1      39.235  33.211  34.865  1.00  0.00     0.074 A 
ATOM     64  C   UNL A   1      38.228  34.246  34.734  1.00  0.00     0.031 C 
ATOM     65  C   UNL A   1      40.056  33.080  35.937  1.00  0.00     0.031 A 
BRANCH  52  66
ATOM     66  C   UNL A   1      44.030  28.333  35.634  1.00  0.00    -0.014 A 
ATOM     67  C   UNL A   1      45.392  28.627  35.433  1.00  0.00     0.010 A 
ATOM     68  C   UNL A   1      43.683  27.272  36.489  1.00  0.00     0.010 A 
ATOM     69  C   UNL A   1      46.384  27.852  36.040  1.00  0.00     0.020 A 
ATOM     70  C   UNL A   1      44.671  26.517  37.128  1.00  0.00     0.020 A 
ATOM     71  C   UNL A   1      46.016  26.804  36.888  1.00  0.00     0.054 A 
BRANCH  71  72
ATOM     72  S   UNL A   1      47.326  25.842  37.693  1.00  0.00     0.124 S 
ATOM     73  O   UNL A   1      47.732  24.931  36.626  1.00  0.00    -0.237 OA
ATOM     74  O   UNL A   1      48.302  26.870  38.046  1.00  0.00    -0.237 OA
ATOM     75  O   UNL A   1      46.650  25.212  38.824  1.00  0.00    -0.744 OA
ENDBRANCH  71  72
ENDBRANCH  52  66
BRANCH  53  76
ATOM     76  C   UNL A   1      36.596  33.266  30.947  1.00  0.00    -0.014 A 
ATOM     77  C   UNL A   1      36.798  33.894  29.705  1.00  0.00     0.010 A 
ATOM     78  C   UNL A   1      35.313  33.300  31.525  1.00  0.00     0.010 A 
ATOM     79  C   UNL A   1      35.747  34.562  29.068  1.00  0.00     0.020 A 
ATOM     80  C   UNL A   1      34.251  33.936  30.874  1.00  0.00     0.020 A 
ATOM     81  C   UNL A   1      34.480  34.575  29.655  1.00  0.00     0.054 A 
BRANCH  81  82
ATOM     82  S   UNL A   1      33.125  35.415  28.789  1.00  0.00     0.124 S 
ATOM     83  O   UNL A   1      32.516  34.319  28.042  1.00  0.00    -0.237 OA
ATOM     84  O   UNL A   1      32.330  35.947  29.893  1.00  0.00    -0.237 OA
ATOM     85  O   UNL A   1      33.807  36.422  27.979  1.00  0.00    -0.744 OA
ENDBRANCH  81  82
ENDBRANCH  53  76
BRANCH  65  86
ATOM     86  C   UNL A   1      39.928  34.107  37.029  1.00  0.00    -0.014 A 
ATOM     87  C   UNL A   1      40.573  35.352  36.944  1.00  0.00     0.010 A 
ATOM     88  C   UNL A   1      39.090  33.838  38.127  1.00  0.00     0.010 A 
ATOM     89  C   UNL A   1      40.413  36.298  37.958  1.00  0.00     0.020 A 
ATOM     90  C   UNL A   1      38.895  34.795  39.122  1.00  0.00     0.020 A 
ATOM     91  C   UNL A   1      39.570  36.014  39.039  1.00  0.00     0.054 A 
BRANCH  91  92
ATOM     92  S   UNL A   1      39.341  37.279  40.315  1.00  0.00     0.124 S 
ATOM     93  O   UNL A   1      40.719  37.629  40.648  1.00  0.00    -0.237 OA
ATOM     94  O   UNL A   1      38.583  38.309  39.608  1.00  0.00    -0.237 OA
ATOM     95  O   UNL A   1      38.605  36.582  41.367  1.00  0.00    -0.744 OA
ENDBRANCH  91  92
ENDBRANCH  65  86
ENDBRANCH  39  40
ENDBRANCH  31  34
ENDBRANCH  29  30
ENDBRANCH  28  29
ENDBRANCH   1  28
TORSDOF 18
ENDMDL
