MODEL 1
REMARK VINA RESULT:      -9.8      0.000      0.000
REMARK SMILES CCCc1ccccc1OCC(=O)NCCCCNC(=O)c1ccc(-c2c3nc(c(-c4ccc(S(=O)(=O)[O-])cc4)c4ccc([nH]4)c(-c4ccc(S(=O)(=O)[O-])cc4)c4nc(c(-c5ccc(S(=O)(=O)[O-])cc5)c5ccc2[nH]5)C=C4)C=C3)cc1
REMARK SMILES IDX 16 1 15 2 14 3 12 4 13 5 11 7 10 8 9 9 4 10 5 11 6 12 8 13
REMARK SMILES IDX 7 14 3 15 2 16 1 17 17 18 18 19 19 20 20 21 21 23 22 24
REMARK SMILES IDX 23 25 81 26 24 27 80 28 25 29 26 30 27 31 74 32 28 33 79 34
REMARK SMILES IDX 73 35 75 36 29 37 78 38 72 39 71 40 30 42 60 43 41 44 59 45
REMARK SMILES IDX 42 46 45 47 58 48 76 49 43 50 44 51 57 53 77 54 46 55 31 56
REMARK SMILES IDX 32 57 40 58 33 59 39 60 34 61 35 62 36 63 37 64 38 65 61 66
REMARK SMILES IDX 62 67 70 68 63 69 69 70 64 71 65 72 66 73 67 74 68 75 47 76
REMARK SMILES IDX 48 77 56 78 49 79 55 80 50 81 51 82 52 83 53 84 54 85
REMARK H PARENT 14 6 19 22 75 41 45 52
REMARK Flexibility Score: inf
ROOT
ATOM      1  C   UNL A   1      33.164  26.308  26.070  1.00  0.00     0.023 C 
ENDROOT
BRANCH   1   2
ATOM      2  C   UNL A   1      32.045  25.283  26.222  1.00  0.00     0.116 C 
BRANCH   2   3
ATOM      3  N   UNL A   1      31.122  25.291  25.106  1.00  0.00    -0.353 N 
ATOM      4  C   UNL A   1      31.251  24.683  23.892  1.00  0.00     0.257 C 
ATOM      5  O   UNL A   1      30.276  24.658  23.139  1.00  0.00    -0.271 OA
ATOM      6  H   UNL A   1      30.292  25.802  25.242  1.00  0.00     0.163 HD
BRANCH   4   7
ATOM      7  C   UNL A   1      32.554  23.964  23.532  1.00  0.00     0.329 C 
BRANCH   7   8
ATOM      8  O   UNL A   1      32.769  22.623  23.906  1.00  0.00    -0.483 OA
BRANCH   8   9
ATOM      9  C   UNL A   1      34.002  22.092  24.146  1.00  0.00     0.123 A 
ATOM     10  C   UNL A   1      34.386  20.920  24.819  1.00  0.00    -0.006 A 
ATOM     11  C   UNL A   1      35.773  20.685  24.988  1.00  0.00     0.007 A 
ATOM     12  C   UNL A   1      36.748  21.557  24.503  1.00  0.00     0.001 A 
ATOM     13  C   UNL A   1      35.003  22.975  23.687  1.00  0.00     0.047 A 
ATOM     14  C   UNL A   1      36.361  22.711  23.851  1.00  0.00     0.004 A 
BRANCH  10  15
ATOM     15  C   UNL A   1      33.472  19.913  25.483  1.00  0.00     0.039 C 
BRANCH  15  16
ATOM     16  C   UNL A   1      33.201  18.635  24.674  1.00  0.00     0.001 C 
ATOM     17  C   UNL A   1      32.505  18.869  23.338  1.00  0.00     0.004 C 
ENDBRANCH  15  16
ENDBRANCH  10  15
ENDBRANCH   8   9
ENDBRANCH   7   8
ENDBRANCH   4   7
ENDBRANCH   2   3
ENDBRANCH   1   2
BRANCH   1  18
ATOM     18  C   UNL A   1      32.828  27.728  26.529  1.00  0.00     0.023 C 
BRANCH  18  19
ATOM     19  C   UNL A   1      33.896  28.787  26.271  1.00  0.00     0.116 C 
BRANCH  19  20
ATOM     20  N   UNL A   1      33.701  30.002  27.044  1.00  0.00    -0.352 N 
ATOM     21  C   UNL A   1      34.532  30.595  27.966  1.00  0.00     0.251 C 
ATOM     22  H   UNL A   1      32.849  30.470  26.885  1.00  0.00     0.163 HD
ATOM     23  O   UNL A   1      34.146  31.571  28.597  1.00  0.00    -0.269 OA
BRANCH  21  24
ATOM     24  C   UNL A   1      35.877  30.028  28.223  1.00  0.00     0.039 A 
ATOM     25  C   UNL A   1      36.851  30.137  27.226  1.00  0.00     0.014 A 
ATOM     26  C   UNL A   1      36.183  29.409  29.438  1.00  0.00     0.014 A 
ATOM     27  C   UNL A   1      38.155  29.700  27.479  1.00  0.00     0.010 A 
ATOM     28  C   UNL A   1      37.498  29.036  29.711  1.00  0.00     0.010 A 
ATOM     29  C   UNL A   1      38.500  29.188  28.739  1.00  0.00    -0.014 A 
BRANCH  29  30
ATOM     30  C   UNL A   1      39.905  28.835  29.072  1.00  0.00     0.031 A 
ATOM     31  C   UNL A   1      40.827  29.863  29.671  1.00  0.00     0.074 A 
ATOM     32  C   UNL A   1      40.376  27.611  28.759  1.00  0.00     0.049 A 
ATOM     33  N   UNL A   1      42.101  29.763  29.950  1.00  0.00    -0.248 NA
ATOM     34  C   UNL A   1      40.248  31.181  29.973  1.00  0.00     0.031 C 
ATOM     35  C   UNL A   1      39.597  26.537  28.137  1.00  0.00     0.029 A 
ATOM     36  N   UNL A   1      41.628  27.066  28.908  1.00  0.00    -0.354 N 
ATOM     37  C   UNL A   1      42.482  31.008  30.438  1.00  0.00     0.074 A 
ATOM     38  C   UNL A   1      41.312  31.858  30.382  1.00  0.00     0.031 C 
ATOM     39  C   UNL A   1      40.382  25.461  27.973  1.00  0.00     0.029 A 
ATOM     40  C   UNL A   1      41.729  25.777  28.437  1.00  0.00     0.049 A 
ATOM     41  H   UNL A   1      42.381  27.551  29.315  1.00  0.00     0.167 HD
ATOM     42  C   UNL A   1      43.691  31.403  30.905  1.00  0.00     0.031 A 
ATOM     43  C   UNL A   1      42.789  24.947  28.371  1.00  0.00     0.031 A 
ATOM     44  C   UNL A   1      44.849  30.553  30.973  1.00  0.00     0.049 A 
ATOM     45  C   UNL A   1      44.122  25.412  28.888  1.00  0.00     0.074 A 
ATOM     46  C   UNL A   1      46.098  30.842  31.496  1.00  0.00     0.029 A 
ATOM     47  N   UNL A   1      44.906  29.250  30.502  1.00  0.00    -0.354 N 
ATOM     48  N   UNL A   1      44.441  26.569  29.418  1.00  0.00    -0.248 NA
ATOM     49  C   UNL A   1      45.237  24.458  28.804  1.00  0.00     0.031 C 
ATOM     50  C   UNL A   1      46.925  29.732  31.291  1.00  0.00     0.029 A 
ATOM     51  C   UNL A   1      46.176  28.732  30.693  1.00  0.00     0.049 A 
ATOM     52  H   UNL A   1      44.154  28.765  30.091  1.00  0.00     0.167 HD
ATOM     53  C   UNL A   1      45.787  26.473  29.752  1.00  0.00     0.074 A 
ATOM     54  C   UNL A   1      46.219  25.141  29.380  1.00  0.00     0.031 C 
ATOM     55  C   UNL A   1      46.592  27.405  30.317  1.00  0.00     0.031 A 
BRANCH  42  56
ATOM     56  C   UNL A   1      43.826  32.829  31.372  1.00  0.00    -0.014 A 
ATOM     57  C   UNL A   1      43.608  33.177  32.717  1.00  0.00     0.010 A 
ATOM     58  C   UNL A   1      44.225  33.826  30.463  1.00  0.00     0.010 A 
ATOM     59  C   UNL A   1      43.746  34.502  33.136  1.00  0.00     0.020 A 
ATOM     60  C   UNL A   1      44.391  35.148  30.884  1.00  0.00     0.020 A 
ATOM     61  C   UNL A   1      44.134  35.481  32.216  1.00  0.00     0.054 A 
BRANCH  61  62
ATOM     62  S   UNL A   1      44.329  37.190  32.793  1.00  0.00     0.124 S 
ATOM     63  O   UNL A   1      44.280  37.937  31.539  1.00  0.00    -0.237 OA
ATOM     64  O   UNL A   1      43.176  37.365  33.673  1.00  0.00    -0.237 OA
ATOM     65  O   UNL A   1      45.627  37.184  33.464  1.00  0.00    -0.744 OA
ENDBRANCH  61  62
ENDBRANCH  42  56
BRANCH  43  66
ATOM     66  C   UNL A   1      42.630  23.585  27.790  1.00  0.00    -0.014 A 
ATOM     67  C   UNL A   1      43.099  23.302  26.495  1.00  0.00     0.010 A 
ATOM     68  C   UNL A   1      42.017  22.560  28.534  1.00  0.00     0.010 A 
ATOM     69  C   UNL A   1      42.940  22.026  25.947  1.00  0.00     0.020 A 
ATOM     70  C   UNL A   1      41.881  21.276  28.000  1.00  0.00     0.020 A 
ATOM     71  C   UNL A   1      42.332  21.020  26.704  1.00  0.00     0.054 A 
BRANCH  71  72
ATOM     72  S   UNL A   1      42.182  19.357  25.992  1.00  0.00     0.124 S 
ATOM     73  O   UNL A   1      40.747  19.266  25.738  1.00  0.00    -0.237 OA
ATOM     74  O   UNL A   1      43.032  19.441  24.809  1.00  0.00    -0.237 OA
ATOM     75  O   UNL A   1      42.687  18.486  27.052  1.00  0.00    -0.744 OA
ENDBRANCH  71  72
ENDBRANCH  43  66
BRANCH  55  76
ATOM     76  C   UNL A   1      48.020  27.015  30.595  1.00  0.00    -0.014 A 
ATOM     77  C   UNL A   1      49.043  27.297  29.674  1.00  0.00     0.010 A 
ATOM     78  C   UNL A   1      48.349  26.415  31.825  1.00  0.00     0.010 A 
ATOM     79  C   UNL A   1      50.369  26.967  29.968  1.00  0.00     0.020 A 
ATOM     80  C   UNL A   1      49.677  26.108  32.134  1.00  0.00     0.020 A 
ATOM     81  C   UNL A   1      50.677  26.375  31.197  1.00  0.00     0.054 A 
BRANCH  81  82
ATOM     82  S   UNL A   1      52.412  26.008  31.580  1.00  0.00     0.124 S 
ATOM     83  O   UNL A   1      52.326  24.648  32.105  1.00  0.00    -0.237 OA
ATOM     84  O   UNL A   1      53.062  26.139  30.277  1.00  0.00    -0.237 OA
ATOM     85  O   UNL A   1      52.776  27.031  32.557  1.00  0.00    -0.744 OA
ENDBRANCH  81  82
ENDBRANCH  55  76
ENDBRANCH  29  30
ENDBRANCH  21  24
ENDBRANCH  19  20
ENDBRANCH  18  19
ENDBRANCH   1  18
TORSDOF 18
ENDMDL
MODEL 2
REMARK VINA RESULT:      -9.7      4.700      7.239
REMARK SMILES CCCc1ccccc1OCC(=O)NCCCCNC(=O)c1ccc(-c2c3nc(c(-c4ccc(S(=O)(=O)[O-])cc4)c4ccc([nH]4)c(-c4ccc(S(=O)(=O)[O-])cc4)c4nc(c(-c5ccc(S(=O)(=O)[O-])cc5)c5ccc2[nH]5)C=C4)C=C3)cc1
REMARK SMILES IDX 16 1 15 2 14 3 12 4 13 5 11 7 10 8 9 9 4 10 5 11 6 12 8 13
REMARK SMILES IDX 7 14 3 15 2 16 1 17 17 18 18 19 19 20 20 21 21 23 22 24
REMARK SMILES IDX 23 25 81 26 24 27 80 28 25 29 26 30 27 31 74 32 28 33 79 34
REMARK SMILES IDX 73 35 75 36 29 37 78 38 72 39 71 40 30 42 60 43 41 44 59 45
REMARK SMILES IDX 42 46 45 47 58 48 76 49 43 50 44 51 57 53 77 54 46 55 31 56
REMARK SMILES IDX 32 57 40 58 33 59 39 60 34 61 35 62 36 63 37 64 38 65 61 66
REMARK SMILES IDX 62 67 70 68 63 69 69 70 64 71 65 72 66 73 67 74 68 75 47 76
REMARK SMILES IDX 48 77 56 78 49 79 55 80 50 81 51 82 52 83 53 84 54 85
REMARK H PARENT 14 6 19 22 75 41 45 52
REMARK Flexibility Score: inf
ROOT
ATOM      1  C   UNL A   1      33.920  33.492  28.764  1.00  0.00     0.023 C 
ENDROOT
BRANCH   1   2
ATOM      2  C   UNL A   1      33.780  34.890  29.357  1.00  0.00     0.116 C 
BRANCH   2   3
ATOM      3  N   UNL A   1      32.930  34.920  30.530  1.00  0.00    -0.353 N 
ATOM      4  C   UNL A   1      33.297  34.980  31.843  1.00  0.00     0.257 C 
ATOM      5  O   UNL A   1      32.423  35.177  32.689  1.00  0.00    -0.271 OA
ATOM      6  H   UNL A   1      31.962  34.893  30.357  1.00  0.00     0.163 HD
BRANCH   4   7
ATOM      7  C   UNL A   1      34.776  34.905  32.227  1.00  0.00     0.329 C 
BRANCH   7   8
ATOM      8  O   UNL A   1      35.516  33.723  32.037  1.00  0.00    -0.483 OA
BRANCH   8   9
ATOM      9  C   UNL A   1      36.674  33.437  32.699  1.00  0.00     0.123 A 
ATOM     10  C   UNL A   1      37.998  33.837  32.455  1.00  0.00    -0.006 A 
ATOM     11  C   UNL A   1      39.011  33.287  33.279  1.00  0.00     0.007 A 
ATOM     12  C   UNL A   1      38.737  32.393  34.314  1.00  0.00     0.001 A 
ATOM     13  C   UNL A   1      36.420  32.510  33.733  1.00  0.00     0.047 A 
ATOM     14  C   UNL A   1      37.432  32.000  34.541  1.00  0.00     0.004 A 
BRANCH  10  15
ATOM     15  C   UNL A   1      38.488  34.721  31.330  1.00  0.00     0.039 C 
BRANCH  15  16
ATOM     16  C   UNL A   1      38.216  34.195  29.911  1.00  0.00     0.001 C 
ATOM     17  C   UNL A   1      39.457  33.713  29.168  1.00  0.00     0.004 C 
ENDBRANCH  15  16
ENDBRANCH  10  15
ENDBRANCH   8   9
ENDBRANCH   7   8
ENDBRANCH   4   7
ENDBRANCH   2   3
ENDBRANCH   1   2
BRANCH   1  18
ATOM     18  C   UNL A   1      35.267  33.184  28.106  1.00  0.00     0.023 C 
BRANCH  18  19
ATOM     19  C   UNL A   1      35.803  31.770  28.308  1.00  0.00     0.116 C 
BRANCH  19  20
ATOM     20  N   UNL A   1      35.581  31.256  29.650  1.00  0.00    -0.352 N 
ATOM     21  C   UNL A   1      36.445  30.580  30.482  1.00  0.00     0.251 C 
ATOM     22  H   UNL A   1      34.681  31.414  30.017  1.00  0.00     0.163 HD
ATOM     23  O   UNL A   1      36.040  30.132  31.547  1.00  0.00    -0.269 OA
BRANCH  21  24
ATOM     24  C   UNL A   1      37.851  30.362  30.069  1.00  0.00     0.039 A 
ATOM     25  C   UNL A   1      38.842  30.337  31.054  1.00  0.00     0.014 A 
ATOM     26  C   UNL A   1      38.191  30.166  28.728  1.00  0.00     0.014 A 
ATOM     27  C   UNL A   1      40.161  30.034  30.704  1.00  0.00     0.010 A 
ATOM     28  C   UNL A   1      39.492  29.799  28.391  1.00  0.00     0.010 A 
ATOM     29  C   UNL A   1      40.489  29.717  29.377  1.00  0.00    -0.014 A 
BRANCH  29  30
ATOM     30  C   UNL A   1      41.856  29.269  29.003  1.00  0.00     0.031 A 
ATOM     31  C   UNL A   1      42.992  30.254  28.945  1.00  0.00     0.074 A 
ATOM     32  C   UNL A   1      42.058  27.987  28.636  1.00  0.00     0.049 A 
ATOM     33  N   UNL A   1      44.228  30.065  28.562  1.00  0.00    -0.248 NA
ATOM     34  C   UNL A   1      42.693  31.638  29.346  1.00  0.00     0.031 C 
ATOM     35  C   UNL A   1      41.033  26.941  28.608  1.00  0.00     0.029 A 
ATOM     36  N   UNL A   1      43.193  27.347  28.203  1.00  0.00    -0.354 N 
ATOM     37  C   UNL A   1      44.849  31.304  28.655  1.00  0.00     0.074 A 
ATOM     38  C   UNL A   1      43.843  32.248  29.094  1.00  0.00     0.031 C 
ATOM     39  C   UNL A   1      41.587  25.790  28.196  1.00  0.00     0.029 A 
ATOM     40  C   UNL A   1      42.996  26.022  27.891  1.00  0.00     0.049 A 
ATOM     41  H   UNL A   1      44.066  27.794  28.124  1.00  0.00     0.167 HD
ATOM     42  C   UNL A   1      46.143  31.626  28.411  1.00  0.00     0.031 A 
ATOM     43  C   UNL A   1      43.845  25.099  27.399  1.00  0.00     0.031 A 
ATOM     44  C   UNL A   1      47.145  30.685  27.988  1.00  0.00     0.049 A 
ATOM     45  C   UNL A   1      45.274  25.483  27.129  1.00  0.00     0.074 A 
ATOM     46  C   UNL A   1      48.497  30.902  27.784  1.00  0.00     0.029 A 
ATOM     47  N   UNL A   1      46.907  29.350  27.700  1.00  0.00    -0.354 N 
ATOM     48  N   UNL A   1      45.859  26.644  27.297  1.00  0.00    -0.248 NA
ATOM     49  C   UNL A   1      46.158  24.430  26.609  1.00  0.00     0.031 C 
ATOM     50  C   UNL A   1      49.066  29.711  27.321  1.00  0.00     0.029 A 
ATOM     51  C   UNL A   1      48.080  28.738  27.291  1.00  0.00     0.049 A 
ATOM     52  H   UNL A   1      46.033  28.902  27.774  1.00  0.00     0.167 HD
ATOM     53  C   UNL A   1      47.186  26.456  26.926  1.00  0.00     0.074 A 
ATOM     54  C   UNL A   1      47.320  25.066  26.539  1.00  0.00     0.031 C 
ATOM     55  C   UNL A   1      48.200  27.354  26.908  1.00  0.00     0.031 A 
BRANCH  42  56
ATOM     56  C   UNL A   1      46.548  33.066  28.587  1.00  0.00    -0.014 A 
ATOM     57  C   UNL A   1      46.560  33.957  27.498  1.00  0.00     0.010 A 
ATOM     58  C   UNL A   1      46.876  33.548  29.868  1.00  0.00     0.010 A 
ATOM     59  C   UNL A   1      46.930  35.291  27.680  1.00  0.00     0.020 A 
ATOM     60  C   UNL A   1      47.220  34.889  30.058  1.00  0.00     0.020 A 
ATOM     61  C   UNL A   1      47.261  35.749  28.958  1.00  0.00     0.054 A 
BRANCH  61  62
ATOM     62  S   UNL A   1      47.715  37.493  29.168  1.00  0.00     0.124 S 
ATOM     63  O   UNL A   1      48.951  37.390  29.942  1.00  0.00    -0.237 OA
ATOM     64  O   UNL A   1      47.873  37.951  27.791  1.00  0.00    -0.237 OA
ATOM     65  O   UNL A   1      46.578  38.063  29.887  1.00  0.00    -0.744 OA
ENDBRANCH  61  62
ENDBRANCH  42  56
BRANCH  43  66
ATOM     66  C   UNL A   1      43.365  23.715  27.130  1.00  0.00    -0.014 A 
ATOM     67  C   UNL A   1      43.257  22.780  28.174  1.00  0.00     0.010 A 
ATOM     68  C   UNL A   1      43.003  23.328  25.826  1.00  0.00     0.010 A 
ATOM     69  C   UNL A   1      42.816  21.479  27.918  1.00  0.00     0.020 A 
ATOM     70  C   UNL A   1      42.534  22.036  25.571  1.00  0.00     0.020 A 
ATOM     71  C   UNL A   1      42.456  21.115  26.617  1.00  0.00     0.054 A 
BRANCH  71  72
ATOM     72  S   UNL A   1      41.838  19.435  26.316  1.00  0.00     0.124 S 
ATOM     73  O   UNL A   1      42.480  19.100  25.049  1.00  0.00    -0.237 OA
ATOM     74  O   UNL A   1      42.321  18.706  27.485  1.00  0.00    -0.237 OA
ATOM     75  O   UNL A   1      40.388  19.612  26.258  1.00  0.00    -0.744 OA
ENDBRANCH  71  72
ENDBRANCH  43  66
BRANCH  55  76
ATOM     76  C   UNL A   1      49.558  26.861  26.480  1.00  0.00    -0.014 A 
ATOM     77  C   UNL A   1      50.359  26.097  27.346  1.00  0.00     0.010 A 
ATOM     78  C   UNL A   1      50.007  27.113  25.171  1.00  0.00     0.010 A 
ATOM     79  C   UNL A   1      51.598  25.612  26.917  1.00  0.00     0.020 A 
ATOM     80  C   UNL A   1      51.232  26.607  24.729  1.00  0.00     0.020 A 
ATOM     81  C   UNL A   1      52.026  25.869  25.610  1.00  0.00     0.054 A 
BRANCH  81  82
ATOM     82  S   UNL A   1      53.611  25.181  25.058  1.00  0.00     0.124 S 
ATOM     83  O   UNL A   1      53.417  23.751  25.284  1.00  0.00    -0.237 OA
ATOM     84  O   UNL A   1      53.670  25.594  23.657  1.00  0.00    -0.237 OA
ATOM     85  O   UNL A   1      54.591  25.823  25.932  1.00  0.00    -0.744 OA
ENDBRANCH  81  82
ENDBRANCH  55  76
ENDBRANCH  29  30
ENDBRANCH  21  24
ENDBRANCH  19  20
ENDBRANCH  18  19
ENDBRANCH   1  18
TORSDOF 18
ENDMDL
MODEL 3
REMARK VINA RESULT:      -9.7      3.838     11.025
REMARK SMILES CCCc1ccccc1OCC(=O)NCCCCNC(=O)c1ccc(-c2c3nc(c(-c4ccc(S(=O)(=O)[O-])cc4)c4ccc([nH]4)c(-c4ccc(S(=O)(=O)[O-])cc4)c4nc(c(-c5ccc(S(=O)(=O)[O-])cc5)c5ccc2[nH]5)C=C4)C=C3)cc1
REMARK SMILES IDX 16 1 15 2 14 3 12 4 13 5 11 7 10 8 9 9 4 10 5 11 6 12 8 13
REMARK SMILES IDX 7 14 3 15 2 16 1 17 17 18 18 19 19 20 20 21 21 23 22 24
REMARK SMILES IDX 23 25 81 26 24 27 80 28 25 29 26 30 27 31 74 32 28 33 79 34
REMARK SMILES IDX 73 35 75 36 29 37 78 38 72 39 71 40 30 42 60 43 41 44 59 45
REMARK SMILES IDX 42 46 45 47 58 48 76 49 43 50 44 51 57 53 77 54 46 55 31 56
REMARK SMILES IDX 32 57 40 58 33 59 39 60 34 61 35 62 36 63 37 64 38 65 61 66
REMARK SMILES IDX 62 67 70 68 63 69 69 70 64 71 65 72 66 73 67 74 68 75 47 76
REMARK SMILES IDX 48 77 56 78 49 79 55 80 50 81 51 82 52 83 53 84 54 85
REMARK H PARENT 14 6 19 22 75 41 45 52
REMARK Flexibility Score: inf
ROOT
ATOM      1  C   UNL A   1      42.477  23.112  28.346  1.00  0.00     0.023 C 
ENDROOT
BRANCH   1   2
ATOM      2  C   UNL A   1      43.996  23.030  28.458  1.00  0.00     0.116 C 
BRANCH   2   3
ATOM      3  N   UNL A   1      44.608  22.386  27.313  1.00  0.00    -0.353 N 
ATOM      4  C   UNL A   1      45.659  22.818  26.557  1.00  0.00     0.257 C 
ATOM      5  O   UNL A   1      46.150  22.043  25.734  1.00  0.00    -0.271 OA
ATOM      6  H   UNL A   1      44.216  21.524  27.047  1.00  0.00     0.163 HD
BRANCH   4   7
ATOM      7  C   UNL A   1      46.265  24.201  26.810  1.00  0.00     0.329 C 
BRANCH   7   8
ATOM      8  O   UNL A   1      46.158  25.226  25.851  1.00  0.00    -0.483 OA
BRANCH   8   9
ATOM      9  C   UNL A   1      45.719  26.486  26.134  1.00  0.00     0.123 A 
ATOM     10  C   UNL A   1      46.367  27.573  26.744  1.00  0.00    -0.006 A 
ATOM     11  C   UNL A   1      45.601  28.740  26.988  1.00  0.00     0.007 A 
ATOM     12  C   UNL A   1      44.256  28.845  26.635  1.00  0.00     0.001 A 
ATOM     13  C   UNL A   1      44.350  26.601  25.810  1.00  0.00     0.047 A 
ATOM     14  C   UNL A   1      43.625  27.767  26.044  1.00  0.00     0.004 A 
BRANCH  10  15
ATOM     15  C   UNL A   1      47.785  27.607  27.270  1.00  0.00     0.039 C 
BRANCH  15  16
ATOM     16  C   UNL A   1      48.697  28.673  26.641  1.00  0.00     0.001 C 
ATOM     17  C   UNL A   1      49.076  29.812  27.579  1.00  0.00     0.004 C 
ENDBRANCH  15  16
ENDBRANCH  10  15
ENDBRANCH   8   9
ENDBRANCH   7   8
ENDBRANCH   4   7
ENDBRANCH   2   3
ENDBRANCH   1   2
BRANCH   1  18
ATOM     18  C   UNL A   1      41.799  21.926  27.657  1.00  0.00     0.023 C 
BRANCH  18  19
ATOM     19  C   UNL A   1      41.483  22.102  26.175  1.00  0.00     0.116 C 
BRANCH  19  20
ATOM     20  N   UNL A   1      40.065  21.998  25.872  1.00  0.00    -0.352 N 
ATOM     21  C   UNL A   1      39.045  22.880  26.148  1.00  0.00     0.251 C 
ATOM     22  H   UNL A   1      39.795  21.177  25.400  1.00  0.00     0.163 HD
ATOM     23  O   UNL A   1      37.887  22.567  25.903  1.00  0.00    -0.269 OA
BRANCH  21  24
ATOM     24  C   UNL A   1      39.347  24.187  26.776  1.00  0.00     0.039 A 
ATOM     25  C   UNL A   1      38.928  24.410  28.091  1.00  0.00     0.014 A 
ATOM     26  C   UNL A   1      40.049  25.179  26.087  1.00  0.00     0.014 A 
ATOM     27  C   UNL A   1      39.285  25.594  28.742  1.00  0.00     0.010 A 
ATOM     28  C   UNL A   1      40.461  26.329  26.758  1.00  0.00     0.010 A 
ATOM     29  C   UNL A   1      40.093  26.544  28.096  1.00  0.00    -0.014 A 
BRANCH  29  30
ATOM     30  C   UNL A   1      40.591  27.749  28.810  1.00  0.00     0.031 A 
ATOM     31  C   UNL A   1      41.959  27.754  29.435  1.00  0.00     0.074 A 
ATOM     32  C   UNL A   1      39.776  28.813  28.965  1.00  0.00     0.049 A 
ATOM     33  N   UNL A   1      42.528  28.679  30.164  1.00  0.00    -0.248 NA
ATOM     34  C   UNL A   1      42.786  26.554  29.236  1.00  0.00     0.031 C 
ATOM     35  C   UNL A   1      38.410  28.918  28.445  1.00  0.00     0.029 A 
ATOM     36  N   UNL A   1      39.972  30.004  29.619  1.00  0.00    -0.354 N 
ATOM     37  C   UNL A   1      43.768  28.168  30.528  1.00  0.00     0.074 A 
ATOM     38  C   UNL A   1      43.853  26.834  29.972  1.00  0.00     0.031 C 
ATOM     39  C   UNL A   1      37.899  30.112  28.785  1.00  0.00     0.029 A 
ATOM     40  C   UNL A   1      38.881  30.842  29.582  1.00  0.00     0.049 A 
ATOM     41  H   UNL A   1      40.814  30.238  30.071  1.00  0.00     0.167 HD
ATOM     42  C   UNL A   1      44.752  28.758  31.248  1.00  0.00     0.031 A 
ATOM     43  C   UNL A   1      38.683  32.053  30.139  1.00  0.00     0.031 A 
ATOM     44  C   UNL A   1      44.672  30.089  31.788  1.00  0.00     0.049 A 
ATOM     45  C   UNL A   1      39.788  32.684  30.940  1.00  0.00     0.074 A 
ATOM     46  C   UNL A   1      45.644  30.800  32.471  1.00  0.00     0.029 A 
ATOM     47  N   UNL A   1      43.556  30.909  31.714  1.00  0.00    -0.354 N 
ATOM     48  N   UNL A   1      40.983  32.213  31.207  1.00  0.00    -0.248 NA
ATOM     49  C   UNL A   1      39.521  34.013  31.509  1.00  0.00     0.031 C 
ATOM     50  C   UNL A   1      45.099  32.029  32.855  1.00  0.00     0.029 A 
ATOM     51  C   UNL A   1      43.806  32.107  32.364  1.00  0.00     0.049 A 
ATOM     52  H   UNL A   1      42.711  30.675  31.266  1.00  0.00     0.167 HD
ATOM     53  C   UNL A   1      41.619  33.198  31.956  1.00  0.00     0.074 A 
ATOM     54  C   UNL A   1      40.682  34.296  32.086  1.00  0.00     0.031 C 
ATOM     55  C   UNL A   1      42.865  33.191  32.487  1.00  0.00     0.031 A 
BRANCH  42  56
ATOM     56  C   UNL A   1      46.004  27.962  31.503  1.00  0.00    -0.014 A 
ATOM     57  C   UNL A   1      47.096  28.019  30.617  1.00  0.00     0.010 A 
ATOM     58  C   UNL A   1      46.111  27.182  32.669  1.00  0.00     0.010 A 
ATOM     59  C   UNL A   1      48.254  27.280  30.873  1.00  0.00     0.020 A 
ATOM     60  C   UNL A   1      47.278  26.463  32.942  1.00  0.00     0.020 A 
ATOM     61  C   UNL A   1      48.337  26.504  32.032  1.00  0.00     0.054 A 
BRANCH  61  62
ATOM     62  S   UNL A   1      49.862  25.574  32.350  1.00  0.00     0.124 S 
ATOM     63  O   UNL A   1      49.380  24.491  33.204  1.00  0.00    -0.237 OA
ATOM     64  O   UNL A   1      50.281  25.177  31.008  1.00  0.00    -0.237 OA
ATOM     65  O   UNL A   1      50.730  26.547  33.010  1.00  0.00    -0.744 OA
ENDBRANCH  61  62
ENDBRANCH  42  56
BRANCH  43  66
ATOM     66  C   UNL A   1      37.381  32.751  29.956  1.00  0.00    -0.014 A 
ATOM     67  C   UNL A   1      37.235  33.747  28.974  1.00  0.00     0.010 A 
ATOM     68  C   UNL A   1      36.274  32.416  30.760  1.00  0.00     0.010 A 
ATOM     69  C   UNL A   1      36.014  34.408  28.812  1.00  0.00     0.020 A 
ATOM     70  C   UNL A   1      35.044  33.056  30.581  1.00  0.00     0.020 A 
ATOM     71  C   UNL A   1      34.926  34.057  29.616  1.00  0.00     0.054 A 
BRANCH  71  72
ATOM     72  S   UNL A   1      33.337  34.894  29.353  1.00  0.00     0.124 S 
ATOM     73  O   UNL A   1      32.865  35.082  30.721  1.00  0.00    -0.237 OA
ATOM     74  O   UNL A   1      33.731  36.108  28.645  1.00  0.00    -0.237 OA
ATOM     75  O   UNL A   1      32.576  33.936  28.553  1.00  0.00    -0.744 OA
ENDBRANCH  71  72
ENDBRANCH  43  66
BRANCH  55  76
ATOM     76  C   UNL A   1      43.307  34.419  33.238  1.00  0.00    -0.014 A 
ATOM     77  C   UNL A   1      43.217  34.486  34.639  1.00  0.00     0.010 A 
ATOM     78  C   UNL A   1      43.882  35.494  32.535  1.00  0.00     0.010 A 
ATOM     79  C   UNL A   1      43.673  35.616  35.323  1.00  0.00     0.020 A 
ATOM     80  C   UNL A   1      44.363  36.615  33.217  1.00  0.00     0.020 A 
ATOM     81  C   UNL A   1      44.244  36.673  34.607  1.00  0.00     0.054 A 
BRANCH  81  82
ATOM     82  S   UNL A   1      44.880  38.105  35.521  1.00  0.00     0.124 S 
ATOM     83  O   UNL A   1      44.956  39.124  34.478  1.00  0.00    -0.237 OA
ATOM     84  O   UNL A   1      43.851  38.321  36.537  1.00  0.00    -0.237 OA
ATOM     85  O   UNL A   1      46.167  37.644  36.036  1.00  0.00    -0.744 OA
ENDBRANCH  81  82
ENDBRANCH  55  76
ENDBRANCH  29  30
ENDBRANCH  21  24
ENDBRANCH  19  20
ENDBRANCH  18  19
ENDBRANCH   1  18
TORSDOF 18
ENDMDL
