MODEL 1
REMARK VINA RESULT:     -12.2      0.000      0.000
REMARK SMILES O=C(NCCCCNC(=O)[C@@H]1CC=CC[C@@H]1C(=O)Nc1sc2c(c1C(=O)N1CCCCC1)CCCC2)c1ccc(-c2c3nc(c(-c4ccc(S(=O)(=O)[O-])cc4)c4ccc([nH]4)c(-c4ccc(S(=O)(=O)[O-])cc4)c4nc(c(-c5ccc(S(=O)(=O)[O-])cc5)c5ccc2[nH]5)C=C4)C=C3)cc1
REMARK SMILES IDX 5 1 4 2 3 3 1 4 2 5 37 7 38 8 96 9 39 10 95 11 40 12 41 13
REMARK SMILES IDX 42 14 89 15 43 16 94 17 88 18 90 19 44 20 93 21 87 22 86 23
REMARK SMILES IDX 45 25 75 26 56 27 74 28 57 29 60 30 73 31 91 32 58 33 59 34
REMARK SMILES IDX 72 36 92 37 61 38 46 39 47 40 55 41 48 42 54 43 49 44 50 45
REMARK SMILES IDX 51 46 52 47 53 48 76 49 77 50 85 51 78 52 84 53 79 54 80 55
REMARK SMILES IDX 81 56 82 57 83 58 62 59 63 60 71 61 64 62 70 63 65 64 66 65
REMARK SMILES IDX 67 66 68 67 69 68 6 69 7 70 8 71 9 72 10 74 11 75 12 76
REMARK SMILES IDX 16 77 13 78 15 79 14 80 17 81 18 82 19 83 20 85 21 86 24 87
REMARK SMILES IDX 22 88 23 89 36 90 33 91 35 92 34 93 25 94 26 95 27 96 28 97
REMARK SMILES IDX 32 98 29 99 31 100 30 101
REMARK H PARENT 3 6 90 24 60 35 8 73 19 84
REMARK Flexibility Score: inf
ROOT
ATOM      1  C   UNL A   1      41.494  22.972  28.164  1.00  0.00     0.023 C 
ENDROOT
BRANCH   1   2
ATOM      2  C   UNL A   1      42.595  23.830  27.551  1.00  0.00     0.116 C 
BRANCH   2   3
ATOM      3  N   UNL A   1      42.195  24.481  26.315  1.00  0.00    -0.352 N 
ATOM      4  O   UNL A   1      41.246  26.085  25.046  1.00  0.00    -0.269 OA
ATOM      5  C   UNL A   1      41.612  25.714  26.156  1.00  0.00     0.251 C 
ATOM      6  H   UNL A   1      42.362  23.974  25.488  1.00  0.00     0.163 HD
BRANCH   5   7
ATOM      7  C   UNL A   1      41.396  26.567  27.341  1.00  0.00     0.039 A 
ATOM      8  C   UNL A   1      42.260  27.628  27.625  1.00  0.00     0.014 A 
ATOM      9  C   UNL A   1      40.312  26.293  28.177  1.00  0.00     0.014 A 
ATOM     10  C   UNL A   1      42.095  28.358  28.798  1.00  0.00     0.010 A 
ATOM     11  C   UNL A   1      40.115  27.060  29.326  1.00  0.00     0.010 A 
ATOM     12  C   UNL A   1      41.013  28.088  29.650  1.00  0.00    -0.014 A 
BRANCH  12  13
ATOM     13  C   UNL A   1      40.776  28.957  30.826  1.00  0.00     0.031 A 
ATOM     14  C   UNL A   1      39.670  29.972  30.832  1.00  0.00     0.074 A 
ATOM     15  C   UNL A   1      41.589  28.819  31.891  1.00  0.00     0.049 A 
ATOM     16  N   UNL A   1      39.341  30.815  31.777  1.00  0.00    -0.248 NA
ATOM     17  C   UNL A   1      38.829  30.061  29.628  1.00  0.00     0.031 C 
ATOM     18  C   UNL A   1      42.710  27.878  31.980  1.00  0.00     0.029 A 
ATOM     19  N   UNL A   1      41.601  29.467  33.097  1.00  0.00    -0.354 N 
ATOM     20  C   UNL A   1      38.273  31.548  31.279  1.00  0.00     0.074 A 
ATOM     21  C   UNL A   1      38.009  31.057  29.944  1.00  0.00     0.031 C 
ATOM     22  C   UNL A   1      43.288  27.997  33.184  1.00  0.00     0.029 A 
ATOM     23  C   UNL A   1      42.611  29.049  33.932  1.00  0.00     0.049 A 
ATOM     24  H   UNL A   1      40.950  30.163  33.344  1.00  0.00     0.167 HD
ATOM     25  C   UNL A   1      37.578  32.541  31.885  1.00  0.00     0.031 A 
ATOM     26  C   UNL A   1      42.970  29.482  35.153  1.00  0.00     0.031 A 
ATOM     27  C   UNL A   1      37.837  33.012  33.221  1.00  0.00     0.049 A 
ATOM     28  C   UNL A   1      42.194  30.594  35.790  1.00  0.00     0.074 A 
ATOM     29  C   UNL A   1      37.137  33.957  33.950  1.00  0.00     0.029 A 
ATOM     30  N   UNL A   1      38.884  32.582  34.022  1.00  0.00    -0.354 N 
ATOM     31  N   UNL A   1      41.146  31.232  35.326  1.00  0.00    -0.248 NA
ATOM     32  C   UNL A   1      42.652  31.054  37.106  1.00  0.00     0.031 C 
ATOM     33  C   UNL A   1      37.788  34.133  35.177  1.00  0.00     0.029 A 
ATOM     34  C   UNL A   1      38.872  33.272  35.222  1.00  0.00     0.049 A 
ATOM     35  H   UNL A   1      39.538  31.891  33.773  1.00  0.00     0.167 HD
ATOM     36  C   UNL A   1      40.823  32.175  36.291  1.00  0.00     0.074 A 
ATOM     37  C   UNL A   1      41.769  32.007  37.376  1.00  0.00     0.031 C 
ATOM     38  C   UNL A   1      39.838  33.104  36.277  1.00  0.00     0.031 A 
BRANCH  25  39
ATOM     39  C   UNL A   1      36.475  33.207  31.110  1.00  0.00    -0.014 A 
ATOM     40  C   UNL A   1      35.173  33.295  31.632  1.00  0.00     0.010 A 
ATOM     41  C   UNL A   1      36.769  33.833  29.885  1.00  0.00     0.010 A 
ATOM     42  C   UNL A   1      34.180  33.990  30.935  1.00  0.00     0.020 A 
ATOM     43  C   UNL A   1      35.781  34.539  29.192  1.00  0.00     0.020 A 
ATOM     44  C   UNL A   1      34.490  34.606  29.719  1.00  0.00     0.054 A 
BRANCH  44  45
ATOM     45  S   UNL A   1      33.198  35.549  28.860  1.00  0.00     0.124 S 
ATOM     46  O   UNL A   1      32.558  34.513  28.052  1.00  0.00    -0.237 OA
ATOM     47  O   UNL A   1      32.393  36.071  29.960  1.00  0.00    -0.237 OA
ATOM     48  O   UNL A   1      33.944  36.553  28.107  1.00  0.00    -0.744 OA
ENDBRANCH  44  45
ENDBRANCH  25  39
BRANCH  26  49
ATOM     49  C   UNL A   1      44.153  28.886  35.824  1.00  0.00    -0.014 A 
ATOM     50  C   UNL A   1      44.015  27.762  36.654  1.00  0.00     0.010 A 
ATOM     51  C   UNL A   1      45.432  29.429  35.604  1.00  0.00     0.010 A 
ATOM     52  C   UNL A   1      45.139  27.195  37.262  1.00  0.00     0.020 A 
ATOM     53  C   UNL A   1      46.558  28.852  36.194  1.00  0.00     0.020 A 
ATOM     54  C   UNL A   1      46.403  27.745  37.030  1.00  0.00     0.054 A 
BRANCH  54  55
ATOM     55  S   UNL A   1      47.862  26.966  37.774  1.00  0.00     0.124 S 
ATOM     56  O   UNL A   1      47.854  25.648  37.146  1.00  0.00    -0.237 OA
ATOM     57  O   UNL A   1      48.948  27.855  37.368  1.00  0.00    -0.237 OA
ATOM     58  O   UNL A   1      47.559  26.983  39.204  1.00  0.00    -0.744 OA
ENDBRANCH  54  55
ENDBRANCH  26  49
BRANCH  38  59
ATOM     59  C   UNL A   1      39.752  34.019  37.464  1.00  0.00    -0.014 A 
ATOM     60  C   UNL A   1      40.445  35.242  37.470  1.00  0.00     0.010 A 
ATOM     61  C   UNL A   1      38.953  33.668  38.566  1.00  0.00     0.010 A 
ATOM     62  C   UNL A   1      40.359  36.093  38.574  1.00  0.00     0.020 A 
ATOM     63  C   UNL A   1      38.852  34.526  39.664  1.00  0.00     0.020 A 
ATOM     64  C   UNL A   1      39.567  35.726  39.666  1.00  0.00     0.054 A 
BRANCH  64  65
ATOM     65  S   UNL A   1      39.438  36.861  41.076  1.00  0.00     0.124 S 
ATOM     66  O   UNL A   1      38.633  37.944  40.521  1.00  0.00    -0.237 OA
ATOM     67  O   UNL A   1      38.779  36.044  42.093  1.00  0.00    -0.237 OA
ATOM     68  O   UNL A   1      40.829  37.202  41.369  1.00  0.00    -0.744 OA
ENDBRANCH  64  65
ENDBRANCH  38  59
ENDBRANCH  12  13
ENDBRANCH   5   7
ENDBRANCH   2   3
ENDBRANCH   1   2
BRANCH   1  69
ATOM     69  C   UNL A   1      40.752  22.066  27.181  1.00  0.00     0.023 C 
BRANCH  69  70
ATOM     70  C   UNL A   1      39.457  22.653  26.618  1.00  0.00     0.116 C 
BRANCH  70  71
ATOM     71  N   UNL A   1      38.784  21.734  25.719  1.00  0.00    -0.356 N 
ATOM     72  C   UNL A   1      37.480  21.743  25.309  1.00  0.00     0.224 C 
ATOM     73  H   UNL A   1      39.340  21.008  25.357  1.00  0.00     0.163 HD
ATOM     74  O   UNL A   1      37.063  20.814  24.623  1.00  0.00    -0.275 OA
BRANCH  72  75
ATOM     75  C   UNL A   1      36.600  22.902  25.737  1.00  0.00     0.095 C 
ATOM     76  C   UNL A   1      35.476  22.440  26.666  1.00  0.00     0.041 C 
ATOM     77  C   UNL A   1      36.088  23.752  24.553  1.00  0.00     0.095 C 
ATOM     78  C   UNL A   1      34.595  23.593  27.053  1.00  0.00    -0.030 C 
ATOM     79  C   UNL A   1      35.255  24.942  25.037  1.00  0.00     0.041 C 
ATOM     80  C   UNL A   1      34.521  24.724  26.336  1.00  0.00    -0.030 C 
BRANCH  77  81
ATOM     81  C   UNL A   1      35.656  22.963  23.294  1.00  0.00     0.229 C 
ATOM     82  O   UNL A   1      36.522  22.763  22.426  1.00  0.00    -0.274 OA
ATOM     83  N   UNL A   1      34.472  22.315  23.121  1.00  0.00    -0.317 N 
ATOM     84  H   UNL A   1      34.503  21.574  22.474  1.00  0.00     0.170 HD
BRANCH  83  85
ATOM     85  C   UNL A   1      33.241  22.519  23.694  1.00  0.00     0.108 A 
ATOM     86  S   UNL A   1      32.231  23.724  23.057  1.00  0.00    -0.122 S 
ATOM     87  C   UNL A   1      32.565  21.713  24.607  1.00  0.00     0.078 A 
ATOM     88  C   UNL A   1      31.241  23.644  24.429  1.00  0.00     0.011 A 
ATOM     89  C   UNL A   1      31.482  22.505  25.181  1.00  0.00    -0.019 A 
ATOM     90  C   UNL A   1      30.281  24.738  24.770  1.00  0.00     0.047 C 
ATOM     91  C   UNL A   1      30.792  22.305  26.503  1.00  0.00     0.037 C 
ATOM     92  C   UNL A   1      29.995  24.716  26.277  1.00  0.00     0.006 C 
ATOM     93  C   UNL A   1      29.642  23.300  26.739  1.00  0.00     0.005 C 
BRANCH  87  94
ATOM     94  C   UNL A   1      33.133  20.427  25.052  1.00  0.00     0.257 C 
ATOM     95  O   UNL A   1      34.100  20.399  25.811  1.00  0.00    -0.269 OA
ATOM     96  N   UNL A   1      32.563  19.239  24.600  1.00  0.00    -0.339 N 
ATOM     97  C   UNL A   1      32.672  18.061  25.454  1.00  0.00     0.120 C 
ATOM     98  C   UNL A   1      32.192  18.993  23.208  1.00  0.00     0.120 C 
ATOM     99  C   UNL A   1      33.592  17.007  24.850  1.00  0.00     0.022 C 
ATOM    100  C   UNL A   1      33.103  17.940  22.572  1.00  0.00     0.022 C 
ATOM    101  C   UNL A   1      33.159  16.672  23.424  1.00  0.00     0.004 C 
ENDBRANCH  87  94
ENDBRANCH  83  85
ENDBRANCH  77  81
ENDBRANCH  72  75
ENDBRANCH  70  71
ENDBRANCH  69  70
ENDBRANCH   1  69
TORSDOF 17
ENDMDL
MODEL 2
REMARK VINA RESULT:     -11.9      0.474      7.786
REMARK SMILES O=C(NCCCCNC(=O)[C@@H]1CC=CC[C@@H]1C(=O)Nc1sc2c(c1C(=O)N1CCCCC1)CCCC2)c1ccc(-c2c3nc(c(-c4ccc(S(=O)(=O)[O-])cc4)c4ccc([nH]4)c(-c4ccc(S(=O)(=O)[O-])cc4)c4nc(c(-c5ccc(S(=O)(=O)[O-])cc5)c5ccc2[nH]5)C=C4)C=C3)cc1
REMARK SMILES IDX 5 1 4 2 3 3 1 4 2 5 37 7 38 8 96 9 39 10 95 11 40 12 41 13
REMARK SMILES IDX 42 14 89 15 43 16 94 17 88 18 90 19 44 20 93 21 87 22 86 23
REMARK SMILES IDX 45 25 75 26 56 27 74 28 57 29 60 30 73 31 91 32 58 33 59 34
REMARK SMILES IDX 72 36 92 37 61 38 46 39 47 40 55 41 48 42 54 43 49 44 50 45
REMARK SMILES IDX 51 46 52 47 53 48 76 49 77 50 85 51 78 52 84 53 79 54 80 55
REMARK SMILES IDX 81 56 82 57 83 58 62 59 63 60 71 61 64 62 70 63 65 64 66 65
REMARK SMILES IDX 67 66 68 67 69 68 6 69 7 70 8 71 9 72 10 74 11 75 12 76
REMARK SMILES IDX 16 77 13 78 15 79 14 80 17 81 18 82 19 83 20 85 21 86 24 87
REMARK SMILES IDX 22 88 23 89 36 90 33 91 35 92 34 93 25 94 26 95 27 96 28 97
REMARK SMILES IDX 32 98 29 99 31 100 30 101
REMARK H PARENT 3 6 90 24 60 35 8 73 19 84
REMARK Flexibility Score: inf
ROOT
ATOM      1  C   UNL A   1      41.788  22.859  28.023  1.00  0.00     0.023 C 
ENDROOT
BRANCH   1   2
ATOM      2  C   UNL A   1      42.874  23.706  27.369  1.00  0.00     0.116 C 
BRANCH   2   3
ATOM      3  N   UNL A   1      42.440  24.348  26.140  1.00  0.00    -0.352 N 
ATOM      4  O   UNL A   1      41.449  25.940  24.887  1.00  0.00    -0.269 OA
ATOM      5  C   UNL A   1      41.844  25.576  25.990  1.00  0.00     0.251 C 
ATOM      6  H   UNL A   1      42.592  23.839  25.311  1.00  0.00     0.163 HD
BRANCH   5   7
ATOM      7  C   UNL A   1      41.649  26.433  27.176  1.00  0.00     0.039 A 
ATOM      8  C   UNL A   1      40.629  26.162  28.093  1.00  0.00     0.014 A 
ATOM      9  C   UNL A   1      42.501  27.523  27.365  1.00  0.00     0.014 A 
ATOM     10  C   UNL A   1      40.403  27.036  29.151  1.00  0.00     0.010 A 
ATOM     11  C   UNL A   1      42.306  28.370  28.456  1.00  0.00     0.010 A 
ATOM     12  C   UNL A   1      41.248  28.140  29.347  1.00  0.00    -0.014 A 
BRANCH  12  13
ATOM     13  C   UNL A   1      41.074  28.987  30.550  1.00  0.00     0.031 A 
ATOM     14  C   UNL A   1      41.962  28.826  31.750  1.00  0.00     0.074 A 
ATOM     15  C   UNL A   1      40.087  29.903  30.543  1.00  0.00     0.049 A 
ATOM     16  N   UNL A   1      41.930  29.480  32.883  1.00  0.00    -0.248 NA
ATOM     17  C   UNL A   1      43.013  27.800  31.677  1.00  0.00     0.031 C 
ATOM     18  C   UNL A   1      39.151  30.127  29.436  1.00  0.00     0.029 A 
ATOM     19  N   UNL A   1      39.705  30.814  31.491  1.00  0.00    -0.354 N 
ATOM     20  C   UNL A   1      42.938  28.935  33.666  1.00  0.00     0.074 A 
ATOM     21  C   UNL A   1      43.563  27.890  32.884  1.00  0.00     0.031 C 
ATOM     22  C   UNL A   1      38.316  31.124  29.762  1.00  0.00     0.029 A 
ATOM     23  C   UNL A   1      38.626  31.578  31.112  1.00  0.00     0.049 A 
ATOM     24  H   UNL A   1      40.158  30.914  32.360  1.00  0.00     0.167 HD
ATOM     25  C   UNL A   1      43.306  29.280  34.924  1.00  0.00     0.031 A 
ATOM     26  C   UNL A   1      37.944  32.521  31.785  1.00  0.00     0.031 A 
ATOM     27  C   UNL A   1      42.689  30.332  35.688  1.00  0.00     0.049 A 
ATOM     28  C   UNL A   1      38.362  32.867  33.182  1.00  0.00     0.074 A 
ATOM     29  C   UNL A   1      43.043  30.807  36.938  1.00  0.00     0.029 A 
ATOM     30  N   UNL A   1      41.584  31.063  35.279  1.00  0.00    -0.354 N 
ATOM     31  N   UNL A   1      39.361  32.382  33.881  1.00  0.00    -0.248 NA
ATOM     32  C   UNL A   1      37.560  33.875  33.884  1.00  0.00     0.031 C 
ATOM     33  C   UNL A   1      42.123  31.796  37.307  1.00  0.00     0.029 A 
ATOM     34  C   UNL A   1      41.218  31.958  36.271  1.00  0.00     0.049 A 
ATOM     35  H   UNL A   1      41.127  30.959  34.414  1.00  0.00     0.167 HD
ATOM     36  C   UNL A   1      39.301  33.021  35.111  1.00  0.00     0.074 A 
ATOM     37  C   UNL A   1      38.187  33.947  35.051  1.00  0.00     0.031 C 
ATOM     38  C   UNL A   1      40.093  32.852  36.197  1.00  0.00     0.031 A 
BRANCH  25  39
ATOM     39  C   UNL A   1      44.418  28.503  35.572  1.00  0.00    -0.014 A 
ATOM     40  C   UNL A   1      45.754  28.932  35.474  1.00  0.00     0.010 A 
ATOM     41  C   UNL A   1      44.112  27.384  36.367  1.00  0.00     0.010 A 
ATOM     42  C   UNL A   1      46.766  28.245  36.151  1.00  0.00     0.020 A 
ATOM     43  C   UNL A   1      45.120  26.703  37.055  1.00  0.00     0.020 A 
ATOM     44  C   UNL A   1      46.442  27.134  36.937  1.00  0.00     0.054 A 
BRANCH  44  45
ATOM     45  S   UNL A   1      47.767  26.292  37.851  1.00  0.00     0.124 S 
ATOM     46  O   UNL A   1      47.621  26.867  39.187  1.00  0.00    -0.237 OA
ATOM     47  O   UNL A   1      47.398  24.885  37.730  1.00  0.00    -0.237 OA
ATOM     48  O   UNL A   1      48.980  26.679  37.136  1.00  0.00    -0.744 OA
ENDBRANCH  44  45
ENDBRANCH  25  39
BRANCH  26  49
ATOM     49  C   UNL A   1      36.765  33.165  31.153  1.00  0.00    -0.014 A 
ATOM     50  C   UNL A   1      35.498  33.085  31.753  1.00  0.00     0.010 A 
ATOM     51  C   UNL A   1      36.917  33.889  29.957  1.00  0.00     0.010 A 
ATOM     52  C   UNL A   1      34.398  33.714  31.161  1.00  0.00     0.020 A 
ATOM     53  C   UNL A   1      35.825  34.535  29.374  1.00  0.00     0.020 A 
ATOM     54  C   UNL A   1      34.569  34.433  29.975  1.00  0.00     0.054 A 
BRANCH  54  55
ATOM     55  S   UNL A   1      33.150  35.297  29.246  1.00  0.00     0.124 S 
ATOM     56  O   UNL A   1      33.780  36.480  28.670  1.00  0.00    -0.237 OA
ATOM     57  O   UNL A   1      32.635  34.323  28.286  1.00  0.00    -0.237 OA
ATOM     58  O   UNL A   1      32.281  35.543  30.395  1.00  0.00    -0.744 OA
ENDBRANCH  54  55
ENDBRANCH  26  49
BRANCH  38  59
ATOM     59  C   UNL A   1      39.762  33.672  37.410  1.00  0.00    -0.014 A 
ATOM     60  C   UNL A   1      39.257  33.056  38.569  1.00  0.00     0.010 A 
ATOM     61  C   UNL A   1      39.986  35.060  37.404  1.00  0.00     0.010 A 
ATOM     62  C   UNL A   1      38.956  33.822  39.697  1.00  0.00     0.020 A 
ATOM     63  C   UNL A   1      39.702  35.825  38.537  1.00  0.00     0.020 A 
ATOM     64  C   UNL A   1      39.176  35.202  39.672  1.00  0.00     0.054 A 
BRANCH  64  65
ATOM     65  S   UNL A   1      38.813  36.175  41.159  1.00  0.00     0.124 S 
ATOM     66  O   UNL A   1      40.002  35.940  41.973  1.00  0.00    -0.237 OA
ATOM     67  O   UNL A   1      38.668  37.531  40.635  1.00  0.00    -0.237 OA
ATOM     68  O   UNL A   1      37.580  35.578  41.667  1.00  0.00    -0.744 OA
ENDBRANCH  64  65
ENDBRANCH  38  59
ENDBRANCH  12  13
ENDBRANCH   5   7
ENDBRANCH   2   3
ENDBRANCH   1   2
BRANCH   1  69
ATOM     69  C   UNL A   1      41.002  21.958  27.068  1.00  0.00     0.023 C 
BRANCH  69  70
ATOM     70  C   UNL A   1      39.657  22.522  26.613  1.00  0.00     0.116 C 
BRANCH  70  71
ATOM     71  N   UNL A   1      38.976  21.635  25.687  1.00  0.00    -0.356 N 
ATOM     72  C   UNL A   1      37.667  21.653  25.295  1.00  0.00     0.224 C 
ATOM     73  H   UNL A   1      39.531  20.927  25.289  1.00  0.00     0.163 HD
ATOM     74  O   UNL A   1      37.245  20.750  24.577  1.00  0.00    -0.275 OA
BRANCH  72  75
ATOM     75  C   UNL A   1      36.786  22.790  25.780  1.00  0.00     0.095 C 
ATOM     76  C   UNL A   1      35.665  22.283  26.688  1.00  0.00     0.041 C 
ATOM     77  C   UNL A   1      36.272  23.696  24.639  1.00  0.00     0.095 C 
ATOM     78  C   UNL A   1      34.784  23.414  27.132  1.00  0.00    -0.030 C 
ATOM     79  C   UNL A   1      35.439  24.860  25.182  1.00  0.00     0.041 C 
ATOM     80  C   UNL A   1      34.708  24.579  26.470  1.00  0.00    -0.030 C 
BRANCH  77  81
ATOM     81  C   UNL A   1      35.838  22.968  23.344  1.00  0.00     0.229 C 
ATOM     82  O   UNL A   1      36.707  22.792  22.475  1.00  0.00    -0.274 OA
ATOM     83  N   UNL A   1      34.645  22.347  23.135  1.00  0.00    -0.317 N 
ATOM     84  H   UNL A   1      34.670  21.633  22.457  1.00  0.00     0.170 HD
BRANCH  83  85
ATOM     85  C   UNL A   1      33.413  22.545  23.707  1.00  0.00     0.108 A 
ATOM     86  S   UNL A   1      32.420  23.781  23.104  1.00  0.00    -0.122 S 
ATOM     87  C   UNL A   1      32.722  21.717  24.589  1.00  0.00     0.078 A 
ATOM     88  C   UNL A   1      31.421  23.667  24.466  1.00  0.00     0.011 A 
ATOM     89  C   UNL A   1      31.645  22.502  25.183  1.00  0.00    -0.019 A 
ATOM     90  C   UNL A   1      30.471  24.760  24.838  1.00  0.00     0.047 C 
ATOM     91  C   UNL A   1      30.945  22.267  26.493  1.00  0.00     0.037 C 
ATOM     92  C   UNL A   1      30.174  24.693  26.342  1.00  0.00     0.006 C 
ATOM     93  C   UNL A   1      29.804  23.266  26.755  1.00  0.00     0.005 C 
BRANCH  87  94
ATOM     94  C   UNL A   1      33.274  20.412  24.995  1.00  0.00     0.257 C 
ATOM     95  O   UNL A   1      34.259  20.349  25.729  1.00  0.00    -0.269 OA
ATOM     96  N   UNL A   1      32.668  19.245  24.537  1.00  0.00    -0.339 N 
ATOM     97  C   UNL A   1      32.773  18.048  25.366  1.00  0.00     0.120 C 
ATOM     98  C   UNL A   1      32.256  19.033  23.151  1.00  0.00     0.120 C 
ATOM     99  C   UNL A   1      33.654  16.987  24.718  1.00  0.00     0.022 C 
ATOM    100  C   UNL A   1      33.127  17.973  22.472  1.00  0.00     0.022 C 
ATOM    101  C   UNL A   1      33.178  16.689  23.299  1.00  0.00     0.004 C 
ENDBRANCH  87  94
ENDBRANCH  83  85
ENDBRANCH  77  81
ENDBRANCH  72  75
ENDBRANCH  70  71
ENDBRANCH  69  70
ENDBRANCH   1  69
TORSDOF 17
ENDMDL
MODEL 3
REMARK VINA RESULT:     -11.8      6.166     12.176
REMARK SMILES O=C(NCCCCNC(=O)[C@@H]1CC=CC[C@@H]1C(=O)Nc1sc2c(c1C(=O)N1CCCCC1)CCCC2)c1ccc(-c2c3nc(c(-c4ccc(S(=O)(=O)[O-])cc4)c4ccc([nH]4)c(-c4ccc(S(=O)(=O)[O-])cc4)c4nc(c(-c5ccc(S(=O)(=O)[O-])cc5)c5ccc2[nH]5)C=C4)C=C3)cc1
REMARK SMILES IDX 5 1 4 2 3 3 1 4 2 5 37 7 38 8 96 9 39 10 95 11 40 12 41 13
REMARK SMILES IDX 42 14 89 15 43 16 94 17 88 18 90 19 44 20 93 21 87 22 86 23
REMARK SMILES IDX 45 25 75 26 56 27 74 28 57 29 60 30 73 31 91 32 58 33 59 34
REMARK SMILES IDX 72 36 92 37 61 38 46 39 47 40 55 41 48 42 54 43 49 44 50 45
REMARK SMILES IDX 51 46 52 47 53 48 76 49 77 50 85 51 78 52 84 53 79 54 80 55
REMARK SMILES IDX 81 56 82 57 83 58 62 59 63 60 71 61 64 62 70 63 65 64 66 65
REMARK SMILES IDX 67 66 68 67 69 68 6 69 7 70 8 71 9 72 10 74 11 75 12 76
REMARK SMILES IDX 16 77 13 78 15 79 14 80 17 81 18 82 19 83 20 85 21 86 24 87
REMARK SMILES IDX 22 88 23 89 36 90 33 91 35 92 34 93 25 94 26 95 27 96 28 97
REMARK SMILES IDX 32 98 29 99 31 100 30 101
REMARK H PARENT 3 6 90 24 60 35 8 73 19 84
REMARK Flexibility Score: inf
ROOT
ATOM      1  C   UNL A   1      35.873  33.171  29.217  1.00  0.00     0.023 C 
ENDROOT
BRANCH   1   2
ATOM      2  C   UNL A   1      36.904  32.607  30.189  1.00  0.00     0.116 C 
BRANCH   2   3
ATOM      3  N   UNL A   1      36.381  31.543  31.028  1.00  0.00    -0.352 N 
ATOM      4  O   UNL A   1      36.293  29.468  31.909  1.00  0.00    -0.269 OA
ATOM      5  C   UNL A   1      36.907  30.292  31.239  1.00  0.00     0.251 C 
ATOM      6  H   UNL A   1      35.543  31.743  31.505  1.00  0.00     0.163 HD
BRANCH   5   7
ATOM      7  C   UNL A   1      38.200  29.940  30.619  1.00  0.00     0.039 A 
ATOM      8  C   UNL A   1      38.349  29.940  29.229  1.00  0.00     0.014 A 
ATOM      9  C   UNL A   1      39.273  29.604  31.447  1.00  0.00     0.014 A 
ATOM     10  C   UNL A   1      39.546  29.513  28.663  1.00  0.00     0.010 A 
ATOM     11  C   UNL A   1      40.491  29.226  30.879  1.00  0.00     0.010 A 
ATOM     12  C   UNL A   1      40.630  29.165  29.485  1.00  0.00    -0.014 A 
BRANCH  12  13
ATOM     13  C   UNL A   1      41.936  28.838  28.869  1.00  0.00     0.031 A 
ATOM     14  C   UNL A   1      42.221  27.467  28.327  1.00  0.00     0.074 A 
ATOM     15  C   UNL A   1      42.872  29.805  28.816  1.00  0.00     0.049 A 
ATOM     16  N   UNL A   1      43.317  27.020  27.770  1.00  0.00    -0.248 NA
ATOM     17  C   UNL A   1      41.146  26.467  28.426  1.00  0.00     0.031 C 
ATOM     18  C   UNL A   1      42.707  31.168  29.334  1.00  0.00     0.029 A 
ATOM     19  N   UNL A   1      44.143  29.795  28.305  1.00  0.00    -0.354 N 
ATOM     20  C   UNL A   1      43.076  25.686  27.471  1.00  0.00     0.074 A 
ATOM     21  C   UNL A   1      41.730  25.390  27.913  1.00  0.00     0.031 C 
ATOM     22  C   UNL A   1      43.827  31.866  29.098  1.00  0.00     0.029 A 
ATOM     23  C   UNL A   1      44.801  30.993  28.454  1.00  0.00     0.049 A 
ATOM     24  H   UNL A   1      44.546  29.008  27.872  1.00  0.00     0.167 HD
ATOM     25  C   UNL A   1      43.907  24.793  26.880  1.00  0.00     0.031 A 
ATOM     26  C   UNL A   1      46.060  31.343  28.134  1.00  0.00     0.031 A 
ATOM     27  C   UNL A   1      45.238  25.102  26.429  1.00  0.00     0.049 A 
ATOM     28  C   UNL A   1      46.960  30.328  27.500  1.00  0.00     0.074 A 
ATOM     29  C   UNL A   1      46.125  24.287  25.748  1.00  0.00     0.029 A 
ATOM     30  N   UNL A   1      45.877  26.317  26.622  1.00  0.00    -0.354 N 
ATOM     31  N   UNL A   1      46.691  29.088  27.168  1.00  0.00    -0.248 NA
ATOM     32  C   UNL A   1      48.335  30.752  27.206  1.00  0.00     0.031 C 
ATOM     33  C   UNL A   1      47.320  24.993  25.569  1.00  0.00     0.029 A 
ATOM     34  C   UNL A   1      47.162  26.259  26.110  1.00  0.00     0.049 A 
ATOM     35  H   UNL A   1      45.478  27.102  27.060  1.00  0.00     0.167 HD
ATOM     36  C   UNL A   1      47.866  28.580  26.633  1.00  0.00     0.074 A 
ATOM     37  C   UNL A   1      48.839  29.653  26.659  1.00  0.00     0.031 C 
ATOM     38  C   UNL A   1      48.120  27.333  26.169  1.00  0.00     0.031 A 
BRANCH  25  39
ATOM     39  C   UNL A   1      43.414  23.384  26.699  1.00  0.00    -0.014 A 
ATOM     40  C   UNL A   1      43.433  22.767  25.436  1.00  0.00     0.010 A 
ATOM     41  C   UNL A   1      43.016  22.638  27.824  1.00  0.00     0.010 A 
ATOM     42  C   UNL A   1      43.050  21.429  25.300  1.00  0.00     0.020 A 
ATOM     43  C   UNL A   1      42.644  21.297  27.692  1.00  0.00     0.020 A 
ATOM     44  C   UNL A   1      42.657  20.703  26.428  1.00  0.00     0.054 A 
BRANCH  44  45
ATOM     45  S   UNL A   1      42.216  18.952  26.234  1.00  0.00     0.124 S 
ATOM     46  O   UNL A   1      42.414  18.442  27.589  1.00  0.00    -0.237 OA
ATOM     47  O   UNL A   1      40.829  19.016  25.785  1.00  0.00    -0.237 OA
ATOM     48  O   UNL A   1      43.168  18.464  25.239  1.00  0.00    -0.744 OA
ENDBRANCH  44  45
ENDBRANCH  25  39
BRANCH  26  49
ATOM     49  C   UNL A   1      46.545  32.708  28.458  1.00  0.00    -0.014 A 
ATOM     50  C   UNL A   1      46.374  33.764  27.549  1.00  0.00     0.010 A 
ATOM     51  C   UNL A   1      47.156  32.960  29.701  1.00  0.00     0.010 A 
ATOM     52  C   UNL A   1      46.815  35.051  27.873  1.00  0.00     0.020 A 
ATOM     53  C   UNL A   1      47.578  34.247  30.036  1.00  0.00     0.020 A 
ATOM     54  C   UNL A   1      47.416  35.283  29.114  1.00  0.00     0.054 A 
BRANCH  54  55
ATOM     55  S   UNL A   1      47.929  36.968  29.552  1.00  0.00     0.124 S 
ATOM     56  O   UNL A   1      47.360  37.750  28.459  1.00  0.00    -0.237 OA
ATOM     57  O   UNL A   1      47.312  37.165  30.861  1.00  0.00    -0.237 OA
ATOM     58  O   UNL A   1      49.388  36.879  29.569  1.00  0.00    -0.744 OA
ENDBRANCH  54  55
ENDBRANCH  26  49
BRANCH  38  59
ATOM     59  C   UNL A   1      49.512  27.065  25.674  1.00  0.00    -0.014 A 
ATOM     60  C   UNL A   1      50.480  26.519  26.535  1.00  0.00     0.010 A 
ATOM     61  C   UNL A   1      49.845  27.331  24.335  1.00  0.00     0.010 A 
ATOM     62  C   UNL A   1      51.772  26.267  26.070  1.00  0.00     0.020 A 
ATOM     63  C   UNL A   1      51.132  27.063  23.863  1.00  0.00     0.020 A 
ATOM     64  C   UNL A   1      52.091  26.546  24.738  1.00  0.00     0.054 A 
BRANCH  64  65
ATOM     65  S   UNL A   1      53.764  26.177  24.141  1.00  0.00     0.124 S 
ATOM     66  O   UNL A   1      54.042  24.899  24.790  1.00  0.00    -0.237 OA
ATOM     67  O   UNL A   1      53.589  26.121  22.692  1.00  0.00    -0.237 OA
ATOM     68  O   UNL A   1      54.556  27.307  24.622  1.00  0.00    -0.744 OA
ENDBRANCH  64  65
ENDBRANCH  38  59
ENDBRANCH  12  13
ENDBRANCH   5   7
ENDBRANCH   2   3
ENDBRANCH   1   2
BRANCH   1  69
ATOM     69  C   UNL A   1      35.717  32.393  27.910  1.00  0.00     0.023 C 
BRANCH  69  70
ATOM     70  C   UNL A   1      35.005  31.047  28.044  1.00  0.00     0.116 C 
BRANCH  70  71
ATOM     71  N   UNL A   1      33.621  31.115  27.611  1.00  0.00    -0.356 N 
ATOM     72  C   UNL A   1      32.939  30.255  26.796  1.00  0.00     0.224 C 
ATOM     73  H   UNL A   1      33.105  31.881  27.949  1.00  0.00     0.163 HD
ATOM     74  O   UNL A   1      31.793  30.536  26.455  1.00  0.00    -0.275 OA
BRANCH  72  75
ATOM     75  C   UNL A   1      33.641  28.990  26.336  1.00  0.00     0.095 C 
ATOM     76  C   UNL A   1      33.792  28.954  24.815  1.00  0.00     0.041 C 
ATOM     77  C   UNL A   1      33.013  27.699  26.909  1.00  0.00     0.095 C 
ATOM     78  C   UNL A   1      34.458  27.682  24.375  1.00  0.00    -0.030 C 
ATOM     79  C   UNL A   1      33.790  26.456  26.466  1.00  0.00     0.041 C 
ATOM     80  C   UNL A   1      34.480  26.574  25.131  1.00  0.00    -0.030 C 
BRANCH  77  81
ATOM     81  C   UNL A   1      31.468  27.669  26.965  1.00  0.00     0.229 C 
ATOM     82  O   UNL A   1      30.931  28.089  28.004  1.00  0.00    -0.274 OA
ATOM     83  N   UNL A   1      30.632  27.394  25.927  1.00  0.00    -0.317 N 
ATOM     84  H   UNL A   1      29.731  27.781  26.014  1.00  0.00     0.170 HD
BRANCH  83  85
ATOM     85  C   UNL A   1      30.831  26.668  24.779  1.00  0.00     0.108 A 
ATOM     86  S   UNL A   1      30.697  24.978  24.845  1.00  0.00    -0.122 S 
ATOM     87  C   UNL A   1      30.903  27.125  23.465  1.00  0.00     0.078 A 
ATOM     88  C   UNL A   1      31.435  24.843  23.328  1.00  0.00     0.011 A 
ATOM     89  C   UNL A   1      31.470  26.053  22.653  1.00  0.00    -0.019 A 
ATOM     90  C   UNL A   1      32.022  23.552  22.851  1.00  0.00     0.047 C 
ATOM     91  C   UNL A   1      32.191  26.172  21.339  1.00  0.00     0.037 C 
ATOM     92  C   UNL A   1      33.104  23.837  21.803  1.00  0.00     0.006 C 
ATOM     93  C   UNL A   1      32.584  24.810  20.741  1.00  0.00     0.005 C 
BRANCH  87  94
ATOM     94  C   UNL A   1      30.713  28.552  23.145  1.00  0.00     0.257 C 
ATOM     95  O   UNL A   1      31.553  29.386  23.480  1.00  0.00    -0.269 OA
ATOM     96  N   UNL A   1      29.567  28.948  22.460  1.00  0.00    -0.339 N 
ATOM     97  C   UNL A   1      29.647  30.144  21.627  1.00  0.00     0.120 C 
ATOM     98  C   UNL A   1      28.221  28.482  22.788  1.00  0.00     0.120 C 
ATOM     99  C   UNL A   1      28.825  31.291  22.203  1.00  0.00     0.022 C 
ATOM    100  C   UNL A   1      27.372  29.613  23.373  1.00  0.00     0.022 C 
ATOM    101  C   UNL A   1      27.390  30.842  22.466  1.00  0.00     0.004 C 
ENDBRANCH  87  94
ENDBRANCH  83  85
ENDBRANCH  77  81
ENDBRANCH  72  75
ENDBRANCH  70  71
ENDBRANCH  69  70
ENDBRANCH   1  69
TORSDOF 17
ENDMDL
