MODEL 1
REMARK VINA RESULT:     -13.5      0.000      0.000
REMARK SMILES COc1ccc(-c2[nH]nc3nc(-c4ccc(C(F)(F)F)cc4)cc(C(=O)NCCCCNC(=O)c4ccc(-c5c6nc(c(-c7ccc(S(=O)(=O)[O-])cc7)c7ccc([nH]7)c(-c7ccc(S(=O)(=O)[O-])cc7)c7nc(c(-c8ccc(S(=O)(=O)[O-])cc8)c8ccc5[nH]8)C=C7)C=C6)cc4)c23)cc1
REMARK SMILES IDX 30 1 29 2 28 3 27 4 25 5 26 6 24 8 7 9 8 10 95 11 9 12 10 14
REMARK SMILES IDX 11 15 23 16 12 17 6 18 3 19 4 20 97 21 5 22 96 23 2 24 1 25
REMARK SMILES IDX 13 26 14 27 22 28 15 29 21 30 16 31 17 32 18 33 19 34 20 35
REMARK SMILES IDX 31 36 32 37 33 38 34 40 35 41 36 42 94 43 37 44 93 45 38 46
REMARK SMILES IDX 39 47 40 48 87 49 41 50 92 51 86 52 88 53 42 54 91 55 85 56
REMARK SMILES IDX 84 57 43 59 73 60 54 61 72 62 55 63 58 64 71 65 89 66 56 67
REMARK SMILES IDX 57 68 70 70 90 71 59 72 44 73 45 74 53 75 46 76 52 77 47 78
REMARK SMILES IDX 48 79 49 80 50 81 51 82 74 83 75 84 83 85 76 86 82 87 77 88
REMARK SMILES IDX 78 89 79 90 80 91 81 92 60 93 61 94 69 95 62 96 68 97 63 98
REMARK SMILES IDX 64 99 65 100 66 101 67 102
REMARK H PARENT 27 7 8 13 32 39 88 58 58 69
REMARK Flexibility Score: inf
ROOT
ATOM      1  C   UNL A   1      31.335  31.241  26.512  1.00  0.00     0.023 C 
ENDROOT
BRANCH   1   2
ATOM      2  C   UNL A   1      31.614  30.261  25.357  1.00  0.00     0.023 C 
BRANCH   2   3
ATOM      3  C   UNL A   1      32.535  29.092  25.707  1.00  0.00     0.116 C 
BRANCH   3   4
ATOM      4  N   UNL A   1      31.816  27.891  26.071  1.00  0.00    -0.352 N 
ATOM      5  C   UNL A   1      31.914  26.554  25.788  1.00  0.00     0.252 C 
ATOM      6  O   UNL A   1      31.220  25.852  26.515  1.00  0.00    -0.269 OA
ATOM      7  H   UNL A   1      31.064  28.084  26.677  1.00  0.00     0.163 HD
BRANCH   5   8
ATOM      8  C   UNL A   1      32.790  25.949  24.757  1.00  0.00     0.055 A 
ATOM      9  C   UNL A   1      31.582  26.457  22.567  1.00  0.00     0.075 A 
ATOM     10  N   UNL A   1      31.848  26.001  21.295  1.00  0.00    -0.275 N 
ATOM     11  C   UNL A   1      32.559  25.874  23.364  1.00  0.00     0.059 A 
ATOM     12  N   UNL A   1      32.939  25.233  21.177  1.00  0.00    -0.154 NA
ATOM     13  H   UNL A   1      31.275  26.224  20.526  1.00  0.00     0.190 HD
ATOM     14  C   UNL A   1      33.379  25.125  22.430  1.00  0.00     0.182 A 
ATOM     15  N   UNL A   1      34.464  24.401  22.806  1.00  0.00    -0.226 NA
ATOM     16  C   UNL A   1      33.976  25.271  25.058  1.00  0.00     0.043 A 
ATOM     17  C   UNL A   1      34.708  24.487  24.134  1.00  0.00     0.074 A 
BRANCH   9  18
ATOM     18  C   UNL A   1      30.459  27.364  22.776  1.00  0.00     0.001 A 
ATOM     19  C   UNL A   1      28.253  29.090  23.045  1.00  0.00     0.118 A 
ATOM     20  C   UNL A   1      29.435  29.541  22.458  1.00  0.00     0.047 A 
ATOM     21  C   UNL A   1      28.176  27.778  23.514  1.00  0.00     0.047 A 
ATOM     22  C   UNL A   1      30.536  28.690  22.332  1.00  0.00     0.014 A 
ATOM     23  C   UNL A   1      29.282  26.925  23.399  1.00  0.00     0.014 A 
BRANCH  19  24
ATOM     24  O   UNL A   1      27.229  29.995  23.050  1.00  0.00    -0.497 OA
ATOM     25  C   UNL A   1      27.538  31.293  22.565  1.00  0.00     0.278 C 
ENDBRANCH  19  24
ENDBRANCH   9  18
BRANCH  17  26
ATOM     26  C   UNL A   1      35.789  23.645  24.678  1.00  0.00     0.000 A 
ATOM     27  C   UNL A   1      36.159  22.438  24.077  1.00  0.00     0.011 A 
ATOM     28  C   UNL A   1      36.555  24.111  25.766  1.00  0.00     0.011 A 
ATOM     29  C   UNL A   1      37.298  21.747  24.513  1.00  0.00     0.014 A 
ATOM     30  C   UNL A   1      37.689  23.425  26.204  1.00  0.00     0.014 A 
ATOM     31  C   UNL A   1      38.083  22.242  25.569  1.00  0.00     0.056 A 
BRANCH  31  32
ATOM     32  C   UNL A   1      39.331  21.510  25.997  1.00  0.00     0.416 C 
ATOM     33  F   UNL A   1      39.290  20.184  25.691  1.00  0.00    -0.166 F 
ATOM     34  F   UNL A   1      40.450  21.997  25.390  1.00  0.00    -0.166 F 
ATOM     35  F   UNL A   1      39.577  21.577  27.335  1.00  0.00    -0.166 F 
ENDBRANCH  31  32
ENDBRANCH  17  26
ENDBRANCH   5   8
ENDBRANCH   3   4
ENDBRANCH   2   3
ENDBRANCH   1   2
BRANCH   1  36
ATOM     36  C   UNL A   1      32.566  31.901  27.132  1.00  0.00     0.116 C 
BRANCH  36  37
ATOM     37  N   UNL A   1      32.387  33.332  27.404  1.00  0.00    -0.352 N 
ATOM     38  C   UNL A   1      33.007  34.118  28.369  1.00  0.00     0.251 C 
ATOM     39  H   UNL A   1      31.741  33.798  26.825  1.00  0.00     0.163 HD
ATOM     40  O   UNL A   1      32.496  35.155  28.754  1.00  0.00    -0.269 OA
BRANCH  38  41
ATOM     41  C   UNL A   1      34.322  33.689  28.883  1.00  0.00     0.039 A 
ATOM     42  C   UNL A   1      34.515  33.100  30.134  1.00  0.00     0.014 A 
ATOM     43  C   UNL A   1      35.395  33.889  28.030  1.00  0.00     0.014 A 
ATOM     44  C   UNL A   1      35.799  32.663  30.472  1.00  0.00     0.010 A 
ATOM     45  C   UNL A   1      36.575  33.247  28.250  1.00  0.00     0.010 A 
ATOM     46  C   UNL A   1      36.820  32.740  29.513  1.00  0.00    -0.014 A 
BRANCH  46  47
ATOM     47  C   UNL A   1      38.167  32.240  29.732  1.00  0.00     0.031 A 
ATOM     48  C   UNL A   1      38.353  30.822  29.334  1.00  0.00     0.074 A 
ATOM     49  C   UNL A   1      39.204  33.079  29.965  1.00  0.00     0.049 A 
ATOM     50  N   UNL A   1      38.480  29.799  30.110  1.00  0.00    -0.248 NA
ATOM     51  C   UNL A   1      38.187  30.469  27.912  1.00  0.00     0.031 C 
ATOM     52  C   UNL A   1      39.211  34.551  29.992  1.00  0.00     0.029 A 
ATOM     53  N   UNL A   1      40.522  32.789  30.096  1.00  0.00    -0.354 N 
ATOM     54  C   UNL A   1      38.673  28.708  29.268  1.00  0.00     0.074 A 
ATOM     55  C   UNL A   1      38.241  29.136  27.963  1.00  0.00     0.031 C 
ATOM     56  C   UNL A   1      40.481  35.004  29.873  1.00  0.00     0.029 A 
ATOM     57  C   UNL A   1      41.385  33.870  29.939  1.00  0.00     0.049 A 
ATOM     58  H   UNL A   1      40.845  31.880  30.288  1.00  0.00     0.167 HD
ATOM     59  C   UNL A   1      39.438  27.645  29.651  1.00  0.00     0.031 A 
ATOM     60  C   UNL A   1      42.740  33.817  29.833  1.00  0.00     0.031 A 
ATOM     61  C   UNL A   1      39.771  27.728  31.054  1.00  0.00     0.049 A 
ATOM     62  C   UNL A   1      43.149  32.489  30.366  1.00  0.00     0.074 A 
ATOM     63  C   UNL A   1      39.046  27.773  32.226  1.00  0.00     0.029 A 
ATOM     64  N   UNL A   1      41.022  28.220  31.358  1.00  0.00    -0.354 N 
ATOM     65  N   UNL A   1      42.984  32.136  31.611  1.00  0.00    -0.248 NA
ATOM     66  C   UNL A   1      43.260  31.391  29.417  1.00  0.00     0.031 C 
ATOM     67  C   UNL A   1      39.724  28.731  33.035  1.00  0.00     0.029 A 
ATOM     68  C   UNL A   1      40.873  29.145  32.356  1.00  0.00     0.049 A 
ATOM     69  H   UNL A   1      41.869  27.953  30.934  1.00  0.00     0.167 HD
ATOM     70  C   UNL A   1      42.538  30.822  31.554  1.00  0.00     0.074 A 
ATOM     71  C   UNL A   1      42.802  30.393  30.179  1.00  0.00     0.031 C 
ATOM     72  C   UNL A   1      41.730  30.301  32.526  1.00  0.00     0.031 A 
BRANCH  59  73
ATOM     73  C   UNL A   1      40.248  26.784  28.710  1.00  0.00    -0.014 A 
ATOM     74  C   UNL A   1      39.844  25.444  28.526  1.00  0.00     0.010 A 
ATOM     75  C   UNL A   1      41.523  27.135  28.223  1.00  0.00     0.010 A 
ATOM     76  C   UNL A   1      40.711  24.486  27.988  1.00  0.00     0.020 A 
ATOM     77  C   UNL A   1      42.381  26.197  27.643  1.00  0.00     0.020 A 
ATOM     78  C   UNL A   1      41.984  24.869  27.569  1.00  0.00     0.054 A 
BRANCH  78  79
ATOM     79  S   UNL A   1      43.137  23.604  26.985  1.00  0.00     0.124 S 
ATOM     80  O   UNL A   1      44.413  24.117  27.473  1.00  0.00    -0.237 OA
ATOM     81  O   UNL A   1      42.639  22.403  27.649  1.00  0.00    -0.237 OA
ATOM     82  O   UNL A   1      42.964  23.627  25.535  1.00  0.00    -0.744 OA
ENDBRANCH  78  79
ENDBRANCH  59  73
BRANCH  60  83
ATOM     83  C   UNL A   1      43.646  34.662  29.006  1.00  0.00    -0.014 A 
ATOM     84  C   UNL A   1      43.250  35.142  27.741  1.00  0.00     0.010 A 
ATOM     85  C   UNL A   1      44.791  35.245  29.588  1.00  0.00     0.010 A 
ATOM     86  C   UNL A   1      43.933  36.203  27.115  1.00  0.00     0.020 A 
ATOM     87  C   UNL A   1      45.479  36.300  28.969  1.00  0.00     0.020 A 
ATOM     88  C   UNL A   1      45.032  36.793  27.746  1.00  0.00     0.054 A 
BRANCH  88  89
ATOM     89  S   UNL A   1      45.796  38.279  27.021  1.00  0.00     0.124 S 
ATOM     90  O   UNL A   1      46.434  38.899  28.178  1.00  0.00    -0.237 OA
ATOM     91  O   UNL A   1      46.705  37.718  26.025  1.00  0.00    -0.237 OA
ATOM     92  O   UNL A   1      44.661  39.018  26.471  1.00  0.00    -0.744 OA
ENDBRANCH  88  89
ENDBRANCH  60  83
BRANCH  72  93
ATOM     93  C   UNL A   1      41.534  31.075  33.811  1.00  0.00    -0.014 A 
ATOM     94  C   UNL A   1      40.579  32.096  33.986  1.00  0.00     0.010 A 
ATOM     95  C   UNL A   1      42.222  30.601  34.942  1.00  0.00     0.010 A 
ATOM     96  C   UNL A   1      40.331  32.632  35.262  1.00  0.00     0.020 A 
ATOM     97  C   UNL A   1      41.967  31.115  36.212  1.00  0.00     0.020 A 
ATOM     98  C   UNL A   1      41.026  32.133  36.369  1.00  0.00     0.054 A 
BRANCH  98  99
ATOM     99  S   UNL A   1      40.668  32.780  38.026  1.00  0.00     0.124 S 
ATOM    100  O   UNL A   1      39.251  32.466  38.189  1.00  0.00    -0.237 OA
ATOM    101  O   UNL A   1      41.583  32.022  38.878  1.00  0.00    -0.237 OA
ATOM    102  O   UNL A   1      40.975  34.206  37.918  1.00  0.00    -0.744 OA
ENDBRANCH  98  99
ENDBRANCH  72  93
ENDBRANCH  46  47
ENDBRANCH  38  41
ENDBRANCH  36  37
ENDBRANCH   1  36
TORSDOF 18
ENDMDL
MODEL 2
REMARK VINA RESULT:     -13.4      3.654      5.051
REMARK SMILES COc1ccc(-c2[nH]nc3nc(-c4ccc(C(F)(F)F)cc4)cc(C(=O)NCCCCNC(=O)c4ccc(-c5c6nc(c(-c7ccc(S(=O)(=O)[O-])cc7)c7ccc([nH]7)c(-c7ccc(S(=O)(=O)[O-])cc7)c7nc(c(-c8ccc(S(=O)(=O)[O-])cc8)c8ccc5[nH]8)C=C7)C=C6)cc4)c23)cc1
REMARK SMILES IDX 30 1 29 2 28 3 27 4 25 5 26 6 24 8 7 9 8 10 95 11 9 12 10 14
REMARK SMILES IDX 11 15 23 16 12 17 6 18 3 19 4 20 97 21 5 22 96 23 2 24 1 25
REMARK SMILES IDX 13 26 14 27 22 28 15 29 21 30 16 31 17 32 18 33 19 34 20 35
REMARK SMILES IDX 31 36 32 37 33 38 34 40 35 41 36 42 94 43 37 44 93 45 38 46
REMARK SMILES IDX 39 47 40 48 87 49 41 50 92 51 86 52 88 53 42 54 91 55 85 56
REMARK SMILES IDX 84 57 43 59 73 60 54 61 72 62 55 63 58 64 71 65 89 66 56 67
REMARK SMILES IDX 57 68 70 70 90 71 59 72 44 73 45 74 53 75 46 76 52 77 47 78
REMARK SMILES IDX 48 79 49 80 50 81 51 82 74 83 75 84 83 85 76 86 82 87 77 88
REMARK SMILES IDX 78 89 79 90 80 91 81 92 60 93 61 94 69 95 62 96 68 97 63 98
REMARK SMILES IDX 64 99 65 100 66 101 67 102
REMARK H PARENT 27 7 8 13 32 39 88 58 58 69
REMARK Flexibility Score: inf
ROOT
ATOM      1  C   UNL A   1      34.245  28.966  27.196  1.00  0.00     0.023 C 
ENDROOT
BRANCH   1   2
ATOM      2  C   UNL A   1      33.247  29.939  26.541  1.00  0.00     0.023 C 
BRANCH   2   3
ATOM      3  C   UNL A   1      32.308  29.309  25.511  1.00  0.00     0.116 C 
BRANCH   3   4
ATOM      4  N   UNL A   1      31.690  28.087  25.978  1.00  0.00    -0.352 N 
ATOM      5  C   UNL A   1      31.868  26.745  25.770  1.00  0.00     0.252 C 
ATOM      6  O   UNL A   1      31.255  26.045  26.568  1.00  0.00    -0.269 OA
ATOM      7  H   UNL A   1      30.952  28.267  26.604  1.00  0.00     0.163 HD
BRANCH   5   8
ATOM      8  C   UNL A   1      32.741  26.137  24.738  1.00  0.00     0.055 A 
ATOM      9  C   UNL A   1      31.535  26.653  22.549  1.00  0.00     0.075 A 
ATOM     10  N   UNL A   1      31.798  26.198  21.276  1.00  0.00    -0.275 N 
ATOM     11  C   UNL A   1      32.510  26.065  23.345  1.00  0.00     0.059 A 
ATOM     12  N   UNL A   1      32.886  25.425  21.157  1.00  0.00    -0.154 NA
ATOM     13  H   UNL A   1      31.227  26.425  20.507  1.00  0.00     0.190 HD
ATOM     14  C   UNL A   1      33.325  25.313  22.410  1.00  0.00     0.182 A 
ATOM     15  N   UNL A   1      34.407  24.583  22.784  1.00  0.00    -0.226 NA
ATOM     16  C   UNL A   1      33.923  25.452  25.037  1.00  0.00     0.043 A 
ATOM     17  C   UNL A   1      34.652  24.666  24.112  1.00  0.00     0.074 A 
BRANCH   9  18
ATOM     18  C   UNL A   1      30.416  27.566  22.760  1.00  0.00     0.001 A 
ATOM     19  C   UNL A   1      28.224  29.308  23.029  1.00  0.00     0.118 A 
ATOM     20  C   UNL A   1      29.429  29.767  22.499  1.00  0.00     0.047 A 
ATOM     21  C   UNL A   1      28.116  27.980  23.441  1.00  0.00     0.047 A 
ATOM     22  C   UNL A   1      30.523  28.908  22.373  1.00  0.00     0.014 A 
ATOM     23  C   UNL A   1      29.215  27.118  23.326  1.00  0.00     0.014 A 
BRANCH  19  24
ATOM     24  O   UNL A   1      27.211  30.226  23.039  1.00  0.00    -0.497 OA
ATOM     25  C   UNL A   1      27.590  31.575  23.261  1.00  0.00     0.278 C 
ENDBRANCH  19  24
ENDBRANCH   9  18
BRANCH  17  26
ATOM     26  C   UNL A   1      35.728  23.818  24.655  1.00  0.00     0.000 A 
ATOM     27  C   UNL A   1      36.194  22.689  23.974  1.00  0.00     0.011 A 
ATOM     28  C   UNL A   1      36.394  24.207  25.836  1.00  0.00     0.011 A 
ATOM     29  C   UNL A   1      37.330  22.004  24.428  1.00  0.00     0.014 A 
ATOM     30  C   UNL A   1      37.524  23.526  26.291  1.00  0.00     0.014 A 
ATOM     31  C   UNL A   1      38.016  22.425  25.580  1.00  0.00     0.056 A 
BRANCH  31  32
ATOM     32  C   UNL A   1      39.262  21.704  26.030  1.00  0.00     0.416 C 
ATOM     33  F   UNL A   1      39.185  20.358  25.839  1.00  0.00    -0.166 F 
ATOM     34  F   UNL A   1      40.370  22.113  25.350  1.00  0.00    -0.166 F 
ATOM     35  F   UNL A   1      39.552  21.878  27.349  1.00  0.00    -0.166 F 
ENDBRANCH  31  32
ENDBRANCH  17  26
ENDBRANCH   5   8
ENDBRANCH   3   4
ENDBRANCH   2   3
ENDBRANCH   1   2
BRANCH   1  36
ATOM     36  C   UNL A   1      35.582  29.573  27.617  1.00  0.00     0.116 C 
BRANCH  36  37
ATOM     37  N   UNL A   1      35.632  29.948  29.035  1.00  0.00    -0.352 N 
ATOM     38  C   UNL A   1      36.525  29.527  30.015  1.00  0.00     0.251 C 
ATOM     39  H   UNL A   1      34.941  30.583  29.333  1.00  0.00     0.163 HD
ATOM     40  O   UNL A   1      36.229  29.583  31.196  1.00  0.00    -0.269 OA
BRANCH  38  41
ATOM     41  C   UNL A   1      37.858  29.055  29.593  1.00  0.00     0.039 A 
ATOM     42  C   UNL A   1      38.560  29.575  28.504  1.00  0.00     0.014 A 
ATOM     43  C   UNL A   1      38.410  28.045  30.365  1.00  0.00     0.014 A 
ATOM     44  C   UNL A   1      39.850  29.099  28.256  1.00  0.00     0.010 A 
ATOM     45  C   UNL A   1      39.740  27.766  30.279  1.00  0.00     0.010 A 
ATOM     46  C   UNL A   1      40.429  28.195  29.159  1.00  0.00    -0.014 A 
BRANCH  46  47
ATOM     47  C   UNL A   1      41.790  27.701  29.040  1.00  0.00     0.031 A 
ATOM     48  C   UNL A   1      41.888  26.355  28.421  1.00  0.00     0.074 A 
ATOM     49  C   UNL A   1      42.857  28.523  29.181  1.00  0.00     0.049 A 
ATOM     50  N   UNL A   1      42.160  25.239  29.008  1.00  0.00    -0.248 NA
ATOM     51  C   UNL A   1      41.444  26.196  27.024  1.00  0.00     0.031 C 
ATOM     52  C   UNL A   1      42.876  29.977  29.409  1.00  0.00     0.029 A 
ATOM     53  N   UNL A   1      44.173  28.247  29.011  1.00  0.00    -0.354 N 
ATOM     54  C   UNL A   1      42.179  24.278  28.002  1.00  0.00     0.074 A 
ATOM     55  C   UNL A   1      41.501  24.870  26.878  1.00  0.00     0.031 C 
ATOM     56  C   UNL A   1      44.100  30.471  29.110  1.00  0.00     0.029 A 
ATOM     57  C   UNL A   1      44.994  29.359  28.841  1.00  0.00     0.049 A 
ATOM     58  H   UNL A   1      44.524  27.328  29.009  1.00  0.00     0.167 HD
ATOM     59  C   UNL A   1      42.999  23.190  28.078  1.00  0.00     0.031 A 
ATOM     60  C   UNL A   1      46.302  29.351  28.467  1.00  0.00     0.031 A 
ATOM     61  C   UNL A   1      43.600  23.087  29.386  1.00  0.00     0.049 A 
ATOM     62  C   UNL A   1      46.801  27.973  28.720  1.00  0.00     0.074 A 
ATOM     63  C   UNL A   1      43.119  22.955  30.673  1.00  0.00     0.029 A 
ATOM     64  N   UNL A   1      44.889  23.561  29.507  1.00  0.00    -0.354 N 
ATOM     65  N   UNL A   1      46.881  27.449  29.913  1.00  0.00    -0.248 NA
ATOM     66  C   UNL A   1      46.719  27.017  27.625  1.00  0.00     0.031 C 
ATOM     67  C   UNL A   1      43.947  23.809  31.459  1.00  0.00     0.029 A 
ATOM     68  C   UNL A   1      44.943  24.338  30.633  1.00  0.00     0.049 A 
ATOM     69  H   UNL A   1      45.635  23.374  28.893  1.00  0.00     0.167 HD
ATOM     70  C   UNL A   1      46.426  26.146  29.763  1.00  0.00     0.074 A 
ATOM     71  C   UNL A   1      46.414  25.914  28.317  1.00  0.00     0.031 C 
ATOM     72  C   UNL A   1      45.822  25.478  30.791  1.00  0.00     0.031 A 
BRANCH  59  73
ATOM     73  C   UNL A   1      43.604  22.484  26.887  1.00  0.00    -0.014 A 
ATOM     74  C   UNL A   1      42.906  21.384  26.344  1.00  0.00     0.010 A 
ATOM     75  C   UNL A   1      44.934  22.665  26.458  1.00  0.00     0.010 A 
ATOM     76  C   UNL A   1      43.537  20.457  25.507  1.00  0.00     0.020 A 
ATOM     77  C   UNL A   1      45.562  21.770  25.588  1.00  0.00     0.020 A 
ATOM     78  C   UNL A   1      44.871  20.648  25.152  1.00  0.00     0.054 A 
BRANCH  78  79
ATOM     79  S   UNL A   1      45.711  19.386  24.168  1.00  0.00     0.124 S 
ATOM     80  O   UNL A   1      47.050  19.952  24.037  1.00  0.00    -0.237 OA
ATOM     81  O   UNL A   1      45.601  18.206  25.022  1.00  0.00    -0.237 OA
ATOM     82  O   UNL A   1      44.927  19.334  22.937  1.00  0.00    -0.744 OA
ENDBRANCH  78  79
ENDBRANCH  59  73
BRANCH  60  83
ATOM     83  C   UNL A   1      47.032  30.322  27.604  1.00  0.00    -0.014 A 
ATOM     84  C   UNL A   1      46.369  31.408  26.997  1.00  0.00     0.010 A 
ATOM     85  C   UNL A   1      48.443  30.351  27.616  1.00  0.00     0.010 A 
ATOM     86  C   UNL A   1      47.085  32.506  26.482  1.00  0.00     0.020 A 
ATOM     87  C   UNL A   1      49.163  31.440  27.101  1.00  0.00     0.020 A 
ATOM     88  C   UNL A   1      48.481  32.526  26.558  1.00  0.00     0.054 A 
BRANCH  88  89
ATOM     89  S   UNL A   1      49.389  34.024  26.059  1.00  0.00     0.124 S 
ATOM     90  O   UNL A   1      49.905  34.516  27.333  1.00  0.00    -0.237 OA
ATOM     91  O   UNL A   1      50.389  33.497  25.134  1.00  0.00    -0.237 OA
ATOM     92  O   UNL A   1      48.362  34.861  25.443  1.00  0.00    -0.744 OA
ENDBRANCH  88  89
ENDBRANCH  60  83
BRANCH  72  93
ATOM     93  C   UNL A   1      45.886  26.065  32.184  1.00  0.00    -0.014 A 
ATOM     94  C   UNL A   1      44.926  26.946  32.720  1.00  0.00     0.010 A 
ATOM     95  C   UNL A   1      46.863  25.536  33.045  1.00  0.00     0.010 A 
ATOM     96  C   UNL A   1      44.955  27.292  34.082  1.00  0.00     0.020 A 
ATOM     97  C   UNL A   1      46.886  25.861  34.401  1.00  0.00     0.020 A 
ATOM     98  C   UNL A   1      45.935  26.743  34.915  1.00  0.00     0.054 A 
BRANCH  98  99
ATOM     99  S   UNL A   1      45.942  27.140  36.686  1.00  0.00     0.124 S 
ATOM    100  O   UNL A   1      47.155  26.476  37.155  1.00  0.00    -0.237 OA
ATOM    101  O   UNL A   1      45.982  28.601  36.693  1.00  0.00    -0.237 OA
ATOM    102  O   UNL A   1      44.692  26.562  37.179  1.00  0.00    -0.744 OA
ENDBRANCH  98  99
ENDBRANCH  72  93
ENDBRANCH  46  47
ENDBRANCH  38  41
ENDBRANCH  36  37
ENDBRANCH   1  36
TORSDOF 18
ENDMDL
MODEL 3
REMARK VINA RESULT:     -13.3      2.704      7.182
REMARK SMILES COc1ccc(-c2[nH]nc3nc(-c4ccc(C(F)(F)F)cc4)cc(C(=O)NCCCCNC(=O)c4ccc(-c5c6nc(c(-c7ccc(S(=O)(=O)[O-])cc7)c7ccc([nH]7)c(-c7ccc(S(=O)(=O)[O-])cc7)c7nc(c(-c8ccc(S(=O)(=O)[O-])cc8)c8ccc5[nH]8)C=C7)C=C6)cc4)c23)cc1
REMARK SMILES IDX 30 1 29 2 28 3 27 4 25 5 26 6 24 8 7 9 8 10 95 11 9 12 10 14
REMARK SMILES IDX 11 15 23 16 12 17 6 18 3 19 4 20 97 21 5 22 96 23 2 24 1 25
REMARK SMILES IDX 13 26 14 27 22 28 15 29 21 30 16 31 17 32 18 33 19 34 20 35
REMARK SMILES IDX 31 36 32 37 33 38 34 40 35 41 36 42 94 43 37 44 93 45 38 46
REMARK SMILES IDX 39 47 40 48 87 49 41 50 92 51 86 52 88 53 42 54 91 55 85 56
REMARK SMILES IDX 84 57 43 59 73 60 54 61 72 62 55 63 58 64 71 65 89 66 56 67
REMARK SMILES IDX 57 68 70 70 90 71 59 72 44 73 45 74 53 75 46 76 52 77 47 78
REMARK SMILES IDX 48 79 49 80 50 81 51 82 74 83 75 84 83 85 76 86 82 87 77 88
REMARK SMILES IDX 78 89 79 90 80 91 81 92 60 93 61 94 69 95 62 96 68 97 63 98
REMARK SMILES IDX 64 99 65 100 66 101 67 102
REMARK H PARENT 27 7 8 13 32 39 88 58 58 69
REMARK Flexibility Score: inf
ROOT
ATOM      1  C   UNL A   1      31.886  29.679  27.215  1.00  0.00     0.023 C 
ENDROOT
BRANCH   1   2
ATOM      2  C   UNL A   1      31.409  28.254  27.552  1.00  0.00     0.023 C 
BRANCH   2   3
ATOM      3  C   UNL A   1      31.817  27.179  26.545  1.00  0.00     0.116 C 
BRANCH   3   4
ATOM      4  N   UNL A   1      32.823  27.629  25.608  1.00  0.00    -0.352 N 
ATOM      5  C   UNL A   1      33.576  27.061  24.614  1.00  0.00     0.252 C 
ATOM      6  O   UNL A   1      34.146  27.884  23.907  1.00  0.00    -0.269 OA
ATOM      7  H   UNL A   1      33.016  28.589  25.711  1.00  0.00     0.163 HD
BRANCH   5   8
ATOM      8  C   UNL A   1      33.691  25.610  24.338  1.00  0.00     0.055 A 
ATOM      9  C   UNL A   1      31.399  24.990  23.405  1.00  0.00     0.075 A 
ATOM     10  N   UNL A   1      30.875  23.748  23.125  1.00  0.00    -0.275 N 
ATOM     11  C   UNL A   1      32.681  24.736  23.874  1.00  0.00     0.059 A 
ATOM     12  N   UNL A   1      31.713  22.718  23.303  1.00  0.00    -0.154 NA
ATOM     13  H   UNL A   1      29.948  23.625  22.814  1.00  0.00     0.190 HD
ATOM     14  C   UNL A   1      32.815  23.295  23.779  1.00  0.00     0.182 A 
ATOM     15  N   UNL A   1      33.940  22.625  24.141  1.00  0.00    -0.226 NA
ATOM     16  C   UNL A   1      34.851  24.869  24.592  1.00  0.00     0.043 A 
ATOM     17  C   UNL A   1      34.922  23.455  24.563  1.00  0.00     0.074 A 
BRANCH   9  18
ATOM     18  C   UNL A   1      30.583  26.176  23.164  1.00  0.00     0.001 A 
ATOM     19  C   UNL A   1      29.059  28.516  22.823  1.00  0.00     0.118 A 
ATOM     20  C   UNL A   1      28.586  27.474  23.621  1.00  0.00     0.047 A 
ATOM     21  C   UNL A   1      30.289  28.383  22.179  1.00  0.00     0.047 A 
ATOM     22  C   UNL A   1      29.336  26.307  23.785  1.00  0.00     0.014 A 
ATOM     23  C   UNL A   1      31.039  27.208  22.333  1.00  0.00     0.014 A 
BRANCH  19  24
ATOM     24  O   UNL A   1      28.266  29.629  22.796  1.00  0.00    -0.497 OA
ATOM     25  C   UNL A   1      28.559  30.581  21.785  1.00  0.00     0.278 C 
ENDBRANCH  19  24
ENDBRANCH   9  18
BRANCH  17  26
ATOM     26  C   UNL A   1      36.148  22.835  25.095  1.00  0.00     0.000 A 
ATOM     27  C   UNL A   1      36.460  21.492  24.858  1.00  0.00     0.011 A 
ATOM     28  C   UNL A   1      37.098  23.632  25.767  1.00  0.00     0.011 A 
ATOM     29  C   UNL A   1      37.709  20.977  25.229  1.00  0.00     0.014 A 
ATOM     30  C   UNL A   1      38.343  23.121  26.139  1.00  0.00     0.014 A 
ATOM     31  C   UNL A   1      38.669  21.789  25.858  1.00  0.00     0.056 A 
BRANCH  31  32
ATOM     32  C   UNL A   1      40.026  21.232  26.210  1.00  0.00     0.416 C 
ATOM     33  F   UNL A   1      41.042  21.916  25.615  1.00  0.00    -0.166 F 
ATOM     34  F   UNL A   1      40.276  21.287  27.549  1.00  0.00    -0.166 F 
ATOM     35  F   UNL A   1      40.194  19.928  25.855  1.00  0.00    -0.166 F 
ENDBRANCH  31  32
ENDBRANCH  17  26
ENDBRANCH   5   8
ENDBRANCH   3   4
ENDBRANCH   2   3
ENDBRANCH   1   2
BRANCH   1  36
ATOM     36  C   UNL A   1      33.323  30.009  27.617  1.00  0.00     0.116 C 
BRANCH  36  37
ATOM     37  N   UNL A   1      33.697  31.403  27.355  1.00  0.00    -0.352 N 
ATOM     38  C   UNL A   1      34.823  32.097  27.785  1.00  0.00     0.251 C 
ATOM     39  H   UNL A   1      33.066  31.917  26.801  1.00  0.00     0.163 HD
ATOM     40  O   UNL A   1      34.822  33.314  27.848  1.00  0.00    -0.269 OA
BRANCH  38  41
ATOM     41  C   UNL A   1      36.036  31.326  28.119  1.00  0.00     0.039 A 
ATOM     42  C   UNL A   1      36.277  30.022  27.680  1.00  0.00     0.014 A 
ATOM     43  C   UNL A   1      36.970  31.984  28.904  1.00  0.00     0.014 A 
ATOM     44  C   UNL A   1      37.502  29.429  27.998  1.00  0.00     0.010 A 
ATOM     45  C   UNL A   1      38.243  31.511  28.997  1.00  0.00     0.010 A 
ATOM     46  C   UNL A   1      38.479  30.192  28.654  1.00  0.00    -0.014 A 
BRANCH  46  47
ATOM     47  C   UNL A   1      39.812  29.700  28.958  1.00  0.00     0.031 A 
ATOM     48  C   UNL A   1      40.105  29.621  30.411  1.00  0.00     0.074 A 
ATOM     49  C   UNL A   1      40.569  29.079  28.022  1.00  0.00     0.049 A 
ATOM     50  N   UNL A   1      40.874  30.396  31.100  1.00  0.00    -0.248 NA
ATOM     51  C   UNL A   1      39.307  28.694  31.235  1.00  0.00     0.031 C 
ATOM     52  C   UNL A   1      40.222  28.744  26.631  1.00  0.00     0.029 A 
ATOM     53  N   UNL A   1      41.779  28.486  28.161  1.00  0.00    -0.354 N 
ATOM     54  C   UNL A   1      40.857  29.889  32.396  1.00  0.00     0.074 A 
ATOM     55  C   UNL A   1      39.710  29.022  32.466  1.00  0.00     0.031 C 
ATOM     56  C   UNL A   1      41.077  27.806  26.160  1.00  0.00     0.029 A 
ATOM     57  C   UNL A   1      42.128  27.604  27.141  1.00  0.00     0.049 A 
ATOM     58  H   UNL A   1      42.370  28.665  28.927  1.00  0.00     0.167 HD
ATOM     59  C   UNL A   1      41.944  29.998  33.212  1.00  0.00     0.031 A 
ATOM     60  C   UNL A   1      43.185  26.748  27.136  1.00  0.00     0.031 A 
ATOM     61  C   UNL A   1      42.935  30.876  32.638  1.00  0.00     0.049 A 
ATOM     62  C   UNL A   1      44.129  27.243  28.174  1.00  0.00     0.074 A 
ATOM     63  C   UNL A   1      42.956  32.200  32.248  1.00  0.00     0.029 A 
ATOM     64  N   UNL A   1      43.989  30.270  31.989  1.00  0.00    -0.354 N 
ATOM     65  N   UNL A   1      44.741  28.393  28.095  1.00  0.00    -0.248 NA
ATOM     66  C   UNL A   1      43.991  26.702  29.519  1.00  0.00     0.031 C 
ATOM     67  C   UNL A   1      43.695  32.207  31.029  1.00  0.00     0.029 A 
ATOM     68  C   UNL A   1      44.166  30.912  30.792  1.00  0.00     0.049 A 
ATOM     69  H   UNL A   1      44.519  29.512  32.326  1.00  0.00     0.167 HD
ATOM     70  C   UNL A   1      44.676  28.921  29.378  1.00  0.00     0.074 A 
ATOM     71  C   UNL A   1      44.270  27.800  30.228  1.00  0.00     0.031 C 
ATOM     72  C   UNL A   1      44.663  30.271  29.593  1.00  0.00     0.031 A 
BRANCH  59  73
ATOM     73  C   UNL A   1      42.319  29.000  34.285  1.00  0.00    -0.014 A 
ATOM     74  C   UNL A   1      43.066  27.865  33.902  1.00  0.00     0.010 A 
ATOM     75  C   UNL A   1      41.746  28.978  35.572  1.00  0.00     0.010 A 
ATOM     76  C   UNL A   1      43.141  26.730  34.716  1.00  0.00     0.020 A 
ATOM     77  C   UNL A   1      41.852  27.867  36.413  1.00  0.00     0.020 A 
ATOM     78  C   UNL A   1      42.514  26.734  35.960  1.00  0.00     0.054 A 
BRANCH  78  79
ATOM     79  S   UNL A   1      42.517  25.223  36.953  1.00  0.00     0.124 S 
ATOM     80  O   UNL A   1      43.541  25.523  37.949  1.00  0.00    -0.237 OA
ATOM     81  O   UNL A   1      41.144  25.177  37.449  1.00  0.00    -0.237 OA
ATOM     82  O   UNL A   1      42.862  24.181  35.990  1.00  0.00    -0.744 OA
ENDBRANCH  78  79
ENDBRANCH  59  73
BRANCH  60  83
ATOM     83  C   UNL A   1      43.273  25.376  26.561  1.00  0.00    -0.014 A 
ATOM     84  C   UNL A   1      43.414  25.170  25.173  1.00  0.00     0.010 A 
ATOM     85  C   UNL A   1      43.514  24.273  27.406  1.00  0.00     0.010 A 
ATOM     86  C   UNL A   1      43.842  23.930  24.658  1.00  0.00     0.020 A 
ATOM     87  C   UNL A   1      43.938  23.034  26.900  1.00  0.00     0.020 A 
ATOM     88  C   UNL A   1      44.124  22.874  25.529  1.00  0.00     0.054 A 
BRANCH  88  89
ATOM     89  S   UNL A   1      44.851  21.337  24.876  1.00  0.00     0.124 S 
ATOM     90  O   UNL A   1      44.943  21.617  23.446  1.00  0.00    -0.237 OA
ATOM     91  O   UNL A   1      46.124  21.258  25.586  1.00  0.00    -0.237 OA
ATOM     92  O   UNL A   1      43.876  20.312  25.243  1.00  0.00    -0.744 OA
ENDBRANCH  88  89
ENDBRANCH  60  83
BRANCH  72  93
ATOM     93  C   UNL A   1      44.991  31.200  28.444  1.00  0.00    -0.014 A 
ATOM     94  C   UNL A   1      44.154  31.414  27.332  1.00  0.00     0.010 A 
ATOM     95  C   UNL A   1      46.110  32.035  28.610  1.00  0.00     0.010 A 
ATOM     96  C   UNL A   1      44.440  32.434  26.407  1.00  0.00     0.020 A 
ATOM     97  C   UNL A   1      46.390  33.059  27.707  1.00  0.00     0.020 A 
ATOM     98  C   UNL A   1      45.557  33.252  26.604  1.00  0.00     0.054 A 
BRANCH  98  99
ATOM     99  S   UNL A   1      45.900  34.607  25.446  1.00  0.00     0.124 S 
ATOM    100  O   UNL A   1      45.556  35.790  26.231  1.00  0.00    -0.237 OA
ATOM    101  O   UNL A   1      47.321  34.437  25.155  1.00  0.00    -0.237 OA
ATOM    102  O   UNL A   1      45.009  34.336  24.318  1.00  0.00    -0.744 OA
ENDBRANCH  98  99
ENDBRANCH  72  93
ENDBRANCH  46  47
ENDBRANCH  38  41
ENDBRANCH  36  37
ENDBRANCH   1  36
TORSDOF 18
ENDMDL
