MODEL 1
REMARK VINA RESULT:     -10.7      0.000      0.000
REMARK SMILES CC(=O)Nc1nc(C[N@@H+]2CCO[C@@H](CC(=O)NCCCCNC(=O)c3ccc(-c4c5nc(c(-c6ccc(S(=O)(=O)[O-])cc6)c6ccc([nH]6)c(-c6ccc(S(=O)(=O)[O-])cc6)c6nc(c(-c7ccc(S(=O)(=O)[O-])cc7)c7ccc4[nH]7)C=C6)C=C5)cc3)C2)cs1
REMARK SMILES IDX 19 1 18 2 17 3 15 4 16 5 14 7 13 8 9 9 10 10 85 11 11 13
REMARK SMILES IDX 12 14 8 15 7 16 5 17 6 18 87 19 86 20 4 21 1 22 2 23 3 24
REMARK SMILES IDX 20 26 21 27 22 28 23 29 24 31 25 32 26 33 84 34 27 35 83 36
REMARK SMILES IDX 28 37 29 38 30 39 77 40 31 41 82 42 76 43 78 44 32 45 81 46
REMARK SMILES IDX 75 47 74 48 33 50 63 51 44 52 62 53 45 54 48 55 61 56 79 57
REMARK SMILES IDX 46 58 47 59 60 61 80 62 49 63 34 64 35 65 43 66 36 67 42 68
REMARK SMILES IDX 37 69 38 70 39 71 40 72 41 73 64 74 65 75 73 76 66 77 72 78
REMARK SMILES IDX 67 79 68 80 69 81 70 82 71 83 50 84 51 85 59 86 52 87 58 88
REMARK SMILES IDX 53 89 54 90 55 91 56 92 57 93
REMARK H PARENT 17 6 9 12 4 25 22 30 78 49 48 60
REMARK Flexibility Score: inf
ROOT
ATOM      1  C   UNL A   1      32.765  29.621  25.159  1.00  0.00     0.023 C 
ENDROOT
BRANCH   1   2
ATOM      2  C   UNL A   1      31.361  29.009  25.221  1.00  0.00     0.116 C 
BRANCH   2   3
ATOM      3  N   UNL A   1      30.719  28.993  23.916  1.00  0.00    -0.356 N 
ATOM      4  C   UNL A   1      30.093  27.977  23.252  1.00  0.00     0.222 C 
ATOM      5  O   UNL A   1      29.663  28.188  22.117  1.00  0.00    -0.275 OA
ATOM      6  H   UNL A   1      30.739  29.852  23.434  1.00  0.00     0.163 HD
BRANCH   4   7
ATOM      7  C   UNL A   1      29.950  26.612  23.889  1.00  0.00     0.138 C 
BRANCH   7   8
ATOM      8  C   UNL A   1      31.190  25.729  23.707  1.00  0.00     0.182 C 
ATOM      9  N   UNL A   1      31.942  23.570  22.530  1.00  0.00    -0.326 N 
ATOM     10  C   UNL A   1      32.997  24.373  21.922  1.00  0.00     0.291 C 
ATOM     11  C   UNL A   1      30.841  24.391  23.030  1.00  0.00     0.295 C 
ATOM     12  H   UNL A   1      31.582  23.037  21.737  1.00  0.00     0.348 HD
ATOM     13  C   UNL A   1      33.299  25.702  22.635  1.00  0.00     0.222 C 
ATOM     14  O   UNL A   1      32.115  26.467  22.880  1.00  0.00    -0.366 OA
BRANCH   9  15
ATOM     15  C   UNL A   1      32.319  22.435  23.371  1.00  0.00     0.320 C 
BRANCH  15  16
ATOM     16  C   UNL A   1      33.328  22.781  24.421  1.00  0.00     0.108 A 
ATOM     17  C   UNL A   1      35.388  22.920  25.193  1.00  0.00     0.189 A 
ATOM     18  N   UNL A   1      34.683  22.718  24.110  1.00  0.00    -0.219 NA
ATOM     19  S   UNL A   1      34.513  23.224  26.625  1.00  0.00    -0.105 S 
ATOM     20  C   UNL A   1      33.061  23.178  25.719  1.00  0.00     0.098 A 
BRANCH  17  21
ATOM     21  N   UNL A   1      36.738  22.918  25.359  1.00  0.00    -0.302 N 
ATOM     22  C   UNL A   1      36.997  20.461  25.084  1.00  0.00     0.114 C 
ATOM     23  C   UNL A   1      37.540  21.821  25.436  1.00  0.00     0.223 C 
ATOM     24  O   UNL A   1      38.731  21.979  25.718  1.00  0.00    -0.275 OA
ATOM     25  H   UNL A   1      37.178  23.796  25.432  1.00  0.00     0.172 HD
ENDBRANCH  17  21
ENDBRANCH  15  16
ENDBRANCH   9  15
ENDBRANCH   7   8
ENDBRANCH   4   7
ENDBRANCH   2   3
ENDBRANCH   1   2
BRANCH   1  26
ATOM     26  C   UNL A   1      33.860  28.812  25.828  1.00  0.00     0.023 C 
BRANCH  26  27
ATOM     27  C   UNL A   1      33.767  28.781  27.338  1.00  0.00     0.116 C 
BRANCH  27  28
ATOM     28  N   UNL A   1      33.779  30.104  27.957  1.00  0.00    -0.352 N 
ATOM     29  C   UNL A   1      34.837  30.723  28.585  1.00  0.00     0.251 C 
ATOM     30  H   UNL A   1      32.936  30.611  27.921  1.00  0.00     0.163 HD
ATOM     31  O   UNL A   1      34.708  31.811  29.132  1.00  0.00    -0.269 OA
BRANCH  29  32
ATOM     32  C   UNL A   1      36.121  29.998  28.623  1.00  0.00     0.039 A 
ATOM     33  C   UNL A   1      36.978  30.078  27.524  1.00  0.00     0.014 A 
ATOM     34  C   UNL A   1      36.535  29.412  29.820  1.00  0.00     0.014 A 
ATOM     35  C   UNL A   1      38.299  29.649  27.660  1.00  0.00     0.010 A 
ATOM     36  C   UNL A   1      37.872  29.083  29.981  1.00  0.00     0.010 A 
ATOM     37  C   UNL A   1      38.768  29.200  28.905  1.00  0.00    -0.014 A 
BRANCH  37  38
ATOM     38  C   UNL A   1      40.185  28.823  29.130  1.00  0.00     0.031 A 
ATOM     39  C   UNL A   1      41.140  29.868  29.639  1.00  0.00     0.074 A 
ATOM     40  C   UNL A   1      40.634  27.604  28.771  1.00  0.00     0.049 A 
ATOM     41  N   UNL A   1      42.444  29.828  29.713  1.00  0.00    -0.248 NA
ATOM     42  C   UNL A   1      40.549  31.146  30.069  1.00  0.00     0.031 C 
ATOM     43  C   UNL A   1      39.816  26.518  28.223  1.00  0.00     0.029 A 
ATOM     44  N   UNL A   1      41.904  27.082  28.792  1.00  0.00    -0.354 N 
ATOM     45  C   UNL A   1      42.829  31.091  30.147  1.00  0.00     0.074 A 
ATOM     46  C   UNL A   1      41.627  31.885  30.276  1.00  0.00     0.031 C 
ATOM     47  C   UNL A   1      40.601  25.453  27.984  1.00  0.00     0.029 A 
ATOM     48  C   UNL A   1      41.981  25.795  28.313  1.00  0.00     0.049 A 
ATOM     49  H   UNL A   1      42.686  27.582  29.120  1.00  0.00     0.167 HD
ATOM     50  C   UNL A   1      44.072  31.546  30.430  1.00  0.00     0.031 A 
ATOM     51  C   UNL A   1      43.046  24.986  28.148  1.00  0.00     0.031 A 
ATOM     52  C   UNL A   1      45.255  30.737  30.351  1.00  0.00     0.049 A 
ATOM     53  C   UNL A   1      44.413  25.493  28.521  1.00  0.00     0.074 A 
ATOM     54  C   UNL A   1      46.555  31.077  30.680  1.00  0.00     0.029 A 
ATOM     55  N   UNL A   1      45.277  29.416  29.928  1.00  0.00    -0.354 N 
ATOM     56  N   UNL A   1      44.756  26.678  28.966  1.00  0.00    -0.248 NA
ATOM     57  C   UNL A   1      45.534  24.553  28.378  1.00  0.00     0.031 C 
ATOM     58  C   UNL A   1      47.368  29.967  30.433  1.00  0.00     0.029 A 
ATOM     59  C   UNL A   1      46.568  28.925  29.989  1.00  0.00     0.049 A 
ATOM     60  H   UNL A   1      44.492  28.905  29.629  1.00  0.00     0.167 HD
ATOM     61  C   UNL A   1      46.127  26.616  29.188  1.00  0.00     0.074 A 
ATOM     62  C   UNL A   1      46.550  25.278  28.829  1.00  0.00     0.031 C 
ATOM     63  C   UNL A   1      46.960  27.581  29.648  1.00  0.00     0.031 A 
BRANCH  50  64
ATOM     64  C   UNL A   1      44.200  32.984  30.851  1.00  0.00    -0.014 A 
ATOM     65  C   UNL A   1      44.114  33.355  32.206  1.00  0.00     0.010 A 
ATOM     66  C   UNL A   1      44.408  33.979  29.880  1.00  0.00     0.010 A 
ATOM     67  C   UNL A   1      44.176  34.700  32.576  1.00  0.00     0.020 A 
ATOM     68  C   UNL A   1      44.501  35.324  30.249  1.00  0.00     0.020 A 
ATOM     69  C   UNL A   1      44.361  35.677  31.593  1.00  0.00     0.054 A 
BRANCH  69  70
ATOM     70  S   UNL A   1      44.440  37.416  32.100  1.00  0.00     0.124 S 
ATOM     71  O   UNL A   1      45.876  37.610  32.284  1.00  0.00    -0.237 OA
ATOM     72  O   UNL A   1      43.854  38.114  30.958  1.00  0.00    -0.237 OA
ATOM     73  O   UNL A   1      43.644  37.456  33.325  1.00  0.00    -0.744 OA
ENDBRANCH  69  70
ENDBRANCH  50  64
BRANCH  51  74
ATOM     74  C   UNL A   1      42.857  23.603  27.633  1.00  0.00    -0.014 A 
ATOM     75  C   UNL A   1      42.258  22.622  28.442  1.00  0.00     0.010 A 
ATOM     76  C   UNL A   1      43.251  23.264  26.325  1.00  0.00     0.010 A 
ATOM     77  C   UNL A   1      42.066  21.324  27.960  1.00  0.00     0.020 A 
ATOM     78  C   UNL A   1      43.039  21.972  25.831  1.00  0.00     0.020 A 
ATOM     79  C   UNL A   1      42.456  21.008  26.656  1.00  0.00     0.054 A 
BRANCH  79  80
ATOM     80  S   UNL A   1      42.140  19.333  26.030  1.00  0.00     0.124 S 
ATOM     81  O   UNL A   1      42.560  18.504  27.153  1.00  0.00    -0.237 OA
ATOM     82  O   UNL A   1      40.703  19.360  25.766  1.00  0.00    -0.237 OA
ATOM     83  O   UNL A   1      42.981  19.253  24.838  1.00  0.00    -0.744 OA
ENDBRANCH  79  80
ENDBRANCH  51  74
BRANCH  63  84
ATOM     84  C   UNL A   1      48.405  27.217  29.849  1.00  0.00    -0.014 A 
ATOM     85  C   UNL A   1      49.392  27.632  28.940  1.00  0.00     0.010 A 
ATOM     86  C   UNL A   1      48.784  26.533  31.018  1.00  0.00     0.010 A 
ATOM     87  C   UNL A   1      50.739  27.358  29.193  1.00  0.00     0.020 A 
ATOM     88  C   UNL A   1      50.131  26.277  31.284  1.00  0.00     0.020 A 
ATOM     89  C   UNL A   1      51.099  26.685  30.366  1.00  0.00     0.054 A 
BRANCH  89  90
ATOM     90  S   UNL A   1      52.859  26.411  30.712  1.00  0.00     0.124 S 
ATOM     91  O   UNL A   1      52.815  25.259  31.608  1.00  0.00    -0.237 OA
ATOM     92  O   UNL A   1      53.411  26.153  29.384  1.00  0.00    -0.237 OA
ATOM     93  O   UNL A   1      53.290  27.664  31.326  1.00  0.00    -0.744 OA
ENDBRANCH  89  90
ENDBRANCH  63  84
ENDBRANCH  37  38
ENDBRANCH  29  32
ENDBRANCH  27  28
ENDBRANCH  26  27
ENDBRANCH   1  26
TORSDOF 18
ENDMDL
MODEL 2
REMARK VINA RESULT:     -10.7      2.653      3.318
REMARK SMILES CC(=O)Nc1nc(C[N@@H+]2CCO[C@@H](CC(=O)NCCCCNC(=O)c3ccc(-c4c5nc(c(-c6ccc(S(=O)(=O)[O-])cc6)c6ccc([nH]6)c(-c6ccc(S(=O)(=O)[O-])cc6)c6nc(c(-c7ccc(S(=O)(=O)[O-])cc7)c7ccc4[nH]7)C=C6)C=C5)cc3)C2)cs1
REMARK SMILES IDX 19 1 18 2 17 3 15 4 16 5 14 7 13 8 9 9 10 10 85 11 11 13
REMARK SMILES IDX 12 14 8 15 7 16 5 17 6 18 87 19 86 20 4 21 1 22 2 23 3 24
REMARK SMILES IDX 20 26 21 27 22 28 23 29 24 31 25 32 26 33 84 34 27 35 83 36
REMARK SMILES IDX 28 37 29 38 30 39 77 40 31 41 82 42 76 43 78 44 32 45 81 46
REMARK SMILES IDX 75 47 74 48 33 50 63 51 44 52 62 53 45 54 48 55 61 56 79 57
REMARK SMILES IDX 46 58 47 59 60 61 80 62 49 63 34 64 35 65 43 66 36 67 42 68
REMARK SMILES IDX 37 69 38 70 39 71 40 72 41 73 64 74 65 75 73 76 66 77 72 78
REMARK SMILES IDX 67 79 68 80 69 81 70 82 71 83 50 84 51 85 59 86 52 87 58 88
REMARK SMILES IDX 53 89 54 90 55 91 56 92 57 93
REMARK H PARENT 17 6 9 12 4 25 22 30 78 49 48 60
REMARK Flexibility Score: inf
ROOT
ATOM      1  C   UNL A   1      33.027  30.004  26.911  1.00  0.00     0.023 C 
ENDROOT
BRANCH   1   2
ATOM      2  C   UNL A   1      32.962  29.429  25.492  1.00  0.00     0.116 C 
BRANCH   2   3
ATOM      3  N   UNL A   1      31.702  29.742  24.838  1.00  0.00    -0.356 N 
ATOM      4  C   UNL A   1      31.047  29.097  23.828  1.00  0.00     0.222 C 
ATOM      5  O   UNL A   1      30.001  29.583  23.394  1.00  0.00    -0.275 OA
ATOM      6  H   UNL A   1      31.248  30.547  25.177  1.00  0.00     0.163 HD
BRANCH   4   7
ATOM      7  C   UNL A   1      31.606  27.821  23.237  1.00  0.00     0.138 C 
BRANCH   7   8
ATOM      8  C   UNL A   1      31.052  26.555  23.902  1.00  0.00     0.182 C 
ATOM      9  N   UNL A   1      31.847  24.355  24.970  1.00  0.00    -0.326 N 
ATOM     10  C   UNL A   1      31.077  24.749  26.143  1.00  0.00     0.291 C 
ATOM     11  C   UNL A   1      32.146  25.490  24.099  1.00  0.00     0.295 C 
ATOM     12  H   UNL A   1      32.732  24.048  25.375  1.00  0.00     0.348 HD
ATOM     13  C   UNL A   1      30.003  25.821  25.891  1.00  0.00     0.222 C 
ATOM     14  O   UNL A   1      30.521  26.952  25.184  1.00  0.00    -0.366 OA
BRANCH   9  15
ATOM     15  C   UNL A   1      31.502  23.108  24.289  1.00  0.00     0.320 C 
BRANCH  15  16
ATOM     16  C   UNL A   1      32.447  21.986  24.586  1.00  0.00     0.108 A 
ATOM     17  C   UNL A   1      32.936  19.992  25.386  1.00  0.00     0.189 A 
ATOM     18  N   UNL A   1      31.945  20.779  25.063  1.00  0.00    -0.219 NA
ATOM     19  S   UNL A   1      34.508  20.599  25.123  1.00  0.00    -0.105 S 
ATOM     20  C   UNL A   1      33.822  22.007  24.429  1.00  0.00     0.098 A 
BRANCH  17  21
ATOM     21  N   UNL A   1      32.909  18.739  25.916  1.00  0.00    -0.302 N 
ATOM     22  C   UNL A   1      32.840  17.565  23.726  1.00  0.00     0.114 C 
ATOM     23  C   UNL A   1      32.752  17.575  25.230  1.00  0.00     0.223 C 
ATOM     24  O   UNL A   1      32.620  16.527  25.867  1.00  0.00    -0.275 OA
ATOM     25  H   UNL A   1      33.014  18.668  26.893  1.00  0.00     0.172 HD
ENDBRANCH  17  21
ENDBRANCH  15  16
ENDBRANCH   9  15
ENDBRANCH   7   8
ENDBRANCH   4   7
ENDBRANCH   2   3
ENDBRANCH   1   2
BRANCH   1  26
ATOM     26  C   UNL A   1      34.296  30.764  27.250  1.00  0.00     0.023 C 
BRANCH  26  27
ATOM     27  C   UNL A   1      35.124  30.123  28.343  1.00  0.00     0.116 C 
BRANCH  27  28
ATOM     28  N   UNL A   1      35.338  30.984  29.503  1.00  0.00    -0.352 N 
ATOM     29  C   UNL A   1      36.491  31.115  30.245  1.00  0.00     0.251 C 
ATOM     30  H   UNL A   1      34.572  31.534  29.786  1.00  0.00     0.163 HD
ATOM     31  O   UNL A   1      36.530  31.820  31.245  1.00  0.00    -0.269 OA
BRANCH  29  32
ATOM     32  C   UNL A   1      37.663  30.328  29.820  1.00  0.00     0.039 A 
ATOM     33  C   UNL A   1      38.052  30.357  28.481  1.00  0.00     0.014 A 
ATOM     34  C   UNL A   1      38.466  29.729  30.792  1.00  0.00     0.014 A 
ATOM     35  C   UNL A   1      39.309  29.864  28.127  1.00  0.00     0.010 A 
ATOM     36  C   UNL A   1      39.751  29.335  30.453  1.00  0.00     0.010 A 
ATOM     37  C   UNL A   1      40.187  29.400  29.119  1.00  0.00    -0.014 A 
BRANCH  37  38
ATOM     38  C   UNL A   1      41.568  28.954  28.812  1.00  0.00     0.031 A 
ATOM     39  C   UNL A   1      42.673  29.975  28.800  1.00  0.00     0.074 A 
ATOM     40  C   UNL A   1      41.808  27.684  28.430  1.00  0.00     0.049 A 
ATOM     41  N   UNL A   1      43.899  29.860  28.364  1.00  0.00    -0.248 NA
ATOM     42  C   UNL A   1      42.332  31.320  29.296  1.00  0.00     0.031 C 
ATOM     43  C   UNL A   1      40.814  26.610  28.357  1.00  0.00     0.029 A 
ATOM     44  N   UNL A   1      42.970  27.086  28.008  1.00  0.00    -0.354 N 
ATOM     45  C   UNL A   1      44.457  31.127  28.484  1.00  0.00     0.074 A 
ATOM     46  C   UNL A   1      43.423  32.003  28.990  1.00  0.00     0.031 C 
ATOM     47  C   UNL A   1      41.413  25.482  27.939  1.00  0.00     0.029 A 
ATOM     48  C   UNL A   1      42.820  25.762  27.669  1.00  0.00     0.049 A 
ATOM     49  H   UNL A   1      43.831  27.561  27.953  1.00  0.00     0.167 HD
ATOM     50  C   UNL A   1      45.721  31.525  28.213  1.00  0.00     0.031 A 
ATOM     51  C   UNL A   1      43.712  24.877  27.185  1.00  0.00     0.031 A 
ATOM     52  C   UNL A   1      46.757  30.639  27.762  1.00  0.00     0.049 A 
ATOM     53  C   UNL A   1      45.128  25.325  26.942  1.00  0.00     0.074 A 
ATOM     54  C   UNL A   1      48.089  30.922  27.523  1.00  0.00     0.029 A 
ATOM     55  N   UNL A   1      46.577  29.288  27.499  1.00  0.00    -0.354 N 
ATOM     56  N   UNL A   1      45.649  26.519  27.097  1.00  0.00    -0.248 NA
ATOM     57  C   UNL A   1      46.078  24.309  26.469  1.00  0.00     0.031 C 
ATOM     58  C   UNL A   1      48.711  29.746  27.091  1.00  0.00     0.029 A 
ATOM     59  C   UNL A   1      47.774  28.724  27.101  1.00  0.00     0.049 A 
ATOM     60  H   UNL A   1      45.724  28.805  27.582  1.00  0.00     0.167 HD
ATOM     61  C   UNL A   1      46.994  26.390  26.772  1.00  0.00     0.074 A 
ATOM     62  C   UNL A   1      47.207  25.003  26.414  1.00  0.00     0.031 C 
ATOM     63  C   UNL A   1      47.966  27.334  26.772  1.00  0.00     0.031 A 
BRANCH  50  64
ATOM     64  C   UNL A   1      46.042  32.982  28.404  1.00  0.00    -0.014 A 
ATOM     65  C   UNL A   1      45.878  33.905  27.354  1.00  0.00     0.010 A 
ATOM     66  C   UNL A   1      46.513  33.435  29.648  1.00  0.00     0.010 A 
ATOM     67  C   UNL A   1      46.236  35.244  27.529  1.00  0.00     0.020 A 
ATOM     68  C   UNL A   1      46.843  34.780  29.837  1.00  0.00     0.020 A 
ATOM     69  C   UNL A   1      46.724  35.671  28.768  1.00  0.00     0.054 A 
BRANCH  69  70
ATOM     70  S   UNL A   1      47.179  37.415  28.969  1.00  0.00     0.124 S 
ATOM     71  O   UNL A   1      45.871  38.063  29.005  1.00  0.00    -0.237 OA
ATOM     72  O   UNL A   1      47.913  37.414  30.232  1.00  0.00    -0.237 OA
ATOM     73  O   UNL A   1      47.984  37.701  27.784  1.00  0.00    -0.744 OA
ENDBRANCH  69  70
ENDBRANCH  50  64
BRANCH  51  74
ATOM     74  C   UNL A   1      43.301  23.471  26.925  1.00  0.00    -0.014 A 
ATOM     75  C   UNL A   1      43.106  23.023  25.606  1.00  0.00     0.010 A 
ATOM     76  C   UNL A   1      43.125  22.565  27.988  1.00  0.00     0.010 A 
ATOM     77  C   UNL A   1      42.731  21.700  25.354  1.00  0.00     0.020 A 
ATOM     78  C   UNL A   1      42.773  21.235  27.737  1.00  0.00     0.020 A 
ATOM     79  C   UNL A   1      42.569  20.813  26.421  1.00  0.00     0.054 A 
BRANCH  79  80
ATOM     80  S   UNL A   1      42.144  19.084  26.066  1.00  0.00     0.124 S 
ATOM     81  O   UNL A   1      42.546  18.413  27.298  1.00  0.00    -0.237 OA
ATOM     82  O   UNL A   1      40.705  19.155  25.824  1.00  0.00    -0.237 OA
ATOM     83  O   UNL A   1      42.950  18.771  24.888  1.00  0.00    -0.744 OA
ENDBRANCH  79  80
ENDBRANCH  51  74
BRANCH  63  84
ATOM     84  C   UNL A   1      49.363  26.898  26.430  1.00  0.00    -0.014 A 
ATOM     85  C   UNL A   1      50.199  26.311  27.394  1.00  0.00     0.010 A 
ATOM     86  C   UNL A   1      49.804  26.992  25.097  1.00  0.00     0.010 A 
ATOM     87  C   UNL A   1      51.460  25.832  27.032  1.00  0.00     0.020 A 
ATOM     88  C   UNL A   1      51.056  26.495  24.728  1.00  0.00     0.020 A 
ATOM     89  C   UNL A   1      51.879  25.925  25.700  1.00  0.00     0.054 A 
BRANCH  89  90
ATOM     90  S   UNL A   1      53.488  25.226  25.237  1.00  0.00     0.124 S 
ATOM     91  O   UNL A   1      53.667  25.747  23.885  1.00  0.00    -0.237 OA
ATOM     92  O   UNL A   1      54.383  25.783  26.250  1.00  0.00    -0.237 OA
ATOM     93  O   UNL A   1      53.278  23.783  25.328  1.00  0.00    -0.744 OA
ENDBRANCH  89  90
ENDBRANCH  63  84
ENDBRANCH  37  38
ENDBRANCH  29  32
ENDBRANCH  27  28
ENDBRANCH  26  27
ENDBRANCH   1  26
TORSDOF 18
ENDMDL
MODEL 3
REMARK VINA RESULT:     -10.1      4.875      9.552
REMARK SMILES CC(=O)Nc1nc(C[N@@H+]2CCO[C@@H](CC(=O)NCCCCNC(=O)c3ccc(-c4c5nc(c(-c6ccc(S(=O)(=O)[O-])cc6)c6ccc([nH]6)c(-c6ccc(S(=O)(=O)[O-])cc6)c6nc(c(-c7ccc(S(=O)(=O)[O-])cc7)c7ccc4[nH]7)C=C6)C=C5)cc3)C2)cs1
REMARK SMILES IDX 19 1 18 2 17 3 15 4 16 5 14 7 13 8 9 9 10 10 85 11 11 13
REMARK SMILES IDX 12 14 8 15 7 16 5 17 6 18 87 19 86 20 4 21 1 22 2 23 3 24
REMARK SMILES IDX 20 26 21 27 22 28 23 29 24 31 25 32 26 33 84 34 27 35 83 36
REMARK SMILES IDX 28 37 29 38 30 39 77 40 31 41 82 42 76 43 78 44 32 45 81 46
REMARK SMILES IDX 75 47 74 48 33 50 63 51 44 52 62 53 45 54 48 55 61 56 79 57
REMARK SMILES IDX 46 58 47 59 60 61 80 62 49 63 34 64 35 65 43 66 36 67 42 68
REMARK SMILES IDX 37 69 38 70 39 71 40 72 41 73 64 74 65 75 73 76 66 77 72 78
REMARK SMILES IDX 67 79 68 80 69 81 70 82 71 83 50 84 51 85 59 86 52 87 58 88
REMARK SMILES IDX 53 89 54 90 55 91 56 92 57 93
REMARK H PARENT 17 6 9 12 4 25 22 30 78 49 48 60
REMARK Flexibility Score: inf
ROOT
ATOM      1  C   UNL A   1      32.302  29.845  26.122  1.00  0.00     0.023 C 
ENDROOT
BRANCH   1   2
ATOM      2  C   UNL A   1      32.500  28.741  25.077  1.00  0.00     0.116 C 
BRANCH   2   3
ATOM      3  N   UNL A   1      31.381  27.812  25.052  1.00  0.00    -0.356 N 
ATOM      4  C   UNL A   1      31.306  26.533  24.580  1.00  0.00     0.222 C 
ATOM      5  O   UNL A   1      30.222  25.950  24.619  1.00  0.00    -0.275 OA
ATOM      6  H   UNL A   1      30.545  28.161  25.437  1.00  0.00     0.163 HD
BRANCH   4   7
ATOM      7  C   UNL A   1      32.526  25.852  23.999  1.00  0.00     0.138 C 
BRANCH   7   8
ATOM      8  C   UNL A   1      33.008  24.661  24.835  1.00  0.00     0.182 C 
ATOM      9  N   UNL A   1      33.494  22.145  24.623  1.00  0.00    -0.326 N 
ATOM     10  C   UNL A   1      34.825  22.448  25.136  1.00  0.00     0.291 C 
ATOM     11  C   UNL A   1      32.826  23.328  24.086  1.00  0.00     0.295 C 
ATOM     12  H   UNL A   1      33.694  21.529  23.834  1.00  0.00     0.348 HD
ATOM     13  C   UNL A   1      34.951  23.794  25.870  1.00  0.00     0.222 C 
ATOM     14  O   UNL A   1      34.408  24.878  25.110  1.00  0.00    -0.366 OA
BRANCH   9  15
ATOM     15  C   UNL A   1      32.644  21.224  25.376  1.00  0.00     0.320 C 
BRANCH  15  16
ATOM     16  C   UNL A   1      32.498  19.883  24.727  1.00  0.00     0.108 A 
ATOM     17  C   UNL A   1      32.415  17.681  24.770  1.00  0.00     0.189 A 
ATOM     18  N   UNL A   1      32.396  18.747  25.526  1.00  0.00    -0.219 NA
ATOM     19  S   UNL A   1      32.523  17.941  23.088  1.00  0.00    -0.105 S 
ATOM     20  C   UNL A   1      32.444  19.628  23.369  1.00  0.00     0.098 A 
BRANCH  17  21
ATOM     21  N   UNL A   1      32.370  16.368  25.125  1.00  0.00    -0.302 N 
ATOM     22  C   UNL A   1      34.837  16.078  25.237  1.00  0.00     0.114 C 
ATOM     23  C   UNL A   1      33.434  15.529  25.250  1.00  0.00     0.223 C 
ATOM     24  O   UNL A   1      33.221  14.331  25.455  1.00  0.00    -0.275 OA
ATOM     25  H   UNL A   1      31.481  15.988  25.310  1.00  0.00     0.172 HD
ENDBRANCH  17  21
ENDBRANCH  15  16
ENDBRANCH   9  15
ENDBRANCH   7   8
ENDBRANCH   4   7
ENDBRANCH   2   3
ENDBRANCH   1   2
BRANCH   1  26
ATOM     26  C   UNL A   1      33.219  29.773  27.329  1.00  0.00     0.023 C 
BRANCH  26  27
ATOM     27  C   UNL A   1      34.077  31.005  27.523  1.00  0.00     0.116 C 
BRANCH  27  28
ATOM     28  N   UNL A   1      33.326  32.258  27.490  1.00  0.00    -0.352 N 
ATOM     29  C   UNL A   1      33.538  33.379  28.260  1.00  0.00     0.251 C 
ATOM     30  H   UNL A   1      32.585  32.305  26.843  1.00  0.00     0.163 HD
ATOM     31  O   UNL A   1      32.795  34.351  28.192  1.00  0.00    -0.269 OA
BRANCH  29  32
ATOM     32  C   UNL A   1      34.665  33.346  29.211  1.00  0.00     0.039 A 
ATOM     33  C   UNL A   1      34.490  32.727  30.450  1.00  0.00     0.014 A 
ATOM     34  C   UNL A   1      35.927  33.759  28.782  1.00  0.00     0.014 A 
ATOM     35  C   UNL A   1      35.611  32.433  31.227  1.00  0.00     0.010 A 
ATOM     36  C   UNL A   1      37.043  33.374  29.509  1.00  0.00     0.010 A 
ATOM     37  C   UNL A   1      36.898  32.706  30.736  1.00  0.00    -0.014 A 
BRANCH  37  38
ATOM     38  C   UNL A   1      38.126  32.327  31.477  1.00  0.00     0.031 A 
ATOM     39  C   UNL A   1      39.002  31.238  30.919  1.00  0.00     0.074 A 
ATOM     40  C   UNL A   1      38.388  32.861  32.686  1.00  0.00     0.049 A 
ATOM     41  N   UNL A   1      39.996  30.607  31.485  1.00  0.00    -0.248 NA
ATOM     42  C   UNL A   1      38.677  30.762  29.563  1.00  0.00     0.031 C 
ATOM     43  C   UNL A   1      37.591  33.893  33.356  1.00  0.00     0.029 A 
ATOM     44  N   UNL A   1      39.393  32.589  33.580  1.00  0.00    -0.354 N 
ATOM     45  C   UNL A   1      40.378  29.627  30.576  1.00  0.00     0.074 A 
ATOM     46  C   UNL A   1      39.482  29.719  29.445  1.00  0.00     0.031 C 
ATOM     47  C   UNL A   1      38.152  34.182  34.543  1.00  0.00     0.029 A 
ATOM     48  C   UNL A   1      39.317  33.325  34.740  1.00  0.00     0.049 A 
ATOM     49  H   UNL A   1      40.104  31.930  33.407  1.00  0.00     0.167 HD
ATOM     50  C   UNL A   1      41.396  28.740  30.668  1.00  0.00     0.031 A 
ATOM     51  C   UNL A   1      40.092  33.302  35.842  1.00  0.00     0.031 A 
ATOM     52  C   UNL A   1      42.315  28.689  31.770  1.00  0.00     0.049 A 
ATOM     53  C   UNL A   1      41.252  32.345  35.900  1.00  0.00     0.074 A 
ATOM     54  C   UNL A   1      43.421  27.876  31.932  1.00  0.00     0.029 A 
ATOM     55  N   UNL A   1      42.241  29.501  32.892  1.00  0.00    -0.354 N 
ATOM     56  N   UNL A   1      41.624  31.451  35.015  1.00  0.00    -0.248 NA
ATOM     57  C   UNL A   1      42.102  32.400  37.097  1.00  0.00     0.031 C 
ATOM     58  C   UNL A   1      44.005  28.180  33.165  1.00  0.00     0.029 A 
ATOM     59  C   UNL A   1      43.284  29.210  33.751  1.00  0.00     0.049 A 
ATOM     60  H   UNL A   1      41.550  30.182  33.053  1.00  0.00     0.167 HD
ATOM     61  C   UNL A   1      42.769  30.859  35.535  1.00  0.00     0.074 A 
ATOM     62  C   UNL A   1      43.030  31.497  36.808  1.00  0.00     0.031 C 
ATOM     63  C   UNL A   1      43.537  29.876  35.004  1.00  0.00     0.031 A 
BRANCH  50  64
ATOM     64  C   UNL A   1      41.558  27.759  29.538  1.00  0.00    -0.014 A 
ATOM     65  C   UNL A   1      40.590  26.768  29.292  1.00  0.00     0.010 A 
ATOM     66  C   UNL A   1      42.694  27.828  28.714  1.00  0.00     0.010 A 
ATOM     67  C   UNL A   1      40.783  25.828  28.277  1.00  0.00     0.020 A 
ATOM     68  C   UNL A   1      42.876  26.908  27.677  1.00  0.00     0.020 A 
ATOM     69  C   UNL A   1      41.930  25.900  27.481  1.00  0.00     0.054 A 
BRANCH  69  70
ATOM     70  S   UNL A   1      42.157  24.669  26.169  1.00  0.00     0.124 S 
ATOM     71  O   UNL A   1      42.420  25.515  25.008  1.00  0.00    -0.237 OA
ATOM     72  O   UNL A   1      43.295  23.889  26.649  1.00  0.00    -0.237 OA
ATOM     73  O   UNL A   1      40.882  23.954  26.142  1.00  0.00    -0.744 OA
ENDBRANCH  69  70
ENDBRANCH  50  64
BRANCH  51  74
ATOM     74  C   UNL A   1      39.814  34.236  36.967  1.00  0.00    -0.014 A 
ATOM     75  C   UNL A   1      39.103  33.790  38.096  1.00  0.00     0.010 A 
ATOM     76  C   UNL A   1      40.276  35.564  36.930  1.00  0.00     0.010 A 
ATOM     77  C   UNL A   1      38.849  34.658  39.162  1.00  0.00     0.020 A 
ATOM     78  C   UNL A   1      40.043  36.428  38.005  1.00  0.00     0.020 A 
ATOM     79  C   UNL A   1      39.322  35.971  39.111  1.00  0.00     0.054 A 
BRANCH  79  80
ATOM     80  S   UNL A   1      39.035  37.062  40.534  1.00  0.00     0.124 S 
ATOM     81  O   UNL A   1      40.395  37.409  40.930  1.00  0.00    -0.237 OA
ATOM     82  O   UNL A   1      38.250  38.146  39.948  1.00  0.00    -0.237 OA
ATOM     83  O   UNL A   1      38.304  36.212  41.471  1.00  0.00    -0.744 OA
ENDBRANCH  79  80
ENDBRANCH  51  74
BRANCH  63  84
ATOM     84  C   UNL A   1      44.766  29.463  35.763  1.00  0.00    -0.014 A 
ATOM     85  C   UNL A   1      44.743  28.371  36.646  1.00  0.00     0.010 A 
ATOM     86  C   UNL A   1      45.982  30.123  35.511  1.00  0.00     0.010 A 
ATOM     87  C   UNL A   1      45.918  27.950  37.274  1.00  0.00     0.020 A 
ATOM     88  C   UNL A   1      47.162  29.692  36.121  1.00  0.00     0.020 A 
ATOM     89  C   UNL A   1      47.121  28.612  37.004  1.00  0.00     0.054 A 
BRANCH  89  90
ATOM     90  S   UNL A   1      48.648  28.000  37.769  1.00  0.00     0.124 S 
ATOM     91  O   UNL A   1      49.541  29.145  37.622  1.00  0.00    -0.237 OA
ATOM     92  O   UNL A   1      48.225  27.702  39.136  1.00  0.00    -0.237 OA
ATOM     93  O   UNL A   1      48.994  26.831  36.963  1.00  0.00    -0.744 OA
ENDBRANCH  89  90
ENDBRANCH  63  84
ENDBRANCH  37  38
ENDBRANCH  29  32
ENDBRANCH  27  28
ENDBRANCH  26  27
ENDBRANCH   1  26
TORSDOF 18
ENDMDL
