MODEL 1
REMARK VINA RESULT:      -9.8      0.000      0.000
REMARK SMILES O=C(/C=N\OCc1ccccc1)NCCCCNC(=O)c1ccc(-c2c3nc(c(-c4ccc(S(=O)(=O)[O-])cc4)c4ccc([nH]4)c(-c4ccc(S(=O)(=O)[O-])cc4)c4nc(c(-c5ccc(S(=O)(=O)[O-])cc5)c5ccc2[nH]5)C=C4)C=C3)cc1
REMARK SMILES IDX 15 1 14 2 13 3 1 4 2 5 3 7 4 8 5 9 6 10 7 11 8 12 12 13 9 14
REMARK SMILES IDX 11 15 10 16 16 17 17 18 18 19 19 20 20 22 21 23 22 24 80 25
REMARK SMILES IDX 23 26 79 27 24 28 25 29 26 30 73 31 27 32 78 33 72 34 74 35
REMARK SMILES IDX 28 36 77 37 71 38 70 39 29 41 59 42 40 43 58 44 41 45 44 46
REMARK SMILES IDX 57 47 75 48 42 49 43 50 56 52 76 53 45 54 30 55 31 56 39 57
REMARK SMILES IDX 32 58 38 59 33 60 34 61 35 62 36 63 37 64 60 65 61 66 69 67
REMARK SMILES IDX 62 68 68 69 63 70 64 71 65 72 66 73 67 74 46 75 47 76 55 77
REMARK SMILES IDX 48 78 54 79 49 80 50 81 51 82 52 83 53 84
REMARK H PARENT 13 6 18 21 74 40 44 51
REMARK Flexibility Score: inf
ROOT
ATOM      1  C   UNL A   1      41.340  20.389  26.430  1.00  0.00     0.023 C 
ENDROOT
BRANCH   1   2
ATOM      2  C   UNL A   1      42.522  19.428  26.323  1.00  0.00     0.116 C 
BRANCH   2   3
ATOM      3  N   UNL A   1      43.662  20.020  25.663  1.00  0.00    -0.351 N 
ATOM      4  O   UNL A   1      44.925  18.106  25.394  1.00  0.00    -0.268 OA
ATOM      5  C   UNL A   1      44.761  19.311  25.253  1.00  0.00     0.265 C 
ATOM      6  H   UNL A   1      43.651  20.990  25.500  1.00  0.00     0.163 HD
BRANCH   5   7
ATOM      7  C   UNL A   1      45.818  20.082  24.494  1.00  0.00     0.225 C 
ATOM      8  N   UNL A   1      46.396  21.202  24.814  1.00  0.00    -0.089 NA
BRANCH   8   9
ATOM      9  O   UNL A   1      46.018  21.698  26.070  1.00  0.00    -0.391 OA
BRANCH   9  10
ATOM     10  C   UNL A   1      45.791  23.115  25.976  1.00  0.00     0.299 C 
BRANCH  10  11
ATOM     11  C   UNL A   1      45.544  23.762  27.320  1.00  0.00    -0.008 A 
ATOM     12  C   UNL A   1      44.670  23.155  28.233  1.00  0.00     0.007 A 
ATOM     13  C   UNL A   1      46.211  24.937  27.701  1.00  0.00     0.007 A 
ATOM     14  C   UNL A   1      44.441  23.728  29.485  1.00  0.00     0.000 A 
ATOM     15  C   UNL A   1      45.978  25.510  28.951  1.00  0.00     0.000 A 
ATOM     16  C   UNL A   1      45.091  24.908  29.842  1.00  0.00     0.000 A 
ENDBRANCH  10  11
ENDBRANCH   9  10
ENDBRANCH   8   9
ENDBRANCH   5   7
ENDBRANCH   2   3
ENDBRANCH   1   2
BRANCH   1  17
ATOM     17  C   UNL A   1      41.398  21.370  27.605  1.00  0.00     0.023 C 
BRANCH  17  18
ATOM     18  C   UNL A   1      41.020  22.814  27.286  1.00  0.00     0.116 C 
BRANCH  18  19
ATOM     19  N   UNL A   1      41.842  23.399  26.240  1.00  0.00    -0.352 N 
ATOM     20  C   UNL A   1      42.258  24.701  26.076  1.00  0.00     0.251 C 
ATOM     21  H   UNL A   1      42.147  22.772  25.547  1.00  0.00     0.163 HD
ATOM     22  O   UNL A   1      42.843  25.023  25.045  1.00  0.00    -0.269 OA
BRANCH  20  23
ATOM     23  C   UNL A   1      41.978  25.720  27.115  1.00  0.00     0.039 A 
ATOM     24  C   UNL A   1      40.833  25.577  27.905  1.00  0.00     0.014 A 
ATOM     25  C   UNL A   1      42.824  26.816  27.311  1.00  0.00     0.014 A 
ATOM     26  C   UNL A   1      40.576  26.489  28.934  1.00  0.00     0.010 A 
ATOM     27  C   UNL A   1      42.605  27.683  28.381  1.00  0.00     0.010 A 
ATOM     28  C   UNL A   1      41.481  27.527  29.208  1.00  0.00    -0.014 A 
BRANCH  28  29
ATOM     29  C   UNL A   1      41.278  28.446  30.362  1.00  0.00     0.031 A 
ATOM     30  C   UNL A   1      42.129  28.322  31.597  1.00  0.00     0.074 A 
ATOM     31  C   UNL A   1      40.281  29.353  30.323  1.00  0.00     0.049 A 
ATOM     32  N   UNL A   1      42.056  28.991  32.720  1.00  0.00    -0.248 NA
ATOM     33  C   UNL A   1      43.186  27.298  31.578  1.00  0.00     0.031 C 
ATOM     34  C   UNL A   1      39.361  29.556  29.202  1.00  0.00     0.029 A 
ATOM     35  N   UNL A   1      39.870  30.273  31.257  1.00  0.00    -0.354 N 
ATOM     36  C   UNL A   1      43.041  28.459  33.545  1.00  0.00     0.074 A 
ATOM     37  C   UNL A   1      43.668  27.382  32.810  1.00  0.00     0.031 C 
ATOM     38  C   UNL A   1      38.512  30.551  29.502  1.00  0.00     0.029 A 
ATOM     39  C   UNL A   1      38.796  31.031  30.852  1.00  0.00     0.049 A 
ATOM     40  H   UNL A   1      40.302  30.380  32.135  1.00  0.00     0.167 HD
ATOM     41  C   UNL A   1      43.401  28.841  34.794  1.00  0.00     0.031 A 
ATOM     42  C   UNL A   1      38.108  31.997  31.492  1.00  0.00     0.031 A 
ATOM     43  C   UNL A   1      42.784  29.919  35.522  1.00  0.00     0.049 A 
ATOM     44  C   UNL A   1      38.518  32.393  32.884  1.00  0.00     0.074 A 
ATOM     45  C   UNL A   1      43.119  30.417  36.770  1.00  0.00     0.029 A 
ATOM     46  N   UNL A   1      41.703  30.663  35.072  1.00  0.00    -0.354 N 
ATOM     47  N   UNL A   1      39.494  31.920  33.621  1.00  0.00    -0.248 NA
ATOM     48  C   UNL A   1      37.738  33.460  33.527  1.00  0.00     0.031 C 
ATOM     49  C   UNL A   1      42.207  31.426  37.098  1.00  0.00     0.029 A 
ATOM     50  C   UNL A   1      41.342  31.598  36.029  1.00  0.00     0.049 A 
ATOM     51  H   UNL A   1      41.258  30.545  34.202  1.00  0.00     0.167 HD
ATOM     52  C   UNL A   1      39.465  32.652  34.804  1.00  0.00     0.074 A 
ATOM     53  C   UNL A   1      38.383  33.608  34.676  1.00  0.00     0.031 C 
ATOM     54  C   UNL A   1      40.264  32.545  35.893  1.00  0.00     0.031 A 
BRANCH  41  55
ATOM     55  C   UNL A   1      44.516  28.078  35.463  1.00  0.00    -0.014 A 
ATOM     56  C   UNL A   1      44.251  26.935  36.240  1.00  0.00     0.010 A 
ATOM     57  C   UNL A   1      45.850  28.484  35.278  1.00  0.00     0.010 A 
ATOM     58  C   UNL A   1      45.296  26.238  36.853  1.00  0.00     0.020 A 
ATOM     59  C   UNL A   1      46.901  27.772  35.866  1.00  0.00     0.020 A 
ATOM     60  C   UNL A   1      46.614  26.664  36.665  1.00  0.00     0.054 A 
BRANCH  60  61
ATOM     61  S   UNL A   1      47.951  25.729  37.460  1.00  0.00     0.124 S 
ATOM     62  O   UNL A   1      49.117  26.164  36.695  1.00  0.00    -0.237 OA
ATOM     63  O   UNL A   1      47.895  26.201  38.841  1.00  0.00    -0.237 OA
ATOM     64  O   UNL A   1      47.562  24.335  37.264  1.00  0.00    -0.744 OA
ENDBRANCH  60  61
ENDBRANCH  41  55
BRANCH  42  65
ATOM     65  C   UNL A   1      36.964  32.670  30.815  1.00  0.00    -0.014 A 
ATOM     66  C   UNL A   1      37.193  33.658  29.842  1.00  0.00     0.010 A 
ATOM     67  C   UNL A   1      35.640  32.319  31.135  1.00  0.00     0.010 A 
ATOM     68  C   UNL A   1      36.119  34.297  29.214  1.00  0.00     0.020 A 
ATOM     69  C   UNL A   1      34.564  32.934  30.489  1.00  0.00     0.020 A 
ATOM     70  C   UNL A   1      34.811  33.928  29.539  1.00  0.00     0.054 A 
BRANCH  70  71
ATOM     71  S   UNL A   1      33.434  34.735  28.675  1.00  0.00     0.124 S 
ATOM     72  O   UNL A   1      33.052  33.720  27.699  1.00  0.00    -0.237 OA
ATOM     73  O   UNL A   1      32.478  34.967  29.756  1.00  0.00    -0.237 OA
ATOM     74  O   UNL A   1      34.041  35.943  28.120  1.00  0.00    -0.744 OA
ENDBRANCH  70  71
ENDBRANCH  42  65
BRANCH  54  75
ATOM     75  C   UNL A   1      40.027  33.508  37.028  1.00  0.00    -0.014 A 
ATOM     76  C   UNL A   1      40.589  34.797  37.023  1.00  0.00     0.010 A 
ATOM     77  C   UNL A   1      39.182  33.134  38.088  1.00  0.00     0.010 A 
ATOM     78  C   UNL A   1      40.334  35.682  38.075  1.00  0.00     0.020 A 
ATOM     79  C   UNL A   1      38.902  34.025  39.127  1.00  0.00     0.020 A 
ATOM     80  C   UNL A   1      39.492  35.291  39.120  1.00  0.00     0.054 A 
BRANCH  80  81
ATOM     81  S   UNL A   1      39.142  36.473  40.449  1.00  0.00     0.124 S 
ATOM     82  O   UNL A   1      38.741  37.662  39.701  1.00  0.00    -0.237 OA
ATOM     83  O   UNL A   1      38.074  35.810  41.195  1.00  0.00    -0.237 OA
ATOM     84  O   UNL A   1      40.414  36.584  41.160  1.00  0.00    -0.744 OA
ENDBRANCH  80  81
ENDBRANCH  54  75
ENDBRANCH  28  29
ENDBRANCH  20  23
ENDBRANCH  18  19
ENDBRANCH  17  18
ENDBRANCH   1  17
TORSDOF 17
ENDMDL
MODEL 2
REMARK VINA RESULT:      -9.6      4.784      7.140
REMARK SMILES O=C(/C=N\OCc1ccccc1)NCCCCNC(=O)c1ccc(-c2c3nc(c(-c4ccc(S(=O)(=O)[O-])cc4)c4ccc([nH]4)c(-c4ccc(S(=O)(=O)[O-])cc4)c4nc(c(-c5ccc(S(=O)(=O)[O-])cc5)c5ccc2[nH]5)C=C4)C=C3)cc1
REMARK SMILES IDX 15 1 14 2 13 3 1 4 2 5 3 7 4 8 5 9 6 10 7 11 8 12 12 13 9 14
REMARK SMILES IDX 11 15 10 16 16 17 17 18 18 19 19 20 20 22 21 23 22 24 80 25
REMARK SMILES IDX 23 26 79 27 24 28 25 29 26 30 73 31 27 32 78 33 72 34 74 35
REMARK SMILES IDX 28 36 77 37 71 38 70 39 29 41 59 42 40 43 58 44 41 45 44 46
REMARK SMILES IDX 57 47 75 48 42 49 43 50 56 52 76 53 45 54 30 55 31 56 39 57
REMARK SMILES IDX 32 58 38 59 33 60 34 61 35 62 36 63 37 64 60 65 61 66 69 67
REMARK SMILES IDX 62 68 68 69 63 70 64 71 65 72 66 73 67 74 46 75 47 76 55 77
REMARK SMILES IDX 48 78 54 79 49 80 50 81 51 82 52 83 53 84
REMARK H PARENT 13 6 18 21 74 40 44 51
REMARK Flexibility Score: inf
ROOT
ATOM      1  C   UNL A   1      34.642  24.261  24.232  1.00  0.00     0.023 C 
ENDROOT
BRANCH   1   2
ATOM      2  C   UNL A   1      33.474  23.806  23.359  1.00  0.00     0.116 C 
BRANCH   2   3
ATOM      3  N   UNL A   1      32.526  24.865  23.102  1.00  0.00    -0.351 N 
ATOM      4  O   UNL A   1      33.298  25.508  21.023  1.00  0.00    -0.268 OA
ATOM      5  C   UNL A   1      32.516  25.621  21.959  1.00  0.00     0.265 C 
ATOM      6  H   UNL A   1      31.847  25.057  23.789  1.00  0.00     0.163 HD
BRANCH   5   7
ATOM      7  C   UNL A   1      31.390  26.622  21.820  1.00  0.00     0.225 C 
ATOM      8  N   UNL A   1      31.123  27.655  22.564  1.00  0.00    -0.089 NA
BRANCH   8   9
ATOM      9  O   UNL A   1      32.065  27.883  23.578  1.00  0.00    -0.391 OA
BRANCH   9  10
ATOM     10  C   UNL A   1      31.700  29.065  24.312  1.00  0.00     0.299 C 
BRANCH  10  11
ATOM     11  C   UNL A   1      32.660  29.380  25.437  1.00  0.00    -0.008 A 
ATOM     12  C   UNL A   1      32.379  30.438  26.313  1.00  0.00     0.007 A 
ATOM     13  C   UNL A   1      33.807  28.604  25.660  1.00  0.00     0.007 A 
ATOM     14  C   UNL A   1      33.244  30.735  27.367  1.00  0.00     0.000 A 
ATOM     15  C   UNL A   1      34.672  28.904  26.712  1.00  0.00     0.000 A 
ATOM     16  C   UNL A   1      34.393  29.971  27.563  1.00  0.00     0.000 A 
ENDBRANCH  10  11
ENDBRANCH   9  10
ENDBRANCH   8   9
ENDBRANCH   5   7
ENDBRANCH   2   3
ENDBRANCH   1   2
BRANCH   1  17
ATOM     17  C   UNL A   1      35.671  23.176  24.565  1.00  0.00     0.023 C 
BRANCH  17  18
ATOM     18  C   UNL A   1      37.103  23.659  24.778  1.00  0.00     0.116 C 
BRANCH  18  19
ATOM     19  N   UNL A   1      37.970  22.637  25.341  1.00  0.00    -0.352 N 
ATOM     20  C   UNL A   1      39.032  22.767  26.207  1.00  0.00     0.251 C 
ATOM     21  H   UNL A   1      37.768  21.716  25.062  1.00  0.00     0.163 HD
ATOM     22  O   UNL A   1      39.727  21.788  26.463  1.00  0.00    -0.269 OA
BRANCH  20  23
ATOM     23  C   UNL A   1      39.361  24.083  26.806  1.00  0.00     0.039 A 
ATOM     24  C   UNL A   1      38.915  24.363  28.101  1.00  0.00     0.014 A 
ATOM     25  C   UNL A   1      40.091  25.044  26.100  1.00  0.00     0.014 A 
ATOM     26  C   UNL A   1      39.263  25.571  28.714  1.00  0.00     0.010 A 
ATOM     27  C   UNL A   1      40.496  26.218  26.737  1.00  0.00     0.010 A 
ATOM     28  C   UNL A   1      40.090  26.492  28.052  1.00  0.00    -0.014 A 
BRANCH  28  29
ATOM     29  C   UNL A   1      40.555  27.737  28.725  1.00  0.00     0.031 A 
ATOM     30  C   UNL A   1      41.930  27.810  29.332  1.00  0.00     0.074 A 
ATOM     31  C   UNL A   1      39.712  28.782  28.847  1.00  0.00     0.049 A 
ATOM     32  N   UNL A   1      42.482  28.786  30.009  1.00  0.00    -0.248 NA
ATOM     33  C   UNL A   1      42.791  26.627  29.179  1.00  0.00     0.031 C 
ATOM     34  C   UNL A   1      38.340  28.830  28.336  1.00  0.00     0.029 A 
ATOM     35  N   UNL A   1      39.882  30.007  29.447  1.00  0.00    -0.354 N 
ATOM     36  C   UNL A   1      43.742  28.329  30.377  1.00  0.00     0.074 A 
ATOM     37  C   UNL A   1      43.857  26.972  29.886  1.00  0.00     0.031 C 
ATOM     38  C   UNL A   1      37.804  30.028  28.620  1.00  0.00     0.029 A 
ATOM     39  C   UNL A   1      38.775  30.819  29.372  1.00  0.00     0.049 A 
ATOM     40  H   UNL A   1      40.719  30.277  29.891  1.00  0.00     0.167 HD
ATOM     41  C   UNL A   1      44.722  28.983  31.047  1.00  0.00     0.031 A 
ATOM     42  C   UNL A   1      38.556  32.057  29.858  1.00  0.00     0.031 A 
ATOM     43  C   UNL A   1      44.612  30.335  31.526  1.00  0.00     0.049 A 
ATOM     44  C   UNL A   1      39.654  32.756  30.612  1.00  0.00     0.074 A 
ATOM     45  C   UNL A   1      45.572  31.102  32.166  1.00  0.00     0.029 A 
ATOM     46  N   UNL A   1      43.476  31.123  31.424  1.00  0.00    -0.354 N 
ATOM     47  N   UNL A   1      40.862  32.329  30.893  1.00  0.00    -0.248 NA
ATOM     48  C   UNL A   1      39.362  34.108  31.107  1.00  0.00     0.031 C 
ATOM     49  C   UNL A   1      44.998  32.334  32.499  1.00  0.00     0.029 A 
ATOM     50  C   UNL A   1      43.701  32.358  32.013  1.00  0.00     0.049 A 
ATOM     51  H   UNL A   1      42.633  30.848  30.997  1.00  0.00     0.167 HD
ATOM     52  C   UNL A   1      41.484  33.371  31.572  1.00  0.00     0.074 A 
ATOM     53  C   UNL A   1      40.523  34.453  31.647  1.00  0.00     0.031 C 
ATOM     54  C   UNL A   1      42.739  33.428  32.083  1.00  0.00     0.031 A 
BRANCH  41  55
ATOM     55  C   UNL A   1      46.004  28.235  31.314  1.00  0.00    -0.014 A 
ATOM     56  C   UNL A   1      47.059  28.244  30.382  1.00  0.00     0.010 A 
ATOM     57  C   UNL A   1      46.173  27.550  32.530  1.00  0.00     0.010 A 
ATOM     58  C   UNL A   1      48.240  27.546  30.645  1.00  0.00     0.020 A 
ATOM     59  C   UNL A   1      47.366  26.874  32.810  1.00  0.00     0.020 A 
ATOM     60  C   UNL A   1      48.384  26.862  31.856  1.00  0.00     0.054 A 
BRANCH  60  61
ATOM     61  S   UNL A   1      49.937  25.979  32.176  1.00  0.00     0.124 S 
ATOM     62  O   UNL A   1      50.411  25.706  30.822  1.00  0.00    -0.237 OA
ATOM     63  O   UNL A   1      50.714  26.959  32.928  1.00  0.00    -0.237 OA
ATOM     64  O   UNL A   1      49.517  24.804  32.936  1.00  0.00    -0.744 OA
ENDBRANCH  60  61
ENDBRANCH  41  55
BRANCH  42  65
ATOM     65  C   UNL A   1      37.244  32.724  29.633  1.00  0.00    -0.014 A 
ATOM     66  C   UNL A   1      36.230  32.648  30.603  1.00  0.00     0.010 A 
ATOM     67  C   UNL A   1      37.006  33.448  28.450  1.00  0.00     0.010 A 
ATOM     68  C   UNL A   1      34.994  33.266  30.387  1.00  0.00     0.020 A 
ATOM     69  C   UNL A   1      35.783  34.093  28.244  1.00  0.00     0.020 A 
ATOM     70  C   UNL A   1      34.780  33.988  29.210  1.00  0.00     0.054 A 
BRANCH  70  71
ATOM     71  S   UNL A   1      33.187  34.824  28.974  1.00  0.00     0.124 S 
ATOM     72  O   UNL A   1      32.599  34.739  30.307  1.00  0.00    -0.237 OA
ATOM     73  O   UNL A   1      33.594  36.161  28.545  1.00  0.00    -0.237 OA
ATOM     74  O   UNL A   1      32.529  34.022  27.945  1.00  0.00    -0.744 OA
ENDBRANCH  70  71
ENDBRANCH  42  65
BRANCH  54  75
ATOM     75  C   UNL A   1      43.165  34.715  32.740  1.00  0.00    -0.014 A 
ATOM     76  C   UNL A   1      43.764  35.751  32.001  1.00  0.00     0.010 A 
ATOM     77  C   UNL A   1      42.909  34.910  34.110  1.00  0.00     0.010 A 
ATOM     78  C   UNL A   1      44.127  36.946  32.629  1.00  0.00     0.020 A 
ATOM     79  C   UNL A   1      43.245  36.114  34.734  1.00  0.00     0.020 A 
ATOM     80  C   UNL A   1      43.866  37.120  33.991  1.00  0.00     0.054 A 
BRANCH  80  81
ATOM     81  S   UNL A   1      44.307  38.697  34.771  1.00  0.00     0.124 S 
ATOM     82  O   UNL A   1      45.710  38.841  34.394  1.00  0.00    -0.237 OA
ATOM     83  O   UNL A   1      43.386  39.637  34.137  1.00  0.00    -0.237 OA
ATOM     84  O   UNL A   1      44.066  38.460  36.193  1.00  0.00    -0.744 OA
ENDBRANCH  80  81
ENDBRANCH  54  75
ENDBRANCH  28  29
ENDBRANCH  20  23
ENDBRANCH  18  19
ENDBRANCH  17  18
ENDBRANCH   1  17
TORSDOF 17
ENDMDL
MODEL 3
REMARK VINA RESULT:      -9.5      3.281      4.298
REMARK SMILES O=C(/C=N\OCc1ccccc1)NCCCCNC(=O)c1ccc(-c2c3nc(c(-c4ccc(S(=O)(=O)[O-])cc4)c4ccc([nH]4)c(-c4ccc(S(=O)(=O)[O-])cc4)c4nc(c(-c5ccc(S(=O)(=O)[O-])cc5)c5ccc2[nH]5)C=C4)C=C3)cc1
REMARK SMILES IDX 15 1 14 2 13 3 1 4 2 5 3 7 4 8 5 9 6 10 7 11 8 12 12 13 9 14
REMARK SMILES IDX 11 15 10 16 16 17 17 18 18 19 19 20 20 22 21 23 22 24 80 25
REMARK SMILES IDX 23 26 79 27 24 28 25 29 26 30 73 31 27 32 78 33 72 34 74 35
REMARK SMILES IDX 28 36 77 37 71 38 70 39 29 41 59 42 40 43 58 44 41 45 44 46
REMARK SMILES IDX 57 47 75 48 42 49 43 50 56 52 76 53 45 54 30 55 31 56 39 57
REMARK SMILES IDX 32 58 38 59 33 60 34 61 35 62 36 63 37 64 60 65 61 66 69 67
REMARK SMILES IDX 62 68 68 69 63 70 64 71 65 72 66 73 67 74 46 75 47 76 55 77
REMARK SMILES IDX 48 78 54 79 49 80 50 81 51 82 52 83 53 84
REMARK H PARENT 13 6 18 21 74 40 44 51
REMARK Flexibility Score: inf
ROOT
ATOM      1  C   UNL A   1      42.935  23.188  25.199  1.00  0.00     0.023 C 
ENDROOT
BRANCH   1   2
ATOM      2  C   UNL A   1      44.200  23.128  24.347  1.00  0.00     0.116 C 
BRANCH   2   3
ATOM      3  N   UNL A   1      45.252  23.980  24.851  1.00  0.00    -0.351 N 
ATOM      4  O   UNL A   1      46.056  22.580  26.501  1.00  0.00    -0.268 OA
ATOM      5  C   UNL A   1      46.090  23.633  25.878  1.00  0.00     0.265 C 
ATOM      6  H   UNL A   1      45.374  24.863  24.432  1.00  0.00     0.163 HD
BRANCH   5   7
ATOM      7  C   UNL A   1      47.194  24.612  26.209  1.00  0.00     0.225 C 
ATOM      8  N   UNL A   1      47.099  25.814  26.700  1.00  0.00    -0.089 NA
BRANCH   8   9
ATOM      9  O   UNL A   1      45.787  26.193  27.019  1.00  0.00    -0.391 OA
BRANCH   9  10
ATOM     10  C   UNL A   1      45.310  27.132  26.039  1.00  0.00     0.299 C 
BRANCH  10  11
ATOM     11  C   UNL A   1      44.843  28.434  26.650  1.00  0.00    -0.008 A 
ATOM     12  C   UNL A   1      45.728  29.192  27.430  1.00  0.00     0.007 A 
ATOM     13  C   UNL A   1      43.554  28.933  26.412  1.00  0.00     0.007 A 
ATOM     14  C   UNL A   1      45.321  30.404  27.990  1.00  0.00     0.000 A 
ATOM     15  C   UNL A   1      43.148  30.144  26.974  1.00  0.00     0.000 A 
ATOM     16  C   UNL A   1      44.030  30.877  27.766  1.00  0.00     0.000 A 
ENDBRANCH  10  11
ENDBRANCH   9  10
ENDBRANCH   8   9
ENDBRANCH   5   7
ENDBRANCH   2   3
ENDBRANCH   1   2
BRANCH   1  17
ATOM     17  C   UNL A   1      42.455  21.844  25.756  1.00  0.00     0.023 C 
BRANCH  17  18
ATOM     18  C   UNL A   1      41.299  21.909  26.750  1.00  0.00     0.116 C 
BRANCH  18  19
ATOM     19  N   UNL A   1      39.999  21.991  26.106  1.00  0.00    -0.352 N 
ATOM     20  C   UNL A   1      39.072  23.009  26.127  1.00  0.00     0.251 C 
ATOM     21  H   UNL A   1      39.743  21.203  25.576  1.00  0.00     0.163 HD
ATOM     22  O   UNL A   1      37.967  22.830  25.623  1.00  0.00    -0.269 OA
BRANCH  20  23
ATOM     23  C   UNL A   1      39.386  24.302  26.780  1.00  0.00     0.039 A 
ATOM     24  C   UNL A   1      38.946  24.518  28.090  1.00  0.00     0.014 A 
ATOM     25  C   UNL A   1      40.097  25.304  26.113  1.00  0.00     0.014 A 
ATOM     26  C   UNL A   1      39.281  25.704  28.752  1.00  0.00     0.010 A 
ATOM     27  C   UNL A   1      40.489  26.454  26.797  1.00  0.00     0.010 A 
ATOM     28  C   UNL A   1      40.090  26.665  28.126  1.00  0.00    -0.014 A 
BRANCH  28  29
ATOM     29  C   UNL A   1      40.541  27.886  28.849  1.00  0.00     0.031 A 
ATOM     30  C   UNL A   1      41.900  27.934  29.495  1.00  0.00     0.074 A 
ATOM     31  C   UNL A   1      39.699  28.932  28.981  1.00  0.00     0.049 A 
ATOM     32  N   UNL A   1      42.437  28.886  30.216  1.00  0.00    -0.248 NA
ATOM     33  C   UNL A   1      42.760  26.752  29.327  1.00  0.00     0.031 C 
ATOM     34  C   UNL A   1      38.342  29.002  28.435  1.00  0.00     0.029 A 
ATOM     35  N   UNL A   1      39.858  30.136  29.623  1.00  0.00    -0.354 N 
ATOM     36  C   UNL A   1      43.686  28.411  30.602  1.00  0.00     0.074 A 
ATOM     37  C   UNL A   1      43.808  27.070  30.073  1.00  0.00     0.031 C 
ATOM     38  C   UNL A   1      37.804  30.193  28.743  1.00  0.00     0.029 A 
ATOM     39  C   UNL A   1      38.757  30.955  29.544  1.00  0.00     0.049 A 
ATOM     40  H   UNL A   1      40.684  30.388  30.097  1.00  0.00     0.167 HD
ATOM     41  C   UNL A   1      44.650  29.039  31.319  1.00  0.00     0.031 A 
ATOM     42  C   UNL A   1      38.530  32.178  30.062  1.00  0.00     0.031 A 
ATOM     43  C   UNL A   1      44.533  30.377  31.837  1.00  0.00     0.049 A 
ATOM     44  C   UNL A   1      39.610  32.849  30.867  1.00  0.00     0.074 A 
ATOM     45  C   UNL A   1      45.478  31.119  32.525  1.00  0.00     0.029 A 
ATOM     46  N   UNL A   1      43.403  31.173  31.729  1.00  0.00    -0.354 N 
ATOM     47  N   UNL A   1      40.809  32.407  31.166  1.00  0.00    -0.248 NA
ATOM     48  C   UNL A   1      39.311  34.186  31.396  1.00  0.00     0.031 C 
ATOM     49  C   UNL A   1      44.901  32.342  32.881  1.00  0.00     0.029 A 
ATOM     50  C   UNL A   1      43.617  32.388  32.361  1.00  0.00     0.049 A 
ATOM     51  H   UNL A   1      42.570  30.915  31.272  1.00  0.00     0.167 HD
ATOM     52  C   UNL A   1      41.417  33.425  31.893  1.00  0.00     0.074 A 
ATOM     53  C   UNL A   1      40.458  34.509  31.977  1.00  0.00     0.031 C 
ATOM     54  C   UNL A   1      42.657  33.460  32.439  1.00  0.00     0.031 A 
BRANCH  41  55
ATOM     55  C   UNL A   1      45.922  28.278  31.595  1.00  0.00    -0.014 A 
ATOM     56  C   UNL A   1      47.017  28.345  30.715  1.00  0.00     0.010 A 
ATOM     57  C   UNL A   1      46.038  27.519  32.774  1.00  0.00     0.010 A 
ATOM     58  C   UNL A   1      48.188  27.633  30.987  1.00  0.00     0.020 A 
ATOM     59  C   UNL A   1      47.219  26.828  33.064  1.00  0.00     0.020 A 
ATOM     60  C   UNL A   1      48.280  26.876  32.158  1.00  0.00     0.054 A 
BRANCH  60  61
ATOM     61  S   UNL A   1      49.820  25.976  32.492  1.00  0.00     0.124 S 
ATOM     62  O   UNL A   1      50.762  27.067  32.720  1.00  0.00    -0.237 OA
ATOM     63  O   UNL A   1      49.479  25.184  33.671  1.00  0.00    -0.237 OA
ATOM     64  O   UNL A   1      50.043  25.206  31.271  1.00  0.00    -0.744 OA
ENDBRANCH  60  61
ENDBRANCH  41  55
BRANCH  42  65
ATOM     65  C   UNL A   1      37.227  32.859  29.824  1.00  0.00    -0.014 A 
ATOM     66  C   UNL A   1      36.325  33.062  30.881  1.00  0.00     0.010 A 
ATOM     67  C   UNL A   1      36.886  33.315  28.537  1.00  0.00     0.010 A 
ATOM     68  C   UNL A   1      35.097  33.692  30.655  1.00  0.00     0.020 A 
ATOM     69  C   UNL A   1      35.673  33.972  28.312  1.00  0.00     0.020 A 
ATOM     70  C   UNL A   1      34.780  34.146  29.372  1.00  0.00     0.054 A 
BRANCH  70  71
ATOM     71  S   UNL A   1      33.204  35.006  29.112  1.00  0.00     0.124 S 
ATOM     72  O   UNL A   1      32.597  34.212  28.049  1.00  0.00    -0.237 OA
ATOM     73  O   UNL A   1      32.568  34.900  30.424  1.00  0.00    -0.237 OA
ATOM     74  O   UNL A   1      33.610  36.358  28.733  1.00  0.00    -0.744 OA
ENDBRANCH  70  71
ENDBRANCH  42  65
BRANCH  54  75
ATOM     75  C   UNL A   1      43.071  34.724  33.147  1.00  0.00    -0.014 A 
ATOM     76  C   UNL A   1      42.866  34.889  34.528  1.00  0.00     0.010 A 
ATOM     77  C   UNL A   1      43.726  35.739  32.425  1.00  0.00     0.010 A 
ATOM     78  C   UNL A   1      43.281  36.061  35.168  1.00  0.00     0.020 A 
ATOM     79  C   UNL A   1      44.167  36.899  33.067  1.00  0.00     0.020 A 
ATOM     80  C   UNL A   1      43.929  37.059  34.433  1.00  0.00     0.054 A 
BRANCH  80  81
ATOM     81  S   UNL A   1      44.497  38.550  35.295  1.00  0.00     0.124 S 
ATOM     82  O   UNL A   1      43.781  39.604  34.583  1.00  0.00    -0.237 OA
ATOM     83  O   UNL A   1      44.061  38.311  36.669  1.00  0.00    -0.237 OA
ATOM     84  O   UNL A   1      45.945  38.535  35.096  1.00  0.00    -0.744 OA
ENDBRANCH  80  81
ENDBRANCH  54  75
ENDBRANCH  28  29
ENDBRANCH  20  23
ENDBRANCH  18  19
ENDBRANCH  17  18
ENDBRANCH   1  17
TORSDOF 17
ENDMDL
