MODEL 1
REMARK VINA RESULT:     -12.5      0.000      0.000
REMARK SMILES O=C(NCCCCNC(=O)c1cc(Cl)ccc1N1C(=O)CC2(CCCC2)C1=O)c1ccc(-c2c3nc(c(-c4ccc(S(=O)(=O)[O-])cc4)c4ccc([nH]4)c(-c4ccc(S(=O)(=O)[O-])cc4)c4nc(c(-c5ccc(S(=O)(=O)[O-])cc5)c5ccc2[nH]5)C=C4)C=C3)cc1
REMARK SMILES IDX 4 1 3 2 1 3 2 4 29 6 30 7 88 8 31 9 87 10 32 11 33 12 34 13
REMARK SMILES IDX 81 14 35 15 86 16 80 17 82 18 36 19 85 20 79 21 78 22 37 24
REMARK SMILES IDX 67 25 48 26 66 27 49 28 52 29 65 30 83 31 50 32 51 33 64 35
REMARK SMILES IDX 84 36 53 37 38 38 39 39 47 40 40 41 46 42 41 43 42 44 43 45
REMARK SMILES IDX 44 46 45 47 68 48 69 49 77 50 70 51 76 52 71 53 72 54 73 55
REMARK SMILES IDX 74 56 75 57 54 58 55 59 63 60 56 61 62 62 57 63 58 64 59 65
REMARK SMILES IDX 60 66 61 67 5 68 6 69 7 70 8 71 9 72 10 74 11 75 12 76 17 77
REMARK SMILES IDX 13 78 16 79 14 80 15 81 18 82 19 83 27 84 20 85 21 86 22 87
REMARK SMILES IDX 28 88 23 89 26 90 24 91 25 92
REMARK H PARENT 3 5 82 23 52 34 8 73
REMARK Flexibility Score: inf
ROOT
ATOM      1  C   UNL A   1      38.010  24.085  26.547  1.00  0.00     0.116 C 
ENDROOT
BRANCH   1   2
ATOM      2  N   UNL A   1      39.402  23.879  26.179  1.00  0.00    -0.352 N 
ATOM      3  O   UNL A   1      41.603  24.326  26.025  1.00  0.00    -0.269 OA
ATOM      4  C   UNL A   1      40.522  24.584  26.547  1.00  0.00     0.251 C 
ATOM      5  H   UNL A   1      39.566  23.120  25.573  1.00  0.00     0.163 HD
BRANCH   4   6
ATOM      6  C   UNL A   1      40.421  25.672  27.543  1.00  0.00     0.039 A 
ATOM      7  C   UNL A   1      41.221  26.814  27.452  1.00  0.00     0.014 A 
ATOM      8  C   UNL A   1      39.497  25.542  28.584  1.00  0.00     0.014 A 
ATOM      9  C   UNL A   1      41.195  27.761  28.473  1.00  0.00     0.010 A 
ATOM     10  C   UNL A   1      39.424  26.527  29.572  1.00  0.00     0.010 A 
ATOM     11  C   UNL A   1      40.296  27.627  29.543  1.00  0.00    -0.014 A 
BRANCH  11  12
ATOM     12  C   UNL A   1      40.250  28.653  30.614  1.00  0.00     0.031 A 
ATOM     13  C   UNL A   1      41.167  28.565  31.801  1.00  0.00     0.074 A 
ATOM     14  C   UNL A   1      39.362  29.661  30.519  1.00  0.00     0.049 A 
ATOM     15  N   UNL A   1      41.224  29.337  32.856  1.00  0.00    -0.248 NA
ATOM     16  C   UNL A   1      42.141  27.463  31.810  1.00  0.00     0.031 C 
ATOM     17  C   UNL A   1      38.423  29.857  29.412  1.00  0.00     0.029 A 
ATOM     18  N   UNL A   1      39.103  30.708  31.366  1.00  0.00    -0.354 N 
ATOM     19  C   UNL A   1      42.218  28.802  33.667  1.00  0.00     0.074 A 
ATOM     20  C   UNL A   1      42.727  27.628  32.988  1.00  0.00     0.031 C 
ATOM     21  C   UNL A   1      37.702  30.965  29.641  1.00  0.00     0.029 A 
ATOM     22  C   UNL A   1      38.087  31.525  30.932  1.00  0.00     0.049 A 
ATOM     23  H   UNL A   1      39.597  30.858  32.205  1.00  0.00     0.167 HD
ATOM     24  C   UNL A   1      42.666  29.247  34.866  1.00  0.00     0.031 A 
ATOM     25  C   UNL A   1      37.508  32.592  31.516  1.00  0.00     0.031 A 
ATOM     26  C   UNL A   1      42.154  30.413  35.538  1.00  0.00     0.049 A 
ATOM     27  C   UNL A   1      38.000  33.052  32.855  1.00  0.00     0.074 A 
ATOM     28  C   UNL A   1      42.559  30.959  36.745  1.00  0.00     0.029 A 
ATOM     29  N   UNL A   1      41.121  31.209  35.066  1.00  0.00    -0.354 N 
ATOM     30  N   UNL A   1      38.957  32.547  33.596  1.00  0.00    -0.248 NA
ATOM     31  C   UNL A   1      37.340  34.227  33.438  1.00  0.00     0.031 C 
ATOM     32  C   UNL A   1      41.742  32.061  37.021  1.00  0.00     0.029 A 
ATOM     33  C   UNL A   1      40.862  32.231  35.964  1.00  0.00     0.049 A 
ATOM     34  H   UNL A   1      40.643  31.069  34.217  1.00  0.00     0.167 HD
ATOM     35  C   UNL A   1      39.028  33.354  34.725  1.00  0.00     0.074 A 
ATOM     36  C   UNL A   1      38.023  34.385  34.565  1.00  0.00     0.031 C 
ATOM     37  C   UNL A   1      39.857  33.252  35.792  1.00  0.00     0.031 A 
BRANCH  24  38
ATOM     38  C   UNL A   1      43.741  28.440  35.545  1.00  0.00    -0.014 A 
ATOM     39  C   UNL A   1      45.104  28.691  35.307  1.00  0.00     0.010 A 
ATOM     40  C   UNL A   1      43.380  27.421  36.446  1.00  0.00     0.010 A 
ATOM     41  C   UNL A   1      46.085  27.901  35.913  1.00  0.00     0.020 A 
ATOM     42  C   UNL A   1      44.360  26.645  37.074  1.00  0.00     0.020 A 
ATOM     43  C   UNL A   1      45.706  26.874  36.783  1.00  0.00     0.054 A 
BRANCH  43  44
ATOM     44  S   UNL A   1      46.996  25.850  37.544  1.00  0.00     0.124 S 
ATOM     45  O   UNL A   1      48.202  26.619  37.247  1.00  0.00    -0.237 OA
ATOM     46  O   UNL A   1      46.600  25.822  38.950  1.00  0.00    -0.237 OA
ATOM     47  O   UNL A   1      46.882  24.573  36.843  1.00  0.00    -0.744 OA
ENDBRANCH  43  44
ENDBRANCH  24  38
BRANCH  25  48
ATOM     48  C   UNL A   1      36.392  33.279  30.817  1.00  0.00    -0.014 A 
ATOM     49  C   UNL A   1      35.097  33.271  31.361  1.00  0.00     0.010 A 
ATOM     50  C   UNL A   1      36.641  34.014  29.642  1.00  0.00     0.010 A 
ATOM     51  C   UNL A   1      34.070  33.992  30.745  1.00  0.00     0.020 A 
ATOM     52  C   UNL A   1      35.621  34.755  29.039  1.00  0.00     0.020 A 
ATOM     53  C   UNL A   1      34.341  34.737  29.593  1.00  0.00     0.054 A 
BRANCH  53  54
ATOM     54  S   UNL A   1      33.017  35.745  28.870  1.00  0.00     0.124 S 
ATOM     55  O   UNL A   1      33.773  36.782  28.173  1.00  0.00    -0.237 OA
ATOM     56  O   UNL A   1      32.319  34.788  28.015  1.00  0.00    -0.237 OA
ATOM     57  O   UNL A   1      32.258  36.197  30.033  1.00  0.00    -0.744 OA
ENDBRANCH  53  54
ENDBRANCH  25  48
BRANCH  37  58
ATOM     58  C   UNL A   1      39.742  34.301  36.862  1.00  0.00    -0.014 A 
ATOM     59  C   UNL A   1      38.986  34.077  38.025  1.00  0.00     0.010 A 
ATOM     60  C   UNL A   1      40.463  35.503  36.730  1.00  0.00     0.010 A 
ATOM     61  C   UNL A   1      38.939  35.044  39.033  1.00  0.00     0.020 A 
ATOM     62  C   UNL A   1      40.436  36.463  37.745  1.00  0.00     0.020 A 
ATOM     63  C   UNL A   1      39.667  36.230  38.888  1.00  0.00     0.054 A 
BRANCH  63  64
ATOM     64  S   UNL A   1      39.646  37.442  40.237  1.00  0.00     0.124 S 
ATOM     65  O   UNL A   1      38.848  38.522  39.663  1.00  0.00    -0.237 OA
ATOM     66  O   UNL A   1      39.011  36.702  41.326  1.00  0.00    -0.237 OA
ATOM     67  O   UNL A   1      41.058  37.753  40.445  1.00  0.00    -0.744 OA
ENDBRANCH  63  64
ENDBRANCH  37  58
ENDBRANCH  11  12
ENDBRANCH   4   6
ENDBRANCH   1   2
BRANCH   1  68
ATOM     68  C   UNL A   1      37.037  23.730  25.428  1.00  0.00     0.023 C 
BRANCH  68  69
ATOM     69  C   UNL A   1      37.449  22.553  24.546  1.00  0.00     0.023 C 
BRANCH  69  70
ATOM     70  C   UNL A   1      36.799  21.216  24.888  1.00  0.00     0.116 C 
BRANCH  70  71
ATOM     71  N   UNL A   1      35.895  21.292  26.024  1.00  0.00    -0.352 N 
ATOM     72  C   UNL A   1      34.558  20.992  26.092  1.00  0.00     0.253 C 
ATOM     73  H   UNL A   1      36.299  21.605  26.865  1.00  0.00     0.163 HD
ATOM     74  O   UNL A   1      33.908  21.249  27.104  1.00  0.00    -0.269 OA
BRANCH  72  75
ATOM     75  C   UNL A   1      33.882  20.328  24.955  1.00  0.00     0.065 A 
ATOM     76  C   UNL A   1      33.990  18.929  24.867  1.00  0.00     0.036 A 
ATOM     77  C   UNL A   1      32.998  21.031  24.109  1.00  0.00     0.065 A 
ATOM     78  C   UNL A   1      33.297  18.238  23.882  1.00  0.00     0.041 A 
ATOM     79  C   UNL A   1      32.279  20.299  23.149  1.00  0.00     0.029 A 
ATOM     80  Cl  UNL A   1      33.485  16.534  23.740  1.00  0.00    -0.084 Cl
ATOM     81  C   UNL A   1      32.446  18.917  23.018  1.00  0.00     0.023 A 
BRANCH  77  82
ATOM     82  N   UNL A   1      32.805  22.436  24.199  1.00  0.00    -0.249 N 
ATOM     83  C   UNL A   1      31.789  23.026  24.908  1.00  0.00     0.234 C 
ATOM     84  C   UNL A   1      33.573  23.356  23.523  1.00  0.00     0.240 C 
ATOM     85  O   UNL A   1      30.850  22.490  25.485  1.00  0.00    -0.274 OA
ATOM     86  C   UNL A   1      32.026  24.508  24.944  1.00  0.00     0.118 C 
ATOM     87  C   UNL A   1      33.065  24.742  23.853  1.00  0.00     0.059 C 
ATOM     88  O   UNL A   1      34.420  23.127  22.670  1.00  0.00    -0.273 OA
ATOM     89  C   UNL A   1      32.471  25.429  22.618  1.00  0.00     0.017 C 
ATOM     90  C   UNL A   1      34.179  25.704  24.256  1.00  0.00     0.017 C 
ATOM     91  C   UNL A   1      32.521  26.919  22.940  1.00  0.00     0.001 C 
ATOM     92  C   UNL A   1      33.591  27.091  24.017  1.00  0.00     0.001 C 
ENDBRANCH  77  82
ENDBRANCH  72  75
ENDBRANCH  70  71
ENDBRANCH  69  70
ENDBRANCH  68  69
ENDBRANCH   1  68
TORSDOF 15
ENDMDL
MODEL 2
REMARK VINA RESULT:     -12.4      6.648     12.037
REMARK SMILES O=C(NCCCCNC(=O)c1cc(Cl)ccc1N1C(=O)CC2(CCCC2)C1=O)c1ccc(-c2c3nc(c(-c4ccc(S(=O)(=O)[O-])cc4)c4ccc([nH]4)c(-c4ccc(S(=O)(=O)[O-])cc4)c4nc(c(-c5ccc(S(=O)(=O)[O-])cc5)c5ccc2[nH]5)C=C4)C=C3)cc1
REMARK SMILES IDX 4 1 3 2 1 3 2 4 29 6 30 7 88 8 31 9 87 10 32 11 33 12 34 13
REMARK SMILES IDX 81 14 35 15 86 16 80 17 82 18 36 19 85 20 79 21 78 22 37 24
REMARK SMILES IDX 67 25 48 26 66 27 49 28 52 29 65 30 83 31 50 32 51 33 64 35
REMARK SMILES IDX 84 36 53 37 38 38 39 39 47 40 40 41 46 42 41 43 42 44 43 45
REMARK SMILES IDX 44 46 45 47 68 48 69 49 77 50 70 51 76 52 71 53 72 54 73 55
REMARK SMILES IDX 74 56 75 57 54 58 55 59 63 60 56 61 62 62 57 63 58 64 59 65
REMARK SMILES IDX 60 66 61 67 5 68 6 69 7 70 8 71 9 72 10 74 11 75 12 76 17 77
REMARK SMILES IDX 13 78 16 79 14 80 15 81 18 82 19 83 27 84 20 85 21 86 22 87
REMARK SMILES IDX 28 88 23 89 26 90 24 91 25 92
REMARK H PARENT 3 5 82 23 52 34 8 73
REMARK Flexibility Score: inf
ROOT
ATOM      1  C   UNL A   1      35.304  30.138  27.573  1.00  0.00     0.116 C 
ENDROOT
BRANCH   1   2
ATOM      2  N   UNL A   1      35.237  30.531  28.972  1.00  0.00    -0.352 N 
ATOM      3  O   UNL A   1      35.887  30.699  31.121  1.00  0.00    -0.269 OA
ATOM      4  C   UNL A   1      36.183  30.419  29.962  1.00  0.00     0.251 C 
ATOM      5  H   UNL A   1      34.385  30.937  29.251  1.00  0.00     0.163 HD
BRANCH   4   6
ATOM      6  C   UNL A   1      37.542  29.934  29.640  1.00  0.00     0.039 A 
ATOM      7  C   UNL A   1      38.382  29.421  30.633  1.00  0.00     0.014 A 
ATOM      8  C   UNL A   1      37.975  29.988  28.313  1.00  0.00     0.014 A 
ATOM      9  C   UNL A   1      39.699  29.091  30.323  1.00  0.00     0.010 A 
ATOM     10  C   UNL A   1      39.276  29.593  27.992  1.00  0.00     0.010 A 
ATOM     11  C   UNL A   1      40.159  29.173  29.000  1.00  0.00    -0.014 A 
BRANCH  11  12
ATOM     12  C   UNL A   1      41.554  28.792  28.668  1.00  0.00     0.031 A 
ATOM     13  C   UNL A   1      42.657  29.813  28.698  1.00  0.00     0.074 A 
ATOM     14  C   UNL A   1      41.822  27.519  28.321  1.00  0.00     0.049 A 
ATOM     15  N   UNL A   1      43.918  29.672  28.383  1.00  0.00    -0.248 NA
ATOM     16  C   UNL A   1      42.295  31.172  29.133  1.00  0.00     0.031 C 
ATOM     17  C   UNL A   1      40.837  26.436  28.259  1.00  0.00     0.029 A 
ATOM     18  N   UNL A   1      43.000  26.920  27.953  1.00  0.00    -0.354 N 
ATOM     19  C   UNL A   1      44.497  30.924  28.552  1.00  0.00     0.074 A 
ATOM     20  C   UNL A   1      43.442  31.819  28.984  1.00  0.00     0.031 C 
ATOM     21  C   UNL A   1      41.455  25.303  27.892  1.00  0.00     0.029 A 
ATOM     22  C   UNL A   1      42.863  25.590  27.639  1.00  0.00     0.049 A 
ATOM     23  H   UNL A   1      43.860  27.399  27.916  1.00  0.00     0.167 HD
ATOM     24  C   UNL A   1      45.787  31.295  28.366  1.00  0.00     0.031 A 
ATOM     25  C   UNL A   1      43.761  24.701  27.174  1.00  0.00     0.031 A 
ATOM     26  C   UNL A   1      46.830  30.403  27.932  1.00  0.00     0.049 A 
ATOM     27  C   UNL A   1      45.178  25.138  26.949  1.00  0.00     0.074 A 
ATOM     28  C   UNL A   1      48.173  30.678  27.738  1.00  0.00     0.029 A 
ATOM     29  N   UNL A   1      46.648  29.064  27.621  1.00  0.00    -0.354 N 
ATOM     30  N   UNL A   1      45.711  26.322  27.137  1.00  0.00    -0.248 NA
ATOM     31  C   UNL A   1      46.116  24.124  26.452  1.00  0.00     0.031 C 
ATOM     32  C   UNL A   1      48.794  29.516  27.268  1.00  0.00     0.029 A 
ATOM     33  C   UNL A   1      47.848  28.504  27.217  1.00  0.00     0.049 A 
ATOM     34  H   UNL A   1      45.791  28.583  27.677  1.00  0.00     0.167 HD
ATOM     35  C   UNL A   1      47.053  26.190  26.801  1.00  0.00     0.074 A 
ATOM     36  C   UNL A   1      47.251  24.810  26.406  1.00  0.00     0.031 C 
ATOM     37  C   UNL A   1      48.031  27.128  26.826  1.00  0.00     0.031 A 
BRANCH  24  38
ATOM     38  C   UNL A   1      46.128  32.745  28.593  1.00  0.00    -0.014 A 
ATOM     39  C   UNL A   1      46.429  33.232  29.878  1.00  0.00     0.010 A 
ATOM     40  C   UNL A   1      46.160  33.631  27.501  1.00  0.00     0.010 A 
ATOM     41  C   UNL A   1      46.700  34.589  30.074  1.00  0.00     0.020 A 
ATOM     42  C   UNL A   1      46.455  34.984  27.689  1.00  0.00     0.020 A 
ATOM     43  C   UNL A   1      46.698  35.460  28.979  1.00  0.00     0.054 A 
BRANCH  43  44
ATOM     44  S   UNL A   1      47.034  37.220  29.260  1.00  0.00     0.124 S 
ATOM     45  O   UNL A   1      47.899  37.544  28.128  1.00  0.00    -0.237 OA
ATOM     46  O   UNL A   1      45.701  37.815  29.220  1.00  0.00    -0.237 OA
ATOM     47  O   UNL A   1      47.684  37.244  30.569  1.00  0.00    -0.744 OA
ENDBRANCH  43  44
ENDBRANCH  24  38
BRANCH  25  48
ATOM     48  C   UNL A   1      43.320  23.310  26.891  1.00  0.00    -0.014 A 
ATOM     49  C   UNL A   1      43.439  22.774  25.598  1.00  0.00     0.010 A 
ATOM     50  C   UNL A   1      42.854  22.491  27.936  1.00  0.00     0.010 A 
ATOM     51  C   UNL A   1      43.105  21.438  25.356  1.00  0.00     0.020 A 
ATOM     52  C   UNL A   1      42.542  21.150  27.702  1.00  0.00     0.020 A 
ATOM     53  C   UNL A   1      42.667  20.632  26.412  1.00  0.00     0.054 A 
BRANCH  53  54
ATOM     54  S   UNL A   1      42.336  18.877  26.096  1.00  0.00     0.124 S 
ATOM     55  O   UNL A   1      43.275  18.581  25.018  1.00  0.00    -0.237 OA
ATOM     56  O   UNL A   1      42.636  18.259  27.384  1.00  0.00    -0.237 OA
ATOM     57  O   UNL A   1      40.924  18.858  25.721  1.00  0.00    -0.744 OA
ENDBRANCH  53  54
ENDBRANCH  25  48
BRANCH  37  58
ATOM     58  C   UNL A   1      49.419  26.691  26.448  1.00  0.00    -0.014 A 
ATOM     59  C   UNL A   1      50.282  26.108  27.392  1.00  0.00     0.010 A 
ATOM     60  C   UNL A   1      49.836  26.801  25.108  1.00  0.00     0.010 A 
ATOM     61  C   UNL A   1      51.547  25.656  27.006  1.00  0.00     0.020 A 
ATOM     62  C   UNL A   1      51.092  26.331  24.714  1.00  0.00     0.020 A 
ATOM     63  C   UNL A   1      51.943  25.768  25.669  1.00  0.00     0.054 A 
BRANCH  63  64
ATOM     64  S   UNL A   1      53.562  25.115  25.176  1.00  0.00     0.124 S 
ATOM     65  O   UNL A   1      53.661  25.563  23.789  1.00  0.00    -0.237 OA
ATOM     66  O   UNL A   1      54.473  25.769  26.114  1.00  0.00    -0.237 OA
ATOM     67  O   UNL A   1      53.423  23.672  25.357  1.00  0.00    -0.744 OA
ENDBRANCH  63  64
ENDBRANCH  37  58
ENDBRANCH  11  12
ENDBRANCH   4   6
ENDBRANCH   1   2
BRANCH   1  68
ATOM     68  C   UNL A   1      34.286  29.064  27.205  1.00  0.00     0.023 C 
BRANCH  68  69
ATOM     69  C   UNL A   1      32.823  29.499  27.256  1.00  0.00     0.023 C 
BRANCH  69  70
ATOM     70  C   UNL A   1      32.280  30.132  25.979  1.00  0.00     0.116 C 
BRANCH  70  71
ATOM     71  N   UNL A   1      32.990  29.708  24.783  1.00  0.00    -0.352 N 
ATOM     72  C   UNL A   1      32.550  28.934  23.739  1.00  0.00     0.253 C 
ATOM     73  H   UNL A   1      33.920  30.021  24.712  1.00  0.00     0.163 HD
ATOM     74  O   UNL A   1      33.330  28.552  22.869  1.00  0.00    -0.269 OA
BRANCH  72  75
ATOM     75  C   UNL A   1      31.120  28.568  23.631  1.00  0.00     0.065 A 
ATOM     76  C   UNL A   1      30.282  29.442  22.916  1.00  0.00     0.036 A 
ATOM     77  C   UNL A   1      30.648  27.304  24.044  1.00  0.00     0.065 A 
ATOM     78  C   UNL A   1      28.953  29.106  22.693  1.00  0.00     0.041 A 
ATOM     79  C   UNL A   1      29.310  26.975  23.768  1.00  0.00     0.029 A 
ATOM     80  Cl  UNL A   1      27.918  30.209  21.875  1.00  0.00    -0.084 Cl
ATOM     81  C   UNL A   1      28.461  27.879  23.122  1.00  0.00     0.023 A 
BRANCH  77  82
ATOM     82  N   UNL A   1      31.472  26.359  24.713  1.00  0.00    -0.249 N 
ATOM     83  C   UNL A   1      31.550  26.242  26.078  1.00  0.00     0.234 C 
ATOM     84  C   UNL A   1      32.338  25.509  24.065  1.00  0.00     0.240 C 
ATOM     85  O   UNL A   1      31.032  26.948  26.935  1.00  0.00    -0.274 OA
ATOM     86  C   UNL A   1      32.351  25.016  26.410  1.00  0.00     0.118 C 
ATOM     87  C   UNL A   1      33.050  24.668  25.101  1.00  0.00     0.059 C 
ATOM     88  O   UNL A   1      32.629  25.516  22.876  1.00  0.00    -0.273 OA
ATOM     89  C   UNL A   1      34.550  24.978  25.139  1.00  0.00     0.017 C 
ATOM     90  C   UNL A   1      33.035  23.178  24.769  1.00  0.00     0.017 C 
ATOM     91  C   UNL A   1      35.188  23.744  25.771  1.00  0.00     0.001 C 
ATOM     92  C   UNL A   1      34.200  22.597  25.566  1.00  0.00     0.001 C 
ENDBRANCH  77  82
ENDBRANCH  72  75
ENDBRANCH  70  71
ENDBRANCH  69  70
ENDBRANCH  68  69
ENDBRANCH   1  68
TORSDOF 15
ENDMDL
MODEL 3
REMARK VINA RESULT:     -12.3      0.580      8.138
REMARK SMILES O=C(NCCCCNC(=O)c1cc(Cl)ccc1N1C(=O)CC2(CCCC2)C1=O)c1ccc(-c2c3nc(c(-c4ccc(S(=O)(=O)[O-])cc4)c4ccc([nH]4)c(-c4ccc(S(=O)(=O)[O-])cc4)c4nc(c(-c5ccc(S(=O)(=O)[O-])cc5)c5ccc2[nH]5)C=C4)C=C3)cc1
REMARK SMILES IDX 4 1 3 2 1 3 2 4 29 6 30 7 88 8 31 9 87 10 32 11 33 12 34 13
REMARK SMILES IDX 81 14 35 15 86 16 80 17 82 18 36 19 85 20 79 21 78 22 37 24
REMARK SMILES IDX 67 25 48 26 66 27 49 28 52 29 65 30 83 31 50 32 51 33 64 35
REMARK SMILES IDX 84 36 53 37 38 38 39 39 47 40 40 41 46 42 41 43 42 44 43 45
REMARK SMILES IDX 44 46 45 47 68 48 69 49 77 50 70 51 76 52 71 53 72 54 73 55
REMARK SMILES IDX 74 56 75 57 54 58 55 59 63 60 56 61 62 62 57 63 58 64 59 65
REMARK SMILES IDX 60 66 61 67 5 68 6 69 7 70 8 71 9 72 10 74 11 75 12 76 17 77
REMARK SMILES IDX 13 78 16 79 14 80 15 81 18 82 19 83 27 84 20 85 21 86 22 87
REMARK SMILES IDX 28 88 23 89 26 90 24 91 25 92
REMARK H PARENT 3 5 82 23 52 34 8 73
REMARK Flexibility Score: inf
ROOT
ATOM      1  C   UNL A   1      38.608  23.973  26.840  1.00  0.00     0.116 C 
ENDROOT
BRANCH   1   2
ATOM      2  N   UNL A   1      39.681  24.451  25.982  1.00  0.00    -0.352 N 
ATOM      3  O   UNL A   1      41.287  25.839  25.233  1.00  0.00    -0.269 OA
ATOM      4  C   UNL A   1      40.520  25.527  26.140  1.00  0.00     0.251 C 
ATOM      5  H   UNL A   1      39.827  23.923  25.163  1.00  0.00     0.163 HD
BRANCH   4   6
ATOM      6  C   UNL A   1      40.478  26.325  27.384  1.00  0.00     0.039 A 
ATOM      7  C   UNL A   1      39.649  25.961  28.450  1.00  0.00     0.014 A 
ATOM      8  C   UNL A   1      41.292  27.456  27.482  1.00  0.00     0.014 A 
ATOM      9  C   UNL A   1      39.535  26.800  29.555  1.00  0.00     0.010 A 
ATOM     10  C   UNL A   1      41.226  28.261  28.621  1.00  0.00     0.010 A 
ATOM     11  C   UNL A   1      40.322  27.958  29.652  1.00  0.00    -0.014 A 
BRANCH  11  12
ATOM     12  C   UNL A   1      40.219  28.834  30.845  1.00  0.00     0.031 A 
ATOM     13  C   UNL A   1      39.203  29.940  30.900  1.00  0.00     0.074 A 
ATOM     14  C   UNL A   1      41.060  28.638  31.878  1.00  0.00     0.049 A 
ATOM     15  N   UNL A   1      39.011  30.837  31.834  1.00  0.00    -0.248 NA
ATOM     16  C   UNL A   1      38.288  30.062  29.754  1.00  0.00     0.031 C 
ATOM     17  C   UNL A   1      42.086  27.595  31.945  1.00  0.00     0.029 A 
ATOM     18  N   UNL A   1      41.189  29.309  33.067  1.00  0.00    -0.354 N 
ATOM     19  C   UNL A   1      37.975  31.645  31.380  1.00  0.00     0.074 A 
ATOM     20  C   UNL A   1      37.590  31.141  30.078  1.00  0.00     0.031 C 
ATOM     21  C   UNL A   1      42.727  27.685  33.119  1.00  0.00     0.029 A 
ATOM     22  C   UNL A   1      42.198  28.824  33.863  1.00  0.00     0.049 A 
ATOM     23  H   UNL A   1      40.614  30.066  33.325  1.00  0.00     0.167 HD
ATOM     24  C   UNL A   1      37.398  32.708  31.992  1.00  0.00     0.031 A 
ATOM     25  C   UNL A   1      42.667  29.258  35.048  1.00  0.00     0.031 A 
ATOM     26  C   UNL A   1      37.788  33.206  33.284  1.00  0.00     0.049 A 
ATOM     27  C   UNL A   1      42.033  30.453  35.696  1.00  0.00     0.074 A 
ATOM     28  C   UNL A   1      37.248  34.262  33.999  1.00  0.00     0.029 A 
ATOM     29  N   UNL A   1      38.819  32.688  34.055  1.00  0.00    -0.354 N 
ATOM     30  N   UNL A   1      41.038  31.189  35.262  1.00  0.00    -0.248 NA
ATOM     31  C   UNL A   1      42.577  30.874  36.992  1.00  0.00     0.031 C 
ATOM     32  C   UNL A   1      37.980  34.408  35.183  1.00  0.00     0.029 A 
ATOM     33  C   UNL A   1      38.943  33.413  35.228  1.00  0.00     0.049 A 
ATOM     34  H   UNL A   1      39.379  31.919  33.804  1.00  0.00     0.167 HD
ATOM     35  C   UNL A   1      40.825  32.151  36.242  1.00  0.00     0.074 A 
ATOM     36  C   UNL A   1      41.787  31.896  37.294  1.00  0.00     0.031 C 
ATOM     37  C   UNL A   1      39.908  33.149  36.268  1.00  0.00     0.031 A 
BRANCH  24  38
ATOM     38  C   UNL A   1      36.307  33.427  31.242  1.00  0.00    -0.014 A 
ATOM     39  C   UNL A   1      36.497  33.870  29.921  1.00  0.00     0.010 A 
ATOM     40  C   UNL A   1      35.067  33.651  31.867  1.00  0.00     0.010 A 
ATOM     41  C   UNL A   1      35.487  34.574  29.259  1.00  0.00     0.020 A 
ATOM     42  C   UNL A   1      34.045  34.333  31.199  1.00  0.00     0.020 A 
ATOM     43  C   UNL A   1      34.271  34.812  29.908  1.00  0.00     0.054 A 
BRANCH  43  44
ATOM     44  S   UNL A   1      32.982  35.744  29.035  1.00  0.00     0.124 S 
ATOM     45  O   UNL A   1      32.147  36.207  30.142  1.00  0.00    -0.237 OA
ATOM     46  O   UNL A   1      33.743  36.783  28.347  1.00  0.00    -0.237 OA
ATOM     47  O   UNL A   1      32.365  34.748  28.163  1.00  0.00    -0.744 OA
ENDBRANCH  43  44
ENDBRANCH  24  38
BRANCH  25  48
ATOM     48  C   UNL A   1      43.808  28.543  35.679  1.00  0.00    -0.014 A 
ATOM     49  C   UNL A   1      45.127  28.971  35.458  1.00  0.00     0.010 A 
ATOM     50  C   UNL A   1      43.568  27.479  36.569  1.00  0.00     0.010 A 
ATOM     51  C   UNL A   1      46.189  28.350  36.123  1.00  0.00     0.020 A 
ATOM     52  C   UNL A   1      44.626  26.874  37.252  1.00  0.00     0.020 A 
ATOM     53  C   UNL A   1      45.931  27.311  37.022  1.00  0.00     0.054 A 
BRANCH  53  54
ATOM     54  S   UNL A   1      47.313  26.589  37.948  1.00  0.00     0.124 S 
ATOM     55  O   UNL A   1      48.248  27.708  38.018  1.00  0.00    -0.237 OA
ATOM     56  O   UNL A   1      46.686  26.209  39.211  1.00  0.00    -0.237 OA
ATOM     57  O   UNL A   1      47.736  25.469  37.111  1.00  0.00    -0.744 OA
ENDBRANCH  53  54
ENDBRANCH  25  48
BRANCH  37  58
ATOM     58  C   UNL A   1      39.872  34.025  37.488  1.00  0.00    -0.014 A 
ATOM     59  C   UNL A   1      40.589  35.233  37.539  1.00  0.00     0.010 A 
ATOM     60  C   UNL A   1      39.050  33.667  38.572  1.00  0.00     0.010 A 
ATOM     61  C   UNL A   1      40.496  36.062  38.661  1.00  0.00     0.020 A 
ATOM     62  C   UNL A   1      38.938  34.502  39.687  1.00  0.00     0.020 A 
ATOM     63  C   UNL A   1      39.669  35.692  39.727  1.00  0.00     0.054 A 
BRANCH  63  64
ATOM     64  S   UNL A   1      39.511  36.813  41.145  1.00  0.00     0.124 S 
ATOM     65  O   UNL A   1      40.905  37.004  41.537  1.00  0.00    -0.237 OA
ATOM     66  O   UNL A   1      38.856  37.981  40.560  1.00  0.00    -0.237 OA
ATOM     67  O   UNL A   1      38.694  36.059  42.093  1.00  0.00    -0.744 OA
ENDBRANCH  63  64
ENDBRANCH  37  58
ENDBRANCH  11  12
ENDBRANCH   4   6
ENDBRANCH   1   2
BRANCH   1  68
ATOM     68  C   UNL A   1      37.244  23.991  26.159  1.00  0.00     0.023 C 
BRANCH  68  69
ATOM     69  C   UNL A   1      37.140  23.172  24.873  1.00  0.00     0.023 C 
BRANCH  69  70
ATOM     70  C   UNL A   1      36.556  21.772  25.031  1.00  0.00     0.116 C 
BRANCH  70  71
ATOM     71  N   UNL A   1      35.673  21.645  26.179  1.00  0.00    -0.352 N 
ATOM     72  C   UNL A   1      34.381  21.187  26.236  1.00  0.00     0.253 C 
ATOM     73  H   UNL A   1      36.057  21.930  27.040  1.00  0.00     0.163 HD
ATOM     74  O   UNL A   1      33.727  21.280  27.273  1.00  0.00    -0.269 OA
BRANCH  72  75
ATOM     75  C   UNL A   1      33.761  20.550  25.053  1.00  0.00     0.065 A 
ATOM     76  C   UNL A   1      33.869  19.153  24.942  1.00  0.00     0.036 A 
ATOM     77  C   UNL A   1      32.924  21.274  24.177  1.00  0.00     0.065 A 
ATOM     78  C   UNL A   1      33.224  18.484  23.909  1.00  0.00     0.041 A 
ATOM     79  C   UNL A   1      32.252  20.565  23.167  1.00  0.00     0.029 A 
ATOM     80  Cl  UNL A   1      33.413  16.783  23.742  1.00  0.00    -0.084 Cl
ATOM     81  C   UNL A   1      32.421  19.185  23.017  1.00  0.00     0.023 A 
BRANCH  77  82
ATOM     82  N   UNL A   1      32.732  22.678  24.286  1.00  0.00    -0.249 N 
ATOM     83  C   UNL A   1      31.730  23.260  25.021  1.00  0.00     0.234 C 
ATOM     84  C   UNL A   1      33.486  23.605  23.604  1.00  0.00     0.240 C 
ATOM     85  O   UNL A   1      30.804  22.716  25.611  1.00  0.00    -0.274 OA
ATOM     86  C   UNL A   1      31.967  24.742  25.068  1.00  0.00     0.118 C 
ATOM     87  C   UNL A   1      32.984  24.987  23.959  1.00  0.00     0.059 C 
ATOM     88  O   UNL A   1      34.316  23.386  22.732  1.00  0.00    -0.273 OA
ATOM     89  C   UNL A   1      32.365  25.687  22.744  1.00  0.00     0.017 C 
ATOM     90  C   UNL A   1      34.105  25.946  24.350  1.00  0.00     0.017 C 
ATOM     91  C   UNL A   1      32.420  27.174  23.080  1.00  0.00     0.001 C 
ATOM     92  C   UNL A   1      33.512  27.335  24.137  1.00  0.00     0.001 C 
ENDBRANCH  77  82
ENDBRANCH  72  75
ENDBRANCH  70  71
ENDBRANCH  69  70
ENDBRANCH  68  69
ENDBRANCH   1  68
TORSDOF 15
ENDMDL
