MODEL 1
REMARK VINA RESULT:     -10.7      0.000      0.000
REMARK SMILES CSc1ncccc1C(=O)N1CSC[C@H]1C(=O)NCCCCNC(=O)c1ccc(-c2c3nc(c(-c4ccc(S(=O)(=O)[O-])cc4)c4ccc([nH]4)c(-c4ccc(S(=O)(=O)[O-])cc4)c4nc(c(-c5ccc(S(=O)(=O)[O-])cc5)c5ccc2[nH]5)C=C4)C=C3)cc1
REMARK SMILES IDX 20 1 19 2 18 3 16 4 17 5 15 7 11 8 12 9 13 10 14 11 9 12
REMARK SMILES IDX 10 13 8 14 3 15 4 16 5 17 7 18 6 19 2 20 1 21 21 22 22 23
REMARK SMILES IDX 23 24 24 25 25 27 26 28 27 29 85 30 28 31 84 32 29 33 30 34
REMARK SMILES IDX 31 35 78 36 32 37 83 38 77 39 79 40 33 41 82 42 76 43 75 44
REMARK SMILES IDX 34 46 64 47 45 48 63 49 46 50 49 51 62 52 80 53 47 54 48 55
REMARK SMILES IDX 61 57 81 58 50 59 35 60 36 61 44 62 37 63 43 64 38 65 39 66
REMARK SMILES IDX 40 67 41 68 42 69 65 70 66 71 74 72 67 73 73 74 68 75 69 76
REMARK SMILES IDX 70 77 71 78 72 79 51 80 52 81 60 82 53 83 59 84 54 85 55 86
REMARK SMILES IDX 56 87 57 88 58 89
REMARK H PARENT 18 6 23 26 79 45 49 56
REMARK Flexibility Score: inf
ROOT
ATOM      1  C   UNL A   1      34.438  22.809  26.813  1.00  0.00     0.023 C 
ENDROOT
BRANCH   1   2
ATOM      2  C   UNL A   1      33.207  21.930  26.623  1.00  0.00     0.116 C 
BRANCH   2   3
ATOM      3  N   UNL A   1      32.030  22.481  27.254  1.00  0.00    -0.354 N 
ATOM      4  C   UNL A   1      31.024  23.253  26.758  1.00  0.00     0.243 C 
ATOM      5  O   UNL A   1      30.000  23.318  27.450  1.00  0.00    -0.273 OA
ATOM      6  H   UNL A   1      31.940  22.259  28.209  1.00  0.00     0.163 HD
BRANCH   4   7
ATOM      7  C   UNL A   1      31.050  23.899  25.354  1.00  0.00     0.185 C 
ATOM      8  N   UNL A   1      31.809  25.149  25.181  1.00  0.00    -0.316 N 
ATOM      9  C   UNL A   1      33.035  25.013  24.428  1.00  0.00     0.190 C 
ATOM     10  S   UNL A   1      32.734  23.681  23.250  1.00  0.00    -0.138 SA
ATOM     11  C   UNL A   1      31.433  22.902  24.260  1.00  0.00     0.106 C 
BRANCH   8  12
ATOM     12  C   UNL A   1      31.173  26.329  25.569  1.00  0.00     0.257 C 
ATOM     13  O   UNL A   1      30.936  26.556  26.752  1.00  0.00    -0.269 OA
BRANCH  12  14
ATOM     14  C   UNL A   1      30.613  27.254  24.550  1.00  0.00     0.072 A 
ATOM     15  C   UNL A   1      31.216  28.463  24.190  1.00  0.00     0.108 A 
ATOM     16  N   UNL A   1      30.634  29.322  23.302  1.00  0.00    -0.249 NA
ATOM     17  C   UNL A   1      29.420  29.004  22.802  1.00  0.00     0.112 A 
ATOM     18  C   UNL A   1      29.331  26.985  24.040  1.00  0.00     0.018 A 
ATOM     19  C   UNL A   1      28.732  27.858  23.139  1.00  0.00     0.021 A 
BRANCH  15  20
ATOM     20  S   UNL A   1      32.734  29.071  24.909  1.00  0.00    -0.109 SA
ATOM     21  C   UNL A   1      32.080  30.062  26.267  1.00  0.00     0.092 C 
ENDBRANCH  15  20
ENDBRANCH  12  14
ENDBRANCH   8  12
ENDBRANCH   4   7
ENDBRANCH   2   3
ENDBRANCH   1   2
BRANCH   1  22
ATOM     22  C   UNL A   1      35.553  22.579  25.791  1.00  0.00     0.023 C 
BRANCH  22  23
ATOM     23  C   UNL A   1      36.827  23.391  26.010  1.00  0.00     0.116 C 
BRANCH  23  24
ATOM     24  N   UNL A   1      38.047  22.599  25.951  1.00  0.00    -0.352 N 
ATOM     25  C   UNL A   1      39.316  22.962  26.339  1.00  0.00     0.251 C 
ATOM     26  H   UNL A   1      37.953  21.689  25.585  1.00  0.00     0.163 HD
ATOM     27  O   UNL A   1      40.263  22.206  26.143  1.00  0.00    -0.269 OA
BRANCH  25  28
ATOM     28  C   UNL A   1      39.530  24.289  26.951  1.00  0.00     0.039 A 
ATOM     29  C   UNL A   1      39.049  24.521  28.241  1.00  0.00     0.014 A 
ATOM     30  C   UNL A   1      40.250  25.278  26.274  1.00  0.00     0.014 A 
ATOM     31  C   UNL A   1      39.361  25.721  28.886  1.00  0.00     0.010 A 
ATOM     32  C   UNL A   1      40.611  26.444  26.941  1.00  0.00     0.010 A 
ATOM     33  C   UNL A   1      40.179  26.673  28.256  1.00  0.00    -0.014 A 
BRANCH  33  34
ATOM     34  C   UNL A   1      40.617  27.900  28.966  1.00  0.00     0.031 A 
ATOM     35  C   UNL A   1      41.973  27.958  29.613  1.00  0.00     0.074 A 
ATOM     36  C   UNL A   1      39.762  28.936  29.093  1.00  0.00     0.049 A 
ATOM     37  N   UNL A   1      42.504  28.916  30.328  1.00  0.00    -0.248 NA
ATOM     38  C   UNL A   1      42.834  26.775  29.457  1.00  0.00     0.031 C 
ATOM     39  C   UNL A   1      38.400  28.982  28.554  1.00  0.00     0.029 A 
ATOM     40  N   UNL A   1      39.910  30.145  29.725  1.00  0.00    -0.354 N 
ATOM     41  C   UNL A   1      43.751  28.446  30.723  1.00  0.00     0.074 A 
ATOM     42  C   UNL A   1      43.878  27.101  30.204  1.00  0.00     0.031 C 
ATOM     43  C   UNL A   1      37.847  30.167  28.859  1.00  0.00     0.029 A 
ATOM     44  C   UNL A   1      38.798  30.950  29.642  1.00  0.00     0.049 A 
ATOM     45  H   UNL A   1      40.733  30.411  30.194  1.00  0.00     0.167 HD
ATOM     46  C   UNL A   1      44.709  29.082  31.439  1.00  0.00     0.031 A 
ATOM     47  C   UNL A   1      38.568  32.180  30.141  1.00  0.00     0.031 A 
ATOM     48  C   UNL A   1      44.586  30.424  31.940  1.00  0.00     0.049 A 
ATOM     49  C   UNL A   1      39.652  32.871  30.919  1.00  0.00     0.074 A 
ATOM     50  C   UNL A   1      45.524  31.177  32.625  1.00  0.00     0.029 A 
ATOM     51  N   UNL A   1      43.454  31.216  31.811  1.00  0.00    -0.354 N 
ATOM     52  N   UNL A   1      40.850  32.434  31.226  1.00  0.00    -0.248 NA
ATOM     53  C   UNL A   1      39.358  34.225  31.409  1.00  0.00     0.031 C 
ATOM     54  C   UNL A   1      44.946  32.410  32.942  1.00  0.00     0.029 A 
ATOM     55  C   UNL A   1      43.665  32.443  32.416  1.00  0.00     0.049 A 
ATOM     56  H   UNL A   1      42.625  30.945  31.356  1.00  0.00     0.167 HD
ATOM     57  C   UNL A   1      41.462  33.470  31.924  1.00  0.00     0.074 A 
ATOM     58  C   UNL A   1      40.506  34.558  31.983  1.00  0.00     0.031 C 
ATOM     59  C   UNL A   1      42.704  33.515  32.465  1.00  0.00     0.031 A 
BRANCH  46  60
ATOM     60  C   UNL A   1      45.978  28.323  31.720  1.00  0.00    -0.014 A 
ATOM     61  C   UNL A   1      47.089  28.430  30.863  1.00  0.00     0.010 A 
ATOM     62  C   UNL A   1      46.072  27.515  32.868  1.00  0.00     0.010 A 
ATOM     63  C   UNL A   1      48.254  27.705  31.124  1.00  0.00     0.020 A 
ATOM     64  C   UNL A   1      47.245  26.810  33.146  1.00  0.00     0.020 A 
ATOM     65  C   UNL A   1      48.323  26.894  32.260  1.00  0.00     0.054 A 
BRANCH  65  66
ATOM     66  S   UNL A   1      49.851  25.972  32.581  1.00  0.00     0.124 S 
ATOM     67  O   UNL A   1      50.852  27.036  32.566  1.00  0.00    -0.237 OA
ATOM     68  O   UNL A   1      49.597  25.370  33.887  1.00  0.00    -0.237 OA
ATOM     69  O   UNL A   1      49.927  25.028  31.469  1.00  0.00    -0.744 OA
ENDBRANCH  65  66
ENDBRANCH  46  60
BRANCH  47  70
ATOM     70  C   UNL A   1      37.262  32.848  29.893  1.00  0.00    -0.014 A 
ATOM     71  C   UNL A   1      36.229  32.760  30.842  1.00  0.00     0.010 A 
ATOM     72  C   UNL A   1      37.053  33.592  28.719  1.00  0.00     0.010 A 
ATOM     73  C   UNL A   1      35.002  33.390  30.613  1.00  0.00     0.020 A 
ATOM     74  C   UNL A   1      35.836  34.244  28.497  1.00  0.00     0.020 A 
ATOM     75  C   UNL A   1      34.814  34.130  29.443  1.00  0.00     0.054 A 
BRANCH  75  76
ATOM     76  S   UNL A   1      33.235  34.990  29.194  1.00  0.00     0.124 S 
ATOM     77  O   UNL A   1      32.669  34.979  30.538  1.00  0.00    -0.237 OA
ATOM     78  O   UNL A   1      33.661  36.296  28.695  1.00  0.00    -0.237 OA
ATOM     79  O   UNL A   1      32.545  34.155  28.213  1.00  0.00    -0.744 OA
ENDBRANCH  75  76
ENDBRANCH  47  70
BRANCH  59  80
ATOM     80  C   UNL A   1      43.116  34.794  33.142  1.00  0.00    -0.014 A 
ATOM     81  C   UNL A   1      42.937  34.974  34.525  1.00  0.00     0.010 A 
ATOM     82  C   UNL A   1      43.743  35.805  32.391  1.00  0.00     0.010 A 
ATOM     83  C   UNL A   1      43.355  36.156  35.141  1.00  0.00     0.020 A 
ATOM     84  C   UNL A   1      44.183  36.978  33.008  1.00  0.00     0.020 A 
ATOM     85  C   UNL A   1      43.975  37.151  34.377  1.00  0.00     0.054 A 
BRANCH  85  86
ATOM     86  S   UNL A   1      44.555  38.657  35.207  1.00  0.00     0.124 S 
ATOM     87  O   UNL A   1      46.000  38.569  35.019  1.00  0.00    -0.237 OA
ATOM     88  O   UNL A   1      43.887  39.717  34.457  1.00  0.00    -0.237 OA
ATOM     89  O   UNL A   1      44.094  38.492  36.584  1.00  0.00    -0.744 OA
ENDBRANCH  85  86
ENDBRANCH  59  80
ENDBRANCH  33  34
ENDBRANCH  25  28
ENDBRANCH  23  24
ENDBRANCH  22  23
ENDBRANCH   1  22
TORSDOF 17
ENDMDL
MODEL 2
REMARK VINA RESULT:     -10.6      5.336     10.990
REMARK SMILES CSc1ncccc1C(=O)N1CSC[C@H]1C(=O)NCCCCNC(=O)c1ccc(-c2c3nc(c(-c4ccc(S(=O)(=O)[O-])cc4)c4ccc([nH]4)c(-c4ccc(S(=O)(=O)[O-])cc4)c4nc(c(-c5ccc(S(=O)(=O)[O-])cc5)c5ccc2[nH]5)C=C4)C=C3)cc1
REMARK SMILES IDX 20 1 19 2 18 3 16 4 17 5 15 7 11 8 12 9 13 10 14 11 9 12
REMARK SMILES IDX 10 13 8 14 3 15 4 16 5 17 7 18 6 19 2 20 1 21 21 22 22 23
REMARK SMILES IDX 23 24 24 25 25 27 26 28 27 29 85 30 28 31 84 32 29 33 30 34
REMARK SMILES IDX 31 35 78 36 32 37 83 38 77 39 79 40 33 41 82 42 76 43 75 44
REMARK SMILES IDX 34 46 64 47 45 48 63 49 46 50 49 51 62 52 80 53 47 54 48 55
REMARK SMILES IDX 61 57 81 58 50 59 35 60 36 61 44 62 37 63 43 64 38 65 39 66
REMARK SMILES IDX 40 67 41 68 42 69 65 70 66 71 74 72 67 73 73 74 68 75 69 76
REMARK SMILES IDX 70 77 71 78 72 79 51 80 52 81 60 82 53 83 59 84 54 85 55 86
REMARK SMILES IDX 56 87 57 88 58 89
REMARK H PARENT 18 6 23 26 79 45 49 56
REMARK Flexibility Score: inf
ROOT
ATOM      1  C   UNL A   1      34.149  31.846  27.825  1.00  0.00     0.023 C 
ENDROOT
BRANCH   1   2
ATOM      2  C   UNL A   1      35.342  32.787  27.948  1.00  0.00     0.116 C 
BRANCH   2   3
ATOM      3  N   UNL A   1      34.983  34.168  27.730  1.00  0.00    -0.354 N 
ATOM      4  C   UNL A   1      34.406  35.087  28.554  1.00  0.00     0.243 C 
ATOM      5  O   UNL A   1      34.498  36.267  28.197  1.00  0.00    -0.273 OA
ATOM      6  H   UNL A   1      35.191  34.505  26.829  1.00  0.00     0.163 HD
BRANCH   4   7
ATOM      7  C   UNL A   1      33.802  34.742  29.935  1.00  0.00     0.185 C 
ATOM      8  N   UNL A   1      34.729  34.491  31.052  1.00  0.00    -0.316 N 
ATOM      9  C   UNL A   1      34.767  35.532  32.053  1.00  0.00     0.190 C 
ATOM     10  S   UNL A   1      33.108  36.242  32.075  1.00  0.00    -0.138 SA
ATOM     11  C   UNL A   1      32.726  35.738  30.367  1.00  0.00     0.106 C 
BRANCH   8  12
ATOM     12  C   UNL A   1      35.293  33.216  31.126  1.00  0.00     0.257 C 
ATOM     13  O   UNL A   1      34.585  32.220  31.245  1.00  0.00    -0.269 OA
BRANCH  12  14
ATOM     14  C   UNL A   1      36.765  33.049  31.240  1.00  0.00     0.072 A 
ATOM     15  C   UNL A   1      37.429  32.866  32.457  1.00  0.00     0.108 A 
ATOM     16  N   UNL A   1      38.790  32.788  32.529  1.00  0.00    -0.249 NA
ATOM     17  C   UNL A   1      39.505  32.941  31.393  1.00  0.00     0.112 A 
ATOM     18  C   UNL A   1      37.549  33.247  30.090  1.00  0.00     0.018 A 
ATOM     19  C   UNL A   1      38.935  33.173  30.160  1.00  0.00     0.021 A 
BRANCH  15  20
ATOM     20  S   UNL A   1      36.608  32.818  34.042  1.00  0.00    -0.109 SA
ATOM     21  C   UNL A   1      37.804  31.870  35.004  1.00  0.00     0.092 C 
ENDBRANCH  15  20
ENDBRANCH  12  14
ENDBRANCH   8  12
ENDBRANCH   4   7
ENDBRANCH   2   3
ENDBRANCH   1   2
BRANCH   1  22
ATOM     22  C   UNL A   1      34.494  30.433  27.350  1.00  0.00     0.023 C 
BRANCH  22  23
ATOM     23  C   UNL A   1      35.701  29.786  28.025  1.00  0.00     0.116 C 
BRANCH  23  24
ATOM     24  N   UNL A   1      35.591  29.706  29.476  1.00  0.00    -0.352 N 
ATOM     25  C   UNL A   1      36.601  29.562  30.398  1.00  0.00     0.251 C 
ATOM     26  H   UNL A   1      34.679  29.762  29.842  1.00  0.00     0.163 HD
ATOM     27  O   UNL A   1      36.337  29.423  31.589  1.00  0.00    -0.269 OA
BRANCH  25  28
ATOM     28  C   UNL A   1      38.003  29.529  29.932  1.00  0.00     0.039 A 
ATOM     29  C   UNL A   1      39.016  29.287  30.862  1.00  0.00     0.014 A 
ATOM     30  C   UNL A   1      38.306  29.682  28.576  1.00  0.00     0.014 A 
ATOM     31  C   UNL A   1      40.330  29.117  30.419  1.00  0.00     0.010 A 
ATOM     32  C   UNL A   1      39.604  29.451  28.131  1.00  0.00     0.010 A 
ATOM     33  C   UNL A   1      40.626  29.156  29.046  1.00  0.00    -0.014 A 
BRANCH  33  34
ATOM     34  C   UNL A   1      41.992  28.865  28.545  1.00  0.00     0.031 A 
ATOM     35  C   UNL A   1      42.354  27.475  28.098  1.00  0.00     0.074 A 
ATOM     36  C   UNL A   1      42.929  29.834  28.566  1.00  0.00     0.049 A 
ATOM     37  N   UNL A   1      43.509  27.016  27.691  1.00  0.00    -0.248 NA
ATOM     38  C   UNL A   1      41.284  26.465  28.137  1.00  0.00     0.031 C 
ATOM     39  C   UNL A   1      42.716  31.209  29.025  1.00  0.00     0.029 A 
ATOM     40  N   UNL A   1      44.252  29.807  28.201  1.00  0.00    -0.354 N 
ATOM     41  C   UNL A   1      43.312  25.663  27.444  1.00  0.00     0.074 A 
ATOM     42  C   UNL A   1      41.938  25.367  27.787  1.00  0.00     0.031 C 
ATOM     43  C   UNL A   1      43.861  31.899  28.892  1.00  0.00     0.029 A 
ATOM     44  C   UNL A   1      44.895  31.010  28.373  1.00  0.00     0.049 A 
ATOM     45  H   UNL A   1      44.697  29.004  27.850  1.00  0.00     0.167 HD
ATOM     46  C   UNL A   1      44.190  24.752  26.960  1.00  0.00     0.031 A 
ATOM     47  C   UNL A   1      46.176  31.360  28.140  1.00  0.00     0.031 A 
ATOM     48  C   UNL A   1      45.551  25.052  26.604  1.00  0.00     0.049 A 
ATOM     49  C   UNL A   1      47.128  30.335  27.589  1.00  0.00     0.074 A 
ATOM     50  C   UNL A   1      46.501  24.212  26.050  1.00  0.00     0.029 A 
ATOM     51  N   UNL A   1      46.157  26.289  26.768  1.00  0.00    -0.354 N 
ATOM     52  N   UNL A   1      46.903  29.076  27.300  1.00  0.00    -0.248 NA
ATOM     53  C   UNL A   1      48.502  30.783  27.322  1.00  0.00     0.031 C 
ATOM     54  C   UNL A   1      47.693  24.931  25.913  1.00  0.00     0.029 A 
ATOM     55  C   UNL A   1      47.472  26.231  26.340  1.00  0.00     0.049 A 
ATOM     56  H   UNL A   1      45.717  27.089  27.135  1.00  0.00     0.167 HD
ATOM     57  C   UNL A   1      48.103  28.586  26.794  1.00  0.00     0.074 A 
ATOM     58  C   UNL A   1      49.044  29.688  26.805  1.00  0.00     0.031 C 
ATOM     59  C   UNL A   1      48.395  27.337  26.357  1.00  0.00     0.031 A 
BRANCH  46  60
ATOM     60  C   UNL A   1      43.697  23.341  26.788  1.00  0.00    -0.014 A 
ATOM     61  C   UNL A   1      43.100  22.648  27.856  1.00  0.00     0.010 A 
ATOM     62  C   UNL A   1      43.807  22.708  25.536  1.00  0.00     0.010 A 
ATOM     63  C   UNL A   1      42.665  21.331  27.689  1.00  0.00     0.020 A 
ATOM     64  C   UNL A   1      43.349  21.400  25.358  1.00  0.00     0.020 A 
ATOM     65  C   UNL A   1      42.798  20.713  26.443  1.00  0.00     0.054 A 
BRANCH  65  66
ATOM     66  S   UNL A   1      42.215  19.006  26.250  1.00  0.00     0.124 S 
ATOM     67  O   UNL A   1      42.398  18.473  27.598  1.00  0.00    -0.237 OA
ATOM     68  O   UNL A   1      40.827  19.185  25.831  1.00  0.00    -0.237 OA
ATOM     69  O   UNL A   1      43.103  18.449  25.233  1.00  0.00    -0.744 OA
ENDBRANCH  65  66
ENDBRANCH  46  60
BRANCH  47  70
ATOM     70  C   UNL A   1      46.623  32.754  28.403  1.00  0.00    -0.014 A 
ATOM     71  C   UNL A   1      47.116  33.114  29.669  1.00  0.00     0.010 A 
ATOM     72  C   UNL A   1      46.577  33.722  27.384  1.00  0.00     0.010 A 
ATOM     73  C   UNL A   1      47.541  34.422  29.918  1.00  0.00     0.020 A 
ATOM     74  C   UNL A   1      47.023  35.025  27.622  1.00  0.00     0.020 A 
ATOM     75  C   UNL A   1      47.494  35.370  28.891  1.00  0.00     0.054 A 
BRANCH  75  76
ATOM     76  S   UNL A   1      48.105  37.047  29.218  1.00  0.00     0.124 S 
ATOM     77  O   UNL A   1      46.914  37.855  28.982  1.00  0.00    -0.237 OA
ATOM     78  O   UNL A   1      48.546  36.959  30.608  1.00  0.00    -0.237 OA
ATOM     79  O   UNL A   1      49.182  37.212  28.243  1.00  0.00    -0.744 OA
ENDBRANCH  75  76
ENDBRANCH  47  70
BRANCH  59  80
ATOM     80  C   UNL A   1      49.782  27.099  25.825  1.00  0.00    -0.014 A 
ATOM     81  C   UNL A   1      50.788  26.549  26.637  1.00  0.00     0.010 A 
ATOM     82  C   UNL A   1      50.063  27.378  24.474  1.00  0.00     0.010 A 
ATOM     83  C   UNL A   1      52.061  26.305  26.116  1.00  0.00     0.020 A 
ATOM     84  C   UNL A   1      51.328  27.115  23.943  1.00  0.00     0.020 A 
ATOM     85  C   UNL A   1      52.323  26.592  24.772  1.00  0.00     0.054 A 
BRANCH  85  86
ATOM     86  S   UNL A   1      53.969  26.221  24.103  1.00  0.00     0.124 S 
ATOM     87  O   UNL A   1      53.692  26.086  22.676  1.00  0.00    -0.237 OA
ATOM     88  O   UNL A   1      54.745  27.398  24.483  1.00  0.00    -0.237 OA
ATOM     89  O   UNL A   1      54.348  24.986  24.784  1.00  0.00    -0.744 OA
ENDBRANCH  85  86
ENDBRANCH  59  80
ENDBRANCH  33  34
ENDBRANCH  25  28
ENDBRANCH  23  24
ENDBRANCH  22  23
ENDBRANCH   1  22
TORSDOF 17
ENDMDL
MODEL 3
REMARK VINA RESULT:     -10.5      2.754      9.293
REMARK SMILES CSc1ncccc1C(=O)N1CSC[C@H]1C(=O)NCCCCNC(=O)c1ccc(-c2c3nc(c(-c4ccc(S(=O)(=O)[O-])cc4)c4ccc([nH]4)c(-c4ccc(S(=O)(=O)[O-])cc4)c4nc(c(-c5ccc(S(=O)(=O)[O-])cc5)c5ccc2[nH]5)C=C4)C=C3)cc1
REMARK SMILES IDX 20 1 19 2 18 3 16 4 17 5 15 7 11 8 12 9 13 10 14 11 9 12
REMARK SMILES IDX 10 13 8 14 3 15 4 16 5 17 7 18 6 19 2 20 1 21 21 22 22 23
REMARK SMILES IDX 23 24 24 25 25 27 26 28 27 29 85 30 28 31 84 32 29 33 30 34
REMARK SMILES IDX 31 35 78 36 32 37 83 38 77 39 79 40 33 41 82 42 76 43 75 44
REMARK SMILES IDX 34 46 64 47 45 48 63 49 46 50 49 51 62 52 80 53 47 54 48 55
REMARK SMILES IDX 61 57 81 58 50 59 35 60 36 61 44 62 37 63 43 64 38 65 39 66
REMARK SMILES IDX 40 67 41 68 42 69 65 70 66 71 74 72 67 73 73 74 68 75 69 76
REMARK SMILES IDX 70 77 71 78 72 79 51 80 52 81 60 82 53 83 59 84 54 85 55 86
REMARK SMILES IDX 56 87 57 88 58 89
REMARK H PARENT 18 6 23 26 79 45 49 56
REMARK Flexibility Score: inf
ROOT
ATOM      1  C   UNL A   1      31.561  27.367  26.921  1.00  0.00     0.023 C 
ENDROOT
BRANCH   1   2
ATOM      2  C   UNL A   1      31.647  26.035  26.185  1.00  0.00     0.116 C 
BRANCH   2   3
ATOM      3  N   UNL A   1      32.977  25.474  26.208  1.00  0.00    -0.354 N 
ATOM      4  C   UNL A   1      33.904  25.319  25.222  1.00  0.00     0.243 C 
ATOM      5  O   UNL A   1      35.060  25.089  25.597  1.00  0.00    -0.273 OA
ATOM      6  H   UNL A   1      33.264  25.145  27.091  1.00  0.00     0.163 HD
BRANCH   4   7
ATOM      7  C   UNL A   1      33.611  25.563  23.724  1.00  0.00     0.185 C 
ATOM      8  N   UNL A   1      32.729  24.612  23.026  1.00  0.00    -0.316 N 
ATOM      9  C   UNL A   1      31.421  25.129  22.698  1.00  0.00     0.190 C 
ATOM     10  S   UNL A   1      31.656  26.895  22.416  1.00  0.00    -0.138 SA
ATOM     11  C   UNL A   1      33.156  26.995  23.444  1.00  0.00     0.106 C 
BRANCH   8  12
ATOM     12  C   UNL A   1      33.311  23.423  22.585  1.00  0.00     0.257 C 
ATOM     13  O   UNL A   1      33.550  23.243  21.394  1.00  0.00    -0.269 OA
BRANCH  12  14
ATOM     14  C   UNL A   1      33.493  22.281  23.518  1.00  0.00     0.072 A 
ATOM     15  C   UNL A   1      34.739  21.875  24.006  1.00  0.00     0.108 A 
ATOM     16  N   UNL A   1      34.875  20.775  24.805  1.00  0.00    -0.249 NA
ATOM     17  C   UNL A   1      33.775  20.043  25.084  1.00  0.00     0.112 A 
ATOM     18  C   UNL A   1      32.383  21.465  23.797  1.00  0.00     0.018 A 
ATOM     19  C   UNL A   1      32.517  20.343  24.606  1.00  0.00     0.021 A 
BRANCH  15  20
ATOM     20  S   UNL A   1      36.284  22.659  23.571  1.00  0.00    -0.109 SA
ATOM     21  C   UNL A   1      37.330  22.100  24.930  1.00  0.00     0.092 C 
ENDBRANCH  15  20
ENDBRANCH  12  14
ENDBRANCH   8  12
ENDBRANCH   4   7
ENDBRANCH   2   3
ENDBRANCH   1   2
BRANCH   1  22
ATOM     22  C   UNL A   1      32.445  28.475  26.345  1.00  0.00     0.023 C 
BRANCH  22  23
ATOM     23  C   UNL A   1      33.651  28.867  27.195  1.00  0.00     0.116 C 
BRANCH  23  24
ATOM     24  N   UNL A   1      33.571  30.213  27.745  1.00  0.00    -0.352 N 
ATOM     25  C   UNL A   1      34.544  30.916  28.417  1.00  0.00     0.251 C 
ATOM     26  H   UNL A   1      32.711  30.678  27.623  1.00  0.00     0.163 HD
ATOM     27  O   UNL A   1      34.291  32.017  28.898  1.00  0.00    -0.269 OA
BRANCH  25  28
ATOM     28  C   UNL A   1      35.880  30.311  28.590  1.00  0.00     0.039 A 
ATOM     29  C   UNL A   1      36.796  30.388  27.538  1.00  0.00     0.014 A 
ATOM     30  C   UNL A   1      36.242  29.721  29.804  1.00  0.00     0.014 A 
ATOM     31  C   UNL A   1      38.106  29.944  27.733  1.00  0.00     0.010 A 
ATOM     32  C   UNL A   1      37.562  29.336  30.015  1.00  0.00     0.010 A 
ATOM     33  C   UNL A   1      38.509  29.453  28.986  1.00  0.00    -0.014 A 
BRANCH  33  34
ATOM     34  C   UNL A   1      39.922  29.084  29.249  1.00  0.00     0.031 A 
ATOM     35  C   UNL A   1      40.872  30.092  29.835  1.00  0.00     0.074 A 
ATOM     36  C   UNL A   1      40.369  27.864  28.888  1.00  0.00     0.049 A 
ATOM     37  N   UNL A   1      42.153  29.974  30.076  1.00  0.00    -0.248 NA
ATOM     38  C   UNL A   1      40.316  31.412  30.172  1.00  0.00     0.031 C 
ATOM     39  C   UNL A   1      39.558  26.815  28.263  1.00  0.00     0.029 A 
ATOM     40  N   UNL A   1      41.618  27.304  28.985  1.00  0.00    -0.354 N 
ATOM     41  C   UNL A   1      42.559  31.206  30.572  1.00  0.00     0.074 A 
ATOM     42  C   UNL A   1      41.398  32.070  30.559  1.00  0.00     0.031 C 
ATOM     43  C   UNL A   1      40.326  25.733  28.054  1.00  0.00     0.029 A 
ATOM     44  C   UNL A   1      41.686  26.020  28.497  1.00  0.00     0.049 A 
ATOM     45  H   UNL A   1      42.392  27.776  29.367  1.00  0.00     0.167 HD
ATOM     46  C   UNL A   1      43.783  31.580  31.015  1.00  0.00     0.031 A 
ATOM     47  C   UNL A   1      42.727  25.168  28.414  1.00  0.00     0.031 A 
ATOM     48  C   UNL A   1      44.932  30.715  31.042  1.00  0.00     0.049 A 
ATOM     49  C   UNL A   1      44.073  25.601  28.925  1.00  0.00     0.074 A 
ATOM     50  C   UNL A   1      46.200  30.983  31.527  1.00  0.00     0.029 A 
ATOM     51  N   UNL A   1      44.952  29.413  30.565  1.00  0.00    -0.354 N 
ATOM     52  N   UNL A   1      44.421  26.751  29.453  1.00  0.00    -0.248 NA
ATOM     53  C   UNL A   1      45.162  24.619  28.841  1.00  0.00     0.031 C 
ATOM     54  C   UNL A   1      46.998  29.855  31.309  1.00  0.00     0.029 A 
ATOM     55  C   UNL A   1      46.214  28.870  30.730  1.00  0.00     0.049 A 
ATOM     56  H   UNL A   1      44.183  28.945  30.168  1.00  0.00     0.167 HD
ATOM     57  C   UNL A   1      45.765  26.621  29.786  1.00  0.00     0.074 A 
ATOM     58  C   UNL A   1      46.162  25.279  29.411  1.00  0.00     0.031 C 
ATOM     59  C   UNL A   1      46.593  27.532  30.353  1.00  0.00     0.031 A 
BRANCH  46  60
ATOM     60  C   UNL A   1      43.937  32.994  31.507  1.00  0.00    -0.014 A 
ATOM     61  C   UNL A   1      44.314  34.028  30.631  1.00  0.00     0.010 A 
ATOM     62  C   UNL A   1      43.675  33.299  32.855  1.00  0.00     0.010 A 
ATOM     63  C   UNL A   1      44.474  35.333  31.104  1.00  0.00     0.020 A 
ATOM     64  C   UNL A   1      43.807  34.608  33.327  1.00  0.00     0.020 A 
ATOM     65  C   UNL A   1      44.226  35.614  32.450  1.00  0.00     0.054 A 
BRANCH  65  66
ATOM     66  S   UNL A   1      44.430  37.318  33.037  1.00  0.00     0.124 S 
ATOM     67  O   UNL A   1      45.533  37.179  33.983  1.00  0.00    -0.237 OA
ATOM     68  O   UNL A   1      44.744  38.045  31.810  1.00  0.00    -0.237 OA
ATOM     69  O   UNL A   1      43.134  37.637  33.631  1.00  0.00    -0.744 OA
ENDBRANCH  65  66
ENDBRANCH  46  60
BRANCH  47  70
ATOM     70  C   UNL A   1      42.529  23.808  27.846  1.00  0.00    -0.014 A 
ATOM     71  C   UNL A   1      42.384  22.698  28.696  1.00  0.00     0.010 A 
ATOM     72  C   UNL A   1      42.462  23.619  26.454  1.00  0.00     0.010 A 
ATOM     73  C   UNL A   1      42.193  21.419  28.165  1.00  0.00     0.020 A 
ATOM     74  C   UNL A   1      42.248  22.345  25.919  1.00  0.00     0.020 A 
ATOM     75  C   UNL A   1      42.124  21.251  26.779  1.00  0.00     0.054 A 
BRANCH  75  76
ATOM     76  S   UNL A   1      41.816  19.592  26.113  1.00  0.00     0.124 S 
ATOM     77  O   UNL A   1      42.740  19.542  24.984  1.00  0.00    -0.237 OA
ATOM     78  O   UNL A   1      42.150  18.728  27.244  1.00  0.00    -0.237 OA
ATOM     79  O   UNL A   1      40.397  19.623  25.764  1.00  0.00    -0.744 OA
ENDBRANCH  75  76
ENDBRANCH  47  70
BRANCH  59  80
ATOM     80  C   UNL A   1      48.007  27.099  30.633  1.00  0.00    -0.014 A 
ATOM     81  C   UNL A   1      49.024  27.280  29.680  1.00  0.00     0.010 A 
ATOM     82  C   UNL A   1      48.328  26.557  31.891  1.00  0.00     0.010 A 
ATOM     83  C   UNL A   1      50.337  26.901  29.971  1.00  0.00     0.020 A 
ATOM     84  C   UNL A   1      49.644  26.198  32.194  1.00  0.00     0.020 A 
ATOM     85  C   UNL A   1      50.638  26.361  31.226  1.00  0.00     0.054 A 
BRANCH  85  86
ATOM     86  S   UNL A   1      52.358  25.922  31.601  1.00  0.00     0.124 S 
ATOM     87  O   UNL A   1      52.994  26.045  30.292  1.00  0.00    -0.237 OA
ATOM     88  O   UNL A   1      52.743  26.932  32.584  1.00  0.00    -0.237 OA
ATOM     89  O   UNL A   1      52.262  24.560  32.122  1.00  0.00    -0.744 OA
ENDBRANCH  85  86
ENDBRANCH  59  80
ENDBRANCH  33  34
ENDBRANCH  25  28
ENDBRANCH  23  24
ENDBRANCH  22  23
ENDBRANCH   1  22
TORSDOF 17
ENDMDL
