MODEL 1
REMARK VINA RESULT:     -11.2      0.000      0.000
REMARK SMILES Nn1c(Cc2ccc(F)c(F)c2)nnc1SCC(=O)NCCCCNC(=O)c1ccc(-c2c3nc(c(-c4ccc(S(=O)(=O)[O-])cc4)c4ccc([nH]4)c(-c4ccc(S(=O)(=O)[O-])cc4)c4nc(c(-c5ccc(S(=O)(=O)[O-])cc5)c5ccc2[nH]5)C=C4)C=C3)cc1
REMARK SMILES IDX 22 1 21 2 20 3 18 4 19 5 17 7 16 8 15 9 2 10 3 11 13 12
REMARK SMILES IDX 14 13 1 14 4 17 5 18 6 19 12 20 7 21 10 22 8 23 11 24 9 25
REMARK SMILES IDX 23 26 24 27 25 28 26 29 27 31 28 32 29 33 87 34 30 35 86 36
REMARK SMILES IDX 31 37 32 38 33 39 80 40 34 41 85 42 79 43 81 44 35 45 84 46
REMARK SMILES IDX 78 47 77 48 36 50 66 51 47 52 65 53 48 54 51 55 64 56 82 57
REMARK SMILES IDX 49 58 50 59 63 61 83 62 52 63 37 64 38 65 46 66 39 67 45 68
REMARK SMILES IDX 40 69 41 70 42 71 43 72 44 73 67 74 68 75 76 76 69 77 75 78
REMARK SMILES IDX 70 79 71 80 72 81 73 82 74 83 53 84 54 85 62 86 55 87 61 88
REMARK SMILES IDX 56 89 57 90 58 91 59 92 60 93
REMARK H PARENT 20 6 1 15 1 16 25 30 81 49 51 60
REMARK Flexibility Score: inf
ROOT
ATOM      1  C   UNL A   1      38.892  23.351  26.278  1.00  0.00     0.023 C 
ENDROOT
BRANCH   1   2
ATOM      2  C   UNL A   1      37.882  22.369  25.682  1.00  0.00     0.116 C 
BRANCH   2   3
ATOM      3  N   UNL A   1      37.558  22.714  24.309  1.00  0.00    -0.355 N 
ATOM      4  C   UNL A   1      36.342  22.794  23.704  1.00  0.00     0.230 C 
ATOM      5  O   UNL A   1      36.306  22.953  22.479  1.00  0.00    -0.274 OA
ATOM      6  H   UNL A   1      38.329  22.919  23.733  1.00  0.00     0.163 HD
BRANCH   4   7
ATOM      7  C   UNL A   1      35.064  22.738  24.512  1.00  0.00     0.178 C 
BRANCH   7   8
ATOM      8  S   UNL A   1      33.548  22.793  23.545  1.00  0.00    -0.074 SA
BRANCH   8   9
ATOM      9  C   UNL A   1      33.451  24.375  22.854  1.00  0.00     0.210 A 
ATOM     10  N   UNL A   1      33.258  25.569  23.515  1.00  0.00    -0.221 N 
ATOM     11  C   UNL A   1      33.108  26.516  22.521  1.00  0.00     0.157 A 
ATOM     12  N   UNL A   1      33.201  25.918  21.347  1.00  0.00    -0.132 NA
ATOM     13  N   UNL A   1      33.420  24.581  21.557  1.00  0.00    -0.121 NA
BRANCH  10  14
ATOM     14  N   UNL A   1      33.203  25.782  24.935  1.00  0.00    -0.336 N 
ATOM     15  H   UNL A   1      32.522  25.319  25.475  1.00  0.00     0.178 HD
ATOM     16  H   UNL A   1      33.844  26.391  25.366  1.00  0.00     0.178 HD
ENDBRANCH  10  14
BRANCH  11  17
ATOM     17  C   UNL A   1      32.789  27.957  22.750  1.00  0.00     0.115 C 
BRANCH  17  18
ATOM     18  C   UNL A   1      31.309  28.282  22.739  1.00  0.00    -0.037 A 
ATOM     19  C   UNL A   1      30.388  27.476  23.434  1.00  0.00     0.007 A 
ATOM     20  C   UNL A   1      30.834  29.411  22.054  1.00  0.00     0.046 A 
ATOM     21  C   UNL A   1      29.025  27.787  23.435  1.00  0.00     0.043 A 
ATOM     22  C   UNL A   1      29.475  29.719  22.070  1.00  0.00     0.159 A 
ATOM     23  C   UNL A   1      28.577  28.912  22.755  1.00  0.00     0.158 A 
ATOM     24  F   UNL A   1      29.048  30.814  21.425  1.00  0.00    -0.204 F 
ATOM     25  F   UNL A   1      27.273  29.217  22.778  1.00  0.00    -0.204 F 
ENDBRANCH  17  18
ENDBRANCH  11  17
ENDBRANCH   8   9
ENDBRANCH   7   8
ENDBRANCH   4   7
ENDBRANCH   2   3
ENDBRANCH   1   2
BRANCH   1  26
ATOM     26  C   UNL A   1      39.910  22.726  27.238  1.00  0.00     0.023 C 
BRANCH  26  27
ATOM     27  C   UNL A   1      41.326  23.289  27.153  1.00  0.00     0.116 C 
BRANCH  27  28
ATOM     28  N   UNL A   1      41.491  24.256  26.079  1.00  0.00    -0.352 N 
ATOM     29  C   UNL A   1      41.455  25.629  26.150  1.00  0.00     0.251 C 
ATOM     30  H   UNL A   1      41.648  23.879  25.183  1.00  0.00     0.163 HD
ATOM     31  O   UNL A   1      41.495  26.305  25.127  1.00  0.00    -0.269 OA
BRANCH  29  32
ATOM     32  C   UNL A   1      41.333  26.283  27.471  1.00  0.00     0.039 A 
ATOM     33  C   UNL A   1      42.415  27.015  27.969  1.00  0.00     0.014 A 
ATOM     34  C   UNL A   1      40.140  26.204  28.193  1.00  0.00     0.014 A 
ATOM     35  C   UNL A   1      42.274  27.734  29.159  1.00  0.00     0.010 A 
ATOM     36  C   UNL A   1      39.985  26.963  29.350  1.00  0.00     0.010 A 
ATOM     37  C   UNL A   1      41.046  27.744  29.838  1.00  0.00    -0.014 A 
BRANCH  37  38
ATOM     38  C   UNL A   1      40.825  28.565  31.055  1.00  0.00     0.031 A 
ATOM     39  C   UNL A   1      39.770  29.637  31.049  1.00  0.00     0.074 A 
ATOM     40  C   UNL A   1      41.636  28.422  32.122  1.00  0.00     0.049 A 
ATOM     41  N   UNL A   1      39.544  30.578  31.927  1.00  0.00    -0.248 NA
ATOM     42  C   UNL A   1      38.867  29.667  29.887  1.00  0.00     0.031 C 
ATOM     43  C   UNL A   1      42.704  27.428  32.251  1.00  0.00     0.029 A 
ATOM     44  N   UNL A   1      41.703  29.133  33.295  1.00  0.00    -0.354 N 
ATOM     45  C   UNL A   1      38.496  31.331  31.413  1.00  0.00     0.074 A 
ATOM     46  C   UNL A   1      38.150  30.754  30.131  1.00  0.00     0.031 C 
ATOM     47  C   UNL A   1      43.312  27.587  33.438  1.00  0.00     0.029 A 
ATOM     48  C   UNL A   1      42.713  28.723  34.133  1.00  0.00     0.049 A 
ATOM     49  H   UNL A   1      41.085  29.867  33.516  1.00  0.00     0.167 HD
ATOM     50  C   UNL A   1      37.873  32.402  31.959  1.00  0.00     0.031 A 
ATOM     51  C   UNL A   1      43.127  29.218  35.316  1.00  0.00     0.031 A 
ATOM     52  C   UNL A   1      38.207  32.963  33.240  1.00  0.00     0.049 A 
ATOM     53  C   UNL A   1      42.431  30.419  35.896  1.00  0.00     0.074 A 
ATOM     54  C   UNL A   1      37.613  34.028  33.894  1.00  0.00     0.029 A 
ATOM     55  N   UNL A   1      39.218  32.498  34.066  1.00  0.00    -0.354 N 
ATOM     56  N   UNL A   1      41.429  31.107  35.403  1.00  0.00    -0.248 NA
ATOM     57  C   UNL A   1      42.917  30.909  37.195  1.00  0.00     0.031 C 
ATOM     58  C   UNL A   1      38.287  34.230  35.103  1.00  0.00     0.029 A 
ATOM     59  C   UNL A   1      39.271  33.260  35.221  1.00  0.00     0.049 A 
ATOM     60  H   UNL A   1      39.811  31.740  33.862  1.00  0.00     0.167 HD
ATOM     61  C   UNL A   1      41.144  32.088  36.345  1.00  0.00     0.074 A 
ATOM     62  C   UNL A   1      42.078  31.907  37.437  1.00  0.00     0.031 C 
ATOM     63  C   UNL A   1      40.191  33.051  36.309  1.00  0.00     0.031 A 
BRANCH  50  64
ATOM     64  C   UNL A   1      36.770  33.042  31.162  1.00  0.00    -0.014 A 
ATOM     65  C   UNL A   1      37.044  33.719  29.960  1.00  0.00     0.010 A 
ATOM     66  C   UNL A   1      35.439  32.945  31.607  1.00  0.00     0.010 A 
ATOM     67  C   UNL A   1      36.011  34.326  29.240  1.00  0.00     0.020 A 
ATOM     68  C   UNL A   1      34.400  33.529  30.876  1.00  0.00     0.020 A 
ATOM     69  C   UNL A   1      34.697  34.234  29.707  1.00  0.00     0.054 A 
BRANCH  69  70
ATOM     70  S   UNL A   1      33.374  35.026  28.751  1.00  0.00     0.124 S 
ATOM     71  O   UNL A   1      33.124  34.033  27.707  1.00  0.00    -0.237 OA
ATOM     72  O   UNL A   1      32.310  35.179  29.739  1.00  0.00    -0.237 OA
ATOM     73  O   UNL A   1      33.978  36.273  28.291  1.00  0.00    -0.744 OA
ENDBRANCH  69  70
ENDBRANCH  50  64
BRANCH  51  74
ATOM     74  C   UNL A   1      44.257  28.574  36.038  1.00  0.00    -0.014 A 
ATOM     75  C   UNL A   1      45.576  29.004  35.814  1.00  0.00     0.010 A 
ATOM     76  C   UNL A   1      44.023  27.533  36.956  1.00  0.00     0.010 A 
ATOM     77  C   UNL A   1      46.643  28.394  36.478  1.00  0.00     0.020 A 
ATOM     78  C   UNL A   1      45.085  26.937  37.640  1.00  0.00     0.020 A 
ATOM     79  C   UNL A   1      46.392  27.362  37.387  1.00  0.00     0.054 A 
BRANCH  79  80
ATOM     80  S   UNL A   1      47.789  26.613  38.269  1.00  0.00     0.124 S 
ATOM     81  O   UNL A   1      48.126  25.490  37.401  1.00  0.00    -0.237 OA
ATOM     82  O   UNL A   1      48.763  27.702  38.302  1.00  0.00    -0.237 OA
ATOM     83  O   UNL A   1      47.221  26.255  39.566  1.00  0.00    -0.744 OA
ENDBRANCH  79  80
ENDBRANCH  51  74
BRANCH  63  84
ATOM     84  C   UNL A   1      40.061  33.954  37.504  1.00  0.00    -0.014 A 
ATOM     85  C   UNL A   1      40.728  35.189  37.560  1.00  0.00     0.010 A 
ATOM     86  C   UNL A   1      39.175  33.601  38.538  1.00  0.00     0.010 A 
ATOM     87  C   UNL A   1      40.514  36.056  38.635  1.00  0.00     0.020 A 
ATOM     88  C   UNL A   1      38.943  34.473  39.604  1.00  0.00     0.020 A 
ATOM     89  C   UNL A   1      39.618  35.694  39.648  1.00  0.00     0.054 A 
BRANCH  89  90
ATOM     90  S   UNL A   1      39.288  36.874  40.987  1.00  0.00     0.124 S 
ATOM     91  O   UNL A   1      38.528  37.912  40.297  1.00  0.00    -0.237 OA
ATOM     92  O   UNL A   1      38.531  36.070  41.944  1.00  0.00    -0.237 OA
ATOM     93  O   UNL A   1      40.621  37.271  41.434  1.00  0.00    -0.744 OA
ENDBRANCH  89  90
ENDBRANCH  63  84
ENDBRANCH  37  38
ENDBRANCH  29  32
ENDBRANCH  27  28
ENDBRANCH  26  27
ENDBRANCH   1  26
TORSDOF 19
ENDMDL
MODEL 2
REMARK VINA RESULT:     -11.2      6.592     11.953
REMARK SMILES Nn1c(Cc2ccc(F)c(F)c2)nnc1SCC(=O)NCCCCNC(=O)c1ccc(-c2c3nc(c(-c4ccc(S(=O)(=O)[O-])cc4)c4ccc([nH]4)c(-c4ccc(S(=O)(=O)[O-])cc4)c4nc(c(-c5ccc(S(=O)(=O)[O-])cc5)c5ccc2[nH]5)C=C4)C=C3)cc1
REMARK SMILES IDX 22 1 21 2 20 3 18 4 19 5 17 7 16 8 15 9 2 10 3 11 13 12
REMARK SMILES IDX 14 13 1 14 4 17 5 18 6 19 12 20 7 21 10 22 8 23 11 24 9 25
REMARK SMILES IDX 23 26 24 27 25 28 26 29 27 31 28 32 29 33 87 34 30 35 86 36
REMARK SMILES IDX 31 37 32 38 33 39 80 40 34 41 85 42 79 43 81 44 35 45 84 46
REMARK SMILES IDX 78 47 77 48 36 50 66 51 47 52 65 53 48 54 51 55 64 56 82 57
REMARK SMILES IDX 49 58 50 59 63 61 83 62 52 63 37 64 38 65 46 66 39 67 45 68
REMARK SMILES IDX 40 69 41 70 42 71 43 72 44 73 67 74 68 75 76 76 69 77 75 78
REMARK SMILES IDX 70 79 71 80 72 81 73 82 74 83 53 84 54 85 62 86 55 87 61 88
REMARK SMILES IDX 56 89 57 90 58 91 59 92 60 93
REMARK H PARENT 20 6 1 15 1 16 25 30 81 49 51 60
REMARK Flexibility Score: inf
ROOT
ATOM      1  C   UNL A   1      35.320  29.436  27.187  1.00  0.00     0.023 C 
ENDROOT
BRANCH   1   2
ATOM      2  C   UNL A   1      34.198  28.652  26.504  1.00  0.00     0.116 C 
BRANCH   2   3
ATOM      3  N   UNL A   1      33.108  28.383  27.423  1.00  0.00    -0.355 N 
ATOM      4  C   UNL A   1      31.855  27.920  27.163  1.00  0.00     0.230 C 
ATOM      5  O   UNL A   1      31.030  27.912  28.083  1.00  0.00    -0.274 OA
ATOM      6  H   UNL A   1      33.302  28.561  28.372  1.00  0.00     0.163 HD
BRANCH   4   7
ATOM      7  C   UNL A   1      31.490  27.383  25.797  1.00  0.00     0.178 C 
BRANCH   7   8
ATOM      8  S   UNL A   1      30.366  25.979  25.804  1.00  0.00    -0.074 SA
BRANCH   8   9
ATOM      9  C   UNL A   1      31.320  24.575  26.141  1.00  0.00     0.210 A 
ATOM     10  N   UNL A   1      31.962  23.761  25.234  1.00  0.00    -0.221 N 
ATOM     11  C   UNL A   1      32.456  22.707  25.976  1.00  0.00     0.157 A 
ATOM     12  N   UNL A   1      32.122  22.885  27.241  1.00  0.00    -0.132 NA
ATOM     13  N   UNL A   1      31.416  24.055  27.342  1.00  0.00    -0.121 NA
BRANCH  10  14
ATOM     14  N   UNL A   1      32.076  23.953  23.814  1.00  0.00    -0.336 N 
ATOM     15  H   UNL A   1      32.845  23.577  23.327  1.00  0.00     0.178 HD
ATOM     16  H   UNL A   1      31.386  24.461  23.330  1.00  0.00     0.178 HD
ENDBRANCH  10  14
BRANCH  11  17
ATOM     17  C   UNL A   1      33.160  21.515  25.413  1.00  0.00     0.115 C 
BRANCH  17  18
ATOM     18  C   UNL A   1      34.670  21.638  25.374  1.00  0.00    -0.037 A 
ATOM     19  C   UNL A   1      35.304  22.853  25.700  1.00  0.00     0.007 A 
ATOM     20  C   UNL A   1      35.466  20.533  25.036  1.00  0.00     0.046 A 
ATOM     21  C   UNL A   1      36.697  22.959  25.679  1.00  0.00     0.043 A 
ATOM     22  C   UNL A   1      36.854  20.646  25.028  1.00  0.00     0.159 A 
ATOM     23  C   UNL A   1      37.465  21.851  25.347  1.00  0.00     0.158 A 
ATOM     24  F   UNL A   1      37.593  19.570  24.722  1.00  0.00    -0.204 F 
ATOM     25  F   UNL A   1      38.801  21.954  25.349  1.00  0.00    -0.204 F 
ENDBRANCH  17  18
ENDBRANCH  11  17
ENDBRANCH   8   9
ENDBRANCH   7   8
ENDBRANCH   4   7
ENDBRANCH   2   3
ENDBRANCH   1   2
BRANCH   1  26
ATOM     26  C   UNL A   1      34.939  30.850  27.639  1.00  0.00     0.023 C 
BRANCH  26  27
ATOM     27  C   UNL A   1      35.886  31.497  28.645  1.00  0.00     0.116 C 
BRANCH  27  28
ATOM     28  N   UNL A   1      35.676  31.029  30.006  1.00  0.00    -0.352 N 
ATOM     29  C   UNL A   1      36.556  30.363  30.827  1.00  0.00     0.251 C 
ATOM     30  H   UNL A   1      34.789  31.213  30.390  1.00  0.00     0.163 HD
ATOM     31  O   UNL A   1      36.185  29.931  31.914  1.00  0.00    -0.269 OA
BRANCH  29  32
ATOM     32  C   UNL A   1      37.946  30.142  30.372  1.00  0.00     0.039 A 
ATOM     33  C   UNL A   1      38.989  30.259  31.295  1.00  0.00     0.014 A 
ATOM     34  C   UNL A   1      38.210  29.782  29.048  1.00  0.00     0.014 A 
ATOM     35  C   UNL A   1      40.294  29.939  30.909  1.00  0.00     0.010 A 
ATOM     36  C   UNL A   1      39.500  29.413  28.680  1.00  0.00     0.010 A 
ATOM     37  C   UNL A   1      40.553  29.477  29.609  1.00  0.00    -0.014 A 
BRANCH  37  38
ATOM     38  C   UNL A   1      41.906  29.040  29.183  1.00  0.00     0.031 A 
ATOM     39  C   UNL A   1      43.021  30.045  29.099  1.00  0.00     0.074 A 
ATOM     40  C   UNL A   1      42.108  27.772  28.772  1.00  0.00     0.049 A 
ATOM     41  N   UNL A   1      44.213  29.915  28.578  1.00  0.00    -0.248 NA
ATOM     42  C   UNL A   1      42.747  31.382  29.652  1.00  0.00     0.031 C 
ATOM     43  C   UNL A   1      41.107  26.702  28.794  1.00  0.00     0.029 A 
ATOM     44  N   UNL A   1      43.220  27.174  28.234  1.00  0.00    -0.354 N 
ATOM     45  C   UNL A   1      44.821  31.157  28.711  1.00  0.00     0.074 A 
ATOM     46  C   UNL A   1      43.854  32.036  29.336  1.00  0.00     0.031 C 
ATOM     47  C   UNL A   1      41.655  25.579  28.299  1.00  0.00     0.029 A 
ATOM     48  C   UNL A   1      43.025  25.859  27.880  1.00  0.00     0.049 A 
ATOM     49  H   UNL A   1      44.078  27.642  28.112  1.00  0.00     0.167 HD
ATOM     50  C   UNL A   1      46.072  31.532  28.353  1.00  0.00     0.031 A 
ATOM     51  C   UNL A   1      43.846  24.984  27.268  1.00  0.00     0.031 A 
ATOM     52  C   UNL A   1      47.035  30.653  27.747  1.00  0.00     0.049 A 
ATOM     53  C   UNL A   1      45.226  25.426  26.863  1.00  0.00     0.074 A 
ATOM     54  C   UNL A   1      48.339  30.931  27.376  1.00  0.00     0.029 A 
ATOM     55  N   UNL A   1      46.803  29.323  27.434  1.00  0.00    -0.354 N 
ATOM     56  N   UNL A   1      45.789  26.601  27.014  1.00  0.00    -0.248 NA
ATOM     57  C   UNL A   1      46.082  24.427  26.209  1.00  0.00     0.031 C 
ATOM     58  C   UNL A   1      48.886  29.776  26.807  1.00  0.00     0.029 A 
ATOM     59  C   UNL A   1      47.937  28.768  26.866  1.00  0.00     0.049 A 
ATOM     60  H   UNL A   1      45.958  28.845  27.591  1.00  0.00     0.167 HD
ATOM     61  C   UNL A   1      47.076  26.471  26.505  1.00  0.00     0.074 A 
ATOM     62  C   UNL A   1      47.209  25.106  26.041  1.00  0.00     0.031 C 
ATOM     63  C   UNL A   1      48.060  27.400  26.432  1.00  0.00     0.031 A 
BRANCH  50  64
ATOM     64  C   UNL A   1      46.463  32.963  28.598  1.00  0.00    -0.014 A 
ATOM     65  C   UNL A   1      47.067  33.352  29.807  1.00  0.00     0.010 A 
ATOM     66  C   UNL A   1      46.246  33.929  27.598  1.00  0.00     0.010 A 
ATOM     67  C   UNL A   1      47.407  34.689  30.029  1.00  0.00     0.020 A 
ATOM     68  C   UNL A   1      46.608  35.263  27.806  1.00  0.00     0.020 A 
ATOM     69  C   UNL A   1      47.168  35.637  29.031  1.00  0.00     0.054 A 
BRANCH  69  70
ATOM     70  S   UNL A   1      47.623  37.366  29.341  1.00  0.00     0.124 S 
ATOM     71  O   UNL A   1      48.135  37.779  28.036  1.00  0.00    -0.237 OA
ATOM     72  O   UNL A   1      46.353  37.968  29.736  1.00  0.00    -0.237 OA
ATOM     73  O   UNL A   1      48.623  37.276  30.401  1.00  0.00    -0.744 OA
ENDBRANCH  69  70
ENDBRANCH  50  64
BRANCH  51  74
ATOM     74  C   UNL A   1      43.388  23.592  27.005  1.00  0.00    -0.014 A 
ATOM     75  C   UNL A   1      43.186  23.153  25.685  1.00  0.00     0.010 A 
ATOM     76  C   UNL A   1      43.159  22.699  28.067  1.00  0.00     0.010 A 
ATOM     77  C   UNL A   1      42.743  21.853  25.432  1.00  0.00     0.020 A 
ATOM     78  C   UNL A   1      42.739  21.390  27.817  1.00  0.00     0.020 A 
ATOM     79  C   UNL A   1      42.520  20.978  26.499  1.00  0.00     0.054 A 
BRANCH  79  80
ATOM     80  S   UNL A   1      41.985  19.281  26.144  1.00  0.00     0.124 S 
ATOM     81  O   UNL A   1      42.326  18.592  27.383  1.00  0.00    -0.237 OA
ATOM     82  O   UNL A   1      40.556  19.448  25.885  1.00  0.00    -0.237 OA
ATOM     83  O   UNL A   1      42.783  18.910  24.978  1.00  0.00    -0.744 OA
ENDBRANCH  79  80
ENDBRANCH  51  74
BRANCH  63  84
ATOM     84  C   UNL A   1      49.393  26.969  25.884  1.00  0.00    -0.014 A 
ATOM     85  C   UNL A   1      49.694  27.098  24.518  1.00  0.00     0.010 A 
ATOM     86  C   UNL A   1      50.389  26.524  26.772  1.00  0.00     0.010 A 
ATOM     87  C   UNL A   1      50.972  26.785  24.048  1.00  0.00     0.020 A 
ATOM     88  C   UNL A   1      51.673  26.229  26.309  1.00  0.00     0.020 A 
ATOM     89  C   UNL A   1      51.955  26.357  24.948  1.00  0.00     0.054 A 
BRANCH  89  90
ATOM     90  S   UNL A   1      53.632  26.043  24.328  1.00  0.00     0.124 S 
ATOM     91  O   UNL A   1      53.862  24.667  24.757  1.00  0.00    -0.237 OA
ATOM     92  O   UNL A   1      53.484  26.237  22.887  1.00  0.00    -0.237 OA
ATOM     93  O   UNL A   1      54.445  27.051  25.004  1.00  0.00    -0.744 OA
ENDBRANCH  89  90
ENDBRANCH  63  84
ENDBRANCH  37  38
ENDBRANCH  29  32
ENDBRANCH  27  28
ENDBRANCH  26  27
ENDBRANCH   1  26
TORSDOF 19
ENDMDL
MODEL 3
REMARK VINA RESULT:     -10.8      6.699     12.155
REMARK SMILES Nn1c(Cc2ccc(F)c(F)c2)nnc1SCC(=O)NCCCCNC(=O)c1ccc(-c2c3nc(c(-c4ccc(S(=O)(=O)[O-])cc4)c4ccc([nH]4)c(-c4ccc(S(=O)(=O)[O-])cc4)c4nc(c(-c5ccc(S(=O)(=O)[O-])cc5)c5ccc2[nH]5)C=C4)C=C3)cc1
REMARK SMILES IDX 22 1 21 2 20 3 18 4 19 5 17 7 16 8 15 9 2 10 3 11 13 12
REMARK SMILES IDX 14 13 1 14 4 17 5 18 6 19 12 20 7 21 10 22 8 23 11 24 9 25
REMARK SMILES IDX 23 26 24 27 25 28 26 29 27 31 28 32 29 33 87 34 30 35 86 36
REMARK SMILES IDX 31 37 32 38 33 39 80 40 34 41 85 42 79 43 81 44 35 45 84 46
REMARK SMILES IDX 78 47 77 48 36 50 66 51 47 52 65 53 48 54 51 55 64 56 82 57
REMARK SMILES IDX 49 58 50 59 63 61 83 62 52 63 37 64 38 65 46 66 39 67 45 68
REMARK SMILES IDX 40 69 41 70 42 71 43 72 44 73 67 74 68 75 76 76 69 77 75 78
REMARK SMILES IDX 70 79 71 80 72 81 73 82 74 83 53 84 54 85 62 86 55 87 61 88
REMARK SMILES IDX 56 89 57 90 58 91 59 92 60 93
REMARK H PARENT 20 6 1 15 1 16 25 30 81 49 51 60
REMARK Flexibility Score: inf
ROOT
ATOM      1  C   UNL A   1      34.450  29.323  27.676  1.00  0.00     0.023 C 
ENDROOT
BRANCH   1   2
ATOM      2  C   UNL A   1      33.383  28.846  26.690  1.00  0.00     0.116 C 
BRANCH   2   3
ATOM      3  N   UNL A   1      33.757  29.147  25.321  1.00  0.00    -0.355 N 
ATOM      4  C   UNL A   1      32.976  29.217  24.209  1.00  0.00     0.230 C 
ATOM      5  O   UNL A   1      33.529  29.335  23.110  1.00  0.00    -0.274 OA
ATOM      6  H   UNL A   1      34.714  29.326  25.175  1.00  0.00     0.163 HD
BRANCH   4   7
ATOM      7  C   UNL A   1      31.466  29.200  24.313  1.00  0.00     0.178 C 
BRANCH   7   8
ATOM      8  S   UNL A   1      30.608  28.590  22.855  1.00  0.00    -0.074 SA
BRANCH   8   9
ATOM      9  C   UNL A   1      30.994  26.910  22.712  1.00  0.00     0.210 A 
ATOM     10  N   UNL A   1      30.465  25.864  23.436  1.00  0.00    -0.221 N 
ATOM     11  C   UNL A   1      31.193  24.753  23.059  1.00  0.00     0.157 A 
ATOM     12  N   UNL A   1      32.100  25.123  22.172  1.00  0.00    -0.132 NA
ATOM     13  N   UNL A   1      31.970  26.469  21.954  1.00  0.00    -0.121 NA
BRANCH  10  14
ATOM     14  N   UNL A   1      29.396  25.918  24.395  1.00  0.00    -0.336 N 
ATOM     15  H   UNL A   1      28.681  25.241  24.374  1.00  0.00     0.178 HD
ATOM     16  H   UNL A   1      29.379  26.631  25.073  1.00  0.00     0.178 HD
ENDBRANCH  10  14
BRANCH  11  17
ATOM     17  C   UNL A   1      31.041  23.387  23.643  1.00  0.00     0.115 C 
BRANCH  17  18
ATOM     18  C   UNL A   1      32.267  22.875  24.372  1.00  0.00    -0.037 A 
ATOM     19  C   UNL A   1      32.888  23.649  25.371  1.00  0.00     0.007 A 
ATOM     20  C   UNL A   1      32.790  21.606  24.080  1.00  0.00     0.046 A 
ATOM     21  C   UNL A   1      34.009  23.168  26.053  1.00  0.00     0.043 A 
ATOM     22  C   UNL A   1      33.901  21.131  24.773  1.00  0.00     0.159 A 
ATOM     23  C   UNL A   1      34.507  21.907  25.752  1.00  0.00     0.158 A 
ATOM     24  F   UNL A   1      34.370  19.907  24.491  1.00  0.00    -0.204 F 
ATOM     25  F   UNL A   1      35.569  21.442  26.424  1.00  0.00    -0.204 F 
ENDBRANCH  17  18
ENDBRANCH  11  17
ENDBRANCH   8   9
ENDBRANCH   7   8
ENDBRANCH   4   7
ENDBRANCH   2   3
ENDBRANCH   1   2
BRANCH   1  26
ATOM     26  C   UNL A   1      34.844  30.798  27.539  1.00  0.00     0.023 C 
BRANCH  26  27
ATOM     27  C   UNL A   1      35.974  31.265  28.452  1.00  0.00     0.116 C 
BRANCH  27  28
ATOM     28  N   UNL A   1      35.804  30.838  29.832  1.00  0.00    -0.352 N 
ATOM     29  C   UNL A   1      36.626  30.032  30.585  1.00  0.00     0.251 C 
ATOM     30  H   UNL A   1      34.996  31.167  30.286  1.00  0.00     0.163 HD
ATOM     31  O   UNL A   1      36.280  29.667  31.705  1.00  0.00    -0.269 OA
BRANCH  29  32
ATOM     32  C   UNL A   1      37.916  29.581  30.019  1.00  0.00     0.039 A 
ATOM     33  C   UNL A   1      38.077  29.557  28.631  1.00  0.00     0.014 A 
ATOM     34  C   UNL A   1      38.972  29.222  30.861  1.00  0.00     0.014 A 
ATOM     35  C   UNL A   1      39.325  29.246  28.085  1.00  0.00     0.010 A 
ATOM     36  C   UNL A   1      40.227  28.964  30.317  1.00  0.00     0.010 A 
ATOM     37  C   UNL A   1      40.419  28.984  28.925  1.00  0.00    -0.014 A 
BRANCH  37  38
ATOM     38  C   UNL A   1      41.782  28.738  28.390  1.00  0.00     0.031 A 
ATOM     39  C   UNL A   1      42.176  27.352  27.965  1.00  0.00     0.074 A 
ATOM     40  C   UNL A   1      42.695  29.731  28.386  1.00  0.00     0.049 A 
ATOM     41  N   UNL A   1      43.357  26.888  27.651  1.00  0.00    -0.248 NA
ATOM     42  C   UNL A   1      41.100  26.348  27.911  1.00  0.00     0.031 C 
ATOM     43  C   UNL A   1      42.443  31.119  28.783  1.00  0.00     0.029 A 
ATOM     44  N   UNL A   1      44.027  29.717  28.056  1.00  0.00    -0.354 N 
ATOM     45  C   UNL A   1      43.175  25.535  27.392  1.00  0.00     0.074 A 
ATOM     46  C   UNL A   1      41.774  25.246  27.614  1.00  0.00     0.031 C 
ATOM     47  C   UNL A   1      43.582  31.822  28.665  1.00  0.00     0.029 A 
ATOM     48  C   UNL A   1      44.653  30.929  28.233  1.00  0.00     0.049 A 
ATOM     49  H   UNL A   1      44.491  28.915  27.723  1.00  0.00     0.167 HD
ATOM     50  C   UNL A   1      44.090  24.616  26.999  1.00  0.00     0.031 A 
ATOM     51  C   UNL A   1      45.946  31.278  28.088  1.00  0.00     0.031 A 
ATOM     52  C   UNL A   1      45.478  24.909  26.763  1.00  0.00     0.049 A 
ATOM     53  C   UNL A   1      46.947  30.238  27.666  1.00  0.00     0.074 A 
ATOM     54  C   UNL A   1      46.476  24.053  26.332  1.00  0.00     0.029 A 
ATOM     55  N   UNL A   1      46.061  26.156  26.928  1.00  0.00    -0.354 N 
ATOM     56  N   UNL A   1      46.753  28.967  27.408  1.00  0.00    -0.248 NA
ATOM     57  C   UNL A   1      48.342  30.678  27.512  1.00  0.00     0.031 C 
ATOM     58  C   UNL A   1      47.672  24.775  26.268  1.00  0.00     0.029 A 
ATOM     59  C   UNL A   1      47.408  26.091  26.615  1.00  0.00     0.049 A 
ATOM     60  H   UNL A   1      45.588  26.966  27.224  1.00  0.00     0.167 HD
ATOM     61  C   UNL A   1      47.992  28.464  27.030  1.00  0.00     0.074 A 
ATOM     62  C   UNL A   1      48.930  29.566  27.091  1.00  0.00     0.031 C 
ATOM     63  C   UNL A   1      48.322  27.203  26.660  1.00  0.00     0.031 A 
BRANCH  50  64
ATOM     64  C   UNL A   1      43.614  23.202  26.811  1.00  0.00    -0.014 A 
ATOM     65  C   UNL A   1      42.993  22.502  27.860  1.00  0.00     0.010 A 
ATOM     66  C   UNL A   1      43.765  22.575  25.561  1.00  0.00     0.010 A 
ATOM     67  C   UNL A   1      42.573  21.181  27.676  1.00  0.00     0.020 A 
ATOM     68  C   UNL A   1      43.323  21.263  25.366  1.00  0.00     0.020 A 
ATOM     69  C   UNL A   1      42.748  20.568  26.433  1.00  0.00     0.054 A 
BRANCH  69  70
ATOM     70  S   UNL A   1      42.190  18.855  26.218  1.00  0.00     0.124 S 
ATOM     71  O   UNL A   1      43.178  18.335  25.275  1.00  0.00    -0.237 OA
ATOM     72  O   UNL A   1      42.272  18.316  27.573  1.00  0.00    -0.237 OA
ATOM     73  O   UNL A   1      40.837  18.996  25.687  1.00  0.00    -0.744 OA
ENDBRANCH  69  70
ENDBRANCH  50  64
BRANCH  51  74
ATOM     74  C   UNL A   1      46.370  32.683  28.336  1.00  0.00    -0.014 A 
ATOM     75  C   UNL A   1      46.704  33.101  29.636  1.00  0.00     0.010 A 
ATOM     76  C   UNL A   1      46.448  33.607  27.277  1.00  0.00     0.010 A 
ATOM     77  C   UNL A   1      47.090  34.422  29.877  1.00  0.00     0.020 A 
ATOM     78  C   UNL A   1      46.857  34.923  27.512  1.00  0.00     0.020 A 
ATOM     79  C   UNL A   1      47.163  35.326  28.814  1.00  0.00     0.054 A 
BRANCH  79  80
ATOM     80  S   UNL A   1      47.706  37.025  29.146  1.00  0.00     0.124 S 
ATOM     81  O   UNL A   1      47.172  37.256  30.484  1.00  0.00    -0.237 OA
ATOM     82  O   UNL A   1      49.161  36.916  29.055  1.00  0.00    -0.237 OA
ATOM     83  O   UNL A   1      47.078  37.798  28.078  1.00  0.00    -0.744 OA
ENDBRANCH  79  80
ENDBRANCH  51  74
BRANCH  63  84
ATOM     84  C   UNL A   1      49.741  26.945  26.235  1.00  0.00    -0.014 A 
ATOM     85  C   UNL A   1      50.726  26.583  27.169  1.00  0.00     0.010 A 
ATOM     86  C   UNL A   1      50.063  26.967  24.865  1.00  0.00     0.010 A 
ATOM     87  C   UNL A   1      52.014  26.250  26.739  1.00  0.00     0.020 A 
ATOM     88  C   UNL A   1      51.343  26.616  24.431  1.00  0.00     0.020 A 
ATOM     89  C   UNL A   1      52.313  26.264  25.371  1.00  0.00     0.054 A 
BRANCH  89  90
ATOM     90  S   UNL A   1      53.965  25.742  24.831  1.00  0.00     0.124 S 
ATOM     91  O   UNL A   1      54.101  26.436  23.554  1.00  0.00    -0.237 OA
ATOM     92  O   UNL A   1      54.824  26.230  25.908  1.00  0.00    -0.237 OA
ATOM     93  O   UNL A   1      53.855  24.288  24.742  1.00  0.00    -0.744 OA
ENDBRANCH  89  90
ENDBRANCH  63  84
ENDBRANCH  37  38
ENDBRANCH  29  32
ENDBRANCH  27  28
ENDBRANCH  26  27
ENDBRANCH   1  26
TORSDOF 19
ENDMDL
