MODEL 1
REMARK VINA RESULT:     -10.5      0.000      0.000
REMARK SMILES O=C(NCCCCNC(=O)[C@@H]1CS[C@@H](c2cc(Br)ccc2O)[NH2+]1)c1ccc(-c2c3nc(c(-c4ccc(S(=O)(=O)[O-])cc4)c4ccc([nH]4)c(-c4ccc(S(=O)(=O)[O-])cc4)c4nc(c(-c5ccc(S(=O)(=O)[O-])cc5)c5ccc2[nH]5)C=C4)C=C3)cc1
REMARK SMILES IDX 5 1 4 2 3 3 1 4 2 5 24 7 25 8 83 9 26 10 82 11 27 12 28 13
REMARK SMILES IDX 29 14 76 15 30 16 81 17 75 18 77 19 31 20 80 21 74 22 73 23
REMARK SMILES IDX 32 25 62 26 43 27 61 28 44 29 47 30 60 31 78 32 45 33 46 34
REMARK SMILES IDX 59 36 79 37 48 38 33 39 34 40 42 41 35 42 41 43 36 44 37 45
REMARK SMILES IDX 38 46 39 47 40 48 63 49 64 50 72 51 65 52 71 53 66 54 67 55
REMARK SMILES IDX 68 56 69 57 70 58 49 59 50 60 58 61 51 62 57 63 52 64 53 65
REMARK SMILES IDX 54 66 55 67 56 68 6 69 7 70 8 71 9 72 10 74 11 75 12 76
REMARK SMILES IDX 23 77 13 78 14 79 15 82 16 83 21 84 17 85 20 86 18 87 19 88
REMARK SMILES IDX 22 89
REMARK H PARENT 3 6 77 24 47 35 8 73 23 80 23 81 22 90
REMARK Flexibility Score: inf
ROOT
ATOM      1  C   UNL A   1      35.412  33.231  28.296  1.00  0.00     0.023 C 
ENDROOT
BRANCH   1   2
ATOM      2  C   UNL A   1      34.629  32.237  29.146  1.00  0.00     0.116 C 
BRANCH   2   3
ATOM      3  N   UNL A   1      34.077  31.140  28.369  1.00  0.00    -0.352 N 
ATOM      4  O   UNL A   1      34.093  29.247  27.144  1.00  0.00    -0.269 OA
ATOM      5  C   UNL A   1      34.700  30.011  27.892  1.00  0.00     0.251 C 
ATOM      6  H   UNL A   1      33.119  31.214  28.154  1.00  0.00     0.163 HD
BRANCH   5   7
ATOM      7  C   UNL A   1      36.104  29.731  28.263  1.00  0.00     0.039 A 
ATOM      8  C   UNL A   1      36.422  29.267  29.542  1.00  0.00     0.014 A 
ATOM      9  C   UNL A   1      37.113  29.921  27.314  1.00  0.00     0.014 A 
ATOM     10  C   UNL A   1      37.755  29.107  29.909  1.00  0.00     0.010 A 
ATOM     11  C   UNL A   1      38.447  29.689  27.662  1.00  0.00     0.010 A 
ATOM     12  C   UNL A   1      38.779  29.295  28.968  1.00  0.00    -0.014 A 
BRANCH  12  13
ATOM     13  C   UNL A   1      40.178  28.957  29.334  1.00  0.00     0.031 A 
ATOM     14  C   UNL A   1      41.072  29.950  30.020  1.00  0.00     0.074 A 
ATOM     15  C   UNL A   1      40.634  27.728  29.022  1.00  0.00     0.049 A 
ATOM     16  N   UNL A   1      42.321  29.807  30.386  1.00  0.00    -0.248 NA
ATOM     17  C   UNL A   1      40.504  31.270  30.335  1.00  0.00     0.031 C 
ATOM     18  C   UNL A   1      39.857  26.689  28.336  1.00  0.00     0.029 A 
ATOM     19  N   UNL A   1      41.853  27.139  29.236  1.00  0.00    -0.354 N 
ATOM     20  C   UNL A   1      42.697  31.021  30.949  1.00  0.00     0.074 A 
ATOM     21  C   UNL A   1      41.546  31.894  30.873  1.00  0.00     0.031 C 
ATOM     22  C   UNL A   1      40.610  25.589  28.205  1.00  0.00     0.029 A 
ATOM     23  C   UNL A   1      41.940  25.860  28.738  1.00  0.00     0.049 A 
ATOM     24  H   UNL A   1      42.596  27.588  29.701  1.00  0.00     0.167 HD
ATOM     25  C   UNL A   1      43.895  31.369  31.476  1.00  0.00     0.031 A 
ATOM     26  C   UNL A   1      42.980  25.008  28.679  1.00  0.00     0.031 A 
ATOM     27  C   UNL A   1      45.030  30.485  31.558  1.00  0.00     0.049 A 
ATOM     28  C   UNL A   1      44.302  25.438  29.242  1.00  0.00     0.074 A 
ATOM     29  C   UNL A   1      46.259  30.721  32.151  1.00  0.00     0.029 A 
ATOM     30  N   UNL A   1      45.085  29.209  31.020  1.00  0.00    -0.354 N 
ATOM     31  N   UNL A   1      44.612  26.562  29.842  1.00  0.00    -0.248 NA
ATOM     32  C   UNL A   1      45.418  24.493  29.110  1.00  0.00     0.031 C 
ATOM     33  C   UNL A   1      47.078  29.611  31.917  1.00  0.00     0.029 A 
ATOM     34  C   UNL A   1      46.342  28.665  31.222  1.00  0.00     0.049 A 
ATOM     35  H   UNL A   1      44.341  28.758  30.561  1.00  0.00     0.167 HD
ATOM     36  C   UNL A   1      45.960  26.458  30.159  1.00  0.00     0.074 A 
ATOM     37  C   UNL A   1      46.399  25.152  29.712  1.00  0.00     0.031 C 
ATOM     38  C   UNL A   1      46.765  27.369  30.758  1.00  0.00     0.031 A 
BRANCH  25  39
ATOM     39  C   UNL A   1      44.072  32.774  31.989  1.00  0.00    -0.014 A 
ATOM     40  C   UNL A   1      44.406  33.830  31.124  1.00  0.00     0.010 A 
ATOM     41  C   UNL A   1      43.788  33.057  33.338  1.00  0.00     0.010 A 
ATOM     42  C   UNL A   1      44.462  35.143  31.603  1.00  0.00     0.020 A 
ATOM     43  C   UNL A   1      43.824  34.370  33.816  1.00  0.00     0.020 A 
ATOM     44  C   UNL A   1      44.168  35.405  32.945  1.00  0.00     0.054 A 
BRANCH  44  45
ATOM     45  S   UNL A   1      44.185  37.126  33.523  1.00  0.00     0.124 S 
ATOM     46  O   UNL A   1      44.716  37.829  32.357  1.00  0.00    -0.237 OA
ATOM     47  O   UNL A   1      42.777  37.378  33.820  1.00  0.00    -0.237 OA
ATOM     48  O   UNL A   1      45.068  37.095  34.686  1.00  0.00    -0.744 OA
ENDBRANCH  44  45
ENDBRANCH  25  39
BRANCH  26  49
ATOM     49  C   UNL A   1      42.822  23.694  28.004  1.00  0.00    -0.014 A 
ATOM     50  C   UNL A   1      42.260  22.598  28.679  1.00  0.00     0.010 A 
ATOM     51  C   UNL A   1      43.228  23.541  26.665  1.00  0.00     0.010 A 
ATOM     52  C   UNL A   1      42.128  21.365  28.033  1.00  0.00     0.020 A 
ATOM     53  C   UNL A   1      43.070  22.320  26.007  1.00  0.00     0.020 A 
ATOM     54  C   UNL A   1      42.536  21.234  26.702  1.00  0.00     0.054 A 
BRANCH  54  55
ATOM     55  S   UNL A   1      42.322  19.638  25.867  1.00  0.00     0.124 S 
ATOM     56  O   UNL A   1      43.281  19.741  24.771  1.00  0.00    -0.237 OA
ATOM     57  O   UNL A   1      42.660  18.680  26.917  1.00  0.00    -0.237 OA
ATOM     58  O   UNL A   1      40.915  19.647  25.474  1.00  0.00    -0.744 OA
ENDBRANCH  54  55
ENDBRANCH  26  49
BRANCH  38  59
ATOM     59  C   UNL A   1      48.204  26.984  30.958  1.00  0.00    -0.014 A 
ATOM     60  C   UNL A   1      49.170  27.302  29.988  1.00  0.00     0.010 A 
ATOM     61  C   UNL A   1      48.601  26.350  32.148  1.00  0.00     0.010 A 
ATOM     62  C   UNL A   1      50.511  26.974  30.197  1.00  0.00     0.020 A 
ATOM     63  C   UNL A   1      49.945  26.042  32.370  1.00  0.00     0.020 A 
ATOM     64  C   UNL A   1      50.890  26.347  31.388  1.00  0.00     0.054 A 
BRANCH  64  65
ATOM     65  S   UNL A   1      52.646  25.981  31.661  1.00  0.00     0.124 S 
ATOM     66  O   UNL A   1      53.231  26.318  30.367  1.00  0.00    -0.237 OA
ATOM     67  O   UNL A   1      52.994  26.877  32.761  1.00  0.00    -0.237 OA
ATOM     68  O   UNL A   1      52.655  24.559  31.998  1.00  0.00    -0.744 OA
ENDBRANCH  64  65
ENDBRANCH  38  59
ENDBRANCH  12  13
ENDBRANCH   5   7
ENDBRANCH   2   3
ENDBRANCH   1   2
BRANCH   1  69
ATOM     69  C   UNL A   1      34.607  34.401  27.734  1.00  0.00     0.023 C 
BRANCH  69  70
ATOM     70  C   UNL A   1      33.252  34.658  28.383  1.00  0.00     0.116 C 
BRANCH  70  71
ATOM     71  N   UNL A   1      33.074  36.020  28.849  1.00  0.00    -0.351 N 
ATOM     72  C   UNL A   1      32.977  36.499  30.125  1.00  0.00     0.279 C 
ATOM     73  H   UNL A   1      33.014  36.702  28.141  1.00  0.00     0.163 HD
ATOM     74  O   UNL A   1      32.999  37.727  30.258  1.00  0.00    -0.268 OA
BRANCH  72  75
ATOM     75  C   UNL A   1      32.701  35.569  31.332  1.00  0.00     0.283 C 
ATOM     76  C   UNL A   1      32.333  36.353  32.598  1.00  0.00     0.151 C 
ATOM     77  N   UNL A   1      33.829  34.678  31.687  1.00  0.00    -0.320 N 
ATOM     78  S   UNL A   1      33.877  36.490  33.556  1.00  0.00    -0.087 SA
ATOM     79  C   UNL A   1      34.830  35.505  32.369  1.00  0.00     0.278 C 
ATOM     80  H   UNL A   1      34.230  34.268  30.843  1.00  0.00     0.348 HD
ATOM     81  H   UNL A   1      33.517  33.916  32.288  1.00  0.00     0.348 HD
BRANCH  79  82
ATOM     82  C   UNL A   1      35.932  34.628  32.933  1.00  0.00     0.063 A 
ATOM     83  C   UNL A   1      37.298  34.872  32.686  1.00  0.00     0.030 A 
ATOM     84  C   UNL A   1      35.611  33.583  33.819  1.00  0.00     0.125 A 
ATOM     85  C   UNL A   1      38.283  34.088  33.291  1.00  0.00     0.018 A 
ATOM     86  C   UNL A   1      36.597  32.809  34.435  1.00  0.00     0.048 A 
ATOM     87  Br  UNL A   1      40.108  34.430  32.929  1.00  0.00    -0.051 Br
ATOM     88  C   UNL A   1      37.939  33.062  34.168  1.00  0.00     0.019 A 
BRANCH  84  89
ATOM     89  O   UNL A   1      34.297  33.322  34.098  1.00  0.00    -0.507 OA
ATOM     90  H   UNL A   1      33.925  33.605  34.910  1.00  0.00     0.293 HD
ENDBRANCH  84  89
ENDBRANCH  79  82
ENDBRANCH  72  75
ENDBRANCH  70  71
ENDBRANCH  69  70
ENDBRANCH   1  69
TORSDOF 16
ENDMDL
MODEL 2
REMARK VINA RESULT:     -10.5      2.807      3.443
REMARK SMILES O=C(NCCCCNC(=O)[C@@H]1CS[C@@H](c2cc(Br)ccc2O)[NH2+]1)c1ccc(-c2c3nc(c(-c4ccc(S(=O)(=O)[O-])cc4)c4ccc([nH]4)c(-c4ccc(S(=O)(=O)[O-])cc4)c4nc(c(-c5ccc(S(=O)(=O)[O-])cc5)c5ccc2[nH]5)C=C4)C=C3)cc1
REMARK SMILES IDX 5 1 4 2 3 3 1 4 2 5 24 7 25 8 83 9 26 10 82 11 27 12 28 13
REMARK SMILES IDX 29 14 76 15 30 16 81 17 75 18 77 19 31 20 80 21 74 22 73 23
REMARK SMILES IDX 32 25 62 26 43 27 61 28 44 29 47 30 60 31 78 32 45 33 46 34
REMARK SMILES IDX 59 36 79 37 48 38 33 39 34 40 42 41 35 42 41 43 36 44 37 45
REMARK SMILES IDX 38 46 39 47 40 48 63 49 64 50 72 51 65 52 71 53 66 54 67 55
REMARK SMILES IDX 68 56 69 57 70 58 49 59 50 60 58 61 51 62 57 63 52 64 53 65
REMARK SMILES IDX 54 66 55 67 56 68 6 69 7 70 8 71 9 72 10 74 11 75 12 76
REMARK SMILES IDX 23 77 13 78 14 79 15 82 16 83 21 84 17 85 20 86 18 87 19 88
REMARK SMILES IDX 22 89
REMARK H PARENT 3 6 77 24 47 35 8 73 23 80 23 81 22 90
REMARK Flexibility Score: inf
ROOT
ATOM      1  C   UNL A   1      35.738  33.659  28.698  1.00  0.00     0.023 C 
ENDROOT
BRANCH   1   2
ATOM      2  C   UNL A   1      35.800  32.139  28.798  1.00  0.00     0.116 C 
BRANCH   2   3
ATOM      3  N   UNL A   1      35.532  31.648  30.139  1.00  0.00    -0.352 N 
ATOM      4  O   UNL A   1      35.853  30.425  32.006  1.00  0.00    -0.269 OA
ATOM      5  C   UNL A   1      36.303  30.838  30.940  1.00  0.00     0.251 C 
ATOM      6  H   UNL A   1      34.677  31.936  30.533  1.00  0.00     0.163 HD
BRANCH   5   7
ATOM      7  C   UNL A   1      37.662  30.449  30.504  1.00  0.00     0.039 A 
ATOM      8  C   UNL A   1      38.001  30.453  29.148  1.00  0.00     0.014 A 
ATOM      9  C   UNL A   1      38.613  30.093  31.465  1.00  0.00     0.014 A 
ATOM     10  C   UNL A   1      39.249  29.987  28.746  1.00  0.00     0.010 A 
ATOM     11  C   UNL A   1      39.891  29.695  31.063  1.00  0.00     0.010 A 
ATOM     12  C   UNL A   1      40.214  29.625  29.698  1.00  0.00    -0.014 A 
BRANCH  12  13
ATOM     13  C   UNL A   1      41.591  29.291  29.253  1.00  0.00     0.031 A 
ATOM     14  C   UNL A   1      42.677  30.329  29.210  1.00  0.00     0.074 A 
ATOM     15  C   UNL A   1      41.842  28.023  28.871  1.00  0.00     0.049 A 
ATOM     16  N   UNL A   1      43.920  30.193  28.826  1.00  0.00    -0.248 NA
ATOM     17  C   UNL A   1      42.330  31.690  29.646  1.00  0.00     0.031 C 
ATOM     18  C   UNL A   1      40.856  26.937  28.853  1.00  0.00     0.029 A 
ATOM     19  N   UNL A   1      42.994  27.428  28.428  1.00  0.00    -0.354 N 
ATOM     20  C   UNL A   1      44.500  31.450  28.950  1.00  0.00     0.074 A 
ATOM     21  C   UNL A   1      43.469  32.341  29.438  1.00  0.00     0.031 C 
ATOM     22  C   UNL A   1      41.449  25.808  28.440  1.00  0.00     0.029 A 
ATOM     23  C   UNL A   1      42.838  26.100  28.106  1.00  0.00     0.049 A 
ATOM     24  H   UNL A   1      43.852  27.905  28.346  1.00  0.00     0.167 HD
ATOM     25  C   UNL A   1      45.773  31.821  28.675  1.00  0.00     0.031 A 
ATOM     26  C   UNL A   1      43.699  25.219  27.566  1.00  0.00     0.031 A 
ATOM     27  C   UNL A   1      46.793  30.921  28.201  1.00  0.00     0.049 A 
ATOM     28  C   UNL A   1      45.093  25.672  27.242  1.00  0.00     0.074 A 
ATOM     29  C   UNL A   1      48.133  31.187  27.976  1.00  0.00     0.029 A 
ATOM     30  N   UNL A   1      46.588  29.593  27.864  1.00  0.00    -0.354 N 
ATOM     31  N   UNL A   1      45.641  26.846  27.443  1.00  0.00    -0.248 NA
ATOM     32  C   UNL A   1      45.980  24.687  26.610  1.00  0.00     0.031 C 
ATOM     33  C   UNL A   1      48.724  30.036  27.444  1.00  0.00     0.029 A 
ATOM     34  C   UNL A   1      47.763  29.039  27.385  1.00  0.00     0.049 A 
ATOM     35  H   UNL A   1      45.732  29.114  27.952  1.00  0.00     0.167 HD
ATOM     36  C   UNL A   1      46.938  26.741  26.960  1.00  0.00     0.074 A 
ATOM     37  C   UNL A   1      47.103  25.382  26.486  1.00  0.00     0.031 C 
ATOM     38  C   UNL A   1      47.904  27.690  26.905  1.00  0.00     0.031 A 
BRANCH  25  39
ATOM     39  C   UNL A   1      46.151  33.268  28.848  1.00  0.00    -0.014 A 
ATOM     40  C   UNL A   1      45.997  34.193  27.802  1.00  0.00     0.010 A 
ATOM     41  C   UNL A   1      46.560  33.728  30.114  1.00  0.00     0.010 A 
ATOM     42  C   UNL A   1      46.255  35.551  28.016  1.00  0.00     0.020 A 
ATOM     43  C   UNL A   1      46.801  35.087  30.337  1.00  0.00     0.020 A 
ATOM     44  C   UNL A   1      46.653  35.990  29.283  1.00  0.00     0.054 A 
BRANCH  44  45
ATOM     45  S   UNL A   1      46.918  37.766  29.549  1.00  0.00     0.124 S 
ATOM     46  O   UNL A   1      47.140  38.244  28.187  1.00  0.00    -0.237 OA
ATOM     47  O   UNL A   1      45.661  38.189  30.165  1.00  0.00    -0.237 OA
ATOM     48  O   UNL A   1      48.085  37.817  30.425  1.00  0.00    -0.744 OA
ENDBRANCH  44  45
ENDBRANCH  25  39
BRANCH  26  49
ATOM     49  C   UNL A   1      43.242  23.843  27.240  1.00  0.00    -0.014 A 
ATOM     50  C   UNL A   1      42.976  23.465  25.914  1.00  0.00     0.010 A 
ATOM     51  C   UNL A   1      43.083  22.895  28.269  1.00  0.00     0.010 A 
ATOM     52  C   UNL A   1      42.537  22.170  25.625  1.00  0.00     0.020 A 
ATOM     53  C   UNL A   1      42.673  21.593  27.981  1.00  0.00     0.020 A 
ATOM     54  C   UNL A   1      42.386  21.243  26.661  1.00  0.00     0.054 A 
BRANCH  54  55
ATOM     55  S   UNL A   1      41.852  19.555  26.264  1.00  0.00     0.124 S 
ATOM     56  O   UNL A   1      40.410  19.723  26.117  1.00  0.00    -0.237 OA
ATOM     57  O   UNL A   1      42.586  19.269  25.034  1.00  0.00    -0.237 OA
ATOM     58  O   UNL A   1      42.279  18.782  27.428  1.00  0.00    -0.744 OA
ENDBRANCH  54  55
ENDBRANCH  26  49
BRANCH  38  59
ATOM     59  C   UNL A   1      49.223  27.290  26.305  1.00  0.00    -0.014 A 
ATOM     60  C   UNL A   1      50.168  26.580  27.067  1.00  0.00     0.010 A 
ATOM     61  C   UNL A   1      49.497  27.576  24.957  1.00  0.00     0.010 A 
ATOM     62  C   UNL A   1      51.377  26.180  26.493  1.00  0.00     0.020 A 
ATOM     63  C   UNL A   1      50.695  27.157  24.374  1.00  0.00     0.020 A 
ATOM     64  C   UNL A   1      51.632  26.470  25.149  1.00  0.00     0.054 A 
BRANCH  64  65
ATOM     65  S   UNL A   1      53.183  25.890  24.411  1.00  0.00     0.124 S 
ATOM     66  O   UNL A   1      54.148  26.849  24.941  1.00  0.00    -0.237 OA
ATOM     67  O   UNL A   1      53.298  24.530  24.929  1.00  0.00    -0.237 OA
ATOM     68  O   UNL A   1      52.938  25.983  22.973  1.00  0.00    -0.744 OA
ENDBRANCH  64  65
ENDBRANCH  38  59
ENDBRANCH  12  13
ENDBRANCH   5   7
ENDBRANCH   2   3
ENDBRANCH   1   2
BRANCH   1  69
ATOM     69  C   UNL A   1      34.649  34.220  27.788  1.00  0.00     0.023 C 
BRANCH  69  70
ATOM     70  C   UNL A   1      33.290  34.462  28.436  1.00  0.00     0.116 C 
BRANCH  70  71
ATOM     71  N   UNL A   1      33.070  35.838  28.840  1.00  0.00    -0.351 N 
ATOM     72  C   UNL A   1      32.967  36.371  30.093  1.00  0.00     0.279 C 
ATOM     73  H   UNL A   1      32.983  36.484  28.102  1.00  0.00     0.163 HD
ATOM     74  O   UNL A   1      32.950  37.605  30.170  1.00  0.00    -0.268 OA
BRANCH  72  75
ATOM     75  C   UNL A   1      32.732  35.490  31.345  1.00  0.00     0.283 C 
ATOM     76  C   UNL A   1      32.509  36.325  32.611  1.00  0.00     0.151 C 
ATOM     77  N   UNL A   1      33.830  34.542  31.639  1.00  0.00    -0.320 N 
ATOM     78  S   UNL A   1      34.128  36.393  33.445  1.00  0.00    -0.087 SA
ATOM     79  C   UNL A   1      34.927  35.323  32.219  1.00  0.00     0.278 C 
ATOM     80  H   UNL A   1      34.140  34.087  30.779  1.00  0.00     0.348 HD
ATOM     81  H   UNL A   1      33.521  33.815  32.284  1.00  0.00     0.348 HD
BRANCH  79  82
ATOM     82  C   UNL A   1      36.017  34.395  32.723  1.00  0.00     0.063 A 
ATOM     83  C   UNL A   1      37.334  34.430  32.224  1.00  0.00     0.030 A 
ATOM     84  C   UNL A   1      35.754  33.526  33.797  1.00  0.00     0.125 A 
ATOM     85  C   UNL A   1      38.326  33.614  32.773  1.00  0.00     0.018 A 
ATOM     86  C   UNL A   1      36.749  32.721  34.356  1.00  0.00     0.048 A 
ATOM     87  Br  UNL A   1      40.082  33.670  32.072  1.00  0.00    -0.051 Br
ATOM     88  C   UNL A   1      38.041  32.765  33.839  1.00  0.00     0.019 A 
BRANCH  84  89
ATOM     89  O   UNL A   1      34.491  33.473  34.322  1.00  0.00    -0.507 OA
ATOM     90  H   UNL A   1      34.257  34.030  35.038  1.00  0.00     0.293 HD
ENDBRANCH  84  89
ENDBRANCH  79  82
ENDBRANCH  72  75
ENDBRANCH  70  71
ENDBRANCH  69  70
ENDBRANCH   1  69
TORSDOF 16
ENDMDL
MODEL 3
REMARK VINA RESULT:     -10.4      3.088      8.907
REMARK SMILES O=C(NCCCCNC(=O)[C@@H]1CS[C@@H](c2cc(Br)ccc2O)[NH2+]1)c1ccc(-c2c3nc(c(-c4ccc(S(=O)(=O)[O-])cc4)c4ccc([nH]4)c(-c4ccc(S(=O)(=O)[O-])cc4)c4nc(c(-c5ccc(S(=O)(=O)[O-])cc5)c5ccc2[nH]5)C=C4)C=C3)cc1
REMARK SMILES IDX 5 1 4 2 3 3 1 4 2 5 24 7 25 8 83 9 26 10 82 11 27 12 28 13
REMARK SMILES IDX 29 14 76 15 30 16 81 17 75 18 77 19 31 20 80 21 74 22 73 23
REMARK SMILES IDX 32 25 62 26 43 27 61 28 44 29 47 30 60 31 78 32 45 33 46 34
REMARK SMILES IDX 59 36 79 37 48 38 33 39 34 40 42 41 35 42 41 43 36 44 37 45
REMARK SMILES IDX 38 46 39 47 40 48 63 49 64 50 72 51 65 52 71 53 66 54 67 55
REMARK SMILES IDX 68 56 69 57 70 58 49 59 50 60 58 61 51 62 57 63 52 64 53 65
REMARK SMILES IDX 54 66 55 67 56 68 6 69 7 70 8 71 9 72 10 74 11 75 12 76
REMARK SMILES IDX 23 77 13 78 14 79 15 82 16 83 21 84 17 85 20 86 18 87 19 88
REMARK SMILES IDX 22 89
REMARK H PARENT 3 6 77 24 47 35 8 73 23 80 23 81 22 90
REMARK Flexibility Score: inf
ROOT
ATOM      1  C   UNL A   1      34.628  32.173  28.211  1.00  0.00     0.023 C 
ENDROOT
BRANCH   1   2
ATOM      2  C   UNL A   1      35.946  31.718  28.826  1.00  0.00     0.116 C 
BRANCH   2   3
ATOM      3  N   UNL A   1      35.790  31.181  30.167  1.00  0.00    -0.352 N 
ATOM      4  O   UNL A   1      36.253  29.883  31.952  1.00  0.00    -0.269 OA
ATOM      5  C   UNL A   1      36.614  30.328  30.865  1.00  0.00     0.251 C 
ATOM      6  H   UNL A   1      34.979  31.468  30.647  1.00  0.00     0.163 HD
BRANCH   5   7
ATOM      7  C   UNL A   1      37.921  29.935  30.294  1.00  0.00     0.039 A 
ATOM      8  C   UNL A   1      38.157  30.042  28.922  1.00  0.00     0.014 A 
ATOM      9  C   UNL A   1      38.926  29.467  31.146  1.00  0.00     0.014 A 
ATOM     10  C   UNL A   1      39.353  29.573  28.387  1.00  0.00     0.010 A 
ATOM     11  C   UNL A   1      40.154  29.064  30.615  1.00  0.00     0.010 A 
ATOM     12  C   UNL A   1      40.371  29.100  29.229  1.00  0.00    -0.014 A 
BRANCH  12  13
ATOM     13  C   UNL A   1      41.697  28.761  28.652  1.00  0.00     0.031 A 
ATOM     14  C   UNL A   1      42.005  27.380  28.146  1.00  0.00     0.074 A 
ATOM     15  C   UNL A   1      42.632  29.731  28.604  1.00  0.00     0.049 A 
ATOM     16  N   UNL A   1      43.121  26.929  27.633  1.00  0.00    -0.248 NA
ATOM     17  C   UNL A   1      40.933  26.375  28.225  1.00  0.00     0.031 C 
ATOM     18  C   UNL A   1      42.448  31.104  29.086  1.00  0.00     0.029 A 
ATOM     19  N   UNL A   1      43.918  29.719  28.130  1.00  0.00    -0.354 N 
ATOM     20  C   UNL A   1      42.900  25.586  27.352  1.00  0.00     0.074 A 
ATOM     21  C   UNL A   1      41.542  25.291  27.756  1.00  0.00     0.031 C 
ATOM     22  C   UNL A   1      43.570  31.804  28.866  1.00  0.00     0.029 A 
ATOM     23  C   UNL A   1      44.572  30.918  28.285  1.00  0.00     0.049 A 
ATOM     24  H   UNL A   1      44.335  28.927  27.718  1.00  0.00     0.167 HD
ATOM     25  C   UNL A   1      43.755  24.687  26.810  1.00  0.00     0.031 A 
ATOM     26  C   UNL A   1      45.846  31.265  28.028  1.00  0.00     0.031 A 
ATOM     27  C   UNL A   1      45.101  24.997  26.398  1.00  0.00     0.049 A 
ATOM     28  C   UNL A   1      46.777  30.235  27.459  1.00  0.00     0.074 A 
ATOM     29  C   UNL A   1      46.014  24.174  25.761  1.00  0.00     0.029 A 
ATOM     30  N   UNL A   1      45.732  26.215  26.596  1.00  0.00    -0.354 N 
ATOM     31  N   UNL A   1      46.521  28.993  27.126  1.00  0.00    -0.248 NA
ATOM     32  C   UNL A   1      48.170  30.648  27.241  1.00  0.00     0.031 C 
ATOM     33  C   UNL A   1      47.218  24.874  25.631  1.00  0.00     0.029 A 
ATOM     34  C   UNL A   1      47.039  26.150  26.141  1.00  0.00     0.049 A 
ATOM     35  H   UNL A   1      45.314  27.008  27.002  1.00  0.00     0.167 HD
ATOM     36  C   UNL A   1      47.722  28.475  26.660  1.00  0.00     0.074 A 
ATOM     37  C   UNL A   1      48.697  29.546  26.725  1.00  0.00     0.031 C 
ATOM     38  C   UNL A   1      47.996  27.221  26.227  1.00  0.00     0.031 A 
BRANCH  25  39
ATOM     39  C   UNL A   1      43.291  23.265  26.644  1.00  0.00    -0.014 A 
ATOM     40  C   UNL A   1      43.231  22.660  25.377  1.00  0.00     0.010 A 
ATOM     41  C   UNL A   1      43.020  22.489  27.787  1.00  0.00     0.010 A 
ATOM     42  C   UNL A   1      42.899  21.306  25.255  1.00  0.00     0.020 A 
ATOM     43  C   UNL A   1      42.706  21.132  27.671  1.00  0.00     0.020 A 
ATOM     44  C   UNL A   1      42.641  20.550  26.404  1.00  0.00     0.054 A 
BRANCH  44  45
ATOM     45  S   UNL A   1      42.275  18.782  26.220  1.00  0.00     0.124 S 
ATOM     46  O   UNL A   1      42.444  18.297  27.587  1.00  0.00    -0.237 OA
ATOM     47  O   UNL A   1      40.902  18.788  25.722  1.00  0.00    -0.237 OA
ATOM     48  O   UNL A   1      43.278  18.315  25.266  1.00  0.00    -0.744 OA
ENDBRANCH  44  45
ENDBRANCH  25  39
BRANCH  26  49
ATOM     49  C   UNL A   1      46.325  32.630  28.370  1.00  0.00    -0.014 A 
ATOM     50  C   UNL A   1      46.867  32.909  29.635  1.00  0.00     0.010 A 
ATOM     51  C   UNL A   1      46.248  33.659  27.413  1.00  0.00     0.010 A 
ATOM     52  C   UNL A   1      47.303  34.201  29.944  1.00  0.00     0.020 A 
ATOM     53  C   UNL A   1      46.709  34.943  27.709  1.00  0.00     0.020 A 
ATOM     54  C   UNL A   1      47.220  35.210  28.980  1.00  0.00     0.054 A 
BRANCH  54  55
ATOM     55  S   UNL A   1      47.825  36.871  29.385  1.00  0.00     0.124 S 
ATOM     56  O   UNL A   1      48.222  36.714  30.781  1.00  0.00    -0.237 OA
ATOM     57  O   UNL A   1      48.917  37.054  28.432  1.00  0.00    -0.237 OA
ATOM     58  O   UNL A   1      46.660  37.722  29.155  1.00  0.00    -0.744 OA
ENDBRANCH  54  55
ENDBRANCH  26  49
BRANCH  38  59
ATOM     59  C   UNL A   1      49.408  26.939  25.794  1.00  0.00    -0.014 A 
ATOM     60  C   UNL A   1      50.312  26.312  26.669  1.00  0.00     0.010 A 
ATOM     61  C   UNL A   1      49.817  27.254  24.487  1.00  0.00     0.010 A 
ATOM     62  C   UNL A   1      51.611  26.020  26.248  1.00  0.00     0.020 A 
ATOM     63  C   UNL A   1      51.109  26.942  24.055  1.00  0.00     0.020 A 
ATOM     64  C   UNL A   1      52.001  26.336  24.943  1.00  0.00     0.054 A 
BRANCH  64  65
ATOM     65  S   UNL A   1      53.675  25.896  24.401  1.00  0.00     0.124 S 
ATOM     66  O   UNL A   1      53.799  24.524  24.884  1.00  0.00    -0.237 OA
ATOM     67  O   UNL A   1      53.594  26.048  22.951  1.00  0.00    -0.237 OA
ATOM     68  O   UNL A   1      54.525  26.874  25.077  1.00  0.00    -0.744 OA
ENDBRANCH  64  65
ENDBRANCH  38  59
ENDBRANCH  12  13
ENDBRANCH   5   7
ENDBRANCH   2   3
ENDBRANCH   1   2
BRANCH   1  69
ATOM     69  C   UNL A   1      34.448  33.682  28.070  1.00  0.00     0.023 C 
BRANCH  69  70
ATOM     70  C   UNL A   1      33.045  34.220  28.326  1.00  0.00     0.116 C 
BRANCH  70  71
ATOM     71  N   UNL A   1      33.014  35.615  28.723  1.00  0.00    -0.351 N 
ATOM     72  C   UNL A   1      33.075  36.167  29.971  1.00  0.00     0.279 C 
ATOM     73  H   UNL A   1      32.939  36.260  27.982  1.00  0.00     0.163 HD
ATOM     74  O   UNL A   1      33.202  37.395  30.027  1.00  0.00    -0.268 OA
BRANCH  72  75
ATOM     75  C   UNL A   1      32.846  35.328  31.252  1.00  0.00     0.283 C 
ATOM     76  C   UNL A   1      32.720  36.204  32.505  1.00  0.00     0.151 C 
ATOM     77  N   UNL A   1      33.905  34.331  31.525  1.00  0.00    -0.320 N 
ATOM     78  S   UNL A   1      34.374  36.204  33.271  1.00  0.00    -0.087 SA
ATOM     79  C   UNL A   1      35.065  35.065  32.040  1.00  0.00     0.278 C 
ATOM     80  H   UNL A   1      34.155  33.841  30.666  1.00  0.00     0.348 HD
ATOM     81  H   UNL A   1      33.586  33.636  32.200  1.00  0.00     0.348 HD
BRANCH  79  82
ATOM     82  C   UNL A   1      36.124  34.093  32.523  1.00  0.00     0.063 A 
ATOM     83  C   UNL A   1      37.400  34.005  31.932  1.00  0.00     0.030 A 
ATOM     84  C   UNL A   1      35.884  33.307  33.665  1.00  0.00     0.125 A 
ATOM     85  C   UNL A   1      38.374  33.154  32.460  1.00  0.00     0.018 A 
ATOM     86  C   UNL A   1      36.863  32.466  34.201  1.00  0.00     0.048 A 
ATOM     87  Br  UNL A   1      40.073  33.046  31.636  1.00  0.00    -0.051 Br
ATOM     88  C   UNL A   1      38.112  32.389  33.593  1.00  0.00     0.019 A 
BRANCH  84  89
ATOM     89  O   UNL A   1      34.663  33.373  34.279  1.00  0.00    -0.507 OA
ATOM     90  H   UNL A   1      34.180  34.175  34.275  1.00  0.00     0.293 HD
ENDBRANCH  84  89
ENDBRANCH  79  82
ENDBRANCH  72  75
ENDBRANCH  70  71
ENDBRANCH  69  70
ENDBRANCH   1  69
TORSDOF 16
ENDMDL
