MODEL 1
REMARK VINA RESULT:     -10.2      0.000      0.000
REMARK SMILES CC[C@@](C)(NC(=O)/C=C/c1cccc(F)c1)C(=O)NCCCCNC(=O)c1ccc(-c2c3nc(c(-c4ccc(S(=O)(=O)[O-])cc4)c4ccc([nH]4)c(-c4ccc(S(=O)(=O)[O-])cc4)c4nc(c(-c5ccc(S(=O)(=O)[O-])cc5)c5ccc2[nH]5)C=C4)C=C3)cc1
REMARK SMILES IDX 21 1 20 2 19 3 17 4 18 5 3 7 4 8 2 9 1 10 5 11 6 12 7 14
REMARK SMILES IDX 8 15 9 16 10 17 11 18 16 19 12 20 14 21 13 22 15 23 22 24
REMARK SMILES IDX 23 25 24 26 25 27 26 29 27 30 28 31 86 32 29 33 85 34 30 35
REMARK SMILES IDX 31 36 32 37 79 38 33 39 84 40 78 41 80 42 34 43 83 44 77 45
REMARK SMILES IDX 76 46 35 48 65 49 46 50 64 51 47 52 50 53 63 54 81 55 48 56
REMARK SMILES IDX 49 57 62 59 82 60 51 61 36 62 37 63 45 64 38 65 44 66 39 67
REMARK SMILES IDX 40 68 41 69 42 70 43 71 66 72 67 73 75 74 68 75 74 76 69 77
REMARK SMILES IDX 70 78 71 79 72 80 73 81 52 82 53 83 61 84 54 85 60 86 55 87
REMARK SMILES IDX 56 88 57 89 58 90 59 91
REMARK H PARENT 19 6 5 13 24 28 80 47 50 58
REMARK Flexibility Score: inf
ROOT
ATOM      1  C   UNL A   1      33.484  27.555  24.247  1.00  0.00     0.023 C 
ENDROOT
BRANCH   1   2
ATOM      2  C   UNL A   1      32.055  27.346  23.747  1.00  0.00     0.116 C 
BRANCH   2   3
ATOM      3  N   UNL A   1      31.066  26.989  24.751  1.00  0.00    -0.354 N 
ATOM      4  C   UNL A   1      30.905  25.863  25.513  1.00  0.00     0.245 C 
ATOM      5  O   UNL A   1      30.231  25.993  26.539  1.00  0.00    -0.272 OA
ATOM      6  H   UNL A   1      30.388  27.685  24.914  1.00  0.00     0.163 HD
BRANCH   4   7
ATOM      7  C   UNL A   1      31.664  24.539  25.207  1.00  0.00     0.116 C 
ATOM      8  C   UNL A   1      33.059  24.727  25.857  1.00  0.00     0.045 C 
BRANCH   7   9
ATOM      9  C   UNL A   1      31.057  23.229  25.800  1.00  0.00     0.035 C 
ATOM     10  C   UNL A   1      31.997  22.212  26.430  1.00  0.00     0.007 C 
ENDBRANCH   7   9
BRANCH   7  11
ATOM     11  N   UNL A   1      31.813  24.302  23.752  1.00  0.00    -0.338 N 
ATOM     12  C   UNL A   1      32.925  24.078  22.990  1.00  0.00     0.244 C 
ATOM     13  H   UNL A   1      30.966  24.307  23.249  1.00  0.00     0.164 HD
ATOM     14  O   UNL A   1      32.850  24.288  21.778  1.00  0.00    -0.270 OA
BRANCH  12  15
ATOM     15  C   UNL A   1      34.118  23.357  23.516  1.00  0.00     0.072 C 
ATOM     16  C   UNL A   1      35.410  23.711  23.485  1.00  0.00     0.014 C 
BRANCH  16  17
ATOM     17  C   UNL A   1      36.435  23.003  24.269  1.00  0.00    -0.023 A 
ATOM     18  C   UNL A   1      36.735  21.648  24.091  1.00  0.00     0.008 A 
ATOM     19  C   UNL A   1      37.138  23.725  25.244  1.00  0.00     0.047 A 
ATOM     20  C   UNL A   1      37.722  21.034  24.875  1.00  0.00     0.004 A 
ATOM     21  C   UNL A   1      38.099  23.102  26.029  1.00  0.00     0.123 A 
ATOM     22  C   UNL A   1      38.403  21.762  25.851  1.00  0.00     0.039 A 
ATOM     23  F   UNL A   1      38.734  23.811  26.973  1.00  0.00    -0.207 F 
ENDBRANCH  16  17
ENDBRANCH  12  15
ENDBRANCH   7  11
ENDBRANCH   4   7
ENDBRANCH   2   3
ENDBRANCH   1   2
BRANCH   1  24
ATOM     24  C   UNL A   1      33.781  28.877  24.948  1.00  0.00     0.023 C 
BRANCH  24  25
ATOM     25  C   UNL A   1      34.036  28.778  26.443  1.00  0.00     0.116 C 
BRANCH  25  26
ATOM     26  N   UNL A   1      33.812  30.036  27.134  1.00  0.00    -0.352 N 
ATOM     27  C   UNL A   1      34.597  30.685  28.055  1.00  0.00     0.251 C 
ATOM     28  H   UNL A   1      32.969  30.493  26.907  1.00  0.00     0.163 HD
ATOM     29  O   UNL A   1      34.151  31.662  28.647  1.00  0.00    -0.269 OA
BRANCH  27  30
ATOM     30  C   UNL A   1      35.960  30.193  28.345  1.00  0.00     0.039 A 
ATOM     31  C   UNL A   1      36.936  30.293  27.349  1.00  0.00     0.014 A 
ATOM     32  C   UNL A   1      36.280  29.634  29.585  1.00  0.00     0.014 A 
ATOM     33  C   UNL A   1      38.243  29.885  27.619  1.00  0.00     0.010 A 
ATOM     34  C   UNL A   1      37.599  29.311  29.881  1.00  0.00     0.010 A 
ATOM     35  C   UNL A   1      38.594  29.423  28.899  1.00  0.00    -0.014 A 
BRANCH  35  36
ATOM     36  C   UNL A   1      39.992  29.046  29.226  1.00  0.00     0.031 A 
ATOM     37  C   UNL A   1      40.907  30.040  29.890  1.00  0.00     0.074 A 
ATOM     38  C   UNL A   1      40.452  27.829  28.872  1.00  0.00     0.049 A 
ATOM     39  N   UNL A   1      42.169  29.910  30.211  1.00  0.00    -0.248 NA
ATOM     40  C   UNL A   1      40.339  31.359  30.214  1.00  0.00     0.031 C 
ATOM     41  C   UNL A   1      39.673  26.793  28.191  1.00  0.00     0.029 A 
ATOM     42  N   UNL A   1      41.690  27.258  29.035  1.00  0.00    -0.354 N 
ATOM     43  C   UNL A   1      42.548  31.133  30.754  1.00  0.00     0.074 A 
ATOM     44  C   UNL A   1      41.399  32.007  30.673  1.00  0.00     0.031 C 
ATOM     45  C   UNL A   1      40.439  25.702  28.027  1.00  0.00     0.029 A 
ATOM     46  C   UNL A   1      41.776  25.976  28.545  1.00  0.00     0.049 A 
ATOM     47  H   UNL A   1      42.445  27.723  29.463  1.00  0.00     0.167 HD
ATOM     48  C   UNL A   1      43.740  31.489  31.290  1.00  0.00     0.031 A 
ATOM     49  C   UNL A   1      42.815  25.119  28.508  1.00  0.00     0.031 A 
ATOM     50  C   UNL A   1      44.876  30.612  31.376  1.00  0.00     0.049 A 
ATOM     51  C   UNL A   1      44.134  25.548  29.091  1.00  0.00     0.074 A 
ATOM     52  C   UNL A   1      46.110  30.857  31.953  1.00  0.00     0.029 A 
ATOM     53  N   UNL A   1      44.923  29.323  30.864  1.00  0.00    -0.354 N 
ATOM     54  N   UNL A   1      44.452  26.683  29.666  1.00  0.00    -0.248 NA
ATOM     55  C   UNL A   1      45.232  24.573  29.031  1.00  0.00     0.031 C 
ATOM     56  C   UNL A   1      46.923  29.741  31.735  1.00  0.00     0.029 A 
ATOM     57  C   UNL A   1      46.175  28.773  31.085  1.00  0.00     0.049 A 
ATOM     58  H   UNL A   1      44.177  28.868  30.413  1.00  0.00     0.167 HD
ATOM     59  C   UNL A   1      45.778  26.548  30.063  1.00  0.00     0.074 A 
ATOM     60  C   UNL A   1      46.196  25.216  29.678  1.00  0.00     0.031 C 
ATOM     61  C   UNL A   1      46.576  27.445  30.694  1.00  0.00     0.031 A 
BRANCH  48  62
ATOM     62  C   UNL A   1      43.879  32.897  31.812  1.00  0.00    -0.014 A 
ATOM     63  C   UNL A   1      43.610  33.208  33.158  1.00  0.00     0.010 A 
ATOM     64  C   UNL A   1      44.330  33.917  30.954  1.00  0.00     0.010 A 
ATOM     65  C   UNL A   1      43.747  34.518  33.625  1.00  0.00     0.020 A 
ATOM     66  C   UNL A   1      44.500  35.223  31.425  1.00  0.00     0.020 A 
ATOM     67  C   UNL A   1      44.192  35.518  32.754  1.00  0.00     0.054 A 
BRANCH  67  68
ATOM     68  S   UNL A   1      44.385  37.203  33.395  1.00  0.00     0.124 S 
ATOM     69  O   UNL A   1      45.236  36.986  34.563  1.00  0.00    -0.237 OA
ATOM     70  O   UNL A   1      45.018  37.900  32.279  1.00  0.00    -0.237 OA
ATOM     71  O   UNL A   1      43.017  37.621  33.692  1.00  0.00    -0.744 OA
ENDBRANCH  67  68
ENDBRANCH  48  62
BRANCH  49  72
ATOM     72  C   UNL A   1      42.645  23.766  27.911  1.00  0.00    -0.014 A 
ATOM     73  C   UNL A   1      42.866  23.558  26.538  1.00  0.00     0.010 A 
ATOM     74  C   UNL A   1      42.270  22.673  28.715  1.00  0.00     0.010 A 
ATOM     75  C   UNL A   1      42.694  22.289  25.976  1.00  0.00     0.020 A 
ATOM     76  C   UNL A   1      42.129  21.396  28.163  1.00  0.00     0.020 A 
ATOM     77  C   UNL A   1      42.329  21.215  26.794  1.00  0.00     0.054 A 
BRANCH  77  78
ATOM     78  S   UNL A   1      42.157  19.569  26.051  1.00  0.00     0.124 S 
ATOM     79  O   UNL A   1      43.032  19.668  24.886  1.00  0.00    -0.237 OA
ATOM     80  O   UNL A   1      42.624  18.692  27.121  1.00  0.00    -0.237 OA
ATOM     81  O   UNL A   1      40.729  19.476  25.756  1.00  0.00    -0.744 OA
ENDBRANCH  77  78
ENDBRANCH  49  72
BRANCH  61  82
ATOM     82  C   UNL A   1      47.974  27.005  31.044  1.00  0.00    -0.014 A 
ATOM     83  C   UNL A   1      48.233  26.220  32.181  1.00  0.00     0.010 A 
ATOM     84  C   UNL A   1      49.038  27.338  30.185  1.00  0.00     0.010 A 
ATOM     85  C   UNL A   1      49.535  25.803  32.469  1.00  0.00     0.020 A 
ATOM     86  C   UNL A   1      50.336  26.896  30.453  1.00  0.00     0.020 A 
ATOM     87  C   UNL A   1      50.579  26.144  31.603  1.00  0.00     0.054 A 
BRANCH  87  88
ATOM     88  S   UNL A   1      52.252  25.553  31.976  1.00  0.00     0.124 S 
ATOM     89  O   UNL A   1      52.025  24.132  32.223  1.00  0.00    -0.237 OA
ATOM     90  O   UNL A   1      52.983  25.870  30.751  1.00  0.00    -0.237 OA
ATOM     91  O   UNL A   1      52.642  26.333  33.148  1.00  0.00    -0.744 OA
ENDBRANCH  87  88
ENDBRANCH  61  82
ENDBRANCH  35  36
ENDBRANCH  27  30
ENDBRANCH  25  26
ENDBRANCH  24  25
ENDBRANCH   1  24
TORSDOF 18
ENDMDL
MODEL 2
REMARK VINA RESULT:     -10.0      4.065      9.276
REMARK SMILES CC[C@@](C)(NC(=O)/C=C/c1cccc(F)c1)C(=O)NCCCCNC(=O)c1ccc(-c2c3nc(c(-c4ccc(S(=O)(=O)[O-])cc4)c4ccc([nH]4)c(-c4ccc(S(=O)(=O)[O-])cc4)c4nc(c(-c5ccc(S(=O)(=O)[O-])cc5)c5ccc2[nH]5)C=C4)C=C3)cc1
REMARK SMILES IDX 21 1 20 2 19 3 17 4 18 5 3 7 4 8 2 9 1 10 5 11 6 12 7 14
REMARK SMILES IDX 8 15 9 16 10 17 11 18 16 19 12 20 14 21 13 22 15 23 22 24
REMARK SMILES IDX 23 25 24 26 25 27 26 29 27 30 28 31 86 32 29 33 85 34 30 35
REMARK SMILES IDX 31 36 32 37 79 38 33 39 84 40 78 41 80 42 34 43 83 44 77 45
REMARK SMILES IDX 76 46 35 48 65 49 46 50 64 51 47 52 50 53 63 54 81 55 48 56
REMARK SMILES IDX 49 57 62 59 82 60 51 61 36 62 37 63 45 64 38 65 44 66 39 67
REMARK SMILES IDX 40 68 41 69 42 70 43 71 66 72 67 73 75 74 68 75 74 76 69 77
REMARK SMILES IDX 70 78 71 79 72 80 73 81 52 82 53 83 61 84 54 85 60 86 55 87
REMARK SMILES IDX 56 88 57 89 58 90 59 91
REMARK H PARENT 19 6 5 13 24 28 80 47 50 58
REMARK Flexibility Score: inf
ROOT
ATOM      1  C   UNL A   1      32.135  29.693  26.910  1.00  0.00     0.023 C 
ENDROOT
BRANCH   1   2
ATOM      2  C   UNL A   1      31.745  28.903  25.661  1.00  0.00     0.116 C 
BRANCH   2   3
ATOM      3  N   UNL A   1      32.796  28.693  24.678  1.00  0.00    -0.354 N 
ATOM      4  C   UNL A   1      32.758  28.234  23.388  1.00  0.00     0.245 C 
ATOM      5  O   UNL A   1      33.725  28.529  22.679  1.00  0.00    -0.272 OA
ATOM      6  H   UNL A   1      33.698  28.924  24.997  1.00  0.00     0.163 HD
BRANCH   4   7
ATOM      7  C   UNL A   1      31.502  27.533  22.792  1.00  0.00     0.116 C 
ATOM      8  C   UNL A   1      30.995  26.607  23.927  1.00  0.00     0.045 C 
BRANCH   7   9
ATOM      9  C   UNL A   1      30.310  28.456  22.389  1.00  0.00     0.035 C 
ATOM     10  C   UNL A   1      28.989  28.301  23.127  1.00  0.00     0.007 C 
ENDBRANCH   7   9
BRANCH   7  11
ATOM     11  N   UNL A   1      31.827  26.730  21.591  1.00  0.00    -0.338 N 
ATOM     12  C   UNL A   1      32.732  25.722  21.405  1.00  0.00     0.244 C 
ATOM     13  H   UNL A   1      31.301  26.961  20.791  1.00  0.00     0.164 HD
ATOM     14  O   UNL A   1      33.090  25.471  20.253  1.00  0.00    -0.270 OA
BRANCH  12  15
ATOM     15  C   UNL A   1      33.092  24.767  22.489  1.00  0.00     0.072 C 
ATOM     16  C   UNL A   1      34.217  24.684  23.213  1.00  0.00     0.014 C 
BRANCH  16  17
ATOM     17  C   UNL A   1      34.315  23.839  24.414  1.00  0.00    -0.023 A 
ATOM     18  C   UNL A   1      33.711  24.168  25.632  1.00  0.00     0.008 A 
ATOM     19  C   UNL A   1      35.055  22.651  24.328  1.00  0.00     0.047 A 
ATOM     20  C   UNL A   1      33.848  23.319  26.740  1.00  0.00     0.004 A 
ATOM     21  C   UNL A   1      35.201  21.827  25.437  1.00  0.00     0.123 A 
ATOM     22  C   UNL A   1      34.600  22.147  26.644  1.00  0.00     0.039 A 
ATOM     23  F   UNL A   1      35.938  20.713  25.333  1.00  0.00    -0.207 F 
ENDBRANCH  16  17
ENDBRANCH  12  15
ENDBRANCH   7  11
ENDBRANCH   4   7
ENDBRANCH   2   3
ENDBRANCH   1   2
BRANCH   1  24
ATOM     24  C   UNL A   1      31.942  31.205  26.855  1.00  0.00     0.023 C 
BRANCH  24  25
ATOM     25  C   UNL A   1      33.168  32.031  27.212  1.00  0.00     0.116 C 
BRANCH  25  26
ATOM     26  N   UNL A   1      32.826  33.344  27.730  1.00  0.00    -0.352 N 
ATOM     27  C   UNL A   1      33.403  34.064  28.748  1.00  0.00     0.251 C 
ATOM     28  H   UNL A   1      32.066  33.785  27.285  1.00  0.00     0.163 HD
ATOM     29  O   UNL A   1      32.860  35.090  29.144  1.00  0.00    -0.269 OA
BRANCH  27  30
ATOM     30  C   UNL A   1      34.656  33.591  29.373  1.00  0.00     0.039 A 
ATOM     31  C   UNL A   1      35.859  34.201  29.009  1.00  0.00     0.014 A 
ATOM     32  C   UNL A   1      34.651  32.554  30.309  1.00  0.00     0.014 A 
ATOM     33  C   UNL A   1      37.048  33.808  29.626  1.00  0.00     0.010 A 
ATOM     34  C   UNL A   1      35.820  32.226  30.987  1.00  0.00     0.010 A 
ATOM     35  C   UNL A   1      37.034  32.842  30.646  1.00  0.00    -0.014 A 
BRANCH  35  36
ATOM     36  C   UNL A   1      38.277  32.456  31.361  1.00  0.00     0.031 A 
ATOM     37  C   UNL A   1      39.188  31.408  30.780  1.00  0.00     0.074 A 
ATOM     38  C   UNL A   1      38.552  33.008  32.559  1.00  0.00     0.049 A 
ATOM     39  N   UNL A   1      40.290  30.908  31.277  1.00  0.00    -0.248 NA
ATOM     40  C   UNL A   1      38.800  30.829  29.482  1.00  0.00     0.031 C 
ATOM     41  C   UNL A   1      37.727  34.006  33.244  1.00  0.00     0.029 A 
ATOM     42  N   UNL A   1      39.604  32.805  33.417  1.00  0.00    -0.354 N 
ATOM     43  C   UNL A   1      40.713  29.946  30.367  1.00  0.00     0.074 A 
ATOM     44  C   UNL A   1      39.724  29.895  29.314  1.00  0.00     0.031 C 
ATOM     45  C   UNL A   1      38.321  34.354  34.396  1.00  0.00     0.029 A 
ATOM     46  C   UNL A   1      39.542  33.570  34.558  1.00  0.00     0.049 A 
ATOM     47  H   UNL A   1      40.334  32.170  33.233  1.00  0.00     0.167 HD
ATOM     48  C   UNL A   1      41.834  29.186  30.397  1.00  0.00     0.031 A 
ATOM     49  C   UNL A   1      40.369  33.629  35.620  1.00  0.00     0.031 A 
ATOM     50  C   UNL A   1      42.818  29.248  31.444  1.00  0.00     0.049 A 
ATOM     51  C   UNL A   1      41.597  32.759  35.638  1.00  0.00     0.074 A 
ATOM     52  C   UNL A   1      44.017  28.563  31.537  1.00  0.00     0.029 A 
ATOM     53  N   UNL A   1      42.716  30.032  32.583  1.00  0.00    -0.354 N 
ATOM     54  N   UNL A   1      42.017  31.908  34.733  1.00  0.00    -0.248 NA
ATOM     55  C   UNL A   1      42.468  32.868  36.816  1.00  0.00     0.031 C 
ATOM     56  C   UNL A   1      44.609  28.885  32.762  1.00  0.00     0.029 A 
ATOM     57  C   UNL A   1      43.815  29.825  33.400  1.00  0.00     0.049 A 
ATOM     58  H   UNL A   1      41.973  30.646  32.781  1.00  0.00     0.167 HD
ATOM     59  C   UNL A   1      43.218  31.402  35.219  1.00  0.00     0.074 A 
ATOM     60  C   UNL A   1      43.463  32.054  36.489  1.00  0.00     0.031 C 
ATOM     61  C   UNL A   1      44.045  30.482  34.662  1.00  0.00     0.031 A 
BRANCH  48  62
ATOM     62  C   UNL A   1      42.047  28.210  29.267  1.00  0.00    -0.014 A 
ATOM     63  C   UNL A   1      42.714  28.591  28.087  1.00  0.00     0.010 A 
ATOM     64  C   UNL A   1      41.615  26.878  29.406  1.00  0.00     0.010 A 
ATOM     65  C   UNL A   1      42.905  27.671  27.052  1.00  0.00     0.020 A 
ATOM     66  C   UNL A   1      41.834  25.946  28.386  1.00  0.00     0.020 A 
ATOM     67  C   UNL A   1      42.462  26.354  27.209  1.00  0.00     0.054 A 
BRANCH  67  68
ATOM     68  S   UNL A   1      42.748  25.178  25.859  1.00  0.00     0.124 S 
ATOM     69  O   UNL A   1      41.771  24.133  26.157  1.00  0.00    -0.237 OA
ATOM     70  O   UNL A   1      42.468  25.980  24.671  1.00  0.00    -0.237 OA
ATOM     71  O   UNL A   1      44.146  24.788  26.028  1.00  0.00    -0.744 OA
ENDBRANCH  67  68
ENDBRANCH  48  62
BRANCH  49  72
ATOM     72  C   UNL A   1      40.071  34.557  36.747  1.00  0.00    -0.014 A 
ATOM     73  C   UNL A   1      40.623  35.851  36.771  1.00  0.00     0.010 A 
ATOM     74  C   UNL A   1      39.226  34.156  37.798  1.00  0.00     0.010 A 
ATOM     75  C   UNL A   1      40.353  36.717  37.836  1.00  0.00     0.020 A 
ATOM     76  C   UNL A   1      38.928  35.030  38.847  1.00  0.00     0.020 A 
ATOM     77  C   UNL A   1      39.504  36.301  38.865  1.00  0.00     0.054 A 
BRANCH  77  78
ATOM     78  S   UNL A   1      39.132  37.458  40.212  1.00  0.00     0.124 S 
ATOM     79  O   UNL A   1      40.449  38.009  40.513  1.00  0.00    -0.237 OA
ATOM     80  O   UNL A   1      38.189  38.380  39.582  1.00  0.00    -0.237 OA
ATOM     81  O   UNL A   1      38.557  36.603  41.248  1.00  0.00    -0.744 OA
ENDBRANCH  77  78
ENDBRANCH  49  72
BRANCH  61  82
ATOM     82  C   UNL A   1      45.315  30.152  35.402  1.00  0.00    -0.014 A 
ATOM     83  C   UNL A   1      46.490  30.898  35.211  1.00  0.00     0.010 A 
ATOM     84  C   UNL A   1      45.311  29.109  36.348  1.00  0.00     0.010 A 
ATOM     85  C   UNL A   1      47.648  30.587  35.928  1.00  0.00     0.020 A 
ATOM     86  C   UNL A   1      46.458  28.817  37.090  1.00  0.00     0.020 A 
ATOM     87  C   UNL A   1      47.625  29.548  36.865  1.00  0.00     0.054 A 
BRANCH  87  88
ATOM     88  S   UNL A   1      49.128  29.195  37.814  1.00  0.00     0.124 S 
ATOM     89  O   UNL A   1      50.155  29.209  36.776  1.00  0.00    -0.237 OA
ATOM     90  O   UNL A   1      49.177  30.307  38.761  1.00  0.00    -0.237 OA
ATOM     91  O   UNL A   1      48.863  27.887  38.409  1.00  0.00    -0.744 OA
ENDBRANCH  87  88
ENDBRANCH  61  82
ENDBRANCH  35  36
ENDBRANCH  27  30
ENDBRANCH  25  26
ENDBRANCH  24  25
ENDBRANCH   1  24
TORSDOF 18
ENDMDL
MODEL 3
REMARK VINA RESULT:     -10.0      4.970     11.216
REMARK SMILES CC[C@@](C)(NC(=O)/C=C/c1cccc(F)c1)C(=O)NCCCCNC(=O)c1ccc(-c2c3nc(c(-c4ccc(S(=O)(=O)[O-])cc4)c4ccc([nH]4)c(-c4ccc(S(=O)(=O)[O-])cc4)c4nc(c(-c5ccc(S(=O)(=O)[O-])cc5)c5ccc2[nH]5)C=C4)C=C3)cc1
REMARK SMILES IDX 21 1 20 2 19 3 17 4 18 5 3 7 4 8 2 9 1 10 5 11 6 12 7 14
REMARK SMILES IDX 8 15 9 16 10 17 11 18 16 19 12 20 14 21 13 22 15 23 22 24
REMARK SMILES IDX 23 25 24 26 25 27 26 29 27 30 28 31 86 32 29 33 85 34 30 35
REMARK SMILES IDX 31 36 32 37 79 38 33 39 84 40 78 41 80 42 34 43 83 44 77 45
REMARK SMILES IDX 76 46 35 48 65 49 46 50 64 51 47 52 50 53 63 54 81 55 48 56
REMARK SMILES IDX 49 57 62 59 82 60 51 61 36 62 37 63 45 64 38 65 44 66 39 67
REMARK SMILES IDX 40 68 41 69 42 70 43 71 66 72 67 73 75 74 68 75 74 76 69 77
REMARK SMILES IDX 70 78 71 79 72 80 73 81 52 82 53 83 61 84 54 85 60 86 55 87
REMARK SMILES IDX 56 88 57 89 58 90 59 91
REMARK H PARENT 19 6 5 13 24 28 80 47 50 58
REMARK Flexibility Score: inf
ROOT
ATOM      1  C   UNL A   1      46.486  23.977  25.734  1.00  0.00     0.023 C 
ENDROOT
BRANCH   1   2
ATOM      2  C   UNL A   1      46.233  23.056  24.541  1.00  0.00     0.116 C 
BRANCH   2   3
ATOM      3  N   UNL A   1      46.371  21.630  24.787  1.00  0.00    -0.354 N 
ATOM      4  C   UNL A   1      45.443  20.654  25.035  1.00  0.00     0.245 C 
ATOM      5  O   UNL A   1      45.805  19.494  24.817  1.00  0.00    -0.272 OA
ATOM      6  H   UNL A   1      47.301  21.307  24.772  1.00  0.00     0.163 HD
BRANCH   4   7
ATOM      7  C   UNL A   1      43.967  20.985  25.401  1.00  0.00     0.116 C 
ATOM      8  C   UNL A   1      43.525  22.029  24.343  1.00  0.00     0.045 C 
BRANCH   7   9
ATOM      9  C   UNL A   1      42.946  19.807  25.333  1.00  0.00     0.035 C 
ATOM     10  C   UNL A   1      42.931  18.791  26.465  1.00  0.00     0.007 C 
ENDBRANCH   7   9
BRANCH   7  11
ATOM     11  N   UNL A   1      43.843  21.560  26.761  1.00  0.00    -0.338 N 
ATOM     12  C   UNL A   1      42.880  22.358  27.311  1.00  0.00     0.244 C 
ATOM     13  H   UNL A   1      44.580  21.327  27.371  1.00  0.00     0.164 HD
ATOM     14  O   UNL A   1      43.173  23.013  28.313  1.00  0.00    -0.270 OA
BRANCH  12  15
ATOM     15  C   UNL A   1      41.448  22.267  26.912  1.00  0.00     0.072 C 
ATOM     16  C   UNL A   1      40.427  23.082  27.211  1.00  0.00     0.014 C 
BRANCH  16  17
ATOM     17  C   UNL A   1      39.124  22.986  26.532  1.00  0.00    -0.023 A 
ATOM     18  C   UNL A   1      38.190  24.028  26.518  1.00  0.00     0.008 A 
ATOM     19  C   UNL A   1      38.807  21.789  25.874  1.00  0.00     0.047 A 
ATOM     20  C   UNL A   1      36.964  23.869  25.856  1.00  0.00     0.004 A 
ATOM     21  C   UNL A   1      37.582  21.635  25.238  1.00  0.00     0.123 A 
ATOM     22  C   UNL A   1      36.657  22.667  25.217  1.00  0.00     0.039 A 
ATOM     23  F   UNL A   1      37.295  20.470  24.641  1.00  0.00    -0.207 F 
ENDBRANCH  16  17
ENDBRANCH  12  15
ENDBRANCH   7  11
ENDBRANCH   4   7
ENDBRANCH   2   3
ENDBRANCH   1   2
BRANCH   1  24
ATOM     24  C   UNL A   1      45.980  25.412  25.614  1.00  0.00     0.023 C 
BRANCH  24  25
ATOM     25  C   UNL A   1      44.682  25.708  26.349  1.00  0.00     0.116 C 
BRANCH  25  26
ATOM     26  N   UNL A   1      43.512  25.550  25.503  1.00  0.00    -0.352 N 
ATOM     27  C   UNL A   1      42.220  25.971  25.703  1.00  0.00     0.251 C 
ATOM     28  H   UNL A   1      43.669  25.069  24.658  1.00  0.00     0.163 HD
ATOM     29  O   UNL A   1      41.337  25.593  24.941  1.00  0.00    -0.269 OA
BRANCH  27  30
ATOM     30  C   UNL A   1      41.896  26.854  26.843  1.00  0.00     0.039 A 
ATOM     31  C   UNL A   1      41.156  26.332  27.907  1.00  0.00     0.014 A 
ATOM     32  C   UNL A   1      42.313  28.187  26.867  1.00  0.00     0.014 A 
ATOM     33  C   UNL A   1      40.885  27.131  29.018  1.00  0.00     0.010 A 
ATOM     34  C   UNL A   1      42.120  28.954  28.011  1.00  0.00     0.010 A 
ATOM     35  C   UNL A   1      41.394  28.438  29.096  1.00  0.00    -0.014 A 
BRANCH  35  36
ATOM     36  C   UNL A   1      41.173  29.283  30.296  1.00  0.00     0.031 A 
ATOM     37  C   UNL A   1      42.070  29.139  31.497  1.00  0.00     0.074 A 
ATOM     38  C   UNL A   1      40.131  30.137  30.325  1.00  0.00     0.049 A 
ATOM     39  N   UNL A   1      42.006  29.754  32.650  1.00  0.00    -0.248 NA
ATOM     40  C   UNL A   1      43.167  28.161  31.399  1.00  0.00     0.031 C 
ATOM     41  C   UNL A   1      39.169  30.339  29.239  1.00  0.00     0.029 A 
ATOM     42  N   UNL A   1      39.703  30.994  31.308  1.00  0.00    -0.354 N 
ATOM     43  C   UNL A   1      43.037  29.223  33.418  1.00  0.00     0.074 A 
ATOM     44  C   UNL A   1      43.678  28.202  32.620  1.00  0.00     0.031 C 
ATOM     45  C   UNL A   1      38.288  31.285  29.601  1.00  0.00     0.029 A 
ATOM     46  C   UNL A   1      38.588  31.721  30.961  1.00  0.00     0.049 A 
ATOM     47  H   UNL A   1      40.151  31.079  32.181  1.00  0.00     0.167 HD
ATOM     48  C   UNL A   1      43.427  29.569  34.669  1.00  0.00     0.031 A 
ATOM     49  C   UNL A   1      37.883  32.632  31.659  1.00  0.00     0.031 A 
ATOM     50  C   UNL A   1      42.790  30.591  35.454  1.00  0.00     0.049 A 
ATOM     51  C   UNL A   1      38.324  32.982  33.055  1.00  0.00     0.074 A 
ATOM     52  C   UNL A   1      43.144  31.058  36.708  1.00  0.00     0.029 A 
ATOM     53  N   UNL A   1      41.663  31.302  35.067  1.00  0.00    -0.354 N 
ATOM     54  N   UNL A   1      39.346  32.522  33.737  1.00  0.00    -0.248 NA
ATOM     55  C   UNL A   1      37.523  33.986  33.770  1.00  0.00     0.031 C 
ATOM     56  C   UNL A   1      42.196  32.004  37.106  1.00  0.00     0.029 A 
ATOM     57  C   UNL A   1      41.290  32.180  36.071  1.00  0.00     0.049 A 
ATOM     58  H   UNL A   1      41.198  31.197  34.206  1.00  0.00     0.167 HD
ATOM     59  C   UNL A   1      39.328  33.201  34.950  1.00  0.00     0.074 A 
ATOM     60  C   UNL A   1      38.205  34.115  34.901  1.00  0.00     0.031 C 
ATOM     61  C   UNL A   1      40.168  33.083  36.008  1.00  0.00     0.031 A 
BRANCH  48  62
ATOM     62  C   UNL A   1      44.590  28.821  35.271  1.00  0.00    -0.014 A 
ATOM     63  C   UNL A   1      45.910  29.289  35.133  1.00  0.00     0.010 A 
ATOM     64  C   UNL A   1      44.355  27.657  36.025  1.00  0.00     0.010 A 
ATOM     65  C   UNL A   1      46.975  28.584  35.700  1.00  0.00     0.020 A 
ATOM     66  C   UNL A   1      45.414  26.967  36.622  1.00  0.00     0.020 A 
ATOM     67  C   UNL A   1      46.720  27.426  36.441  1.00  0.00     0.054 A 
BRANCH  67  68
ATOM     68  S   UNL A   1      48.120  26.548  37.188  1.00  0.00     0.124 S 
ATOM     69  O   UNL A   1      48.753  27.603  37.976  1.00  0.00    -0.237 OA
ATOM     70  O   UNL A   1      47.463  25.496  37.960  1.00  0.00    -0.237 OA
ATOM     71  O   UNL A   1      48.891  26.083  36.037  1.00  0.00    -0.744 OA
ENDBRANCH  67  68
ENDBRANCH  48  62
BRANCH  49  72
ATOM     72  C   UNL A   1      36.695  33.286  31.045  1.00  0.00    -0.014 A 
ATOM     73  C   UNL A   1      35.470  33.335  31.735  1.00  0.00     0.010 A 
ATOM     74  C   UNL A   1      36.783  33.874  29.769  1.00  0.00     0.010 A 
ATOM     75  C   UNL A   1      34.351  33.939  31.152  1.00  0.00     0.020 A 
ATOM     76  C   UNL A   1      35.676  34.507  29.197  1.00  0.00     0.020 A 
ATOM     77  C   UNL A   1      34.463  34.524  29.888  1.00  0.00     0.054 A 
BRANCH  77  78
ATOM     78  S   UNL A   1      33.011  35.342  29.171  1.00  0.00     0.124 S 
ATOM     79  O   UNL A   1      32.156  35.524  30.340  1.00  0.00    -0.237 OA
ATOM     80  O   UNL A   1      33.584  36.563  28.609  1.00  0.00    -0.237 OA
ATOM     81  O   UNL A   1      32.528  34.378  28.185  1.00  0.00    -0.744 OA
ENDBRANCH  77  78
ENDBRANCH  49  72
BRANCH  61  82
ATOM     82  C   UNL A   1      39.932  33.989  37.188  1.00  0.00    -0.014 A 
ATOM     83  C   UNL A   1      40.572  35.235  37.296  1.00  0.00     0.010 A 
ATOM     84  C   UNL A   1      39.006  33.606  38.177  1.00  0.00     0.010 A 
ATOM     85  C   UNL A   1      40.316  36.068  38.388  1.00  0.00     0.020 A 
ATOM     86  C   UNL A   1      38.724  34.450  39.253  1.00  0.00     0.020 A 
ATOM     87  C   UNL A   1      39.392  35.671  39.360  1.00  0.00     0.054 A 
BRANCH  87  88
ATOM     88  S   UNL A   1      39.045  36.790  40.743  1.00  0.00     0.124 S 
ATOM     89  O   UNL A   1      38.280  35.932  41.644  1.00  0.00    -0.237 OA
ATOM     90  O   UNL A   1      40.383  37.151  41.206  1.00  0.00    -0.237 OA
ATOM     91  O   UNL A   1      38.289  37.878  40.129  1.00  0.00    -0.744 OA
ENDBRANCH  87  88
ENDBRANCH  61  82
ENDBRANCH  35  36
ENDBRANCH  27  30
ENDBRANCH  25  26
ENDBRANCH  24  25
ENDBRANCH   1  24
TORSDOF 18
ENDMDL
