MODEL 1
REMARK VINA RESULT:     -11.0      0.000      0.000
REMARK SMILES Cc1ncsc1Cn1c(SCC(=O)NCCCCNC(=O)c2ccc(-c3c4nc(c(-c5ccc(S(=O)(=O)[O-])cc5)c5ccc([nH]5)c(-c5ccc(S(=O)(=O)[O-])cc5)c5nc(c(-c6ccc(S(=O)(=O)[O-])cc6)c6ccc3[nH]6)C=C5)C=C4)cc2)nc2cnccc21
REMARK SMILES IDX 16 1 15 2 14 3 12 4 13 5 11 7 10 8 9 9 8 10 88 11 82 12
REMARK SMILES IDX 83 13 87 14 84 15 86 16 85 17 7 18 6 19 1 20 2 21 3 22 4 23
REMARK SMILES IDX 5 24 17 25 18 26 19 27 20 28 21 30 22 31 23 32 81 33 24 34
REMARK SMILES IDX 80 35 25 36 26 37 27 38 74 39 28 40 79 41 73 42 75 43 29 44
REMARK SMILES IDX 78 45 72 46 71 47 30 49 60 50 41 51 59 52 42 53 45 54 58 55
REMARK SMILES IDX 76 56 43 57 44 58 57 60 77 61 46 62 31 63 32 64 40 65 33 66
REMARK SMILES IDX 39 67 34 68 35 69 36 70 37 71 38 72 61 73 62 74 70 75 63 76
REMARK SMILES IDX 69 77 64 78 65 79 66 80 67 81 68 82 47 83 48 84 56 85 49 86
REMARK SMILES IDX 55 87 50 88 51 89 52 90 53 91 54 92
REMARK H PARENT 14 6 19 29 75 48 45 59
REMARK Flexibility Score: inf
ROOT
ATOM      1  C   UNL A   1      40.216  22.160  27.119  1.00  0.00     0.023 C 
ENDROOT
BRANCH   1   2
ATOM      2  C   UNL A   1      39.171  23.134  26.587  1.00  0.00     0.116 C 
BRANCH   2   3
ATOM      3  N   UNL A   1      38.527  22.631  25.392  1.00  0.00    -0.355 N 
ATOM      4  C   UNL A   1      37.283  22.860  24.913  1.00  0.00     0.230 C 
ATOM      5  O   UNL A   1      37.039  22.438  23.777  1.00  0.00    -0.274 OA
ATOM      6  H   UNL A   1      39.080  22.029  24.844  1.00  0.00     0.163 HD
BRANCH   4   7
ATOM      7  C   UNL A   1      36.266  23.682  25.668  1.00  0.00     0.178 C 
BRANCH   7   8
ATOM      8  S   UNL A   1      34.948  22.821  26.486  1.00  0.00    -0.078 SA
BRANCH   8   9
ATOM      9  C   UNL A   1      34.162  21.568  25.594  1.00  0.00     0.169 A 
ATOM     10  N   UNL A   1      32.989  21.506  24.868  1.00  0.00    -0.313 N 
ATOM     11  C   UNL A   1      32.984  20.273  24.217  1.00  0.00     0.072 A 
ATOM     12  N   UNL A   1      34.765  20.396  25.601  1.00  0.00    -0.221 NA
ATOM     13  C   UNL A   1      34.067  19.586  24.754  1.00  0.00     0.108 A 
ATOM     14  C   UNL A   1      32.169  19.687  23.244  1.00  0.00     0.049 A 
ATOM     15  C   UNL A   1      34.299  18.262  24.372  1.00  0.00     0.141 A 
ATOM     16  C   UNL A   1      32.463  18.362  22.943  1.00  0.00     0.113 A 
ATOM     17  N   UNL A   1      33.465  17.647  23.494  1.00  0.00    -0.262 NA
BRANCH  10  18
ATOM     18  C   UNL A   1      31.960  22.514  24.653  1.00  0.00     0.173 C 
BRANCH  18  19
ATOM     19  C   UNL A   1      32.420  23.794  24.009  1.00  0.00     0.047 A 
ATOM     20  C   UNL A   1      31.718  25.592  25.739  1.00  0.00     0.068 C 
ATOM     21  C   UNL A   1      32.343  25.102  24.483  1.00  0.00     0.053 A 
ATOM     22  N   UNL A   1      32.958  26.058  23.687  1.00  0.00    -0.250 NA
ATOM     23  C   UNL A   1      33.522  25.482  22.654  1.00  0.00     0.176 A 
ATOM     24  S   UNL A   1      33.349  23.790  22.558  1.00  0.00    -0.125 S 
ENDBRANCH  18  19
ENDBRANCH  10  18
ENDBRANCH   8   9
ENDBRANCH   7   8
ENDBRANCH   4   7
ENDBRANCH   2   3
ENDBRANCH   1   2
BRANCH   1  25
ATOM     25  C   UNL A   1      40.385  20.864  26.312  1.00  0.00     0.023 C 
BRANCH  25  26
ATOM     26  C   UNL A   1      41.664  20.069  26.584  1.00  0.00     0.116 C 
BRANCH  26  27
ATOM     27  N   UNL A   1      42.685  20.203  25.568  1.00  0.00    -0.352 N 
ATOM     28  C   UNL A   1      43.601  21.162  25.246  1.00  0.00     0.251 C 
ATOM     29  H   UNL A   1      42.729  19.421  24.971  1.00  0.00     0.163 HD
ATOM     30  O   UNL A   1      44.389  20.868  24.340  1.00  0.00    -0.269 OA
BRANCH  28  31
ATOM     31  C   UNL A   1      43.677  22.514  25.861  1.00  0.00     0.039 A 
ATOM     32  C   UNL A   1      44.392  22.842  27.014  1.00  0.00     0.014 A 
ATOM     33  C   UNL A   1      42.918  23.518  25.232  1.00  0.00     0.014 A 
ATOM     34  C   UNL A   1      44.263  24.100  27.593  1.00  0.00     0.010 A 
ATOM     35  C   UNL A   1      42.810  24.787  25.790  1.00  0.00     0.010 A 
ATOM     36  C   UNL A   1      43.437  25.055  27.005  1.00  0.00    -0.014 A 
BRANCH  36  37
ATOM     37  C   UNL A   1      43.231  26.307  27.726  1.00  0.00     0.031 A 
ATOM     38  C   UNL A   1      44.220  27.405  27.507  1.00  0.00     0.074 A 
ATOM     39  C   UNL A   1      42.144  26.494  28.500  1.00  0.00     0.049 A 
ATOM     40  N   UNL A   1      44.892  28.073  28.390  1.00  0.00    -0.248 NA
ATOM     41  C   UNL A   1      44.529  27.777  26.119  1.00  0.00     0.031 C 
ATOM     42  C   UNL A   1      40.954  25.644  28.603  1.00  0.00     0.029 A 
ATOM     43  N   UNL A   1      41.822  27.575  29.261  1.00  0.00    -0.354 N 
ATOM     44  C   UNL A   1      45.638  29.024  27.691  1.00  0.00     0.074 A 
ATOM     45  C   UNL A   1      45.422  28.754  26.291  1.00  0.00     0.031 C 
ATOM     46  C   UNL A   1      39.950  26.362  29.152  1.00  0.00     0.029 A 
ATOM     47  C   UNL A   1      40.474  27.650  29.569  1.00  0.00     0.049 A 
ATOM     48  H   UNL A   1      42.483  28.239  29.563  1.00  0.00     0.167 HD
ATOM     49  C   UNL A   1      46.321  30.036  28.300  1.00  0.00     0.031 A 
ATOM     50  C   UNL A   1      39.815  28.741  30.028  1.00  0.00     0.031 A 
ATOM     51  C   UNL A   1      46.456  29.824  29.712  1.00  0.00     0.049 A 
ATOM     52  C   UNL A   1      40.817  29.653  30.628  1.00  0.00     0.074 A 
ATOM     53  C   UNL A   1      47.154  28.928  30.493  1.00  0.00     0.029 A 
ATOM     54  N   UNL A   1      45.560  30.447  30.546  1.00  0.00    -0.354 N 
ATOM     55  N   UNL A   1      41.497  29.373  31.706  1.00  0.00    -0.248 NA
ATOM     56  C   UNL A   1      41.364  30.725  29.811  1.00  0.00     0.031 C 
ATOM     57  C   UNL A   1      46.339  28.728  31.641  1.00  0.00     0.029 A 
ATOM     58  C   UNL A   1      45.205  29.536  31.506  1.00  0.00     0.049 A 
ATOM     59  H   UNL A   1      45.235  31.373  30.469  1.00  0.00     0.167 HD
ATOM     60  C   UNL A   1      42.749  29.932  31.495  1.00  0.00     0.074 A 
ATOM     61  C   UNL A   1      42.569  30.850  30.374  1.00  0.00     0.031 C 
ATOM     62  C   UNL A   1      43.872  29.398  32.061  1.00  0.00     0.031 A 
BRANCH  49  63
ATOM     63  C   UNL A   1      46.716  31.344  27.666  1.00  0.00    -0.014 A 
ATOM     64  C   UNL A   1      45.808  32.403  27.473  1.00  0.00     0.010 A 
ATOM     65  C   UNL A   1      48.086  31.632  27.471  1.00  0.00     0.010 A 
ATOM     66  C   UNL A   1      46.238  33.684  27.110  1.00  0.00     0.020 A 
ATOM     67  C   UNL A   1      48.529  32.922  27.148  1.00  0.00     0.020 A 
ATOM     68  C   UNL A   1      47.598  33.942  26.973  1.00  0.00     0.054 A 
BRANCH  68  69
ATOM     69  S   UNL A   1      48.124  35.653  26.687  1.00  0.00     0.124 S 
ATOM     70  O   UNL A   1      49.472  35.470  26.156  1.00  0.00    -0.237 OA
ATOM     71  O   UNL A   1      47.128  36.130  25.731  1.00  0.00    -0.237 OA
ATOM     72  O   UNL A   1      48.052  36.261  28.013  1.00  0.00    -0.744 OA
ENDBRANCH  68  69
ENDBRANCH  49  63
BRANCH  50  73
ATOM     73  C   UNL A   1      38.474  29.190  29.579  1.00  0.00    -0.014 A 
ATOM     74  C   UNL A   1      38.276  29.587  28.238  1.00  0.00     0.010 A 
ATOM     75  C   UNL A   1      37.466  29.495  30.510  1.00  0.00     0.010 A 
ATOM     76  C   UNL A   1      37.150  30.315  27.851  1.00  0.00     0.020 A 
ATOM     77  C   UNL A   1      36.333  30.233  30.129  1.00  0.00     0.020 A 
ATOM     78  C   UNL A   1      36.202  30.667  28.808  1.00  0.00     0.054 A 
BRANCH  78  79
ATOM     79  S   UNL A   1      34.859  31.776  28.305  1.00  0.00     0.124 S 
ATOM     80  O   UNL A   1      35.560  32.734  27.453  1.00  0.00    -0.237 OA
ATOM     81  O   UNL A   1      33.945  30.872  27.610  1.00  0.00    -0.237 OA
ATOM     82  O   UNL A   1      34.361  32.312  29.568  1.00  0.00    -0.744 OA
ENDBRANCH  78  79
ENDBRANCH  50  73
BRANCH  62  83
ATOM     83  C   UNL A   1      43.724  28.324  33.118  1.00  0.00    -0.014 A 
ATOM     84  C   UNL A   1      43.661  26.984  32.694  1.00  0.00     0.010 A 
ATOM     85  C   UNL A   1      43.375  28.624  34.450  1.00  0.00     0.010 A 
ATOM     86  C   UNL A   1      43.203  25.982  33.552  1.00  0.00     0.020 A 
ATOM     87  C   UNL A   1      42.938  27.620  35.324  1.00  0.00     0.020 A 
ATOM     88  C   UNL A   1      42.820  26.310  34.855  1.00  0.00     0.054 A 
BRANCH  88  89
ATOM     89  S   UNL A   1      42.111  25.008  35.900  1.00  0.00     0.124 S 
ATOM     90  O   UNL A   1      42.295  23.818  35.073  1.00  0.00    -0.237 OA
ATOM     91  O   UNL A   1      42.942  25.067  37.101  1.00  0.00    -0.237 OA
ATOM     92  O   UNL A   1      40.723  25.426  36.087  1.00  0.00    -0.744 OA
ENDBRANCH  88  89
ENDBRANCH  62  83
ENDBRANCH  36  37
ENDBRANCH  28  31
ENDBRANCH  26  27
ENDBRANCH  25  26
ENDBRANCH   1  25
TORSDOF 18
ENDMDL
MODEL 2
REMARK VINA RESULT:     -11.0      1.700      2.325
REMARK SMILES Cc1ncsc1Cn1c(SCC(=O)NCCCCNC(=O)c2ccc(-c3c4nc(c(-c5ccc(S(=O)(=O)[O-])cc5)c5ccc([nH]5)c(-c5ccc(S(=O)(=O)[O-])cc5)c5nc(c(-c6ccc(S(=O)(=O)[O-])cc6)c6ccc3[nH]6)C=C5)C=C4)cc2)nc2cnccc21
REMARK SMILES IDX 16 1 15 2 14 3 12 4 13 5 11 7 10 8 9 9 8 10 88 11 82 12
REMARK SMILES IDX 83 13 87 14 84 15 86 16 85 17 7 18 6 19 1 20 2 21 3 22 4 23
REMARK SMILES IDX 5 24 17 25 18 26 19 27 20 28 21 30 22 31 23 32 81 33 24 34
REMARK SMILES IDX 80 35 25 36 26 37 27 38 74 39 28 40 79 41 73 42 75 43 29 44
REMARK SMILES IDX 78 45 72 46 71 47 30 49 60 50 41 51 59 52 42 53 45 54 58 55
REMARK SMILES IDX 76 56 43 57 44 58 57 60 77 61 46 62 31 63 32 64 40 65 33 66
REMARK SMILES IDX 39 67 34 68 35 69 36 70 37 71 38 72 61 73 62 74 70 75 63 76
REMARK SMILES IDX 69 77 64 78 65 79 66 80 67 81 68 82 47 83 48 84 56 85 49 86
REMARK SMILES IDX 55 87 50 88 51 89 52 90 53 91 54 92
REMARK H PARENT 14 6 19 29 75 48 45 59
REMARK Flexibility Score: inf
ROOT
ATOM      1  C   UNL A   1      39.524  22.198  25.996  1.00  0.00     0.023 C 
ENDROOT
BRANCH   1   2
ATOM      2  C   UNL A   1      38.040  21.905  25.807  1.00  0.00     0.116 C 
BRANCH   2   3
ATOM      3  N   UNL A   1      37.572  22.319  24.501  1.00  0.00    -0.355 N 
ATOM      4  C   UNL A   1      36.628  23.226  24.163  1.00  0.00     0.230 C 
ATOM      5  O   UNL A   1      36.538  23.514  22.964  1.00  0.00    -0.274 OA
ATOM      6  H   UNL A   1      38.009  21.870  23.742  1.00  0.00     0.163 HD
BRANCH   4   7
ATOM      7  C   UNL A   1      35.791  23.944  25.196  1.00  0.00     0.178 C 
BRANCH   7   8
ATOM      8  S   UNL A   1      34.637  22.981  26.139  1.00  0.00    -0.078 SA
BRANCH   8   9
ATOM      9  C   UNL A   1      33.944  21.607  25.357  1.00  0.00     0.169 A 
ATOM     10  N   UNL A   1      32.790  21.407  24.626  1.00  0.00    -0.313 N 
ATOM     11  C   UNL A   1      32.870  20.122  24.091  1.00  0.00     0.072 A 
ATOM     12  N   UNL A   1      34.616  20.480  25.479  1.00  0.00    -0.221 NA
ATOM     13  C   UNL A   1      33.983  19.555  24.701  1.00  0.00     0.108 A 
ATOM     14  C   UNL A   1      32.109  19.401  23.167  1.00  0.00     0.049 A 
ATOM     15  C   UNL A   1      34.301  18.218  24.445  1.00  0.00     0.141 A 
ATOM     16  C   UNL A   1      32.487  18.075  22.992  1.00  0.00     0.113 A 
ATOM     17  N   UNL A   1      33.521  17.475  23.618  1.00  0.00    -0.262 NA
BRANCH  10  18
ATOM     18  C   UNL A   1      31.706  22.326  24.307  1.00  0.00     0.173 C 
BRANCH  18  19
ATOM     19  C   UNL A   1      32.122  23.712  23.890  1.00  0.00     0.047 A 
ATOM     20  C   UNL A   1      33.313  23.296  21.626  1.00  0.00     0.068 C 
ATOM     21  C   UNL A   1      32.781  24.129  22.736  1.00  0.00     0.053 A 
ATOM     22  N   UNL A   1      32.928  25.502  22.602  1.00  0.00    -0.250 NA
ATOM     23  C   UNL A   1      32.358  26.112  23.612  1.00  0.00     0.176 A 
ATOM     24  S   UNL A   1      31.631  25.105  24.777  1.00  0.00    -0.125 S 
ENDBRANCH  18  19
ENDBRANCH  10  18
ENDBRANCH   8   9
ENDBRANCH   7   8
ENDBRANCH   4   7
ENDBRANCH   2   3
ENDBRANCH   1   2
BRANCH   1  25
ATOM     25  C   UNL A   1      40.395  20.989  26.371  1.00  0.00     0.023 C 
BRANCH  25  26
ATOM     26  C   UNL A   1      41.865  21.292  26.669  1.00  0.00     0.116 C 
BRANCH  26  27
ATOM     27  N   UNL A   1      42.563  21.994  25.613  1.00  0.00    -0.352 N 
ATOM     28  C   UNL A   1      42.877  23.299  25.370  1.00  0.00     0.251 C 
ATOM     29  H   UNL A   1      42.885  21.388  24.906  1.00  0.00     0.163 HD
ATOM     30  O   UNL A   1      43.583  23.505  24.377  1.00  0.00    -0.269 OA
BRANCH  28  31
ATOM     31  C   UNL A   1      42.398  24.458  26.171  1.00  0.00     0.039 A 
ATOM     32  C   UNL A   1      41.617  25.509  25.689  1.00  0.00     0.014 A 
ATOM     33  C   UNL A   1      42.821  24.494  27.512  1.00  0.00     0.014 A 
ATOM     34  C   UNL A   1      41.362  26.623  26.482  1.00  0.00     0.010 A 
ATOM     35  C   UNL A   1      42.543  25.590  28.319  1.00  0.00     0.010 A 
ATOM     36  C   UNL A   1      41.863  26.680  27.781  1.00  0.00    -0.014 A 
BRANCH  36  37
ATOM     37  C   UNL A   1      41.684  27.927  28.520  1.00  0.00     0.031 A 
ATOM     38  C   UNL A   1      42.765  28.953  28.422  1.00  0.00     0.074 A 
ATOM     39  C   UNL A   1      40.549  28.175  29.201  1.00  0.00     0.049 A 
ATOM     40  N   UNL A   1      43.402  29.547  29.380  1.00  0.00    -0.248 NA
ATOM     41  C   UNL A   1      43.223  29.335  27.079  1.00  0.00     0.031 C 
ATOM     42  C   UNL A   1      39.295  27.415  29.173  1.00  0.00     0.029 A 
ATOM     43  N   UNL A   1      40.238  29.259  29.963  1.00  0.00    -0.354 N 
ATOM     44  C   UNL A   1      44.274  30.457  28.779  1.00  0.00     0.074 A 
ATOM     45  C   UNL A   1      44.165  30.238  27.357  1.00  0.00     0.031 C 
ATOM     46  C   UNL A   1      38.301  28.191  29.655  1.00  0.00     0.029 A 
ATOM     47  C   UNL A   1      38.877  29.427  30.155  1.00  0.00     0.049 A 
ATOM     48  H   UNL A   1      40.916  29.865  30.342  1.00  0.00     0.167 HD
ATOM     49  C   UNL A   1      44.971  31.400  29.476  1.00  0.00     0.031 A 
ATOM     50  C   UNL A   1      38.260  30.552  30.587  1.00  0.00     0.031 A 
ATOM     51  C   UNL A   1      44.963  31.145  30.887  1.00  0.00     0.049 A 
ATOM     52  C   UNL A   1      39.267  31.372  31.301  1.00  0.00     0.074 A 
ATOM     53  C   UNL A   1      45.522  30.181  31.698  1.00  0.00     0.029 A 
ATOM     54  N   UNL A   1      44.043  31.813  31.658  1.00  0.00    -0.354 N 
ATOM     55  N   UNL A   1      39.826  31.016  32.425  1.00  0.00    -0.248 NA
ATOM     56  C   UNL A   1      39.961  32.420  30.567  1.00  0.00     0.031 C 
ATOM     57  C   UNL A   1      44.596  30.015  32.763  1.00  0.00     0.029 A 
ATOM     58  C   UNL A   1      43.540  30.907  32.555  1.00  0.00     0.049 A 
ATOM     59  H   UNL A   1      43.794  32.762  31.581  1.00  0.00     0.167 HD
ATOM     60  C   UNL A   1      41.129  31.486  32.341  1.00  0.00     0.074 A 
ATOM     61  C   UNL A   1      41.116  32.441  31.237  1.00  0.00     0.031 C 
ATOM     62  C   UNL A   1      42.156  30.857  32.987  1.00  0.00     0.031 A 
BRANCH  49  63
ATOM     63  C   UNL A   1      45.514  32.690  28.919  1.00  0.00    -0.014 A 
ATOM     64  C   UNL A   1      44.686  33.754  28.512  1.00  0.00     0.010 A 
ATOM     65  C   UNL A   1      46.898  32.959  29.022  1.00  0.00     0.010 A 
ATOM     66  C   UNL A   1      45.204  35.022  28.228  1.00  0.00     0.020 A 
ATOM     67  C   UNL A   1      47.420  34.237  28.779  1.00  0.00     0.020 A 
ATOM     68  C   UNL A   1      46.565  35.263  28.387  1.00  0.00     0.054 A 
BRANCH  68  69
ATOM     69  S   UNL A   1      47.166  36.962  28.191  1.00  0.00     0.124 S 
ATOM     70  O   UNL A   1      47.059  37.480  29.551  1.00  0.00    -0.237 OA
ATOM     71  O   UNL A   1      48.525  36.757  27.698  1.00  0.00    -0.237 OA
ATOM     72  O   UNL A   1      46.239  37.545  27.225  1.00  0.00    -0.744 OA
ENDBRANCH  68  69
ENDBRANCH  49  63
BRANCH  50  73
ATOM     73  C   UNL A   1      37.000  31.111  30.037  1.00  0.00    -0.014 A 
ATOM     74  C   UNL A   1      36.928  31.476  28.675  1.00  0.00     0.010 A 
ATOM     75  C   UNL A   1      35.970  31.543  30.889  1.00  0.00     0.010 A 
ATOM     76  C   UNL A   1      35.905  32.294  28.192  1.00  0.00     0.020 A 
ATOM     77  C   UNL A   1      34.941  32.372  30.412  1.00  0.00     0.020 A 
ATOM     78  C   UNL A   1      34.937  32.769  29.072  1.00  0.00     0.054 A 
BRANCH  78  79
ATOM     79  S   UNL A   1      33.742  33.982  28.449  1.00  0.00     0.124 S 
ATOM     80  O   UNL A   1      34.604  34.904  27.712  1.00  0.00    -0.237 OA
ATOM     81  O   UNL A   1      32.857  33.161  27.627  1.00  0.00    -0.237 OA
ATOM     82  O   UNL A   1      33.137  34.527  29.660  1.00  0.00    -0.744 OA
ENDBRANCH  78  79
ENDBRANCH  50  73
BRANCH  62  83
ATOM     83  C   UNL A   1      41.836  29.771  33.993  1.00  0.00    -0.014 A 
ATOM     84  C   UNL A   1      42.208  29.983  35.334  1.00  0.00     0.010 A 
ATOM     85  C   UNL A   1      41.443  28.476  33.602  1.00  0.00     0.010 A 
ATOM     86  C   UNL A   1      42.250  28.923  36.242  1.00  0.00     0.020 A 
ATOM     87  C   UNL A   1      41.459  27.412  34.514  1.00  0.00     0.020 A 
ATOM     88  C   UNL A   1      41.899  27.638  35.820  1.00  0.00     0.054 A 
BRANCH  88  89
ATOM     89  S   UNL A   1      42.086  26.264  36.989  1.00  0.00     0.124 S 
ATOM     90  O   UNL A   1      42.977  26.838  37.995  1.00  0.00    -0.237 OA
ATOM     91  O   UNL A   1      40.714  26.028  37.434  1.00  0.00    -0.237 OA
ATOM     92  O   UNL A   1      42.667  25.194  36.182  1.00  0.00    -0.744 OA
ENDBRANCH  88  89
ENDBRANCH  62  83
ENDBRANCH  36  37
ENDBRANCH  28  31
ENDBRANCH  26  27
ENDBRANCH  25  26
ENDBRANCH   1  25
TORSDOF 18
ENDMDL
MODEL 3
REMARK VINA RESULT:     -10.9      1.513      2.918
REMARK SMILES Cc1ncsc1Cn1c(SCC(=O)NCCCCNC(=O)c2ccc(-c3c4nc(c(-c5ccc(S(=O)(=O)[O-])cc5)c5ccc([nH]5)c(-c5ccc(S(=O)(=O)[O-])cc5)c5nc(c(-c6ccc(S(=O)(=O)[O-])cc6)c6ccc3[nH]6)C=C5)C=C4)cc2)nc2cnccc21
REMARK SMILES IDX 16 1 15 2 14 3 12 4 13 5 11 7 10 8 9 9 8 10 88 11 82 12
REMARK SMILES IDX 83 13 87 14 84 15 86 16 85 17 7 18 6 19 1 20 2 21 3 22 4 23
REMARK SMILES IDX 5 24 17 25 18 26 19 27 20 28 21 30 22 31 23 32 81 33 24 34
REMARK SMILES IDX 80 35 25 36 26 37 27 38 74 39 28 40 79 41 73 42 75 43 29 44
REMARK SMILES IDX 78 45 72 46 71 47 30 49 60 50 41 51 59 52 42 53 45 54 58 55
REMARK SMILES IDX 76 56 43 57 44 58 57 60 77 61 46 62 31 63 32 64 40 65 33 66
REMARK SMILES IDX 39 67 34 68 35 69 36 70 37 71 38 72 61 73 62 74 70 75 63 76
REMARK SMILES IDX 69 77 64 78 65 79 66 80 67 81 68 82 47 83 48 84 56 85 49 86
REMARK SMILES IDX 55 87 50 88 51 89 52 90 53 91 54 92
REMARK H PARENT 14 6 19 29 75 48 45 59
REMARK Flexibility Score: inf
ROOT
ATOM      1  C   UNL A   1      39.400  21.754  26.155  1.00  0.00     0.023 C 
ENDROOT
BRANCH   1   2
ATOM      2  C   UNL A   1      37.935  21.876  25.754  1.00  0.00     0.116 C 
BRANCH   2   3
ATOM      3  N   UNL A   1      37.788  22.371  24.400  1.00  0.00    -0.355 N 
ATOM      4  C   UNL A   1      36.673  22.547  23.656  1.00  0.00     0.230 C 
ATOM      5  O   UNL A   1      36.810  23.145  22.583  1.00  0.00    -0.274 OA
ATOM      6  H   UNL A   1      38.630  22.615  23.954  1.00  0.00     0.163 HD
BRANCH   4   7
ATOM      7  C   UNL A   1      35.303  22.138  24.144  1.00  0.00     0.178 C 
BRANCH   7   8
ATOM      8  S   UNL A   1      33.891  22.861  23.350  1.00  0.00    -0.078 SA
BRANCH   8   9
ATOM      9  C   UNL A   1      33.682  24.566  23.531  1.00  0.00     0.169 A 
ATOM     10  N   UNL A   1      33.498  25.394  24.622  1.00  0.00    -0.313 N 
ATOM     11  C   UNL A   1      33.583  26.703  24.151  1.00  0.00     0.072 A 
ATOM     12  N   UNL A   1      33.664  25.263  22.413  1.00  0.00    -0.221 NA
ATOM     13  C   UNL A   1      33.615  26.579  22.767  1.00  0.00     0.108 A 
ATOM     14  C   UNL A   1      33.627  27.959  24.763  1.00  0.00     0.049 A 
ATOM     15  C   UNL A   1      33.614  27.730  21.973  1.00  0.00     0.141 A 
ATOM     16  C   UNL A   1      33.603  29.044  23.896  1.00  0.00     0.113 A 
ATOM     17  N   UNL A   1      33.568  28.959  22.550  1.00  0.00    -0.262 NA
BRANCH  10  18
ATOM     18  C   UNL A   1      33.363  25.072  26.036  1.00  0.00     0.173 C 
BRANCH  18  19
ATOM     19  C   UNL A   1      32.067  24.421  26.439  1.00  0.00     0.047 A 
ATOM     20  C   UNL A   1      30.316  26.263  25.933  1.00  0.00     0.068 C 
ATOM     21  C   UNL A   1      30.767  24.916  26.370  1.00  0.00     0.053 A 
ATOM     22  N   UNL A   1      29.771  24.018  26.728  1.00  0.00    -0.250 NA
ATOM     23  C   UNL A   1      30.302  22.858  27.024  1.00  0.00     0.176 A 
ATOM     24  S   UNL A   1      31.999  22.764  26.909  1.00  0.00    -0.125 S 
ENDBRANCH  18  19
ENDBRANCH  10  18
ENDBRANCH   8   9
ENDBRANCH   7   8
ENDBRANCH   4   7
ENDBRANCH   2   3
ENDBRANCH   1   2
BRANCH   1  25
ATOM     25  C   UNL A   1      39.959  20.323  26.194  1.00  0.00     0.023 C 
BRANCH  25  26
ATOM     26  C   UNL A   1      41.369  20.171  26.770  1.00  0.00     0.116 C 
BRANCH  26  27
ATOM     27  N   UNL A   1      42.431  20.229  25.789  1.00  0.00    -0.352 N 
ATOM     28  C   UNL A   1      43.392  21.142  25.466  1.00  0.00     0.251 C 
ATOM     29  H   UNL A   1      42.467  19.423  25.223  1.00  0.00     0.163 HD
ATOM     30  O   UNL A   1      44.201  20.785  24.602  1.00  0.00    -0.269 OA
BRANCH  28  31
ATOM     31  C   UNL A   1      43.496  22.513  26.033  1.00  0.00     0.039 A 
ATOM     32  C   UNL A   1      44.273  22.880  27.132  1.00  0.00     0.014 A 
ATOM     33  C   UNL A   1      42.697  23.494  25.417  1.00  0.00     0.014 A 
ATOM     34  C   UNL A   1      44.171  24.155  27.677  1.00  0.00     0.010 A 
ATOM     35  C   UNL A   1      42.614  24.779  25.939  1.00  0.00     0.010 A 
ATOM     36  C   UNL A   1      43.308  25.088  27.107  1.00  0.00    -0.014 A 
BRANCH  36  37
ATOM     37  C   UNL A   1      43.136  26.362  27.799  1.00  0.00     0.031 A 
ATOM     38  C   UNL A   1      44.148  27.431  27.546  1.00  0.00     0.074 A 
ATOM     39  C   UNL A   1      42.060  26.593  28.576  1.00  0.00     0.049 A 
ATOM     40  N   UNL A   1      44.842  28.105  28.407  1.00  0.00    -0.248 NA
ATOM     41  C   UNL A   1      44.455  27.762  26.147  1.00  0.00     0.031 C 
ATOM     42  C   UNL A   1      40.851  25.774  28.708  1.00  0.00     0.029 A 
ATOM     43  N   UNL A   1      41.768  27.700  29.312  1.00  0.00    -0.354 N 
ATOM     44  C   UNL A   1      45.604  29.021  27.679  1.00  0.00     0.074 A 
ATOM     45  C   UNL A   1      45.371  28.722  26.288  1.00  0.00     0.031 C 
ATOM     46  C   UNL A   1      39.868  26.528  29.247  1.00  0.00     0.029 A 
ATOM     47  C   UNL A   1      40.424  27.814  29.628  1.00  0.00     0.049 A 
ATOM     48  H   UNL A   1      42.447  28.356  29.593  1.00  0.00     0.167 HD
ATOM     49  C   UNL A   1      46.315  30.031  28.259  1.00  0.00     0.031 A 
ATOM     50  C   UNL A   1      39.795  28.930  30.065  1.00  0.00     0.031 A 
ATOM     51  C   UNL A   1      46.456  29.850  29.674  1.00  0.00     0.049 A 
ATOM     52  C   UNL A   1      40.822  29.833  30.635  1.00  0.00     0.074 A 
ATOM     53  C   UNL A   1      47.139  28.959  30.472  1.00  0.00     0.029 A 
ATOM     54  N   UNL A   1      45.581  30.515  30.499  1.00  0.00    -0.354 N 
ATOM     55  N   UNL A   1      41.504  29.564  31.715  1.00  0.00    -0.248 NA
ATOM     56  C   UNL A   1      41.388  30.872  29.787  1.00  0.00     0.031 C 
ATOM     57  C   UNL A   1      46.330  28.805  31.630  1.00  0.00     0.029 A 
ATOM     58  C   UNL A   1      45.213  29.636  31.484  1.00  0.00     0.049 A 
ATOM     59  H   UNL A   1      45.277  31.445  30.401  1.00  0.00     0.167 HD
ATOM     60  C   UNL A   1      42.767  30.089  31.481  1.00  0.00     0.074 A 
ATOM     61  C   UNL A   1      42.599  30.982  30.339  1.00  0.00     0.031 C 
ATOM     62  C   UNL A   1      43.881  29.543  32.051  1.00  0.00     0.031 A 
BRANCH  49  63
ATOM     63  C   UNL A   1      46.735  31.314  27.589  1.00  0.00    -0.014 A 
ATOM     64  C   UNL A   1      45.903  32.448  27.523  1.00  0.00     0.010 A 
ATOM     65  C   UNL A   1      48.088  31.491  27.222  1.00  0.00     0.010 A 
ATOM     66  C   UNL A   1      46.390  33.695  27.118  1.00  0.00     0.020 A 
ATOM     67  C   UNL A   1      48.595  32.746  26.855  1.00  0.00     0.020 A 
ATOM     68  C   UNL A   1      47.738  33.842  26.810  1.00  0.00     0.054 A 
BRANCH  68  69
ATOM     69  S   UNL A   1      48.366  35.509  26.472  1.00  0.00     0.124 S 
ATOM     70  O   UNL A   1      48.507  35.490  25.019  1.00  0.00    -0.237 OA
ATOM     71  O   UNL A   1      47.297  36.357  26.992  1.00  0.00    -0.237 OA
ATOM     72  O   UNL A   1      49.619  35.563  27.222  1.00  0.00    -0.744 OA
ENDBRANCH  68  69
ENDBRANCH  49  63
BRANCH  50  73
ATOM     73  C   UNL A   1      38.461  29.399  29.614  1.00  0.00    -0.014 A 
ATOM     74  C   UNL A   1      38.238  29.684  28.250  1.00  0.00     0.010 A 
ATOM     75  C   UNL A   1      37.498  29.831  30.542  1.00  0.00     0.010 A 
ATOM     76  C   UNL A   1      37.133  30.427  27.830  1.00  0.00     0.020 A 
ATOM     77  C   UNL A   1      36.386  30.584  30.128  1.00  0.00     0.020 A 
ATOM     78  C   UNL A   1      36.232  30.905  28.777  1.00  0.00     0.054 A 
BRANCH  78  79
ATOM     79  S   UNL A   1      34.923  32.027  28.214  1.00  0.00     0.124 S 
ATOM     80  O   UNL A   1      34.113  31.149  27.373  1.00  0.00    -0.237 OA
ATOM     81  O   UNL A   1      34.300  32.440  29.469  1.00  0.00    -0.237 OA
ATOM     82  O   UNL A   1      35.647  33.077  27.505  1.00  0.00    -0.744 OA
ENDBRANCH  78  79
ENDBRANCH  50  73
BRANCH  62  83
ATOM     83  C   UNL A   1      43.717  28.498  33.136  1.00  0.00    -0.014 A 
ATOM     84  C   UNL A   1      43.473  27.169  32.742  1.00  0.00     0.010 A 
ATOM     85  C   UNL A   1      43.526  28.843  34.489  1.00  0.00     0.010 A 
ATOM     86  C   UNL A   1      42.991  26.229  33.655  1.00  0.00     0.020 A 
ATOM     87  C   UNL A   1      43.066  27.898  35.415  1.00  0.00     0.020 A 
ATOM     88  C   UNL A   1      42.766  26.606  34.981  1.00  0.00     0.054 A 
BRANCH  88  89
ATOM     89  S   UNL A   1      42.021  25.396  36.108  1.00  0.00     0.124 S 
ATOM     90  O   UNL A   1      40.601  25.507  35.781  1.00  0.00    -0.237 OA
ATOM     91  O   UNL A   1      42.656  24.143  35.704  1.00  0.00    -0.237 OA
ATOM     92  O   UNL A   1      42.392  25.878  37.436  1.00  0.00    -0.744 OA
ENDBRANCH  88  89
ENDBRANCH  62  83
ENDBRANCH  36  37
ENDBRANCH  28  31
ENDBRANCH  26  27
ENDBRANCH  25  26
ENDBRANCH   1  25
TORSDOF 18
ENDMDL
