MODEL 1
REMARK VINA RESULT:     -12.6      0.000      0.000
REMARK SMILES C[C@H](C(=O)NCCCCNC(=O)c1ccc(-c2c3nc(c(-c4ccc(S(=O)(=O)[O-])cc4)c4ccc([nH]4)c(-c4ccc(S(=O)(=O)[O-])cc4)c4nc(c(-c5ccc(S(=O)(=O)[O-])cc5)c5ccc2[nH]5)C=C4)C=C3)cc1)c1ccc2c3cc(Cl)ccc3n(C(=O)c3cocn3)c2c1
REMARK SMILES IDX 7 1 6 2 5 3 3 4 4 5 2 7 1 8 73 9 74 10 93 11 75 12 92 13
REMARK SMILES IDX 76 14 84 15 77 16 83 17 78 18 82 19 79 20 81 21 80 22 85 23
REMARK SMILES IDX 86 24 87 25 88 26 91 27 89 28 90 29 8 30 9 31 10 32 11 33
REMARK SMILES IDX 12 35 13 36 14 37 72 38 15 39 71 40 16 41 17 42 18 43 65 44
REMARK SMILES IDX 19 45 70 46 64 47 66 48 20 49 69 50 63 51 62 52 21 54 51 55
REMARK SMILES IDX 32 56 50 57 33 58 36 59 49 60 67 61 34 62 35 63 48 65 68 66
REMARK SMILES IDX 37 67 22 68 23 69 31 70 24 71 30 72 25 73 26 74 27 75 28 76
REMARK SMILES IDX 29 77 52 78 53 79 61 80 54 81 60 82 55 83 56 84 57 85 58 86
REMARK SMILES IDX 59 87 38 88 39 89 47 90 40 91 46 92 41 93 42 94 43 95 44 96
REMARK SMILES IDX 45 97
REMARK H PARENT 5 6 10 34 66 53 36 64
REMARK Flexibility Score: inf
ROOT
ATOM      1  C   UNL A   1      32.953  30.403  27.259  1.00  0.00     0.023 C 
ENDROOT
BRANCH   1   2
ATOM      2  C   UNL A   1      32.058  29.179  27.042  1.00  0.00     0.116 C 
BRANCH   2   3
ATOM      3  N   UNL A   1      31.601  29.072  25.665  1.00  0.00    -0.356 N 
ATOM      4  C   UNL A   1      31.229  27.962  24.953  1.00  0.00     0.227 C 
ATOM      5  O   UNL A   1      30.934  28.114  23.765  1.00  0.00    -0.274 OA
ATOM      6  H   UNL A   1      31.553  29.922  25.173  1.00  0.00     0.163 HD
BRANCH   4   7
ATOM      7  C   UNL A   1      31.163  26.590  25.647  1.00  0.00     0.105 C 
ATOM      8  C   UNL A   1      29.926  25.794  25.224  1.00  0.00     0.023 C 
BRANCH   7   9
ATOM      9  C   UNL A   1      32.435  25.780  25.430  1.00  0.00    -0.034 A 
ATOM     10  C   UNL A   1      33.698  26.346  25.613  1.00  0.00     0.005 A 
ATOM     11  C   UNL A   1      32.323  24.406  25.159  1.00  0.00     0.032 A 
ATOM     12  C   UNL A   1      34.840  25.540  25.627  1.00  0.00     0.011 A 
ATOM     13  C   UNL A   1      33.469  23.586  25.221  1.00  0.00     0.058 A 
ATOM     14  C   UNL A   1      34.721  24.141  25.469  1.00  0.00     0.008 A 
ATOM     15  N   UNL A   1      33.607  22.185  25.163  1.00  0.00    -0.274 N 
ATOM     16  C   UNL A   1      35.662  23.077  25.502  1.00  0.00     0.009 A 
ATOM     17  C   UNL A   1      34.980  21.887  25.218  1.00  0.00     0.057 A 
ATOM     18  C   UNL A   1      37.057  23.050  25.722  1.00  0.00     0.031 A 
ATOM     19  C   UNL A   1      35.700  20.690  25.022  1.00  0.00     0.029 A 
ATOM     20  C   UNL A   1      37.749  21.849  25.597  1.00  0.00     0.041 A 
ATOM     21  C   UNL A   1      37.085  20.688  25.232  1.00  0.00     0.023 A 
ATOM     22  Cl  UNL A   1      39.450  21.818  25.859  1.00  0.00    -0.084 Cl
BRANCH  15  23
ATOM     23  C   UNL A   1      32.511  21.274  25.077  1.00  0.00     0.284 C 
ATOM     24  O   UNL A   1      31.474  21.615  25.649  1.00  0.00    -0.266 OA
BRANCH  23  25
ATOM     25  C   UNL A   1      32.525  19.980  24.405  1.00  0.00     0.167 A 
ATOM     26  C   UNL A   1      32.605  18.715  24.948  1.00  0.00     0.231 A 
ATOM     27  N   UNL A   1      32.303  19.858  23.038  1.00  0.00    -0.211 NA
ATOM     28  O   UNL A   1      32.466  17.804  23.941  1.00  0.00    -0.451 OA
ATOM     29  C   UNL A   1      32.264  18.565  22.832  1.00  0.00     0.308 A 
ENDBRANCH  23  25
ENDBRANCH  15  23
ENDBRANCH   7   9
ENDBRANCH   4   7
ENDBRANCH   2   3
ENDBRANCH   1   2
BRANCH   1  30
ATOM     30  C   UNL A   1      34.418  30.217  26.865  1.00  0.00     0.023 C 
BRANCH  30  31
ATOM     31  C   UNL A   1      35.234  29.352  27.815  1.00  0.00     0.116 C 
BRANCH  31  32
ATOM     32  N   UNL A   1      35.241  29.857  29.177  1.00  0.00    -0.352 N 
ATOM     33  C   UNL A   1      36.279  29.914  30.074  1.00  0.00     0.251 C 
ATOM     34  H   UNL A   1      34.381  30.209  29.502  1.00  0.00     0.163 HD
ATOM     35  O   UNL A   1      36.054  30.258  31.231  1.00  0.00    -0.269 OA
BRANCH  33  36
ATOM     36  C   UNL A   1      37.651  29.536  29.660  1.00  0.00     0.039 A 
ATOM     37  C   UNL A   1      38.023  29.730  28.326  1.00  0.00     0.014 A 
ATOM     38  C   UNL A   1      38.560  28.972  30.559  1.00  0.00     0.014 A 
ATOM     39  C   UNL A   1      39.314  29.393  27.906  1.00  0.00     0.010 A 
ATOM     40  C   UNL A   1      39.867  28.705  30.158  1.00  0.00     0.010 A 
ATOM     41  C   UNL A   1      40.251  28.894  28.823  1.00  0.00    -0.014 A 
BRANCH  41  42
ATOM     42  C   UNL A   1      41.624  28.524  28.391  1.00  0.00     0.031 A 
ATOM     43  C   UNL A   1      42.702  29.573  28.328  1.00  0.00     0.074 A 
ATOM     44  C   UNL A   1      41.892  27.258  28.019  1.00  0.00     0.049 A 
ATOM     45  N   UNL A   1      43.955  29.447  27.971  1.00  0.00    -0.248 NA
ATOM     46  C   UNL A   1      42.317  30.949  28.686  1.00  0.00     0.031 C 
ATOM     47  C   UNL A   1      40.923  26.159  27.988  1.00  0.00     0.029 A 
ATOM     48  N   UNL A   1      43.062  26.681  27.596  1.00  0.00    -0.354 N 
ATOM     49  C   UNL A   1      44.499  30.726  28.039  1.00  0.00     0.074 A 
ATOM     50  C   UNL A   1      43.430  31.619  28.424  1.00  0.00     0.031 C 
ATOM     51  C   UNL A   1      41.548  25.034  27.601  1.00  0.00     0.029 A 
ATOM     52  C   UNL A   1      42.951  25.336  27.332  1.00  0.00     0.049 A 
ATOM     53  H   UNL A   1      43.903  27.182  27.490  1.00  0.00     0.167 HD
ATOM     54  C   UNL A   1      45.777  31.119  27.820  1.00  0.00     0.031 A 
ATOM     55  C   UNL A   1      43.877  24.444  26.930  1.00  0.00     0.031 A 
ATOM     56  C   UNL A   1      46.846  30.227  27.463  1.00  0.00     0.049 A 
ATOM     57  C   UNL A   1      45.297  24.896  26.734  1.00  0.00     0.074 A 
ATOM     58  C   UNL A   1      48.187  30.518  27.282  1.00  0.00     0.029 A 
ATOM     59  N   UNL A   1      46.698  28.867  27.239  1.00  0.00    -0.354 N 
ATOM     60  N   UNL A   1      45.806  26.098  26.870  1.00  0.00    -0.248 NA
ATOM     61  C   UNL A   1      46.273  23.866  26.351  1.00  0.00     0.031 C 
ATOM     62  C   UNL A   1      48.844  29.337  26.916  1.00  0.00     0.029 A 
ATOM     63  C   UNL A   1      47.919  28.305  26.913  1.00  0.00     0.049 A 
ATOM     64  H   UNL A   1      45.848  28.373  27.302  1.00  0.00     0.167 HD
ATOM     65  C   UNL A   1      47.168  25.960  26.623  1.00  0.00     0.074 A 
ATOM     66  C   UNL A   1      47.403  24.559  26.339  1.00  0.00     0.031 C 
ATOM     67  C   UNL A   1      48.138  26.908  26.638  1.00  0.00     0.031 A 
BRANCH  54  68
ATOM     68  C   UNL A   1      46.082  32.587  27.963  1.00  0.00    -0.014 A 
ATOM     69  C   UNL A   1      46.514  33.123  29.190  1.00  0.00     0.010 A 
ATOM     70  C   UNL A   1      45.953  33.439  26.851  1.00  0.00     0.010 A 
ATOM     71  C   UNL A   1      46.764  34.492  29.316  1.00  0.00     0.020 A 
ATOM     72  C   UNL A   1      46.228  34.805  26.967  1.00  0.00     0.020 A 
ATOM     73  C   UNL A   1      46.612  35.326  28.204  1.00  0.00     0.054 A 
BRANCH  73  74
ATOM     74  S   UNL A   1      46.949  37.098  28.391  1.00  0.00     0.124 S 
ATOM     75  O   UNL A   1      47.191  37.504  27.009  1.00  0.00    -0.237 OA
ATOM     76  O   UNL A   1      45.714  37.601  28.986  1.00  0.00    -0.237 OA
ATOM     77  O   UNL A   1      48.118  37.138  29.265  1.00  0.00    -0.744 OA
ENDBRANCH  73  74
ENDBRANCH  54  68
BRANCH  55  78
ATOM     78  C   UNL A   1      43.499  23.017  26.740  1.00  0.00    -0.014 A 
ATOM     79  C   UNL A   1      43.774  22.369  25.523  1.00  0.00     0.010 A 
ATOM     80  C   UNL A   1      42.874  22.299  27.773  1.00  0.00     0.010 A 
ATOM     81  C   UNL A   1      43.412  21.032  25.335  1.00  0.00     0.020 A 
ATOM     82  C   UNL A   1      42.532  20.955  27.598  1.00  0.00     0.020 A 
ATOM     83  C   UNL A   1      42.792  20.333  26.374  1.00  0.00     0.054 A 
BRANCH  83  84
ATOM     84  S   UNL A   1      42.376  18.584  26.128  1.00  0.00     0.124 S 
ATOM     85  O   UNL A   1      42.661  18.017  27.441  1.00  0.00    -0.237 OA
ATOM     86  O   UNL A   1      40.965  18.642  25.754  1.00  0.00    -0.237 OA
ATOM     87  O   UNL A   1      43.278  18.169  25.055  1.00  0.00    -0.744 OA
ENDBRANCH  83  84
ENDBRANCH  55  78
BRANCH  67  88
ATOM     88  C   UNL A   1      49.549  26.453  26.386  1.00  0.00    -0.014 A 
ATOM     89  C   UNL A   1      50.120  26.518  25.103  1.00  0.00     0.010 A 
ATOM     90  C   UNL A   1      50.325  25.984  27.462  1.00  0.00     0.010 A 
ATOM     91  C   UNL A   1      51.432  26.083  24.893  1.00  0.00     0.020 A 
ATOM     92  C   UNL A   1      51.645  25.572  27.261  1.00  0.00     0.020 A 
ATOM     93  C   UNL A   1      52.184  25.607  25.973  1.00  0.00     0.054 A 
BRANCH  93  94
ATOM     94  S   UNL A   1      53.892  25.068  25.684  1.00  0.00     0.124 S 
ATOM     95  O   UNL A   1      54.253  25.834  24.495  1.00  0.00    -0.237 OA
ATOM     96  O   UNL A   1      54.569  25.465  26.916  1.00  0.00    -0.237 OA
ATOM     97  O   UNL A   1      53.769  23.626  25.485  1.00  0.00    -0.744 OA
ENDBRANCH  93  94
ENDBRANCH  67  88
ENDBRANCH  41  42
ENDBRANCH  33  36
ENDBRANCH  31  32
ENDBRANCH  30  31
ENDBRANCH   1  30
TORSDOF 17
ENDMDL
MODEL 2
REMARK VINA RESULT:     -12.5      1.576      2.631
REMARK SMILES C[C@H](C(=O)NCCCCNC(=O)c1ccc(-c2c3nc(c(-c4ccc(S(=O)(=O)[O-])cc4)c4ccc([nH]4)c(-c4ccc(S(=O)(=O)[O-])cc4)c4nc(c(-c5ccc(S(=O)(=O)[O-])cc5)c5ccc2[nH]5)C=C4)C=C3)cc1)c1ccc2c3cc(Cl)ccc3n(C(=O)c3cocn3)c2c1
REMARK SMILES IDX 7 1 6 2 5 3 3 4 4 5 2 7 1 8 73 9 74 10 93 11 75 12 92 13
REMARK SMILES IDX 76 14 84 15 77 16 83 17 78 18 82 19 79 20 81 21 80 22 85 23
REMARK SMILES IDX 86 24 87 25 88 26 91 27 89 28 90 29 8 30 9 31 10 32 11 33
REMARK SMILES IDX 12 35 13 36 14 37 72 38 15 39 71 40 16 41 17 42 18 43 65 44
REMARK SMILES IDX 19 45 70 46 64 47 66 48 20 49 69 50 63 51 62 52 21 54 51 55
REMARK SMILES IDX 32 56 50 57 33 58 36 59 49 60 67 61 34 62 35 63 48 65 68 66
REMARK SMILES IDX 37 67 22 68 23 69 31 70 24 71 30 72 25 73 26 74 27 75 28 76
REMARK SMILES IDX 29 77 52 78 53 79 61 80 54 81 60 82 55 83 56 84 57 85 58 86
REMARK SMILES IDX 59 87 38 88 39 89 47 90 40 91 46 92 41 93 42 94 43 95 44 96
REMARK SMILES IDX 45 97
REMARK H PARENT 5 6 10 34 66 53 36 64
REMARK Flexibility Score: inf
ROOT
ATOM      1  C   UNL A   1      34.884  29.268  27.328  1.00  0.00     0.023 C 
ENDROOT
BRANCH   1   2
ATOM      2  C   UNL A   1      33.688  28.618  26.627  1.00  0.00     0.116 C 
BRANCH   2   3
ATOM      3  N   UNL A   1      33.938  28.390  25.213  1.00  0.00    -0.356 N 
ATOM      4  C   UNL A   1      33.194  27.696  24.295  1.00  0.00     0.227 C 
ATOM      5  O   UNL A   1      33.646  27.586  23.154  1.00  0.00    -0.274 OA
ATOM      6  H   UNL A   1      34.764  28.795  24.864  1.00  0.00     0.163 HD
BRANCH   4   7
ATOM      7  C   UNL A   1      31.831  27.108  24.699  1.00  0.00     0.105 C 
ATOM      8  C   UNL A   1      30.674  27.785  23.959  1.00  0.00     0.023 C 
BRANCH   7   9
ATOM      9  C   UNL A   1      31.785  25.596  24.516  1.00  0.00    -0.034 A 
ATOM     10  C   UNL A   1      30.989  25.006  23.532  1.00  0.00     0.005 A 
ATOM     11  C   UNL A   1      32.653  24.797  25.277  1.00  0.00     0.032 A 
ATOM     12  C   UNL A   1      31.123  23.648  23.232  1.00  0.00     0.011 A 
ATOM     13  C   UNL A   1      32.825  23.436  24.942  1.00  0.00     0.058 A 
ATOM     14  C   UNL A   1      32.079  22.863  23.917  1.00  0.00     0.008 A 
ATOM     15  N   UNL A   1      33.738  22.476  25.419  1.00  0.00    -0.274 N 
ATOM     16  C   UNL A   1      32.488  21.508  23.796  1.00  0.00     0.009 A 
ATOM     17  C   UNL A   1      33.443  21.255  24.789  1.00  0.00     0.057 A 
ATOM     18  C   UNL A   1      32.086  20.469  22.928  1.00  0.00     0.031 A 
ATOM     19  C   UNL A   1      33.902  19.939  25.007  1.00  0.00     0.029 A 
ATOM     20  C   UNL A   1      32.600  19.188  23.106  1.00  0.00     0.041 A 
ATOM     21  C   UNL A   1      33.480  18.920  24.143  1.00  0.00     0.023 A 
ATOM     22  Cl  UNL A   1      32.105  17.920  22.052  1.00  0.00    -0.084 Cl
BRANCH  15  23
ATOM     23  C   UNL A   1      34.771  22.751  26.366  1.00  0.00     0.284 C 
ATOM     24  O   UNL A   1      34.405  22.952  27.526  1.00  0.00    -0.266 OA
BRANCH  23  25
ATOM     25  C   UNL A   1      36.197  22.845  26.074  1.00  0.00     0.167 A 
ATOM     26  C   UNL A   1      37.043  23.926  26.194  1.00  0.00     0.231 A 
ATOM     27  N   UNL A   1      36.955  21.727  25.748  1.00  0.00    -0.211 NA
ATOM     28  O   UNL A   1      38.314  23.511  25.919  1.00  0.00    -0.451 OA
ATOM     29  C   UNL A   1      38.184  22.178  25.686  1.00  0.00     0.308 A 
ENDBRANCH  23  25
ENDBRANCH  15  23
ENDBRANCH   7   9
ENDBRANCH   4   7
ENDBRANCH   2   3
ENDBRANCH   1   2
BRANCH   1  30
ATOM     30  C   UNL A   1      34.730  30.759  27.631  1.00  0.00     0.023 C 
BRANCH  30  31
ATOM     31  C   UNL A   1      35.839  31.359  28.484  1.00  0.00     0.116 C 
BRANCH  31  32
ATOM     32  N   UNL A   1      35.698  31.049  29.896  1.00  0.00    -0.352 N 
ATOM     33  C   UNL A   1      36.563  30.379  30.726  1.00  0.00     0.251 C 
ATOM     34  H   UNL A   1      34.865  31.363  30.318  1.00  0.00     0.163 HD
ATOM     35  O   UNL A   1      36.206  30.099  31.866  1.00  0.00    -0.269 OA
BRANCH  33  36
ATOM     36  C   UNL A   1      37.904  29.972  30.241  1.00  0.00     0.039 A 
ATOM     37  C   UNL A   1      38.141  29.964  28.863  1.00  0.00     0.014 A 
ATOM     38  C   UNL A   1      38.913  29.576  31.123  1.00  0.00     0.014 A 
ATOM     39  C   UNL A   1      39.399  29.594  28.375  1.00  0.00     0.010 A 
ATOM     40  C   UNL A   1      40.186  29.280  30.641  1.00  0.00     0.010 A 
ATOM     41  C   UNL A   1      40.437  29.266  29.262  1.00  0.00    -0.014 A 
BRANCH  41  42
ATOM     42  C   UNL A   1      41.776  28.864  28.759  1.00  0.00     0.031 A 
ATOM     43  C   UNL A   1      42.883  29.881  28.668  1.00  0.00     0.074 A 
ATOM     44  C   UNL A   1      41.986  27.599  28.347  1.00  0.00     0.049 A 
ATOM     45  N   UNL A   1      44.113  29.725  28.250  1.00  0.00    -0.248 NA
ATOM     46  C   UNL A   1      42.558  31.259  29.073  1.00  0.00     0.031 C 
ATOM     47  C   UNL A   1      40.982  26.531  28.337  1.00  0.00     0.029 A 
ATOM     48  N   UNL A   1      43.116  26.996  27.858  1.00  0.00    -0.354 N 
ATOM     49  C   UNL A   1      44.700  30.984  28.320  1.00  0.00     0.074 A 
ATOM     50  C   UNL A   1      43.678  31.901  28.775  1.00  0.00     0.031 C 
ATOM     51  C   UNL A   1      41.553  25.397  27.898  1.00  0.00     0.029 A 
ATOM     52  C   UNL A   1      42.951  25.662  27.571  1.00  0.00     0.049 A 
ATOM     53  H   UNL A   1      43.967  27.474  27.724  1.00  0.00     0.167 HD
ATOM     54  C   UNL A   1      45.978  31.343  28.052  1.00  0.00     0.031 A 
ATOM     55  C   UNL A   1      43.829  24.751  27.107  1.00  0.00     0.031 A 
ATOM     56  C   UNL A   1      47.001  30.426  27.627  1.00  0.00     0.049 A 
ATOM     57  C   UNL A   1      45.252  25.164  26.855  1.00  0.00     0.074 A 
ATOM     58  C   UNL A   1      48.341  30.680  27.390  1.00  0.00     0.029 A 
ATOM     59  N   UNL A   1      46.800  29.078  27.380  1.00  0.00    -0.354 N 
ATOM     60  N   UNL A   1      45.805  26.346  26.993  1.00  0.00    -0.248 NA
ATOM     61  C   UNL A   1      46.176  24.114  26.405  1.00  0.00     0.031 C 
ATOM     62  C   UNL A   1      48.943  29.489  26.968  1.00  0.00     0.029 A 
ATOM     63  C   UNL A   1      47.987  28.486  26.986  1.00  0.00     0.049 A 
ATOM     64  H   UNL A   1      45.938  28.609  27.472  1.00  0.00     0.167 HD
ATOM     65  C   UNL A   1      47.149  26.173  26.681  1.00  0.00     0.074 A 
ATOM     66  C   UNL A   1      47.326  24.772  26.355  1.00  0.00     0.031 C 
ATOM     67  C   UNL A   1      48.148  27.090  26.671  1.00  0.00     0.031 A 
BRANCH  54  68
ATOM     68  C   UNL A   1      46.336  32.797  28.212  1.00  0.00    -0.014 A 
ATOM     69  C   UNL A   1      46.813  33.297  29.437  1.00  0.00     0.010 A 
ATOM     70  C   UNL A   1      46.211  33.672  27.118  1.00  0.00     0.010 A 
ATOM     71  C   UNL A   1      47.111  34.654  29.580  1.00  0.00     0.020 A 
ATOM     72  C   UNL A   1      46.535  35.026  27.249  1.00  0.00     0.020 A 
ATOM     73  C   UNL A   1      46.964  35.512  28.486  1.00  0.00     0.054 A 
BRANCH  73  74
ATOM     74  S   UNL A   1      47.365  37.268  28.694  1.00  0.00     0.124 S 
ATOM     75  O   UNL A   1      46.375  37.686  29.683  1.00  0.00    -0.237 OA
ATOM     76  O   UNL A   1      48.746  37.231  29.167  1.00  0.00    -0.237 OA
ATOM     77  O   UNL A   1      47.184  37.826  27.357  1.00  0.00    -0.744 OA
ENDBRANCH  73  74
ENDBRANCH  54  68
BRANCH  55  78
ATOM     78  C   UNL A   1      43.397  23.342  26.904  1.00  0.00    -0.014 A 
ATOM     79  C   UNL A   1      43.098  22.527  28.009  1.00  0.00     0.010 A 
ATOM     80  C   UNL A   1      43.274  22.812  25.608  1.00  0.00     0.010 A 
ATOM     81  C   UNL A   1      42.702  21.199  27.824  1.00  0.00     0.020 A 
ATOM     82  C   UNL A   1      42.856  21.491  25.418  1.00  0.00     0.020 A 
ATOM     83  C   UNL A   1      42.584  20.689  26.528  1.00  0.00     0.054 A 
BRANCH  83  84
ATOM     84  S   UNL A   1      42.019  18.979  26.308  1.00  0.00     0.124 S 
ATOM     85  O   UNL A   1      40.671  19.170  25.786  1.00  0.00    -0.237 OA
ATOM     86  O   UNL A   1      42.995  18.441  25.363  1.00  0.00    -0.237 OA
ATOM     87  O   UNL A   1      42.098  18.419  27.656  1.00  0.00    -0.744 OA
ENDBRANCH  83  84
ENDBRANCH  55  78
BRANCH  67  88
ATOM     88  C   UNL A   1      49.531  26.597  26.344  1.00  0.00    -0.014 A 
ATOM     89  C   UNL A   1      50.069  26.732  25.052  1.00  0.00     0.010 A 
ATOM     90  C   UNL A   1      50.316  26.021  27.359  1.00  0.00     0.010 A 
ATOM     91  C   UNL A   1      51.354  26.261  24.771  1.00  0.00     0.020 A 
ATOM     92  C   UNL A   1      51.611  25.572  27.089  1.00  0.00     0.020 A 
ATOM     93  C   UNL A   1      52.115  25.677  25.791  1.00  0.00     0.054 A 
BRANCH  93  94
ATOM     94  S   UNL A   1      53.790  25.093  25.412  1.00  0.00     0.124 S 
ATOM     95  O   UNL A   1      54.540  25.549  26.578  1.00  0.00    -0.237 OA
ATOM     96  O   UNL A   1      53.611  23.647  25.306  1.00  0.00    -0.237 OA
ATOM     97  O   UNL A   1      54.114  25.768  24.158  1.00  0.00    -0.744 OA
ENDBRANCH  93  94
ENDBRANCH  67  88
ENDBRANCH  41  42
ENDBRANCH  33  36
ENDBRANCH  31  32
ENDBRANCH  30  31
ENDBRANCH   1  30
TORSDOF 17
ENDMDL
MODEL 3
REMARK VINA RESULT:     -12.2      1.597      8.240
REMARK SMILES C[C@H](C(=O)NCCCCNC(=O)c1ccc(-c2c3nc(c(-c4ccc(S(=O)(=O)[O-])cc4)c4ccc([nH]4)c(-c4ccc(S(=O)(=O)[O-])cc4)c4nc(c(-c5ccc(S(=O)(=O)[O-])cc5)c5ccc2[nH]5)C=C4)C=C3)cc1)c1ccc2c3cc(Cl)ccc3n(C(=O)c3cocn3)c2c1
REMARK SMILES IDX 7 1 6 2 5 3 3 4 4 5 2 7 1 8 73 9 74 10 93 11 75 12 92 13
REMARK SMILES IDX 76 14 84 15 77 16 83 17 78 18 82 19 79 20 81 21 80 22 85 23
REMARK SMILES IDX 86 24 87 25 88 26 91 27 89 28 90 29 8 30 9 31 10 32 11 33
REMARK SMILES IDX 12 35 13 36 14 37 72 38 15 39 71 40 16 41 17 42 18 43 65 44
REMARK SMILES IDX 19 45 70 46 64 47 66 48 20 49 69 50 63 51 62 52 21 54 51 55
REMARK SMILES IDX 32 56 50 57 33 58 36 59 49 60 67 61 34 62 35 63 48 65 68 66
REMARK SMILES IDX 37 67 22 68 23 69 31 70 24 71 30 72 25 73 26 74 27 75 28 76
REMARK SMILES IDX 29 77 52 78 53 79 61 80 54 81 60 82 55 83 56 84 57 85 58 86
REMARK SMILES IDX 59 87 38 88 39 89 47 90 40 91 46 92 41 93 42 94 43 95 44 96
REMARK SMILES IDX 45 97
REMARK H PARENT 5 6 10 34 66 53 36 64
REMARK Flexibility Score: inf
ROOT
ATOM      1  C   UNL A   1      32.774  29.358  27.089  1.00  0.00     0.023 C 
ENDROOT
BRANCH   1   2
ATOM      2  C   UNL A   1      32.397  29.760  25.660  1.00  0.00     0.116 C 
BRANCH   2   3
ATOM      3  N   UNL A   1      33.065  28.938  24.665  1.00  0.00    -0.356 N 
ATOM      4  C   UNL A   1      32.717  27.707  24.172  1.00  0.00     0.227 C 
ATOM      5  O   UNL A   1      33.484  27.172  23.368  1.00  0.00    -0.274 OA
ATOM      6  H   UNL A   1      33.889  29.322  24.289  1.00  0.00     0.163 HD
BRANCH   4   7
ATOM      7  C   UNL A   1      31.395  27.052  24.606  1.00  0.00     0.105 C 
ATOM      8  C   UNL A   1      30.195  27.631  23.852  1.00  0.00     0.023 C 
BRANCH   7   9
ATOM      9  C   UNL A   1      31.440  25.535  24.477  1.00  0.00    -0.034 A 
ATOM     10  C   UNL A   1      30.654  24.861  23.540  1.00  0.00     0.005 A 
ATOM     11  C   UNL A   1      32.379  24.819  25.238  1.00  0.00     0.032 A 
ATOM     12  C   UNL A   1      30.866  23.504  23.283  1.00  0.00     0.011 A 
ATOM     13  C   UNL A   1      32.627  23.461  24.945  1.00  0.00     0.058 A 
ATOM     14  C   UNL A   1      31.889  22.806  23.964  1.00  0.00     0.008 A 
ATOM     15  N   UNL A   1      33.614  22.578  25.424  1.00  0.00    -0.274 N 
ATOM     16  C   UNL A   1      32.381  21.476  23.876  1.00  0.00     0.009 A 
ATOM     17  C   UNL A   1      33.378  21.318  24.847  1.00  0.00     0.057 A 
ATOM     18  C   UNL A   1      32.020  20.382  23.058  1.00  0.00     0.031 A 
ATOM     19  C   UNL A   1      33.926  20.043  25.095  1.00  0.00     0.029 A 
ATOM     20  C   UNL A   1      32.619  19.143  23.263  1.00  0.00     0.041 A 
ATOM     21  C   UNL A   1      33.545  18.968  24.281  1.00  0.00     0.023 A 
ATOM     22  Cl  UNL A   1      32.176  17.810  22.270  1.00  0.00    -0.084 Cl
BRANCH  15  23
ATOM     23  C   UNL A   1      34.654  22.952  26.329  1.00  0.00     0.284 C 
ATOM     24  O   UNL A   1      34.298  23.281  27.462  1.00  0.00    -0.266 OA
BRANCH  23  25
ATOM     25  C   UNL A   1      36.078  23.005  26.019  1.00  0.00     0.167 A 
ATOM     26  C   UNL A   1      36.956  24.063  26.127  1.00  0.00     0.231 A 
ATOM     27  N   UNL A   1      36.802  21.867  25.684  1.00  0.00    -0.211 NA
ATOM     28  O   UNL A   1      38.212  23.613  25.836  1.00  0.00    -0.451 OA
ATOM     29  C   UNL A   1      38.041  22.284  25.606  1.00  0.00     0.308 A 
ENDBRANCH  23  25
ENDBRANCH  15  23
ENDBRANCH   7   9
ENDBRANCH   4   7
ENDBRANCH   2   3
ENDBRANCH   1   2
BRANCH   1  30
ATOM     30  C   UNL A   1      34.009  28.466  27.210  1.00  0.00     0.023 C 
BRANCH  30  31
ATOM     31  C   UNL A   1      35.291  29.191  27.598  1.00  0.00     0.116 C 
BRANCH  31  32
ATOM     32  N   UNL A   1      35.251  29.727  28.947  1.00  0.00    -0.352 N 
ATOM     33  C   UNL A   1      36.276  29.882  29.848  1.00  0.00     0.251 C 
ATOM     34  H   UNL A   1      34.365  30.022  29.259  1.00  0.00     0.163 HD
ATOM     35  O   UNL A   1      36.019  30.235  30.994  1.00  0.00    -0.269 OA
BRANCH  33  36
ATOM     36  C   UNL A   1      37.675  29.596  29.449  1.00  0.00     0.039 A 
ATOM     37  C   UNL A   1      38.520  28.976  30.375  1.00  0.00     0.014 A 
ATOM     38  C   UNL A   1      38.167  29.954  28.191  1.00  0.00     0.014 A 
ATOM     39  C   UNL A   1      39.842  28.683  30.024  1.00  0.00     0.010 A 
ATOM     40  C   UNL A   1      39.460  29.596  27.817  1.00  0.00     0.010 A 
ATOM     41  C   UNL A   1      40.317  28.976  28.737  1.00  0.00    -0.014 A 
BRANCH  41  42
ATOM     42  C   UNL A   1      41.721  28.678  28.352  1.00  0.00     0.031 A 
ATOM     43  C   UNL A   1      42.109  27.284  27.935  1.00  0.00     0.074 A 
ATOM     44  C   UNL A   1      42.654  29.648  28.415  1.00  0.00     0.049 A 
ATOM     45  N   UNL A   1      43.281  26.828  27.572  1.00  0.00    -0.248 NA
ATOM     46  C   UNL A   1      41.049  26.262  27.956  1.00  0.00     0.031 C 
ATOM     47  C   UNL A   1      42.417  31.027  28.850  1.00  0.00     0.029 A 
ATOM     48  N   UNL A   1      43.991  29.621  28.111  1.00  0.00    -0.354 N 
ATOM     49  C   UNL A   1      43.104  25.468  27.344  1.00  0.00     0.074 A 
ATOM     50  C   UNL A   1      41.726  25.163  27.655  1.00  0.00     0.031 C 
ATOM     51  C   UNL A   1      43.564  31.721  28.751  1.00  0.00     0.029 A 
ATOM     52  C   UNL A   1      44.619  30.833  28.272  1.00  0.00     0.049 A 
ATOM     53  H   UNL A   1      44.458  28.809  27.806  1.00  0.00     0.167 HD
ATOM     54  C   UNL A   1      44.001  24.557  26.896  1.00  0.00     0.031 A 
ATOM     55  C   UNL A   1      45.898  31.192  28.049  1.00  0.00     0.031 A 
ATOM     56  C   UNL A   1      45.365  24.865  26.560  1.00  0.00     0.049 A 
ATOM     57  C   UNL A   1      46.866  30.174  27.514  1.00  0.00     0.074 A 
ATOM     58  C   UNL A   1      46.335  24.026  26.037  1.00  0.00     0.029 A 
ATOM     59  N   UNL A   1      45.952  26.112  26.706  1.00  0.00    -0.354 N 
ATOM     60  N   UNL A   1      46.661  28.907  27.239  1.00  0.00    -0.248 NA
ATOM     61  C   UNL A   1      48.231  30.640  27.236  1.00  0.00     0.031 C 
ATOM     62  C   UNL A   1      47.518  24.760  25.900  1.00  0.00     0.029 A 
ATOM     63  C   UNL A   1      47.272  26.066  26.294  1.00  0.00     0.049 A 
ATOM     64  H   UNL A   1      45.496  26.914  27.053  1.00  0.00     0.167 HD
ATOM     65  C   UNL A   1      47.863  28.434  26.724  1.00  0.00     0.074 A 
ATOM     66  C   UNL A   1      48.785  29.552  26.717  1.00  0.00     0.031 C 
ATOM     67  C   UNL A   1      48.174  27.188  26.288  1.00  0.00     0.031 A 
BRANCH  54  68
ATOM     68  C   UNL A   1      43.527  23.135  26.745  1.00  0.00    -0.014 A 
ATOM     69  C   UNL A   1      43.131  22.379  27.864  1.00  0.00     0.010 A 
ATOM     70  C   UNL A   1      43.458  22.553  25.466  1.00  0.00     0.010 A 
ATOM     71  C   UNL A   1      42.723  21.052  27.712  1.00  0.00     0.020 A 
ATOM     72  C   UNL A   1      43.023  21.233  25.308  1.00  0.00     0.020 A 
ATOM     73  C   UNL A   1      42.678  20.485  26.435  1.00  0.00     0.054 A 
BRANCH  73  74
ATOM     74  S   UNL A   1      42.138  18.762  26.264  1.00  0.00     0.124 S 
ATOM     75  O   UNL A   1      40.788  18.924  25.730  1.00  0.00    -0.237 OA
ATOM     76  O   UNL A   1      43.118  18.207  25.335  1.00  0.00    -0.237 OA
ATOM     77  O   UNL A   1      42.210  18.239  27.626  1.00  0.00    -0.744 OA
ENDBRANCH  73  74
ENDBRANCH  54  68
BRANCH  55  78
ATOM     78  C   UNL A   1      46.325  32.599  28.282  1.00  0.00    -0.014 A 
ATOM     79  C   UNL A   1      46.282  33.534  27.232  1.00  0.00     0.010 A 
ATOM     80  C   UNL A   1      46.764  33.012  29.551  1.00  0.00     0.010 A 
ATOM     81  C   UNL A   1      46.691  34.854  27.443  1.00  0.00     0.020 A 
ATOM     82  C   UNL A   1      47.152  34.337  29.771  1.00  0.00     0.020 A 
ATOM     83  C   UNL A   1      47.125  35.247  28.712  1.00  0.00     0.054 A 
BRANCH  83  84
ATOM     84  S   UNL A   1      47.603  36.978  28.976  1.00  0.00     0.124 S 
ATOM     85  O   UNL A   1      47.153  37.608  27.740  1.00  0.00    -0.237 OA
ATOM     86  O   UNL A   1      46.854  37.334  30.179  1.00  0.00    -0.237 OA
ATOM     87  O   UNL A   1      49.051  36.906  29.154  1.00  0.00    -0.744 OA
ENDBRANCH  83  84
ENDBRANCH  55  78
BRANCH  67  88
ATOM     88  C   UNL A   1      49.552  26.980  25.723  1.00  0.00    -0.014 A 
ATOM     89  C   UNL A   1      49.849  27.297  24.386  1.00  0.00     0.010 A 
ATOM     90  C   UNL A   1      50.573  26.489  26.557  1.00  0.00     0.010 A 
ATOM     91  C   UNL A   1      51.136  27.088  23.882  1.00  0.00     0.020 A 
ATOM     92  C   UNL A   1      51.867  26.302  26.064  1.00  0.00     0.020 A 
ATOM     93  C   UNL A   1      52.135  26.586  24.723  1.00  0.00     0.054 A 
BRANCH  93  94
ATOM     94  S   UNL A   1      53.805  26.343  24.056  1.00  0.00     0.124 S 
ATOM     95  O   UNL A   1      54.454  27.605  24.401  1.00  0.00    -0.237 OA
ATOM     96  O   UNL A   1      54.279  25.172  24.790  1.00  0.00    -0.237 OA
ATOM     97  O   UNL A   1      53.577  26.127  22.629  1.00  0.00    -0.744 OA
ENDBRANCH  93  94
ENDBRANCH  67  88
ENDBRANCH  41  42
ENDBRANCH  33  36
ENDBRANCH  31  32
ENDBRANCH  30  31
ENDBRANCH   1  30
TORSDOF 17
ENDMDL
