MODEL 1
REMARK VINA RESULT:     -12.7      0.000      0.000
REMARK SMILES CN1C(=O)C[C@@H](C(=O)NCCCCNC(=O)c2ccc(-c3c4nc(c(-c5ccc(S(=O)(=O)[O-])cc5)c5ccc([nH]5)c(-c5ccc(S(=O)(=O)[O-])cc5)c5nc(c(-c6ccc(S(=O)(=O)[O-])cc6)c6ccc3[nH]6)C=C5)C=C4)cc2)C12CCN(c1ccc(Cl)cn1)CC2
REMARK SMILES IDX 12 1 11 2 10 3 9 4 7 5 8 6 6 8 1 9 2 10 3 11 77 12 4 13 5 14
REMARK SMILES IDX 78 15 89 16 79 17 88 18 80 19 81 20 82 21 87 22 83 23 86 24
REMARK SMILES IDX 84 25 85 26 13 27 14 28 15 29 16 31 17 32 18 33 76 34 19 35
REMARK SMILES IDX 75 36 20 37 21 38 22 39 69 40 23 41 74 42 68 43 70 44 24 45
REMARK SMILES IDX 73 46 67 47 66 48 25 50 55 51 36 52 54 53 37 54 40 55 53 56
REMARK SMILES IDX 71 57 38 58 39 59 52 61 72 62 41 63 26 64 27 65 35 66 28 67
REMARK SMILES IDX 34 68 29 69 30 70 31 71 32 72 33 73 56 74 57 75 65 76 58 77
REMARK SMILES IDX 64 78 59 79 60 80 61 81 62 82 63 83 42 84 43 85 51 86 44 87
REMARK SMILES IDX 50 88 45 89 46 90 47 91 48 92 49 93
REMARK H PARENT 9 7 14 30 70 49 40 60
REMARK Flexibility Score: inf
ROOT
ATOM      1  C   UNL A   1      33.884  28.851  27.162  1.00  0.00     0.023 C 
ENDROOT
BRANCH   1   2
ATOM      2  C   UNL A   1      32.887  29.877  26.633  1.00  0.00     0.023 C 
BRANCH   2   3
ATOM      3  C   UNL A   1      32.302  29.542  25.259  1.00  0.00     0.116 C 
BRANCH   3   4
ATOM      4  N   UNL A   1      33.305  29.354  24.225  1.00  0.00    -0.356 N 
ATOM      5  C   UNL A   1      33.400  28.525  23.156  1.00  0.00     0.226 C 
ATOM      6  O   UNL A   1      34.402  28.670  22.444  1.00  0.00    -0.275 OA
ATOM      7  H   UNL A   1      34.079  29.954  24.321  1.00  0.00     0.163 HD
BRANCH   5   8
ATOM      8  C   UNL A   1      32.403  27.423  22.791  1.00  0.00     0.113 C 
ATOM      9  C   UNL A   1      30.287  26.209  25.627  1.00  0.00     0.147 C 
ATOM     10  N   UNL A   1      30.858  26.738  24.403  1.00  0.00    -0.339 N 
ATOM     11  C   UNL A   1      30.138  27.566  23.552  1.00  0.00     0.223 C 
ATOM     12  C   UNL A   1      32.144  26.302  23.828  1.00  0.00     0.058 C 
ATOM     13  O   UNL A   1      28.989  27.947  23.706  1.00  0.00    -0.275 OA
ATOM     14  C   UNL A   1      31.026  27.963  22.405  1.00  0.00     0.116 C 
ATOM     15  C   UNL A   1      33.269  26.147  24.874  1.00  0.00     0.051 C 
ATOM     16  C   UNL A   1      31.913  24.932  23.106  1.00  0.00     0.051 C 
ATOM     17  C   UNL A   1      34.514  25.499  24.299  1.00  0.00     0.120 C 
ATOM     18  C   UNL A   1      33.205  24.222  22.662  1.00  0.00     0.120 C 
ATOM     19  N   UNL A   1      34.104  24.205  23.798  1.00  0.00    -0.356 N 
BRANCH  19  20
ATOM     20  C   UNL A   1      34.862  23.101  24.110  1.00  0.00     0.128 A 
ATOM     21  C   UNL A   1      36.247  23.138  23.906  1.00  0.00     0.048 A 
ATOM     22  N   UNL A   1      34.264  22.006  24.620  1.00  0.00    -0.238 NA
ATOM     23  C   UNL A   1      37.035  22.026  24.195  1.00  0.00     0.026 A 
ATOM     24  C   UNL A   1      35.044  20.922  24.866  1.00  0.00     0.134 A 
ATOM     25  C   UNL A   1      36.416  20.885  24.673  1.00  0.00     0.059 A 
ATOM     26  Cl  UNL A   1      37.329  19.477  25.021  1.00  0.00    -0.083 Cl
ENDBRANCH  19  20
ENDBRANCH   5   8
ENDBRANCH   3   4
ENDBRANCH   2   3
ENDBRANCH   1   2
BRANCH   1  27
ATOM     27  C   UNL A   1      35.244  29.436  27.510  1.00  0.00     0.116 C 
BRANCH  27  28
ATOM     28  N   UNL A   1      35.268  30.050  28.831  1.00  0.00    -0.352 N 
ATOM     29  C   UNL A   1      36.283  30.057  29.754  1.00  0.00     0.251 C 
ATOM     30  H   UNL A   1      34.447  30.523  29.098  1.00  0.00     0.163 HD
ATOM     31  O   UNL A   1      36.094  30.481  30.889  1.00  0.00    -0.269 OA
BRANCH  29  32
ATOM     32  C   UNL A   1      37.595  29.519  29.356  1.00  0.00     0.039 A 
ATOM     33  C   UNL A   1      38.004  29.634  28.027  1.00  0.00     0.014 A 
ATOM     34  C   UNL A   1      38.441  28.969  30.323  1.00  0.00     0.014 A 
ATOM     35  C   UNL A   1      39.298  29.252  27.679  1.00  0.00     0.010 A 
ATOM     36  C   UNL A   1      39.754  28.675  29.992  1.00  0.00     0.010 A 
ATOM     37  C   UNL A   1      40.193  28.805  28.667  1.00  0.00    -0.014 A 
BRANCH  37  38
ATOM     38  C   UNL A   1      41.590  28.444  28.338  1.00  0.00     0.031 A 
ATOM     39  C   UNL A   1      42.652  29.508  28.347  1.00  0.00     0.074 A 
ATOM     40  C   UNL A   1      41.885  27.184  27.963  1.00  0.00     0.049 A 
ATOM     41  N   UNL A   1      43.915  29.416  28.019  1.00  0.00    -0.248 NA
ATOM     42  C   UNL A   1      42.230  30.863  28.743  1.00  0.00     0.031 C 
ATOM     43  C   UNL A   1      40.929  26.078  27.874  1.00  0.00     0.029 A 
ATOM     44  N   UNL A   1      43.076  26.623  27.583  1.00  0.00    -0.354 N 
ATOM     45  C   UNL A   1      44.429  30.701  28.144  1.00  0.00     0.074 A 
ATOM     46  C   UNL A   1      43.331  31.563  28.521  1.00  0.00     0.031 C 
ATOM     47  C   UNL A   1      41.580  24.962  27.505  1.00  0.00     0.029 A 
ATOM     48  C   UNL A   1      42.988  25.283  27.293  1.00  0.00     0.049 A 
ATOM     49  H   UNL A   1      43.917  27.132  27.523  1.00  0.00     0.167 HD
ATOM     50  C   UNL A   1      45.705  31.122  27.984  1.00  0.00     0.031 A 
ATOM     51  C   UNL A   1      43.937  24.410  26.904  1.00  0.00     0.031 A 
ATOM     52  C   UNL A   1      46.795  30.254  27.632  1.00  0.00     0.049 A 
ATOM     53  C   UNL A   1      45.349  24.898  26.737  1.00  0.00     0.074 A 
ATOM     54  C   UNL A   1      48.137  30.563  27.502  1.00  0.00     0.029 A 
ATOM     55  N   UNL A   1      46.665  28.900  27.357  1.00  0.00    -0.354 N 
ATOM     56  N   UNL A   1      45.830  26.106  26.917  1.00  0.00    -0.248 NA
ATOM     57  C   UNL A   1      46.348  23.903  26.325  1.00  0.00     0.031 C 
ATOM     58  C   UNL A   1      48.814  29.403  27.110  1.00  0.00     0.029 A 
ATOM     59  C   UNL A   1      47.901  28.362  27.042  1.00  0.00     0.049 A 
ATOM     60  H   UNL A   1      45.820  28.397  27.383  1.00  0.00     0.167 HD
ATOM     61  C   UNL A   1      47.194  26.011  26.668  1.00  0.00     0.074 A 
ATOM     62  C   UNL A   1      47.461  24.625  26.334  1.00  0.00     0.031 C 
ATOM     63  C   UNL A   1      48.142  26.980  26.714  1.00  0.00     0.031 A 
BRANCH  50  64
ATOM     64  C   UNL A   1      45.975  32.588  28.190  1.00  0.00    -0.014 A 
ATOM     65  C   UNL A   1      45.796  33.513  27.144  1.00  0.00     0.010 A 
ATOM     66  C   UNL A   1      46.422  33.049  29.441  1.00  0.00     0.010 A 
ATOM     67  C   UNL A   1      46.118  34.860  27.327  1.00  0.00     0.020 A 
ATOM     68  C   UNL A   1      46.716  34.402  29.637  1.00  0.00     0.020 A 
ATOM     69  C   UNL A   1      46.585  35.294  28.570  1.00  0.00     0.054 A 
BRANCH  69  70
ATOM     70  S   UNL A   1      47.004  37.046  28.781  1.00  0.00     0.124 S 
ATOM     71  O   UNL A   1      46.883  37.548  27.414  1.00  0.00    -0.237 OA
ATOM     72  O   UNL A   1      45.980  37.513  29.712  1.00  0.00    -0.237 OA
ATOM     73  O   UNL A   1      48.362  37.015  29.316  1.00  0.00    -0.744 OA
ENDBRANCH  69  70
ENDBRANCH  50  64
BRANCH  51  74
ATOM     74  C   UNL A   1      43.589  22.980  26.690  1.00  0.00    -0.014 A 
ATOM     75  C   UNL A   1      44.015  22.319  25.523  1.00  0.00     0.010 A 
ATOM     76  C   UNL A   1      42.855  22.266  27.653  1.00  0.00     0.010 A 
ATOM     77  C   UNL A   1      43.701  20.972  25.318  1.00  0.00     0.020 A 
ATOM     78  C   UNL A   1      42.559  20.913  27.461  1.00  0.00     0.020 A 
ATOM     79  C   UNL A   1      42.976  20.277  26.289  1.00  0.00     0.054 A 
BRANCH  79  80
ATOM     80  S   UNL A   1      42.631  18.515  26.027  1.00  0.00     0.124 S 
ATOM     81  O   UNL A   1      42.997  17.939  27.318  1.00  0.00    -0.237 OA
ATOM     82  O   UNL A   1      41.205  18.515  25.715  1.00  0.00    -0.237 OA
ATOM     83  O   UNL A   1      43.505  18.159  24.911  1.00  0.00    -0.744 OA
ENDBRANCH  79  80
ENDBRANCH  51  74
BRANCH  63  84
ATOM     84  C   UNL A   1      49.560  26.568  26.431  1.00  0.00    -0.014 A 
ATOM     85  C   UNL A   1      50.332  25.905  27.400  1.00  0.00     0.010 A 
ATOM     86  C   UNL A   1      50.104  26.798  25.155  1.00  0.00     0.010 A 
ATOM     87  C   UNL A   1      51.638  25.505  27.106  1.00  0.00     0.020 A 
ATOM     88  C   UNL A   1      51.400  26.377  24.849  1.00  0.00     0.020 A 
ATOM     89  C   UNL A   1      52.163  25.744  25.833  1.00  0.00     0.054 A 
BRANCH  89  90
ATOM     90  S   UNL A   1      53.843  25.173  25.459  1.00  0.00     0.124 S 
ATOM     91  O   UNL A   1      54.007  25.599  24.072  1.00  0.00    -0.237 OA
ATOM     92  O   UNL A   1      54.654  25.894  26.437  1.00  0.00    -0.237 OA
ATOM     93  O   UNL A   1      53.771  23.728  25.664  1.00  0.00    -0.744 OA
ENDBRANCH  89  90
ENDBRANCH  63  84
ENDBRANCH  37  38
ENDBRANCH  29  32
ENDBRANCH  27  28
ENDBRANCH   1  27
TORSDOF 15
ENDMDL
MODEL 2
REMARK VINA RESULT:     -12.4      6.136     10.547
REMARK SMILES CN1C(=O)C[C@@H](C(=O)NCCCCNC(=O)c2ccc(-c3c4nc(c(-c5ccc(S(=O)(=O)[O-])cc5)c5ccc([nH]5)c(-c5ccc(S(=O)(=O)[O-])cc5)c5nc(c(-c6ccc(S(=O)(=O)[O-])cc6)c6ccc3[nH]6)C=C5)C=C4)cc2)C12CCN(c1ccc(Cl)cn1)CC2
REMARK SMILES IDX 12 1 11 2 10 3 9 4 7 5 8 6 6 8 1 9 2 10 3 11 77 12 4 13 5 14
REMARK SMILES IDX 78 15 89 16 79 17 88 18 80 19 81 20 82 21 87 22 83 23 86 24
REMARK SMILES IDX 84 25 85 26 13 27 14 28 15 29 16 31 17 32 18 33 76 34 19 35
REMARK SMILES IDX 75 36 20 37 21 38 22 39 69 40 23 41 74 42 68 43 70 44 24 45
REMARK SMILES IDX 73 46 67 47 66 48 25 50 55 51 36 52 54 53 37 54 40 55 53 56
REMARK SMILES IDX 71 57 38 58 39 59 52 61 72 62 41 63 26 64 27 65 35 66 28 67
REMARK SMILES IDX 34 68 29 69 30 70 31 71 32 72 33 73 56 74 57 75 65 76 58 77
REMARK SMILES IDX 64 78 59 79 60 80 61 81 62 82 63 83 42 84 43 85 51 86 44 87
REMARK SMILES IDX 50 88 45 89 46 90 47 91 48 92 49 93
REMARK H PARENT 9 7 14 30 70 49 40 60
REMARK Flexibility Score: inf
ROOT
ATOM      1  C   UNL A   1      32.610  30.642  27.235  1.00  0.00     0.023 C 
ENDROOT
BRANCH   1   2
ATOM      2  C   UNL A   1      31.566  30.860  26.143  1.00  0.00     0.023 C 
BRANCH   2   3
ATOM      3  C   UNL A   1      31.458  29.715  25.133  1.00  0.00     0.116 C 
BRANCH   3   4
ATOM      4  N   UNL A   1      32.660  29.516  24.343  1.00  0.00    -0.356 N 
ATOM      5  C   UNL A   1      32.996  28.649  23.355  1.00  0.00     0.226 C 
ATOM      6  O   UNL A   1      34.122  28.797  22.864  1.00  0.00    -0.275 OA
ATOM      7  H   UNL A   1      33.383  30.142  24.572  1.00  0.00     0.163 HD
BRANCH   5   8
ATOM      8  C   UNL A   1      32.122  27.504  22.838  1.00  0.00     0.113 C 
ATOM      9  C   UNL A   1      29.890  25.943  25.403  1.00  0.00     0.147 C 
ATOM     10  N   UNL A   1      30.513  26.597  24.267  1.00  0.00    -0.339 N 
ATOM     11  C   UNL A   1      29.800  27.426  23.413  1.00  0.00     0.223 C 
ATOM     12  C   UNL A   1      31.871  26.299  23.777  1.00  0.00     0.058 C 
ATOM     13  O   UNL A   1      28.615  27.709  23.492  1.00  0.00    -0.275 OA
ATOM     14  C   UNL A   1      30.742  27.966  22.372  1.00  0.00     0.116 C 
ATOM     15  C   UNL A   1      32.919  26.154  24.902  1.00  0.00     0.051 C 
ATOM     16  C   UNL A   1      31.808  24.968  22.953  1.00  0.00     0.051 C 
ATOM     17  C   UNL A   1      34.253  25.642  24.395  1.00  0.00     0.120 C 
ATOM     18  C   UNL A   1      33.183  24.388  22.576  1.00  0.00     0.120 C 
ATOM     19  N   UNL A   1      33.988  24.359  23.781  1.00  0.00    -0.356 N 
BRANCH  19  20
ATOM     20  C   UNL A   1      34.804  23.295  24.085  1.00  0.00     0.128 A 
ATOM     21  C   UNL A   1      36.124  23.285  23.618  1.00  0.00     0.048 A 
ATOM     22  N   UNL A   1      34.327  22.286  24.841  1.00  0.00    -0.238 NA
ATOM     23  C   UNL A   1      36.965  22.211  23.895  1.00  0.00     0.026 A 
ATOM     24  C   UNL A   1      35.152  21.232  25.074  1.00  0.00     0.134 A 
ATOM     25  C   UNL A   1      36.462  21.152  24.629  1.00  0.00     0.059 A 
ATOM     26  Cl  UNL A   1      37.441  19.789  24.980  1.00  0.00    -0.083 Cl
ENDBRANCH  19  20
ENDBRANCH   5   8
ENDBRANCH   3   4
ENDBRANCH   2   3
ENDBRANCH   1   2
BRANCH   1  27
ATOM     27  C   UNL A   1      33.698  31.704  27.265  1.00  0.00     0.116 C 
BRANCH  27  28
ATOM     28  N   UNL A   1      33.170  33.041  27.508  1.00  0.00    -0.352 N 
ATOM     29  C   UNL A   1      33.488  33.917  28.514  1.00  0.00     0.251 C 
ATOM     30  H   UNL A   1      32.495  33.356  26.865  1.00  0.00     0.163 HD
ATOM     31  O   UNL A   1      32.839  34.945  28.677  1.00  0.00    -0.269 OA
BRANCH  29  32
ATOM     32  C   UNL A   1      34.610  33.581  29.407  1.00  0.00     0.039 A 
ATOM     33  C   UNL A   1      34.380  32.755  30.508  1.00  0.00     0.014 A 
ATOM     34  C   UNL A   1      35.898  34.031  29.102  1.00  0.00     0.014 A 
ATOM     35  C   UNL A   1      35.463  32.325  31.273  1.00  0.00     0.010 A 
ATOM     36  C   UNL A   1      36.979  33.530  29.809  1.00  0.00     0.010 A 
ATOM     37  C   UNL A   1      36.773  32.680  30.905  1.00  0.00    -0.014 A 
BRANCH  37  38
ATOM     38  C   UNL A   1      37.948  32.195  31.664  1.00  0.00     0.031 A 
ATOM     39  C   UNL A   1      38.743  31.034  31.135  1.00  0.00     0.074 A 
ATOM     40  C   UNL A   1      38.249  32.747  32.855  1.00  0.00     0.049 A 
ATOM     41  N   UNL A   1      39.756  30.412  31.681  1.00  0.00    -0.248 NA
ATOM     42  C   UNL A   1      38.322  30.477  29.838  1.00  0.00     0.031 C 
ATOM     43  C   UNL A   1      37.521  33.848  33.490  1.00  0.00     0.029 A 
ATOM     44  N   UNL A   1      39.247  32.452  33.747  1.00  0.00    -0.354 N 
ATOM     45  C   UNL A   1      40.074  29.378  30.808  1.00  0.00     0.074 A 
ATOM     46  C   UNL A   1      39.112  29.421  29.729  1.00  0.00     0.031 C 
ATOM     47  C   UNL A   1      38.124  34.163  34.649  1.00  0.00     0.029 A 
ATOM     48  C   UNL A   1      39.252  33.262  34.857  1.00  0.00     0.049 A 
ATOM     49  H   UNL A   1      39.901  31.730  33.605  1.00  0.00     0.167 HD
ATOM     50  C   UNL A   1      41.090  28.488  30.884  1.00  0.00     0.031 A 
ATOM     51  C   UNL A   1      40.077  33.276  35.922  1.00  0.00     0.031 A 
ATOM     52  C   UNL A   1      42.056  28.466  31.948  1.00  0.00     0.049 A 
ATOM     53  C   UNL A   1      41.202  32.281  35.984  1.00  0.00     0.074 A 
ATOM     54  C   UNL A   1      43.161  27.647  32.095  1.00  0.00     0.029 A 
ATOM     55  N   UNL A   1      42.032  29.310  33.050  1.00  0.00    -0.354 N 
ATOM     56  N   UNL A   1      41.525  31.348  35.120  1.00  0.00    -0.248 NA
ATOM     57  C   UNL A   1      42.081  32.349  37.159  1.00  0.00     0.031 C 
ATOM     58  C   UNL A   1      43.783  27.969  33.306  1.00  0.00     0.029 A 
ATOM     59  C   UNL A   1      43.093  29.021  33.889  1.00  0.00     0.049 A 
ATOM     60  H   UNL A   1      41.360  30.011  33.210  1.00  0.00     0.167 HD
ATOM     61  C   UNL A   1      42.661  30.735  35.634  1.00  0.00     0.074 A 
ATOM     62  C   UNL A   1      42.974  31.411  36.878  1.00  0.00     0.031 C 
ATOM     63  C   UNL A   1      43.385  29.708  35.121  1.00  0.00     0.031 A 
BRANCH  50  64
ATOM     64  C   UNL A   1      41.195  27.469  29.781  1.00  0.00    -0.014 A 
ATOM     65  C   UNL A   1      40.144  26.568  29.522  1.00  0.00     0.010 A 
ATOM     66  C   UNL A   1      42.361  27.402  28.997  1.00  0.00     0.010 A 
ATOM     67  C   UNL A   1      40.282  25.582  28.543  1.00  0.00     0.020 A 
ATOM     68  C   UNL A   1      42.489  26.436  27.996  1.00  0.00     0.020 A 
ATOM     69  C   UNL A   1      41.458  25.517  27.792  1.00  0.00     0.054 A 
BRANCH  69  70
ATOM     70  S   UNL A   1      41.616  24.222  26.532  1.00  0.00     0.124 S 
ATOM     71  O   UNL A   1      42.394  23.208  27.241  1.00  0.00    -0.237 OA
ATOM     72  O   UNL A   1      40.226  23.867  26.258  1.00  0.00    -0.237 OA
ATOM     73  O   UNL A   1      42.313  24.889  25.436  1.00  0.00    -0.744 OA
ENDBRANCH  69  70
ENDBRANCH  50  64
BRANCH  51  74
ATOM     74  C   UNL A   1      39.894  34.295  36.990  1.00  0.00    -0.014 A 
ATOM     75  C   UNL A   1      40.498  35.560  36.869  1.00  0.00     0.010 A 
ATOM     76  C   UNL A   1      39.100  34.020  38.118  1.00  0.00     0.010 A 
ATOM     77  C   UNL A   1      40.324  36.526  37.863  1.00  0.00     0.020 A 
ATOM     78  C   UNL A   1      38.905  34.994  39.103  1.00  0.00     0.020 A 
ATOM     79  C   UNL A   1      39.526  36.238  38.973  1.00  0.00     0.054 A 
BRANCH  79  80
ATOM     80  S   UNL A   1      39.267  37.529  40.222  1.00  0.00     0.124 S 
ATOM     81  O   UNL A   1      38.203  38.326  39.618  1.00  0.00    -0.237 OA
ATOM     82  O   UNL A   1      38.888  36.756  41.401  1.00  0.00    -0.237 OA
ATOM     83  O   UNL A   1      40.569  38.185  40.310  1.00  0.00    -0.744 OA
ENDBRANCH  79  80
ENDBRANCH  51  74
BRANCH  63  84
ATOM     84  C   UNL A   1      44.604  29.277  35.888  1.00  0.00    -0.014 A 
ATOM     85  C   UNL A   1      45.857  29.869  35.655  1.00  0.00     0.010 A 
ATOM     86  C   UNL A   1      44.478  28.305  36.897  1.00  0.00     0.010 A 
ATOM     87  C   UNL A   1      46.971  29.475  36.399  1.00  0.00     0.020 A 
ATOM     88  C   UNL A   1      45.585  27.926  37.660  1.00  0.00     0.020 A 
ATOM     89  C   UNL A   1      46.828  28.505  37.396  1.00  0.00     0.054 A 
BRANCH  89  90
ATOM     90  S   UNL A   1      48.279  28.043  38.381  1.00  0.00     0.124 S 
ATOM     91  O   UNL A   1      47.680  27.742  39.679  1.00  0.00    -0.237 OA
ATOM     92  O   UNL A   1      48.811  26.895  37.653  1.00  0.00    -0.237 OA
ATOM     93  O   UNL A   1      49.118  29.239  38.344  1.00  0.00    -0.744 OA
ENDBRANCH  89  90
ENDBRANCH  63  84
ENDBRANCH  37  38
ENDBRANCH  29  32
ENDBRANCH  27  28
ENDBRANCH   1  27
TORSDOF 15
ENDMDL
MODEL 3
REMARK VINA RESULT:     -12.4      6.000      7.709
REMARK SMILES CN1C(=O)C[C@@H](C(=O)NCCCCNC(=O)c2ccc(-c3c4nc(c(-c5ccc(S(=O)(=O)[O-])cc5)c5ccc([nH]5)c(-c5ccc(S(=O)(=O)[O-])cc5)c5nc(c(-c6ccc(S(=O)(=O)[O-])cc6)c6ccc3[nH]6)C=C5)C=C4)cc2)C12CCN(c1ccc(Cl)cn1)CC2
REMARK SMILES IDX 12 1 11 2 10 3 9 4 7 5 8 6 6 8 1 9 2 10 3 11 77 12 4 13 5 14
REMARK SMILES IDX 78 15 89 16 79 17 88 18 80 19 81 20 82 21 87 22 83 23 86 24
REMARK SMILES IDX 84 25 85 26 13 27 14 28 15 29 16 31 17 32 18 33 76 34 19 35
REMARK SMILES IDX 75 36 20 37 21 38 22 39 69 40 23 41 74 42 68 43 70 44 24 45
REMARK SMILES IDX 73 46 67 47 66 48 25 50 55 51 36 52 54 53 37 54 40 55 53 56
REMARK SMILES IDX 71 57 38 58 39 59 52 61 72 62 41 63 26 64 27 65 35 66 28 67
REMARK SMILES IDX 34 68 29 69 30 70 31 71 32 72 33 73 56 74 57 75 65 76 58 77
REMARK SMILES IDX 64 78 59 79 60 80 61 81 62 82 63 83 42 84 43 85 51 86 44 87
REMARK SMILES IDX 50 88 45 89 46 90 47 91 48 92 49 93
REMARK H PARENT 9 7 14 30 70 49 40 60
REMARK Flexibility Score: inf
ROOT
ATOM      1  C   UNL A   1      32.784  30.505  27.267  1.00  0.00     0.023 C 
ENDROOT
BRANCH   1   2
ATOM      2  C   UNL A   1      31.725  30.767  26.201  1.00  0.00     0.023 C 
BRANCH   2   3
ATOM      3  C   UNL A   1      31.572  29.645  25.171  1.00  0.00     0.116 C 
BRANCH   3   4
ATOM      4  N   UNL A   1      32.734  29.472  24.317  1.00  0.00    -0.356 N 
ATOM      5  C   UNL A   1      33.024  28.631  23.293  1.00  0.00     0.226 C 
ATOM      6  O   UNL A   1      34.123  28.797  22.750  1.00  0.00    -0.275 OA
ATOM      7  H   UNL A   1      33.465  30.096  24.525  1.00  0.00     0.163 HD
BRANCH   5   8
ATOM      8  C   UNL A   1      32.129  27.495  22.792  1.00  0.00     0.113 C 
ATOM      9  C   UNL A   1      29.893  25.989  25.385  1.00  0.00     0.147 C 
ATOM     10  N   UNL A   1      30.518  26.623  24.240  1.00  0.00    -0.339 N 
ATOM     11  C   UNL A   1      29.810  27.456  23.383  1.00  0.00     0.223 C 
ATOM     12  C   UNL A   1      31.867  26.301  23.742  1.00  0.00     0.058 C 
ATOM     13  O   UNL A   1      28.631  27.757  23.468  1.00  0.00    -0.275 OA
ATOM     14  C   UNL A   1      30.752  27.973  22.331  1.00  0.00     0.116 C 
ATOM     15  C   UNL A   1      32.921  26.151  24.861  1.00  0.00     0.051 C 
ATOM     16  C   UNL A   1      31.779  24.965  22.930  1.00  0.00     0.051 C 
ATOM     17  C   UNL A   1      34.244  25.616  24.349  1.00  0.00     0.120 C 
ATOM     18  C   UNL A   1      33.143  24.362  22.548  1.00  0.00     0.120 C 
ATOM     19  N   UNL A   1      33.956  24.331  23.748  1.00  0.00    -0.356 N 
BRANCH  19  20
ATOM     20  C   UNL A   1      34.758  23.258  24.055  1.00  0.00     0.128 A 
ATOM     21  C   UNL A   1      36.120  23.302  23.730  1.00  0.00     0.048 A 
ATOM     22  N   UNL A   1      34.228  22.187  24.678  1.00  0.00    -0.238 NA
ATOM     23  C   UNL A   1      36.950  22.220  24.012  1.00  0.00     0.026 A 
ATOM     24  C   UNL A   1      35.046  21.130  24.917  1.00  0.00     0.134 A 
ATOM     25  C   UNL A   1      36.396  21.101  24.607  1.00  0.00     0.059 A 
ATOM     26  Cl  UNL A   1      37.362  19.729  24.956  1.00  0.00    -0.083 Cl
ENDBRANCH  19  20
ENDBRANCH   5   8
ENDBRANCH   3   4
ENDBRANCH   2   3
ENDBRANCH   1   2
BRANCH   1  27
ATOM     27  C   UNL A   1      33.824  31.608  27.386  1.00  0.00     0.116 C 
BRANCH  27  28
ATOM     28  N   UNL A   1      33.237  32.896  27.738  1.00  0.00    -0.352 N 
ATOM     29  C   UNL A   1      33.573  33.737  28.768  1.00  0.00     0.251 C 
ATOM     30  H   UNL A   1      32.502  33.202  27.160  1.00  0.00     0.163 HD
ATOM     31  O   UNL A   1      32.878  34.713  29.030  1.00  0.00    -0.269 OA
BRANCH  29  32
ATOM     32  C   UNL A   1      34.771  33.425  29.565  1.00  0.00     0.039 A 
ATOM     33  C   UNL A   1      34.680  32.484  30.592  1.00  0.00     0.014 A 
ATOM     34  C   UNL A   1      35.994  34.017  29.239  1.00  0.00     0.014 A 
ATOM     35  C   UNL A   1      35.840  32.087  31.254  1.00  0.00     0.010 A 
ATOM     36  C   UNL A   1      37.155  33.554  29.837  1.00  0.00     0.010 A 
ATOM     37  C   UNL A   1      37.090  32.592  30.855  1.00  0.00    -0.014 A 
BRANCH  37  38
ATOM     38  C   UNL A   1      38.345  32.149  31.502  1.00  0.00     0.031 A 
ATOM     39  C   UNL A   1      38.732  32.720  32.837  1.00  0.00     0.074 A 
ATOM     40  C   UNL A   1      39.165  31.298  30.856  1.00  0.00     0.049 A 
ATOM     41  N   UNL A   1      39.821  32.521  33.535  1.00  0.00    -0.248 NA
ATOM     42  C   UNL A   1      37.787  33.666  33.454  1.00  0.00     0.031 C 
ATOM     43  C   UNL A   1      38.916  30.713  29.536  1.00  0.00     0.029 A 
ATOM     44  N   UNL A   1      40.379  30.777  31.224  1.00  0.00    -0.354 N 
ATOM     45  C   UNL A   1      39.701  33.335  34.655  1.00  0.00     0.074 A 
ATOM     46  C   UNL A   1      38.464  34.071  34.516  1.00  0.00     0.031 C 
ATOM     47  C   UNL A   1      39.926  29.884  29.224  1.00  0.00     0.029 A 
ATOM     48  C   UNL A   1      40.909  29.908  30.301  1.00  0.00     0.049 A 
ATOM     49  H   UNL A   1      40.828  31.004  32.071  1.00  0.00     0.167 HD
ATOM     50  C   UNL A   1      40.533  33.442  35.717  1.00  0.00     0.031 A 
ATOM     51  C   UNL A   1      42.060  29.208  30.325  1.00  0.00     0.031 A 
ATOM     52  C   UNL A   1      41.749  32.689  35.859  1.00  0.00     0.049 A 
ATOM     53  C   UNL A   1      42.967  29.338  31.516  1.00  0.00     0.074 A 
ATOM     54  C   UNL A   1      42.637  32.675  36.920  1.00  0.00     0.029 A 
ATOM     55  N   UNL A   1      42.247  31.811  34.906  1.00  0.00    -0.354 N 
ATOM     56  N   UNL A   1      42.810  30.067  32.596  1.00  0.00    -0.248 NA
ATOM     57  C   UNL A   1      44.201  28.542  31.497  1.00  0.00     0.031 C 
ATOM     58  C   UNL A   1      43.692  31.817  36.592  1.00  0.00     0.029 A 
ATOM     59  C   UNL A   1      43.437  31.261  35.347  1.00  0.00     0.049 A 
ATOM     60  H   UNL A   1      41.816  31.609  34.045  1.00  0.00     0.167 HD
ATOM     61  C   UNL A   1      43.911  29.797  33.398  1.00  0.00     0.074 A 
ATOM     62  C   UNL A   1      44.721  28.830  32.683  1.00  0.00     0.031 C 
ATOM     63  C   UNL A   1      44.225  30.299  34.618  1.00  0.00     0.031 A 
BRANCH  50  64
ATOM     64  C   UNL A   1      40.144  34.412  36.800  1.00  0.00    -0.014 A 
ATOM     65  C   UNL A   1      40.558  35.757  36.752  1.00  0.00     0.010 A 
ATOM     66  C   UNL A   1      39.363  33.976  37.885  1.00  0.00     0.010 A 
ATOM     67  C   UNL A   1      40.249  36.630  37.798  1.00  0.00     0.020 A 
ATOM     68  C   UNL A   1      39.026  34.855  38.918  1.00  0.00     0.020 A 
ATOM     69  C   UNL A   1      39.493  36.170  38.878  1.00  0.00     0.054 A 
BRANCH  69  70
ATOM     70  S   UNL A   1      39.113  37.322  40.228  1.00  0.00     0.124 S 
ATOM     71  O   UNL A   1      38.338  36.476  41.133  1.00  0.00    -0.237 OA
ATOM     72  O   UNL A   1      40.438  37.704  40.709  1.00  0.00    -0.237 OA
ATOM     73  O   UNL A   1      38.360  38.387  39.572  1.00  0.00    -0.744 OA
ENDBRANCH  69  70
ENDBRANCH  50  64
BRANCH  51  74
ATOM     74  C   UNL A   1      42.393  28.289  29.203  1.00  0.00    -0.014 A 
ATOM     75  C   UNL A   1      41.965  26.950  29.239  1.00  0.00     0.010 A 
ATOM     76  C   UNL A   1      43.116  28.748  28.087  1.00  0.00     0.010 A 
ATOM     77  C   UNL A   1      42.265  26.082  28.185  1.00  0.00     0.020 A 
ATOM     78  C   UNL A   1      43.397  27.888  27.021  1.00  0.00     0.020 A 
ATOM     79  C   UNL A   1      42.978  26.557  27.082  1.00  0.00     0.054 A 
BRANCH  79  80
ATOM     80  S   UNL A   1      43.305  25.427  25.700  1.00  0.00     0.124 S 
ATOM     81  O   UNL A   1      44.644  25.833  25.286  1.00  0.00    -0.237 OA
ATOM     82  O   UNL A   1      43.207  24.116  26.334  1.00  0.00    -0.237 OA
ATOM     83  O   UNL A   1      42.236  25.732  24.751  1.00  0.00    -0.744 OA
ENDBRANCH  79  80
ENDBRANCH  51  74
BRANCH  63  84
ATOM     84  C   UNL A   1      45.478  29.786  35.272  1.00  0.00    -0.014 A 
ATOM     85  C   UNL A   1      45.458  28.633  36.076  1.00  0.00     0.010 A 
ATOM     86  C   UNL A   1      46.700  30.436  35.027  1.00  0.00     0.010 A 
ATOM     87  C   UNL A   1      46.639  28.156  36.650  1.00  0.00     0.020 A 
ATOM     88  C   UNL A   1      47.887  29.947  35.579  1.00  0.00     0.020 A 
ATOM     89  C   UNL A   1      47.845  28.817  36.398  1.00  0.00     0.054 A 
BRANCH  89  90
ATOM     90  S   UNL A   1      49.373  28.151  37.115  1.00  0.00     0.124 S 
ATOM     91  O   UNL A   1      49.033  26.743  37.300  1.00  0.00    -0.237 OA
ATOM     92  O   UNL A   1      50.363  28.428  36.077  1.00  0.00    -0.237 OA
ATOM     93  O   UNL A   1      49.541  28.920  38.346  1.00  0.00    -0.744 OA
ENDBRANCH  89  90
ENDBRANCH  63  84
ENDBRANCH  37  38
ENDBRANCH  29  32
ENDBRANCH  27  28
ENDBRANCH   1  27
TORSDOF 15
ENDMDL
