MODEL 1
REMARK VINA RESULT:      -8.6      0.000      0.000
REMARK SMILES O=C(Cc1ccccc1Cl)Nc1ccc(C(=O)NCCCCNC(=O)c2ccc(-c3c4nc(c(-c5ccc(S(=O)(=O)[O-])cc5)c5ccc([nH]5)c(-c5ccc(S(=O)(=O)[O-])cc5)c5nc(c(-c6ccc(S(=O)(=O)[O-])cc6)c6ccc3[nH]6)C=C5)C=C4)cc2)cc1
REMARK SMILES IDX 20 1 19 2 18 3 16 4 17 5 15 7 12 8 13 9 87 10 14 11 86 12
REMARK SMILES IDX 11 13 1 14 2 15 3 17 4 18 5 19 9 20 6 21 8 22 10 23 7 24
REMARK SMILES IDX 21 25 22 26 23 27 24 28 25 30 26 31 27 32 85 33 28 34 84 35
REMARK SMILES IDX 29 36 30 37 31 38 78 39 32 40 83 41 77 42 79 43 33 44 82 45
REMARK SMILES IDX 76 46 75 47 34 49 64 50 45 51 63 52 46 53 49 54 62 55 80 56
REMARK SMILES IDX 47 57 48 58 61 60 81 61 50 62 35 63 36 64 44 65 37 66 43 67
REMARK SMILES IDX 38 68 39 69 40 70 41 71 42 72 65 73 66 74 74 75 67 76 73 77
REMARK SMILES IDX 68 78 69 79 70 80 71 81 72 82 51 83 52 84 60 85 53 86 59 87
REMARK SMILES IDX 54 88 55 89 56 90 57 91 58 92
REMARK H PARENT 18 6 11 16 23 29 79 48 49 59
REMARK Flexibility Score: inf
ROOT
ATOM      1  C   UNL A   1      37.743  33.204  29.379  1.00  0.00     0.023 C 
ENDROOT
BRANCH   1   2
ATOM      2  C   UNL A   1      38.481  34.385  30.013  1.00  0.00     0.116 C 
BRANCH   2   3
ATOM      3  N   UNL A   1      37.766  34.863  31.180  1.00  0.00    -0.352 N 
ATOM      4  C   UNL A   1      37.632  34.354  32.446  1.00  0.00     0.251 C 
ATOM      5  O   UNL A   1      36.964  34.996  33.256  1.00  0.00    -0.269 OA
ATOM      6  H   UNL A   1      37.286  35.711  31.037  1.00  0.00     0.163 HD
BRANCH   4   7
ATOM      7  C   UNL A   1      38.309  33.106  32.904  1.00  0.00     0.039 A 
ATOM      8  C   UNL A   1      39.800  30.838  33.678  1.00  0.00     0.041 A 
ATOM      9  C   UNL A   1      40.342  32.118  33.812  1.00  0.00     0.027 A 
ATOM     10  C   UNL A   1      38.487  30.704  33.237  1.00  0.00     0.027 A 
ATOM     11  C   UNL A   1      39.610  33.240  33.410  1.00  0.00     0.016 A 
ATOM     12  C   UNL A   1      37.736  31.833  32.887  1.00  0.00     0.016 A 
BRANCH   8  13
ATOM     13  N   UNL A   1      40.613  29.746  34.032  1.00  0.00    -0.326 N 
ATOM     14  O   UNL A   1      40.289  29.662  36.327  1.00  0.00    -0.274 OA
ATOM     15  C   UNL A   1      40.851  29.268  35.306  1.00  0.00     0.228 C 
ATOM     16  H   UNL A   1      41.059  29.272  33.293  1.00  0.00     0.169 HD
BRANCH  15  17
ATOM     17  C   UNL A   1      41.952  28.219  35.413  1.00  0.00     0.137 C 
BRANCH  17  18
ATOM     18  C   UNL A   1      43.355  28.676  35.077  1.00  0.00    -0.020 A 
ATOM     19  C   UNL A   1      43.707  30.018  35.304  1.00  0.00     0.006 A 
ATOM     20  C   UNL A   1      44.333  27.811  34.553  1.00  0.00     0.044 A 
ATOM     21  C   UNL A   1      44.992  30.480  35.010  1.00  0.00     0.000 A 
ATOM     22  C   UNL A   1      45.622  28.273  34.276  1.00  0.00     0.021 A 
ATOM     23  Cl  UNL A   1      44.010  26.137  34.271  1.00  0.00    -0.084 Cl
ATOM     24  C   UNL A   1      45.949  29.608  34.499  1.00  0.00     0.002 A 
ENDBRANCH  17  18
ENDBRANCH  15  17
ENDBRANCH   8  13
ENDBRANCH   4   7
ENDBRANCH   2   3
ENDBRANCH   1   2
BRANCH   1  25
ATOM     25  C   UNL A   1      36.252  33.459  29.143  1.00  0.00     0.023 C 
BRANCH  25  26
ATOM     26  C   UNL A   1      35.316  32.500  29.871  1.00  0.00     0.116 C 
BRANCH  26  27
ATOM     27  N   UNL A   1      34.460  31.740  28.971  1.00  0.00    -0.352 N 
ATOM     28  C   UNL A   1      34.770  30.604  28.258  1.00  0.00     0.251 C 
ATOM     29  H   UNL A   1      33.543  32.082  28.857  1.00  0.00     0.163 HD
ATOM     30  O   UNL A   1      33.974  30.131  27.462  1.00  0.00    -0.269 OA
BRANCH  28  31
ATOM     31  C   UNL A   1      36.105  29.997  28.441  1.00  0.00     0.039 A 
ATOM     32  C   UNL A   1      37.030  30.087  27.400  1.00  0.00     0.014 A 
ATOM     33  C   UNL A   1      36.455  29.414  29.661  1.00  0.00     0.014 A 
ATOM     34  C   UNL A   1      38.345  29.669  27.614  1.00  0.00     0.010 A 
ATOM     35  C   UNL A   1      37.777  29.048  29.890  1.00  0.00     0.010 A 
ATOM     36  C   UNL A   1      38.737  29.191  28.875  1.00  0.00    -0.014 A 
BRANCH  36  37
ATOM     37  C   UNL A   1      40.157  28.889  29.179  1.00  0.00     0.031 A 
ATOM     38  C   UNL A   1      41.045  29.946  29.769  1.00  0.00     0.074 A 
ATOM     39  C   UNL A   1      40.665  27.690  28.832  1.00  0.00     0.049 A 
ATOM     40  N   UNL A   1      42.331  29.902  30.004  1.00  0.00    -0.248 NA
ATOM     41  C   UNL A   1      40.411  31.228  30.120  1.00  0.00     0.031 C 
ATOM     42  C   UNL A   1      39.909  26.596  28.218  1.00  0.00     0.029 A 
ATOM     43  N   UNL A   1      41.941  27.196  28.931  1.00  0.00    -0.354 N 
ATOM     44  C   UNL A   1      42.664  31.150  30.515  1.00  0.00     0.074 A 
ATOM     45  C   UNL A   1      41.452  31.942  30.521  1.00  0.00     0.031 C 
ATOM     46  C   UNL A   1      40.733  25.555  28.008  1.00  0.00     0.029 A 
ATOM     47  C   UNL A   1      42.081  25.924  28.431  1.00  0.00     0.049 A 
ATOM     48  H   UNL A   1      42.687  27.705  29.324  1.00  0.00     0.167 HD
ATOM     49  C   UNL A   1      43.868  31.591  30.953  1.00  0.00     0.031 A 
ATOM     50  C   UNL A   1      43.172  25.143  28.310  1.00  0.00     0.031 A 
ATOM     51  C   UNL A   1      45.066  30.797  30.952  1.00  0.00     0.049 A 
ATOM     52  C   UNL A   1      44.502  25.667  28.774  1.00  0.00     0.074 A 
ATOM     53  C   UNL A   1      46.320  31.132  31.436  1.00  0.00     0.029 A 
ATOM     54  N   UNL A   1      45.166  29.514  30.436  1.00  0.00    -0.354 N 
ATOM     55  N   UNL A   1      44.784  26.826  29.318  1.00  0.00    -0.248 NA
ATOM     56  C   UNL A   1      45.662  24.779  28.605  1.00  0.00     0.031 C 
ATOM     57  C   UNL A   1      47.189  30.069  31.168  1.00  0.00     0.029 A 
ATOM     58  C   UNL A   1      46.466  29.054  30.559  1.00  0.00     0.049 A 
ATOM     59  H   UNL A   1      44.422  29.005  30.039  1.00  0.00     0.167 HD
ATOM     60  C   UNL A   1      46.151  26.803  29.569  1.00  0.00     0.074 A 
ATOM     61  C   UNL A   1      46.637  25.509  29.132  1.00  0.00     0.031 C 
ATOM     62  C   UNL A   1      46.934  27.767  30.112  1.00  0.00     0.031 A 
BRANCH  49  63
ATOM     63  C   UNL A   1      43.945  33.004  31.463  1.00  0.00    -0.014 A 
ATOM     64  C   UNL A   1      44.143  34.082  30.581  1.00  0.00     0.010 A 
ATOM     65  C   UNL A   1      43.783  33.262  32.836  1.00  0.00     0.010 A 
ATOM     66  C   UNL A   1      44.219  35.388  31.067  1.00  0.00     0.020 A 
ATOM     67  C   UNL A   1      43.835  34.571  33.323  1.00  0.00     0.020 A 
ATOM     68  C   UNL A   1      44.071  35.625  32.438  1.00  0.00     0.054 A 
BRANCH  68  69
ATOM     69  S   UNL A   1      44.159  37.333  33.041  1.00  0.00     0.124 S 
ATOM     70  O   UNL A   1      42.851  37.497  33.669  1.00  0.00    -0.237 OA
ATOM     71  O   UNL A   1      45.295  37.292  33.958  1.00  0.00    -0.237 OA
ATOM     72  O   UNL A   1      44.370  38.118  31.827  1.00  0.00    -0.744 OA
ENDBRANCH  68  69
ENDBRANCH  49  63
BRANCH  50  73
ATOM     73  C   UNL A   1      43.049  23.785  27.718  1.00  0.00    -0.014 A 
ATOM     74  C   UNL A   1      42.534  22.722  28.480  1.00  0.00     0.010 A 
ATOM     75  C   UNL A   1      43.425  23.552  26.383  1.00  0.00     0.010 A 
ATOM     76  C   UNL A   1      42.406  21.448  27.921  1.00  0.00     0.020 A 
ATOM     77  C   UNL A   1      43.277  22.284  25.812  1.00  0.00     0.020 A 
ATOM     78  C   UNL A   1      42.777  21.237  26.589  1.00  0.00     0.054 A 
BRANCH  78  79
ATOM     79  S   UNL A   1      42.544  19.590  25.865  1.00  0.00     0.124 S 
ATOM     80  O   UNL A   1      43.485  19.614  24.750  1.00  0.00    -0.237 OA
ATOM     81  O   UNL A   1      42.895  18.703  26.972  1.00  0.00    -0.237 OA
ATOM     82  O   UNL A   1      41.130  19.578  25.494  1.00  0.00    -0.744 OA
ENDBRANCH  78  79
ENDBRANCH  50  73
BRANCH  62  83
ATOM     83  C   UNL A   1      48.397  27.463  30.272  1.00  0.00    -0.014 A 
ATOM     84  C   UNL A   1      48.863  26.732  31.380  1.00  0.00     0.010 A 
ATOM     85  C   UNL A   1      49.304  27.844  29.267  1.00  0.00     0.010 A 
ATOM     86  C   UNL A   1      50.215  26.397  31.483  1.00  0.00     0.020 A 
ATOM     87  C   UNL A   1      50.652  27.491  29.358  1.00  0.00     0.020 A 
ATOM     88  C   UNL A   1      51.101  26.776  30.470  1.00  0.00     0.054 A 
BRANCH  88  89
ATOM     89  S   UNL A   1      52.838  26.268  30.593  1.00  0.00     0.124 S 
ATOM     90  O   UNL A   1      53.476  27.481  31.094  1.00  0.00    -0.237 OA
ATOM     91  O   UNL A   1      52.781  25.153  31.537  1.00  0.00    -0.237 OA
ATOM     92  O   UNL A   1      53.188  25.898  29.224  1.00  0.00    -0.744 OA
ENDBRANCH  88  89
ENDBRANCH  62  83
ENDBRANCH  36  37
ENDBRANCH  28  31
ENDBRANCH  26  27
ENDBRANCH  25  26
ENDBRANCH   1  25
TORSDOF 17
ENDMDL
MODEL 2
REMARK VINA RESULT:      -8.3      1.073      1.990
REMARK SMILES O=C(Cc1ccccc1Cl)Nc1ccc(C(=O)NCCCCNC(=O)c2ccc(-c3c4nc(c(-c5ccc(S(=O)(=O)[O-])cc5)c5ccc([nH]5)c(-c5ccc(S(=O)(=O)[O-])cc5)c5nc(c(-c6ccc(S(=O)(=O)[O-])cc6)c6ccc3[nH]6)C=C5)C=C4)cc2)cc1
REMARK SMILES IDX 20 1 19 2 18 3 16 4 17 5 15 7 12 8 13 9 87 10 14 11 86 12
REMARK SMILES IDX 11 13 1 14 2 15 3 17 4 18 5 19 9 20 6 21 8 22 10 23 7 24
REMARK SMILES IDX 21 25 22 26 23 27 24 28 25 30 26 31 27 32 85 33 28 34 84 35
REMARK SMILES IDX 29 36 30 37 31 38 78 39 32 40 83 41 77 42 79 43 33 44 82 45
REMARK SMILES IDX 76 46 75 47 34 49 64 50 45 51 63 52 46 53 49 54 62 55 80 56
REMARK SMILES IDX 47 57 48 58 61 60 81 61 50 62 35 63 36 64 44 65 37 66 43 67
REMARK SMILES IDX 38 68 39 69 40 70 41 71 42 72 65 73 66 74 74 75 67 76 73 77
REMARK SMILES IDX 68 78 69 79 70 80 71 81 72 82 51 83 52 84 60 85 53 86 59 87
REMARK SMILES IDX 54 88 55 89 56 90 57 91 58 92
REMARK H PARENT 18 6 11 16 23 29 79 48 49 59
REMARK Flexibility Score: inf
ROOT
ATOM      1  C   UNL A   1      34.949  32.721  30.255  1.00  0.00     0.023 C 
ENDROOT
BRANCH   1   2
ATOM      2  C   UNL A   1      36.027  33.774  30.522  1.00  0.00     0.116 C 
BRANCH   2   3
ATOM      3  N   UNL A   1      35.752  34.477  31.759  1.00  0.00    -0.352 N 
ATOM      4  C   UNL A   1      36.348  34.429  32.993  1.00  0.00     0.251 C 
ATOM      5  O   UNL A   1      35.906  35.168  33.874  1.00  0.00    -0.269 OA
ATOM      6  H   UNL A   1      34.997  35.107  31.704  1.00  0.00     0.163 HD
BRANCH   4   7
ATOM      7  C   UNL A   1      37.539  33.584  33.297  1.00  0.00     0.039 A 
ATOM      8  C   UNL A   1      39.638  31.828  33.987  1.00  0.00     0.041 A 
ATOM      9  C   UNL A   1      38.404  31.323  33.570  1.00  0.00     0.027 A 
ATOM     10  C   UNL A   1      39.842  33.205  33.976  1.00  0.00     0.027 A 
ATOM     11  C   UNL A   1      37.358  32.195  33.248  1.00  0.00     0.016 A 
ATOM     12  C   UNL A   1      38.811  34.073  33.599  1.00  0.00     0.016 A 
BRANCH   8  13
ATOM     13  N   UNL A   1      40.626  30.902  34.367  1.00  0.00    -0.326 N 
ATOM     14  O   UNL A   1      39.632  29.905  36.210  1.00  0.00    -0.274 OA
ATOM     15  C   UNL A   1      40.595  30.057  35.459  1.00  0.00     0.228 C 
ATOM     16  H   UNL A   1      41.425  30.851  33.793  1.00  0.00     0.169 HD
BRANCH  15  17
ATOM     17  C   UNL A   1      41.899  29.328  35.757  1.00  0.00     0.137 C 
BRANCH  17  18
ATOM     18  C   UNL A   1      41.856  27.816  35.703  1.00  0.00    -0.020 A 
ATOM     19  C   UNL A   1      41.410  27.107  36.833  1.00  0.00     0.006 A 
ATOM     20  C   UNL A   1      42.234  27.082  34.564  1.00  0.00     0.044 A 
ATOM     21  C   UNL A   1      41.352  25.712  36.826  1.00  0.00     0.000 A 
ATOM     22  C   UNL A   1      42.158  25.687  34.555  1.00  0.00     0.021 A 
ATOM     23  Cl  UNL A   1      42.761  27.860  33.115  1.00  0.00    -0.084 Cl
ATOM     24  C   UNL A   1      41.722  25.003  35.687  1.00  0.00     0.002 A 
ENDBRANCH  17  18
ENDBRANCH  15  17
ENDBRANCH   8  13
ENDBRANCH   4   7
ENDBRANCH   2   3
ENDBRANCH   1   2
BRANCH   1  25
ATOM     25  C   UNL A   1      34.038  33.051  29.069  1.00  0.00     0.023 C 
BRANCH  25  26
ATOM     26  C   UNL A   1      34.431  32.381  27.756  1.00  0.00     0.116 C 
BRANCH  26  27
ATOM     27  N   UNL A   1      33.856  31.054  27.594  1.00  0.00    -0.352 N 
ATOM     28  C   UNL A   1      34.474  29.833  27.751  1.00  0.00     0.251 C 
ATOM     29  H   UNL A   1      32.905  31.024  27.340  1.00  0.00     0.163 HD
ATOM     30  O   UNL A   1      33.885  28.797  27.483  1.00  0.00    -0.269 OA
BRANCH  28  31
ATOM     31  C   UNL A   1      35.880  29.806  28.204  1.00  0.00     0.039 A 
ATOM     32  C   UNL A   1      36.149  29.509  29.541  1.00  0.00     0.014 A 
ATOM     33  C   UNL A   1      36.920  29.998  27.291  1.00  0.00     0.014 A 
ATOM     34  C   UNL A   1      37.469  29.315  29.948  1.00  0.00     0.010 A 
ATOM     35  C   UNL A   1      38.231  29.752  27.686  1.00  0.00     0.010 A 
ATOM     36  C   UNL A   1      38.514  29.389  29.012  1.00  0.00    -0.014 A 
BRANCH  36  37
ATOM     37  C   UNL A   1      39.907  29.034  29.380  1.00  0.00     0.031 A 
ATOM     38  C   UNL A   1      40.797  30.048  30.038  1.00  0.00     0.074 A 
ATOM     39  C   UNL A   1      40.393  27.825  29.034  1.00  0.00     0.049 A 
ATOM     40  N   UNL A   1      42.067  29.956  30.337  1.00  0.00    -0.248 NA
ATOM     41  C   UNL A   1      40.187  31.343  30.384  1.00  0.00     0.031 C 
ATOM     42  C   UNL A   1      39.635  26.769  28.358  1.00  0.00     0.029 A 
ATOM     43  N   UNL A   1      41.646  27.287  29.186  1.00  0.00    -0.354 N 
ATOM     44  C   UNL A   1      42.414  31.181  30.891  1.00  0.00     0.074 A 
ATOM     45  C   UNL A   1      41.229  32.014  30.853  1.00  0.00     0.031 C 
ATOM     46  C   UNL A   1      40.434  25.707  28.167  1.00  0.00     0.029 A 
ATOM     47  C   UNL A   1      41.769  26.021  28.667  1.00  0.00     0.049 A 
ATOM     48  H   UNL A   1      42.386  27.763  29.627  1.00  0.00     0.167 HD
ATOM     49  C   UNL A   1      43.607  31.574  31.398  1.00  0.00     0.031 A 
ATOM     50  C   UNL A   1      42.840  25.207  28.584  1.00  0.00     0.031 A 
ATOM     51  C   UNL A   1      44.778  30.740  31.441  1.00  0.00     0.049 A 
ATOM     52  C   UNL A   1      44.161  25.677  29.125  1.00  0.00     0.074 A 
ATOM     53  C   UNL A   1      46.015  31.023  31.995  1.00  0.00     0.029 A 
ATOM     54  N   UNL A   1      44.862  29.465  30.902  1.00  0.00    -0.354 N 
ATOM     55  N   UNL A   1      44.451  26.815  29.708  1.00  0.00    -0.248 NA
ATOM     56  C   UNL A   1      45.298  24.755  28.996  1.00  0.00     0.031 C 
ATOM     57  C   UNL A   1      46.861  29.938  31.748  1.00  0.00     0.029 A 
ATOM     58  C   UNL A   1      46.138  28.960  31.081  1.00  0.00     0.049 A 
ATOM     59  H   UNL A   1      44.124  28.989  30.458  1.00  0.00     0.167 HD
ATOM     60  C   UNL A   1      45.802  26.741  30.028  1.00  0.00     0.074 A 
ATOM     61  C   UNL A   1      46.268  25.440  29.587  1.00  0.00     0.031 C 
ATOM     62  C   UNL A   1      46.586  27.667  30.630  1.00  0.00     0.031 A 
BRANCH  49  63
ATOM     63  C   UNL A   1      43.703  32.972  31.942  1.00  0.00    -0.014 A 
ATOM     64  C   UNL A   1      43.424  33.244  33.294  1.00  0.00     0.010 A 
ATOM     65  C   UNL A   1      44.111  34.024  31.102  1.00  0.00     0.010 A 
ATOM     66  C   UNL A   1      43.511  34.548  33.786  1.00  0.00     0.020 A 
ATOM     67  C   UNL A   1      44.222  35.326  31.596  1.00  0.00     0.020 A 
ATOM     68  C   UNL A   1      43.904  35.584  32.932  1.00  0.00     0.054 A 
BRANCH  68  69
ATOM     69  S   UNL A   1      44.022  37.265  33.600  1.00  0.00     0.124 S 
ATOM     70  O   UNL A   1      44.008  38.073  32.383  1.00  0.00    -0.237 OA
ATOM     71  O   UNL A   1      42.828  37.365  34.434  1.00  0.00    -0.237 OA
ATOM     72  O   UNL A   1      45.288  37.259  34.328  1.00  0.00    -0.744 OA
ENDBRANCH  68  69
ENDBRANCH  49  63
BRANCH  50  73
ATOM     73  C   UNL A   1      42.704  23.866  27.956  1.00  0.00    -0.014 A 
ATOM     74  C   UNL A   1      42.889  23.707  26.573  1.00  0.00     0.010 A 
ATOM     75  C   UNL A   1      42.412  22.737  28.743  1.00  0.00     0.010 A 
ATOM     76  C   UNL A   1      42.775  22.445  25.983  1.00  0.00     0.020 A 
ATOM     77  C   UNL A   1      42.319  21.469  28.161  1.00  0.00     0.020 A 
ATOM     78  C   UNL A   1      42.492  21.333  26.782  1.00  0.00     0.054 A 
BRANCH  78  79
ATOM     79  S   UNL A   1      42.410  19.695  26.006  1.00  0.00     0.124 S 
ATOM     80  O   UNL A   1      41.051  19.680  25.475  1.00  0.00    -0.237 OA
ATOM     81  O   UNL A   1      43.478  19.760  25.012  1.00  0.00    -0.237 OA
ATOM     82  O   UNL A   1      42.660  18.779  27.117  1.00  0.00    -0.744 OA
ENDBRANCH  78  79
ENDBRANCH  50  73
BRANCH  62  83
ATOM     83  C   UNL A   1      48.029  27.311  30.858  1.00  0.00    -0.014 A 
ATOM     84  C   UNL A   1      48.439  26.695  32.054  1.00  0.00     0.010 A 
ATOM     85  C   UNL A   1      48.971  27.525  29.835  1.00  0.00     0.010 A 
ATOM     86  C   UNL A   1      49.769  26.307  32.226  1.00  0.00     0.020 A 
ATOM     87  C   UNL A   1      50.298  27.118  29.996  1.00  0.00     0.020 A 
ATOM     88  C   UNL A   1      50.690  26.518  31.195  1.00  0.00     0.054 A 
BRANCH  88  89
ATOM     89  S   UNL A   1      52.396  25.941  31.415  1.00  0.00     0.124 S 
ATOM     90  O   UNL A   1      52.198  24.566  31.861  1.00  0.00    -0.237 OA
ATOM     91  O   UNL A   1      52.962  26.092  30.076  1.00  0.00    -0.237 OA
ATOM     92  O   UNL A   1      52.941  26.852  32.420  1.00  0.00    -0.744 OA
ENDBRANCH  88  89
ENDBRANCH  62  83
ENDBRANCH  36  37
ENDBRANCH  28  31
ENDBRANCH  26  27
ENDBRANCH  25  26
ENDBRANCH   1  25
TORSDOF 17
ENDMDL
MODEL 3
REMARK VINA RESULT:      -8.1      5.493     11.970
REMARK SMILES O=C(Cc1ccccc1Cl)Nc1ccc(C(=O)NCCCCNC(=O)c2ccc(-c3c4nc(c(-c5ccc(S(=O)(=O)[O-])cc5)c5ccc([nH]5)c(-c5ccc(S(=O)(=O)[O-])cc5)c5nc(c(-c6ccc(S(=O)(=O)[O-])cc6)c6ccc3[nH]6)C=C5)C=C4)cc2)cc1
REMARK SMILES IDX 20 1 19 2 18 3 16 4 17 5 15 7 12 8 13 9 87 10 14 11 86 12
REMARK SMILES IDX 11 13 1 14 2 15 3 17 4 18 5 19 9 20 6 21 8 22 10 23 7 24
REMARK SMILES IDX 21 25 22 26 23 27 24 28 25 30 26 31 27 32 85 33 28 34 84 35
REMARK SMILES IDX 29 36 30 37 31 38 78 39 32 40 83 41 77 42 79 43 33 44 82 45
REMARK SMILES IDX 76 46 75 47 34 49 64 50 45 51 63 52 46 53 49 54 62 55 80 56
REMARK SMILES IDX 47 57 48 58 61 60 81 61 50 62 35 63 36 64 44 65 37 66 43 67
REMARK SMILES IDX 38 68 39 69 40 70 41 71 42 72 65 73 66 74 74 75 67 76 73 77
REMARK SMILES IDX 68 78 69 79 70 80 71 81 72 82 51 83 52 84 60 85 53 86 59 87
REMARK SMILES IDX 54 88 55 89 56 90 57 91 58 92
REMARK H PARENT 18 6 11 16 23 29 79 48 49 59
REMARK Flexibility Score: inf
ROOT
ATOM      1  C   UNL A   1      32.547  29.939  25.688  1.00  0.00     0.023 C 
ENDROOT
BRANCH   1   2
ATOM      2  C   UNL A   1      31.051  30.019  25.376  1.00  0.00     0.116 C 
BRANCH   2   3
ATOM      3  N   UNL A   1      30.825  29.904  23.949  1.00  0.00    -0.352 N 
ATOM      4  C   UNL A   1      30.913  28.839  23.089  1.00  0.00     0.251 C 
ATOM      5  O   UNL A   1      30.640  29.033  21.903  1.00  0.00    -0.269 OA
ATOM      6  H   UNL A   1      30.557  30.747  23.516  1.00  0.00     0.163 HD
BRANCH   4   7
ATOM      7  C   UNL A   1      31.254  27.455  23.529  1.00  0.00     0.039 A 
ATOM      8  C   UNL A   1      31.724  24.861  24.536  1.00  0.00     0.041 A 
ATOM      9  C   UNL A   1      30.420  25.350  24.427  1.00  0.00     0.027 A 
ATOM     10  C   UNL A   1      32.778  25.638  24.063  1.00  0.00     0.027 A 
ATOM     11  C   UNL A   1      30.190  26.643  23.946  1.00  0.00     0.016 A 
ATOM     12  C   UNL A   1      32.539  26.910  23.531  1.00  0.00     0.016 A 
BRANCH   8  13
ATOM     13  N   UNL A   1      31.896  23.582  25.093  1.00  0.00    -0.326 N 
ATOM     14  O   UNL A   1      32.135  22.282  23.188  1.00  0.00    -0.274 OA
ATOM     15  C   UNL A   1      32.030  22.389  24.409  1.00  0.00     0.228 C 
ATOM     16  H   UNL A   1      31.922  23.531  26.076  1.00  0.00     0.169 HD
BRANCH  15  17
ATOM     17  C   UNL A   1      31.970  21.133  25.270  1.00  0.00     0.137 C 
BRANCH  17  18
ATOM     18  C   UNL A   1      32.852  19.979  24.843  1.00  0.00    -0.020 A 
ATOM     19  C   UNL A   1      32.259  18.858  24.236  1.00  0.00     0.006 A 
ATOM     20  C   UNL A   1      34.247  19.981  25.018  1.00  0.00     0.044 A 
ATOM     21  C   UNL A   1      33.036  17.773  23.825  1.00  0.00     0.000 A 
ATOM     22  C   UNL A   1      35.023  18.900  24.591  1.00  0.00     0.021 A 
ATOM     23  Cl  UNL A   1      35.075  21.325  25.722  1.00  0.00    -0.084 Cl
ATOM     24  C   UNL A   1      34.417  17.795  23.999  1.00  0.00     0.002 A 
ENDBRANCH  17  18
ENDBRANCH  15  17
ENDBRANCH   8  13
ENDBRANCH   4   7
ENDBRANCH   2   3
ENDBRANCH   1   2
BRANCH   1  25
ATOM     25  C   UNL A   1      32.897  30.272  27.141  1.00  0.00     0.023 C 
BRANCH  25  26
ATOM     26  C   UNL A   1      33.840  31.458  27.316  1.00  0.00     0.116 C 
BRANCH  26  27
ATOM     27  N   UNL A   1      33.142  32.723  27.494  1.00  0.00    -0.352 N 
ATOM     28  C   UNL A   1      33.411  33.724  28.401  1.00  0.00     0.251 C 
ATOM     29  H   UNL A   1      32.381  32.884  26.890  1.00  0.00     0.163 HD
ATOM     30  O   UNL A   1      32.673  34.692  28.498  1.00  0.00    -0.269 OA
BRANCH  28  31
ATOM     31  C   UNL A   1      34.585  33.578  29.286  1.00  0.00     0.039 A 
ATOM     32  C   UNL A   1      34.462  32.806  30.442  1.00  0.00     0.014 A 
ATOM     33  C   UNL A   1      35.814  34.141  28.930  1.00  0.00     0.014 A 
ATOM     34  C   UNL A   1      35.598  32.520  31.200  1.00  0.00     0.010 A 
ATOM     35  C   UNL A   1      36.953  33.811  29.656  1.00  0.00     0.010 A 
ATOM     36  C   UNL A   1      36.858  32.982  30.785  1.00  0.00    -0.014 A 
BRANCH  36  37
ATOM     37  C   UNL A   1      38.101  32.564  31.479  1.00  0.00     0.031 A 
ATOM     38  C   UNL A   1      38.955  31.470  30.908  1.00  0.00     0.074 A 
ATOM     39  C   UNL A   1      38.404  33.110  32.674  1.00  0.00     0.049 A 
ATOM     40  N   UNL A   1      40.014  30.901  31.422  1.00  0.00    -0.248 NA
ATOM     41  C   UNL A   1      38.554  30.929  29.598  1.00  0.00     0.031 C 
ATOM     42  C   UNL A   1      37.629  34.155  33.349  1.00  0.00     0.029 A 
ATOM     43  N   UNL A   1      39.434  32.849  33.541  1.00  0.00    -0.354 N 
ATOM     44  C   UNL A   1      40.399  29.926  30.511  1.00  0.00     0.074 A 
ATOM     45  C   UNL A   1      39.437  29.956  29.428  1.00  0.00     0.031 C 
ATOM     46  C   UNL A   1      38.220  34.456  34.517  1.00  0.00     0.029 A 
ATOM     47  C   UNL A   1      39.387  33.596  34.694  1.00  0.00     0.049 A 
ATOM     48  H   UNL A   1      40.141  32.190  33.355  1.00  0.00     0.167 HD
ATOM     49  C   UNL A   1      41.464  29.091  30.564  1.00  0.00     0.031 A 
ATOM     50  C   UNL A   1      40.182  33.582  35.782  1.00  0.00     0.031 A 
ATOM     51  C   UNL A   1      42.420  29.071  31.637  1.00  0.00     0.049 A 
ATOM     52  C   UNL A   1      41.339  32.625  35.831  1.00  0.00     0.074 A 
ATOM     53  C   UNL A   1      43.570  28.309  31.751  1.00  0.00     0.029 A 
ATOM     54  N   UNL A   1      42.336  29.842  32.787  1.00  0.00    -0.354 N 
ATOM     55  N   UNL A   1      41.727  31.757  34.927  1.00  0.00    -0.248 NA
ATOM     56  C   UNL A   1      42.165  32.642  37.047  1.00  0.00     0.031 C 
ATOM     57  C   UNL A   1      44.155  28.583  32.991  1.00  0.00     0.029 A 
ATOM     58  C   UNL A   1      43.394  29.551  33.630  1.00  0.00     0.049 A 
ATOM     59  H   UNL A   1      41.627  30.499  32.976  1.00  0.00     0.167 HD
ATOM     60  C   UNL A   1      42.849  31.134  35.459  1.00  0.00     0.074 A 
ATOM     61  C   UNL A   1      43.088  31.735  36.757  1.00  0.00     0.031 C 
ATOM     62  C   UNL A   1      43.613  30.152  34.921  1.00  0.00     0.031 A 
BRANCH  49  63
ATOM     63  C   UNL A   1      41.644  28.124  29.426  1.00  0.00    -0.014 A 
ATOM     64  C   UNL A   1      42.533  28.404  28.372  1.00  0.00     0.010 A 
ATOM     65  C   UNL A   1      40.944  26.905  29.426  1.00  0.00     0.010 A 
ATOM     66  C   UNL A   1      42.687  27.501  27.319  1.00  0.00     0.020 A 
ATOM     67  C   UNL A   1      41.113  25.987  28.385  1.00  0.00     0.020 A 
ATOM     68  C   UNL A   1      41.971  26.299  27.328  1.00  0.00     0.054 A 
BRANCH  68  69
ATOM     69  S   UNL A   1      42.201  25.138  25.954  1.00  0.00     0.124 S 
ATOM     70  O   UNL A   1      41.987  26.000  24.795  1.00  0.00    -0.237 OA
ATOM     71  O   UNL A   1      43.573  24.677  26.149  1.00  0.00    -0.237 OA
ATOM     72  O   UNL A   1      41.170  24.129  26.179  1.00  0.00    -0.744 OA
ENDBRANCH  68  69
ENDBRANCH  49  63
BRANCH  50  73
ATOM     73  C   UNL A   1      39.903  34.504  36.915  1.00  0.00    -0.014 A 
ATOM     74  C   UNL A   1      39.157  34.063  38.021  1.00  0.00     0.010 A 
ATOM     75  C   UNL A   1      40.402  35.819  36.904  1.00  0.00     0.010 A 
ATOM     76  C   UNL A   1      38.906  34.923  39.093  1.00  0.00     0.020 A 
ATOM     77  C   UNL A   1      40.172  36.676  37.985  1.00  0.00     0.020 A 
ATOM     78  C   UNL A   1      39.416  36.225  39.069  1.00  0.00     0.054 A 
BRANCH  78  79
ATOM     79  S   UNL A   1      39.131  37.305  40.499  1.00  0.00     0.124 S 
ATOM     80  O   UNL A   1      38.176  38.270  39.963  1.00  0.00    -0.237 OA
ATOM     81  O   UNL A   1      38.603  36.378  41.497  1.00  0.00    -0.237 OA
ATOM     82  O   UNL A   1      40.460  37.835  40.796  1.00  0.00    -0.744 OA
ENDBRANCH  78  79
ENDBRANCH  50  73
BRANCH  62  83
ATOM     83  C   UNL A   1      44.784  29.665  35.728  1.00  0.00    -0.014 A 
ATOM     84  C   UNL A   1      46.035  30.302  35.637  1.00  0.00     0.010 A 
ATOM     85  C   UNL A   1      44.613  28.610  36.642  1.00  0.00     0.010 A 
ATOM     86  C   UNL A   1      47.098  29.884  36.441  1.00  0.00     0.020 A 
ATOM     87  C   UNL A   1      45.668  28.205  37.463  1.00  0.00     0.020 A 
ATOM     88  C   UNL A   1      46.906  28.840  37.352  1.00  0.00     0.054 A 
BRANCH  88  89
ATOM     89  S   UNL A   1      48.281  28.363  38.435  1.00  0.00     0.124 S 
ATOM     90  O   UNL A   1      49.428  28.476  37.539  1.00  0.00    -0.237 OA
ATOM     91  O   UNL A   1      48.215  29.363  39.499  1.00  0.00    -0.237 OA
ATOM     92  O   UNL A   1      47.941  27.002  38.846  1.00  0.00    -0.744 OA
ENDBRANCH  88  89
ENDBRANCH  62  83
ENDBRANCH  36  37
ENDBRANCH  28  31
ENDBRANCH  26  27
ENDBRANCH  25  26
ENDBRANCH   1  25
TORSDOF 17
ENDMDL
