MODEL 1
REMARK VINA RESULT:     -12.2      0.000      0.000
REMARK SMILES COc1cc(CC(=O)N[C@@H](CC(=O)NCCCCNC(=O)c2ccc(-c3c4nc(c(-c5ccc(S(=O)(=O)[O-])cc5)c5ccc([nH]5)c(-c5ccc(S(=O)(=O)[O-])cc5)c5nc(c(-c6ccc(S(=O)(=O)[O-])cc6)c6ccc3[nH]6)C=C5)C=C4)cc2)c2cccs2)ccc1C
REMARK SMILES IDX 15 1 14 2 12 3 13 4 11 6 10 7 9 8 7 9 8 10 6 12 5 13 3 14
REMARK SMILES IDX 4 15 89 16 88 17 90 18 87 19 2 20 1 21 82 22 83 23 86 24
REMARK SMILES IDX 84 25 85 26 16 27 17 28 18 29 19 30 20 31 21 33 22 34 23 35
REMARK SMILES IDX 81 36 24 37 80 38 25 39 26 40 27 41 74 42 28 43 79 44 73 45
REMARK SMILES IDX 75 46 29 47 78 48 72 49 71 50 30 52 60 53 41 54 59 55 42 56
REMARK SMILES IDX 45 57 58 58 76 59 43 60 44 61 57 63 77 64 46 65 31 66 32 67
REMARK SMILES IDX 40 68 33 69 39 70 34 71 35 72 36 73 37 74 38 75 61 76 62 77
REMARK SMILES IDX 70 78 63 79 69 80 64 81 65 82 66 83 67 84 68 85 47 86 48 87
REMARK SMILES IDX 56 88 49 89 55 90 50 91 51 92 52 93 53 94 54 95
REMARK H PARENT 14 5 9 11 19 32 75 51 45 62
REMARK Flexibility Score: inf
ROOT
ATOM      1  C   UNL A   1      31.769  28.801  24.714  1.00  0.00     0.116 C 
ENDROOT
BRANCH   1   2
ATOM      2  N   UNL A   1      31.427  27.780  25.696  1.00  0.00    -0.356 N 
ATOM      3  C   UNL A   1      32.071  26.639  26.063  1.00  0.00     0.222 C 
ATOM      4  O   UNL A   1      31.610  25.989  27.006  1.00  0.00    -0.275 OA
ATOM      5  H   UNL A   1      30.584  27.944  26.178  1.00  0.00     0.163 HD
BRANCH   3   6
ATOM      6  C   UNL A   1      33.339  26.181  25.373  1.00  0.00     0.130 C 
BRANCH   6   7
ATOM      7  C   UNL A   1      33.420  24.752  24.820  1.00  0.00     0.131 C 
BRANCH   7   8
ATOM      8  N   UNL A   1      32.621  23.776  25.539  1.00  0.00    -0.348 N 
ATOM      9  C   UNL A   1      31.956  22.654  25.180  1.00  0.00     0.224 C 
ATOM     10  O   UNL A   1      31.255  22.128  26.051  1.00  0.00    -0.275 OA
ATOM     11  H   UNL A   1      32.548  23.974  26.501  1.00  0.00     0.164 HD
BRANCH   9  12
ATOM     12  C   UNL A   1      32.187  21.932  23.874  1.00  0.00     0.135 C 
BRANCH  12  13
ATOM     13  C   UNL A   1      32.760  20.541  23.892  1.00  0.00    -0.035 A 
ATOM     14  C   UNL A   1      34.603  19.056  24.496  1.00  0.00     0.122 A 
ATOM     15  C   UNL A   1      34.048  20.335  24.413  1.00  0.00     0.051 A 
ATOM     16  C   UNL A   1      33.872  17.954  24.028  1.00  0.00    -0.009 A 
ATOM     17  C   UNL A   1      32.572  18.156  23.533  1.00  0.00     0.007 A 
ATOM     18  C   UNL A   1      34.406  16.551  24.101  1.00  0.00     0.048 C 
ATOM     19  C   UNL A   1      32.017  19.437  23.471  1.00  0.00     0.005 A 
BRANCH  14  20
ATOM     20  O   UNL A   1      35.862  18.813  24.982  1.00  0.00    -0.496 OA
ATOM     21  C   UNL A   1      36.758  19.918  24.963  1.00  0.00     0.278 C 
ENDBRANCH  14  20
ENDBRANCH  12  13
ENDBRANCH   9  12
ENDBRANCH   7   8
BRANCH   7  22
ATOM     22  C   UNL A   1      34.804  24.140  24.679  1.00  0.00     0.027 A 
ATOM     23  C   UNL A   1      35.817  24.145  25.623  1.00  0.00     0.017 A 
ATOM     24  S   UNL A   1      35.376  23.490  23.192  1.00  0.00    -0.147 S 
ATOM     25  C   UNL A   1      37.032  23.579  25.139  1.00  0.00     0.012 A 
ATOM     26  C   UNL A   1      36.914  23.146  23.839  1.00  0.00     0.065 A 
ENDBRANCH   7  22
ENDBRANCH   6   7
ENDBRANCH   3   6
ENDBRANCH   1   2
BRANCH   1  27
ATOM     27  C   UNL A   1      32.915  29.715  25.169  1.00  0.00     0.023 C 
BRANCH  27  28
ATOM     28  C   UNL A   1      32.884  30.154  26.626  1.00  0.00     0.023 C 
BRANCH  28  29
ATOM     29  C   UNL A   1      34.197  29.913  27.342  1.00  0.00     0.116 C 
BRANCH  29  30
ATOM     30  N   UNL A   1      34.962  31.122  27.627  1.00  0.00    -0.352 N 
ATOM     31  C   UNL A   1      36.312  31.198  27.962  1.00  0.00     0.251 C 
ATOM     32  H   UNL A   1      34.473  31.975  27.576  1.00  0.00     0.163 HD
ATOM     33  O   UNL A   1      36.846  32.232  28.291  1.00  0.00    -0.269 OA
BRANCH  31  34
ATOM     34  C   UNL A   1      37.078  29.932  27.862  1.00  0.00     0.039 A 
ATOM     35  C   UNL A   1      37.104  29.091  28.978  1.00  0.00     0.014 A 
ATOM     36  C   UNL A   1      38.019  29.811  26.847  1.00  0.00     0.014 A 
ATOM     37  C   UNL A   1      38.210  28.266  29.179  1.00  0.00     0.010 A 
ATOM     38  C   UNL A   1      39.173  29.106  27.121  1.00  0.00     0.010 A 
ATOM     39  C   UNL A   1      39.294  28.365  28.308  1.00  0.00    -0.014 A 
BRANCH  39  40
ATOM     40  C   UNL A   1      40.624  27.816  28.579  1.00  0.00     0.031 A 
ATOM     41  C   UNL A   1      40.899  26.381  28.300  1.00  0.00     0.074 A 
ATOM     42  C   UNL A   1      41.645  28.610  28.979  1.00  0.00     0.049 A 
ATOM     43  N   UNL A   1      41.904  25.720  28.771  1.00  0.00    -0.248 NA
ATOM     44  C   UNL A   1      40.000  25.548  27.506  1.00  0.00     0.031 C 
ATOM     45  C   UNL A   1      43.071  28.285  28.917  1.00  0.00     0.029 A 
ATOM     46  N   UNL A   1      41.611  29.789  29.728  1.00  0.00    -0.354 N 
ATOM     47  C   UNL A   1      41.964  24.519  28.100  1.00  0.00     0.074 A 
ATOM     48  C   UNL A   1      40.703  24.418  27.411  1.00  0.00     0.031 C 
ATOM     49  C   UNL A   1      43.722  29.020  29.829  1.00  0.00     0.029 A 
ATOM     50  C   UNL A   1      42.720  29.739  30.593  1.00  0.00     0.049 A 
ATOM     51  H   UNL A   1      40.944  30.510  29.664  1.00  0.00     0.167 HD
ATOM     52  C   UNL A   1      43.131  23.813  28.087  1.00  0.00     0.031 A 
ATOM     53  C   UNL A   1      42.650  29.781  31.956  1.00  0.00     0.031 A 
ATOM     54  C   UNL A   1      44.108  24.364  29.027  1.00  0.00     0.049 A 
ATOM     55  C   UNL A   1      43.307  28.598  32.635  1.00  0.00     0.074 A 
ATOM     56  C   UNL A   1      45.266  25.110  28.880  1.00  0.00     0.029 A 
ATOM     57  N   UNL A   1      43.801  24.380  30.382  1.00  0.00    -0.354 N 
ATOM     58  N   UNL A   1      43.718  27.533  32.009  1.00  0.00    -0.248 NA
ATOM     59  C   UNL A   1      43.489  28.492  34.081  1.00  0.00     0.031 C 
ATOM     60  C   UNL A   1      45.620  25.627  30.155  1.00  0.00     0.029 A 
ATOM     61  C   UNL A   1      44.691  25.175  31.076  1.00  0.00     0.049 A 
ATOM     62  H   UNL A   1      43.051  23.892  30.791  1.00  0.00     0.167 HD
ATOM     63  C   UNL A   1      44.151  26.596  32.914  1.00  0.00     0.074 A 
ATOM     64  C   UNL A   1      44.020  27.262  34.197  1.00  0.00     0.031 C 
ATOM     65  C   UNL A   1      44.541  25.348  32.518  1.00  0.00     0.031 A 
BRANCH  52  66
ATOM     66  C   UNL A   1      43.480  22.778  27.031  1.00  0.00    -0.014 A 
ATOM     67  C   UNL A   1      42.660  21.640  26.871  1.00  0.00     0.010 A 
ATOM     68  C   UNL A   1      44.635  22.810  26.227  1.00  0.00     0.010 A 
ATOM     69  C   UNL A   1      43.019  20.567  26.035  1.00  0.00     0.020 A 
ATOM     70  C   UNL A   1      45.020  21.741  25.405  1.00  0.00     0.020 A 
ATOM     71  C   UNL A   1      44.215  20.615  25.326  1.00  0.00     0.054 A 
BRANCH  71  72
ATOM     72  S   UNL A   1      44.715  19.199  24.313  1.00  0.00     0.124 S 
ATOM     73  O   UNL A   1      46.116  19.023  24.688  1.00  0.00    -0.237 OA
ATOM     74  O   UNL A   1      43.804  18.153  24.763  1.00  0.00    -0.237 OA
ATOM     75  O   UNL A   1      44.500  19.660  22.942  1.00  0.00    -0.744 OA
ENDBRANCH  71  72
ENDBRANCH  52  66
BRANCH  53  76
ATOM     76  C   UNL A   1      41.475  30.519  32.488  1.00  0.00    -0.014 A 
ATOM     77  C   UNL A   1      40.278  29.789  32.653  1.00  0.00     0.010 A 
ATOM     78  C   UNL A   1      41.660  31.709  33.214  1.00  0.00     0.010 A 
ATOM     79  C   UNL A   1      39.378  30.133  33.660  1.00  0.00     0.020 A 
ATOM     80  C   UNL A   1      40.752  32.059  34.220  1.00  0.00     0.020 A 
ATOM     81  C   UNL A   1      39.661  31.226  34.481  1.00  0.00     0.054 A 
BRANCH  81  82
ATOM     82  S   UNL A   1      38.726  31.381  36.032  1.00  0.00     0.124 S 
ATOM     83  O   UNL A   1      38.806  30.031  36.581  1.00  0.00    -0.237 OA
ATOM     84  O   UNL A   1      39.505  32.401  36.732  1.00  0.00    -0.237 OA
ATOM     85  O   UNL A   1      37.404  31.806  35.585  1.00  0.00    -0.744 OA
ENDBRANCH  81  82
ENDBRANCH  53  76
BRANCH  65  86
ATOM     86  C   UNL A   1      44.861  24.166  33.411  1.00  0.00    -0.014 A 
ATOM     87  C   UNL A   1      44.023  23.057  33.612  1.00  0.00     0.010 A 
ATOM     88  C   UNL A   1      46.142  24.104  34.018  1.00  0.00     0.010 A 
ATOM     89  C   UNL A   1      44.417  21.975  34.417  1.00  0.00     0.020 A 
ATOM     90  C   UNL A   1      46.563  23.012  34.783  1.00  0.00     0.020 A 
ATOM     91  C   UNL A   1      45.684  21.961  35.000  1.00  0.00     0.054 A 
BRANCH  91  92
ATOM     92  S   UNL A   1      46.208  20.532  35.983  1.00  0.00     0.124 S 
ATOM     93  O   UNL A   1      47.580  20.337  35.521  1.00  0.00    -0.237 OA
ATOM     94  O   UNL A   1      46.073  21.012  37.357  1.00  0.00    -0.237 OA
ATOM     95  O   UNL A   1      45.261  19.488  35.600  1.00  0.00    -0.744 OA
ENDBRANCH  91  92
ENDBRANCH  65  86
ENDBRANCH  39  40
ENDBRANCH  31  34
ENDBRANCH  29  30
ENDBRANCH  28  29
ENDBRANCH  27  28
ENDBRANCH   1  27
TORSDOF 20
ENDMDL
MODEL 2
REMARK VINA RESULT:     -12.2      1.786      2.933
REMARK SMILES COc1cc(CC(=O)N[C@@H](CC(=O)NCCCCNC(=O)c2ccc(-c3c4nc(c(-c5ccc(S(=O)(=O)[O-])cc5)c5ccc([nH]5)c(-c5ccc(S(=O)(=O)[O-])cc5)c5nc(c(-c6ccc(S(=O)(=O)[O-])cc6)c6ccc3[nH]6)C=C5)C=C4)cc2)c2cccs2)ccc1C
REMARK SMILES IDX 15 1 14 2 12 3 13 4 11 6 10 7 9 8 7 9 8 10 6 12 5 13 3 14
REMARK SMILES IDX 4 15 89 16 88 17 90 18 87 19 2 20 1 21 82 22 83 23 86 24
REMARK SMILES IDX 84 25 85 26 16 27 17 28 18 29 19 30 20 31 21 33 22 34 23 35
REMARK SMILES IDX 81 36 24 37 80 38 25 39 26 40 27 41 74 42 28 43 79 44 73 45
REMARK SMILES IDX 75 46 29 47 78 48 72 49 71 50 30 52 60 53 41 54 59 55 42 56
REMARK SMILES IDX 45 57 58 58 76 59 43 60 44 61 57 63 77 64 46 65 31 66 32 67
REMARK SMILES IDX 40 68 33 69 39 70 34 71 35 72 36 73 37 74 38 75 61 76 62 77
REMARK SMILES IDX 70 78 63 79 69 80 64 81 65 82 66 83 67 84 68 85 47 86 48 87
REMARK SMILES IDX 56 88 49 89 55 90 50 91 51 92 52 93 53 94 54 95
REMARK H PARENT 14 5 9 11 19 32 75 51 45 62
REMARK Flexibility Score: inf
ROOT
ATOM      1  C   UNL A   1      32.956  27.756  27.085  1.00  0.00     0.116 C 
ENDROOT
BRANCH   1   2
ATOM      2  N   UNL A   1      33.702  27.422  25.879  1.00  0.00    -0.356 N 
ATOM      3  C   UNL A   1      33.375  26.649  24.808  1.00  0.00     0.222 C 
ATOM      4  O   UNL A   1      34.162  26.609  23.858  1.00  0.00    -0.275 OA
ATOM      5  H   UNL A   1      34.598  27.825  25.830  1.00  0.00     0.163 HD
BRANCH   3   6
ATOM      6  C   UNL A   1      32.070  25.883  24.746  1.00  0.00     0.130 C 
BRANCH   6   7
ATOM      7  C   UNL A   1      31.204  25.975  23.481  1.00  0.00     0.131 C 
BRANCH   7   8
ATOM      8  N   UNL A   1      31.931  25.813  22.235  1.00  0.00    -0.348 N 
ATOM      9  C   UNL A   1      32.668  24.814  21.697  1.00  0.00     0.224 C 
ATOM     10  O   UNL A   1      33.265  25.076  20.648  1.00  0.00    -0.275 OA
ATOM     11  H   UNL A   1      31.874  26.605  21.653  1.00  0.00     0.164 HD
BRANCH   9  12
ATOM     12  C   UNL A   1      32.626  23.389  22.194  1.00  0.00     0.135 C 
BRANCH  12  13
ATOM     13  C   UNL A   1      33.766  22.864  23.023  1.00  0.00    -0.035 A 
ATOM     14  C   UNL A   1      34.599  21.193  24.599  1.00  0.00     0.122 A 
ATOM     15  C   UNL A   1      33.559  21.746  23.848  1.00  0.00     0.051 A 
ATOM     16  C   UNL A   1      35.873  21.778  24.549  1.00  0.00    -0.009 A 
ATOM     17  C   UNL A   1      36.088  22.879  23.702  1.00  0.00     0.007 A 
ATOM     18  C   UNL A   1      37.038  21.224  25.322  1.00  0.00     0.048 C 
ATOM     19  C   UNL A   1      35.046  23.415  22.941  1.00  0.00     0.005 A 
BRANCH  14  20
ATOM     20  O   UNL A   1      34.436  20.113  25.427  1.00  0.00    -0.496 OA
ATOM     21  C   UNL A   1      33.092  19.786  25.762  1.00  0.00     0.278 C 
ENDBRANCH  14  20
ENDBRANCH  12  13
ENDBRANCH   9  12
ENDBRANCH   7   8
BRANCH   7  22
ATOM     22  C   UNL A   1      30.353  27.222  23.312  1.00  0.00     0.027 A 
ATOM     23  C   UNL A   1      28.973  27.309  23.406  1.00  0.00     0.017 A 
ATOM     24  S   UNL A   1      31.011  28.720  22.778  1.00  0.00    -0.147 S 
ATOM     25  C   UNL A   1      28.474  28.605  23.086  1.00  0.00     0.012 A 
ATOM     26  C   UNL A   1      29.485  29.480  22.766  1.00  0.00     0.065 A 
ENDBRANCH   7  22
ENDBRANCH   6   7
ENDBRANCH   3   6
ENDBRANCH   1   2
BRANCH   1  27
ATOM     27  C   UNL A   1      32.188  29.080  26.972  1.00  0.00     0.023 C 
BRANCH  27  28
ATOM     28  C   UNL A   1      32.990  30.344  27.248  1.00  0.00     0.023 C 
BRANCH  28  29
ATOM     29  C   UNL A   1      34.443  30.061  27.573  1.00  0.00     0.116 C 
BRANCH  29  30
ATOM     30  N   UNL A   1      35.226  31.241  27.924  1.00  0.00    -0.352 N 
ATOM     31  C   UNL A   1      36.550  31.268  28.356  1.00  0.00     0.251 C 
ATOM     32  H   UNL A   1      34.771  32.111  27.845  1.00  0.00     0.163 HD
ATOM     33  O   UNL A   1      37.094  32.281  28.730  1.00  0.00    -0.269 OA
BRANCH  31  34
ATOM     34  C   UNL A   1      37.277  29.976  28.300  1.00  0.00     0.039 A 
ATOM     35  C   UNL A   1      37.317  29.196  29.458  1.00  0.00     0.014 A 
ATOM     36  C   UNL A   1      38.180  29.775  27.262  1.00  0.00     0.014 A 
ATOM     37  C   UNL A   1      38.407  28.350  29.667  1.00  0.00     0.010 A 
ATOM     38  C   UNL A   1      39.323  29.053  27.537  1.00  0.00     0.010 A 
ATOM     39  C   UNL A   1      39.463  28.372  28.758  1.00  0.00    -0.014 A 
BRANCH  39  40
ATOM     40  C   UNL A   1      40.786  27.800  29.016  1.00  0.00     0.031 A 
ATOM     41  C   UNL A   1      41.060  26.384  28.650  1.00  0.00     0.074 A 
ATOM     42  C   UNL A   1      41.804  28.561  29.482  1.00  0.00     0.049 A 
ATOM     43  N   UNL A   1      42.054  25.689  29.096  1.00  0.00    -0.248 NA
ATOM     44  C   UNL A   1      40.171  25.607  27.790  1.00  0.00     0.031 C 
ATOM     45  C   UNL A   1      43.229  28.233  29.423  1.00  0.00     0.029 A 
ATOM     46  N   UNL A   1      41.762  29.690  30.304  1.00  0.00    -0.354 N 
ATOM     47  C   UNL A   1      42.120  24.533  28.351  1.00  0.00     0.074 A 
ATOM     48  C   UNL A   1      40.870  24.482  27.635  1.00  0.00     0.031 C 
ATOM     49  C   UNL A   1      43.868  28.905  30.391  1.00  0.00     0.029 A 
ATOM     50  C   UNL A   1      42.856  29.580  31.183  1.00  0.00     0.049 A 
ATOM     51  H   UNL A   1      41.099  30.418  30.275  1.00  0.00     0.167 HD
ATOM     52  C   UNL A   1      43.284  23.823  28.312  1.00  0.00     0.031 A 
ATOM     53  C   UNL A   1      42.763  29.535  32.544  1.00  0.00     0.031 A 
ATOM     54  C   UNL A   1      44.248  24.307  29.301  1.00  0.00     0.049 A 
ATOM     55  C   UNL A   1      43.403  28.309  33.157  1.00  0.00     0.074 A 
ATOM     56  C   UNL A   1      45.411  25.055  29.221  1.00  0.00     0.029 A 
ATOM     57  N   UNL A   1      43.918  24.239  30.649  1.00  0.00    -0.354 N 
ATOM     58  N   UNL A   1      43.821  27.282  32.472  1.00  0.00    -0.248 NA
ATOM     59  C   UNL A   1      43.561  28.110  34.596  1.00  0.00     0.031 C 
ATOM     60  C   UNL A   1      45.745  25.489  30.533  1.00  0.00     0.029 A 
ATOM     61  C   UNL A   1      44.799  24.984  31.407  1.00  0.00     0.049 A 
ATOM     62  H   UNL A   1      43.158  23.730  31.014  1.00  0.00     0.167 HD
ATOM     63  C   UNL A   1      44.234  26.288  33.323  1.00  0.00     0.074 A 
ATOM     64  C   UNL A   1      44.084  26.872  34.643  1.00  0.00     0.031 C 
ATOM     65  C   UNL A   1      44.625  25.065  32.855  1.00  0.00     0.031 A 
BRANCH  52  66
ATOM     66  C   UNL A   1      43.647  22.855  27.199  1.00  0.00    -0.014 A 
ATOM     67  C   UNL A   1      42.860  21.701  26.992  1.00  0.00     0.010 A 
ATOM     68  C   UNL A   1      44.786  22.965  26.379  1.00  0.00     0.010 A 
ATOM     69  C   UNL A   1      43.237  20.685  26.097  1.00  0.00     0.020 A 
ATOM     70  C   UNL A   1      45.189  21.952  25.496  1.00  0.00     0.020 A 
ATOM     71  C   UNL A   1      44.419  20.807  25.372  1.00  0.00     0.054 A 
BRANCH  71  72
ATOM     72  S   UNL A   1      44.945  19.461  24.279  1.00  0.00     0.124 S 
ATOM     73  O   UNL A   1      44.160  18.332  24.771  1.00  0.00    -0.237 OA
ATOM     74  O   UNL A   1      44.573  19.964  22.961  1.00  0.00    -0.237 OA
ATOM     75  O   UNL A   1      46.384  19.361  24.520  1.00  0.00    -0.744 OA
ENDBRANCH  71  72
ENDBRANCH  52  66
BRANCH  53  76
ATOM     76  C   UNL A   1      41.583  30.244  33.103  1.00  0.00    -0.014 A 
ATOM     77  C   UNL A   1      41.528  31.643  32.921  1.00  0.00     0.010 A 
ATOM     78  C   UNL A   1      40.396  29.538  33.366  1.00  0.00     0.010 A 
ATOM     79  C   UNL A   1      40.299  32.290  32.808  1.00  0.00     0.020 A 
ATOM     80  C   UNL A   1      39.161  30.190  33.262  1.00  0.00     0.020 A 
ATOM     81  C   UNL A   1      39.124  31.542  32.910  1.00  0.00     0.054 A 
BRANCH  81  82
ATOM     82  S   UNL A   1      37.583  32.307  32.328  1.00  0.00     0.124 S 
ATOM     83  O   UNL A   1      38.067  33.291  31.366  1.00  0.00    -0.237 OA
ATOM     84  O   UNL A   1      36.887  31.152  31.765  1.00  0.00    -0.237 OA
ATOM     85  O   UNL A   1      36.997  32.851  33.550  1.00  0.00    -0.744 OA
ENDBRANCH  81  82
ENDBRANCH  53  76
BRANCH  65  86
ATOM     86  C   UNL A   1      44.925  23.827  33.676  1.00  0.00    -0.014 A 
ATOM     87  C   UNL A   1      43.986  22.842  34.021  1.00  0.00     0.010 A 
ATOM     88  C   UNL A   1      46.271  23.570  34.046  1.00  0.00     0.010 A 
ATOM     89  C   UNL A   1      44.357  21.695  34.743  1.00  0.00     0.020 A 
ATOM     90  C   UNL A   1      46.659  22.411  34.724  1.00  0.00     0.020 A 
ATOM     91  C   UNL A   1      45.691  21.488  35.092  1.00  0.00     0.054 A 
BRANCH  91  92
ATOM     92  S   UNL A   1      46.170  19.975  35.965  1.00  0.00     0.124 S 
ATOM     93  O   UNL A   1      45.308  18.979  35.335  1.00  0.00    -0.237 OA
ATOM     94  O   UNL A   1      47.594  19.855  35.656  1.00  0.00    -0.237 OA
ATOM     95  O   UNL A   1      45.868  20.276  37.362  1.00  0.00    -0.744 OA
ENDBRANCH  91  92
ENDBRANCH  65  86
ENDBRANCH  39  40
ENDBRANCH  31  34
ENDBRANCH  29  30
ENDBRANCH  28  29
ENDBRANCH  27  28
ENDBRANCH   1  27
TORSDOF 20
ENDMDL
MODEL 3
REMARK VINA RESULT:     -12.0      2.477      4.063
REMARK SMILES COc1cc(CC(=O)N[C@@H](CC(=O)NCCCCNC(=O)c2ccc(-c3c4nc(c(-c5ccc(S(=O)(=O)[O-])cc5)c5ccc([nH]5)c(-c5ccc(S(=O)(=O)[O-])cc5)c5nc(c(-c6ccc(S(=O)(=O)[O-])cc6)c6ccc3[nH]6)C=C5)C=C4)cc2)c2cccs2)ccc1C
REMARK SMILES IDX 15 1 14 2 12 3 13 4 11 6 10 7 9 8 7 9 8 10 6 12 5 13 3 14
REMARK SMILES IDX 4 15 89 16 88 17 90 18 87 19 2 20 1 21 82 22 83 23 86 24
REMARK SMILES IDX 84 25 85 26 16 27 17 28 18 29 19 30 20 31 21 33 22 34 23 35
REMARK SMILES IDX 81 36 24 37 80 38 25 39 26 40 27 41 74 42 28 43 79 44 73 45
REMARK SMILES IDX 75 46 29 47 78 48 72 49 71 50 30 52 60 53 41 54 59 55 42 56
REMARK SMILES IDX 45 57 58 58 76 59 43 60 44 61 57 63 77 64 46 65 31 66 32 67
REMARK SMILES IDX 40 68 33 69 39 70 34 71 35 72 36 73 37 74 38 75 61 76 62 77
REMARK SMILES IDX 70 78 63 79 69 80 64 81 65 82 66 83 67 84 68 85 47 86 48 87
REMARK SMILES IDX 56 88 49 89 55 90 50 91 51 92 52 93 53 94 54 95
REMARK H PARENT 14 5 9 11 19 32 75 51 45 62
REMARK Flexibility Score: inf
ROOT
ATOM      1  C   UNL A   1      33.247  28.921  23.477  1.00  0.00     0.116 C 
ENDROOT
BRANCH   1   2
ATOM      2  N   UNL A   1      33.611  27.635  22.898  1.00  0.00    -0.356 N 
ATOM      3  C   UNL A   1      32.847  26.640  22.371  1.00  0.00     0.222 C 
ATOM      4  O   UNL A   1      33.420  25.680  21.849  1.00  0.00    -0.275 OA
ATOM      5  H   UNL A   1      34.579  27.453  22.886  1.00  0.00     0.163 HD
BRANCH   3   6
ATOM      6  C   UNL A   1      31.334  26.709  22.378  1.00  0.00     0.130 C 
BRANCH   6   7
ATOM      7  C   UNL A   1      30.620  27.447  23.520  1.00  0.00     0.131 C 
BRANCH   7   8
ATOM      8  N   UNL A   1      30.087  26.585  24.560  1.00  0.00    -0.348 N 
ATOM      9  C   UNL A   1      30.643  25.836  25.540  1.00  0.00     0.224 C 
ATOM     10  O   UNL A   1      29.876  25.107  26.177  1.00  0.00    -0.275 OA
ATOM     11  H   UNL A   1      29.104  26.537  24.552  1.00  0.00     0.164 HD
BRANCH   9  12
ATOM     12  C   UNL A   1      32.071  26.000  26.003  1.00  0.00     0.135 C 
BRANCH  12  13
ATOM     13  C   UNL A   1      33.121  25.043  25.510  1.00  0.00    -0.035 A 
ATOM     14  C   UNL A   1      33.665  22.983  24.314  1.00  0.00     0.122 A 
ATOM     15  C   UNL A   1      32.725  23.878  24.832  1.00  0.00     0.051 A 
ATOM     16  C   UNL A   1      35.032  23.238  24.491  1.00  0.00    -0.009 A 
ATOM     17  C   UNL A   1      35.429  24.418  25.143  1.00  0.00     0.007 A 
ATOM     18  C   UNL A   1      36.093  22.323  23.945  1.00  0.00     0.048 C 
ATOM     19  C   UNL A   1      34.483  25.317  25.644  1.00  0.00     0.005 A 
BRANCH  14  20
ATOM     20  O   UNL A   1      33.321  21.828  23.660  1.00  0.00    -0.496 OA
ATOM     21  C   UNL A   1      32.875  20.758  24.486  1.00  0.00     0.278 C 
ENDBRANCH  14  20
ENDBRANCH  12  13
ENDBRANCH   9  12
ENDBRANCH   7   8
BRANCH   7  22
ATOM     22  C   UNL A   1      29.493  28.391  23.138  1.00  0.00     0.027 A 
ATOM     23  C   UNL A   1      28.141  28.219  23.388  1.00  0.00     0.017 A 
ATOM     24  S   UNL A   1      29.746  29.770  22.139  1.00  0.00    -0.147 S 
ATOM     25  C   UNL A   1      27.333  29.237  22.802  1.00  0.00     0.012 A 
ATOM     26  C   UNL A   1      28.089  30.167  22.127  1.00  0.00     0.065 A 
ENDBRANCH   7  22
ENDBRANCH   6   7
ENDBRANCH   3   6
ENDBRANCH   1   2
BRANCH   1  27
ATOM     27  C   UNL A   1      33.551  29.014  24.978  1.00  0.00     0.023 C 
BRANCH  27  28
ATOM     28  C   UNL A   1      32.460  29.622  25.847  1.00  0.00     0.023 C 
BRANCH  28  29
ATOM     29  C   UNL A   1      32.932  29.936  27.253  1.00  0.00     0.116 C 
BRANCH  29  30
ATOM     30  N   UNL A   1      33.436  31.292  27.433  1.00  0.00    -0.352 N 
ATOM     31  C   UNL A   1      34.660  31.663  27.987  1.00  0.00     0.251 C 
ATOM     32  H   UNL A   1      32.852  32.024  27.129  1.00  0.00     0.163 HD
ATOM     33  O   UNL A   1      34.958  32.815  28.201  1.00  0.00    -0.269 OA
BRANCH  31  34
ATOM     34  C   UNL A   1      35.604  30.555  28.275  1.00  0.00     0.039 A 
ATOM     35  C   UNL A   1      35.868  30.250  29.613  1.00  0.00     0.014 A 
ATOM     36  C   UNL A   1      36.452  30.133  27.258  1.00  0.00     0.014 A 
ATOM     37  C   UNL A   1      37.105  29.702  29.950  1.00  0.00     0.010 A 
ATOM     38  C   UNL A   1      37.723  29.729  27.608  1.00  0.00     0.010 A 
ATOM     39  C   UNL A   1      38.072  29.553  28.957  1.00  0.00    -0.014 A 
BRANCH  39  40
ATOM     40  C   UNL A   1      39.492  29.308  29.217  1.00  0.00     0.031 A 
ATOM     41  C   UNL A   1      40.071  27.967  28.938  1.00  0.00     0.074 A 
ATOM     42  C   UNL A   1      40.319  30.307  29.607  1.00  0.00     0.049 A 
ATOM     43  N   UNL A   1      41.200  27.542  29.402  1.00  0.00    -0.248 NA
ATOM     44  C   UNL A   1      39.368  26.954  28.154  1.00  0.00     0.031 C 
ATOM     45  C   UNL A   1      41.781  30.300  29.532  1.00  0.00     0.029 A 
ATOM     46  N   UNL A   1      40.035  31.453  30.355  1.00  0.00    -0.354 N 
ATOM     47  C   UNL A   1      41.514  26.380  28.732  1.00  0.00     0.074 A 
ATOM     48  C   UNL A   1      40.300  26.004  28.054  1.00  0.00     0.031 C 
ATOM     49  C   UNL A   1      42.264  31.162  30.438  1.00  0.00     0.029 A 
ATOM     50  C   UNL A   1      41.136  31.648  31.209  1.00  0.00     0.049 A 
ATOM     51  H   UNL A   1      39.227  32.011  30.295  1.00  0.00     0.167 HD
ATOM     52  C   UNL A   1      42.807  25.945  28.710  1.00  0.00     0.031 A 
ATOM     53  C   UNL A   1      41.069  31.679  32.573  1.00  0.00     0.031 A 
ATOM     54  C   UNL A   1      43.648  26.699  29.640  1.00  0.00     0.049 A 
ATOM     55  C   UNL A   1      41.974  30.671  33.248  1.00  0.00     0.074 A 
ATOM     56  C   UNL A   1      44.615  27.679  29.482  1.00  0.00     0.029 A 
ATOM     57  N   UNL A   1      43.357  26.653  30.997  1.00  0.00    -0.354 N 
ATOM     58  N   UNL A   1      42.603  29.718  32.620  1.00  0.00    -0.248 NA
ATOM     59  C   UNL A   1      42.188  30.612  34.692  1.00  0.00     0.031 C 
ATOM     60  C   UNL A   1      44.858  28.266  30.753  1.00  0.00     0.029 A 
ATOM     61  C   UNL A   1      44.058  27.625  31.682  1.00  0.00     0.049 A 
ATOM     62  H   UNL A   1      42.734  26.014  31.414  1.00  0.00     0.167 HD
ATOM     63  C   UNL A   1      43.236  28.901  33.523  1.00  0.00     0.074 A 
ATOM     64  C   UNL A   1      42.975  29.527  34.806  1.00  0.00     0.031 C 
ATOM     65  C   UNL A   1      43.886  27.766  33.125  1.00  0.00     0.031 A 
BRANCH  52  66
ATOM     66  C   UNL A   1      43.365  25.008  27.653  1.00  0.00    -0.014 A 
ATOM     67  C   UNL A   1      44.433  24.144  27.979  1.00  0.00     0.010 A 
ATOM     68  C   UNL A   1      42.954  24.980  26.307  1.00  0.00     0.010 A 
ATOM     69  C   UNL A   1      45.104  23.379  27.008  1.00  0.00     0.020 A 
ATOM     70  C   UNL A   1      43.624  24.241  25.321  1.00  0.00     0.020 A 
ATOM     71  C   UNL A   1      44.709  23.455  25.676  1.00  0.00     0.054 A 
BRANCH  71  72
ATOM     72  S   UNL A   1      45.624  22.532  24.414  1.00  0.00     0.124 S 
ATOM     73  O   UNL A   1      46.514  23.550  23.863  1.00  0.00    -0.237 OA
ATOM     74  O   UNL A   1      46.270  21.485  25.198  1.00  0.00    -0.237 OA
ATOM     75  O   UNL A   1      44.582  22.067  23.500  1.00  0.00    -0.744 OA
ENDBRANCH  71  72
ENDBRANCH  52  66
BRANCH  53  76
ATOM     76  C   UNL A   1      39.767  32.145  33.114  1.00  0.00    -0.014 A 
ATOM     77  C   UNL A   1      39.586  33.539  33.240  1.00  0.00     0.010 A 
ATOM     78  C   UNL A   1      38.639  31.308  33.058  1.00  0.00     0.010 A 
ATOM     79  C   UNL A   1      38.315  34.098  33.113  1.00  0.00     0.020 A 
ATOM     80  C   UNL A   1      37.361  31.868  32.939  1.00  0.00     0.020 A 
ATOM     81  C   UNL A   1      37.222  33.258  32.892  1.00  0.00     0.054 A 
BRANCH  81  82
ATOM     82  S   UNL A   1      35.681  34.015  32.297  1.00  0.00     0.124 S 
ATOM     83  O   UNL A   1      35.611  35.240  33.086  1.00  0.00    -0.237 OA
ATOM     84  O   UNL A   1      35.980  34.187  30.876  1.00  0.00    -0.237 OA
ATOM     85  O   UNL A   1      34.673  33.005  32.602  1.00  0.00    -0.744 OA
ENDBRANCH  81  82
ENDBRANCH  53  76
BRANCH  65  86
ATOM     86  C   UNL A   1      44.463  26.685  34.018  1.00  0.00    -0.014 A 
ATOM     87  C   UNL A   1      45.706  26.755  34.667  1.00  0.00     0.010 A 
ATOM     88  C   UNL A   1      43.658  25.556  34.319  1.00  0.00     0.010 A 
ATOM     89  C   UNL A   1      46.146  25.730  35.521  1.00  0.00     0.020 A 
ATOM     90  C   UNL A   1      44.066  24.552  35.203  1.00  0.00     0.020 A 
ATOM     91  C   UNL A   1      45.324  24.633  35.781  1.00  0.00     0.054 A 
BRANCH  91  92
ATOM     92  S   UNL A   1      45.873  23.350  36.936  1.00  0.00     0.124 S 
ATOM     93  O   UNL A   1      45.249  23.781  38.184  1.00  0.00    -0.237 OA
ATOM     94  O   UNL A   1      45.324  22.127  36.352  1.00  0.00    -0.237 OA
ATOM     95  O   UNL A   1      47.329  23.451  36.893  1.00  0.00    -0.744 OA
ENDBRANCH  91  92
ENDBRANCH  65  86
ENDBRANCH  39  40
ENDBRANCH  31  34
ENDBRANCH  29  30
ENDBRANCH  28  29
ENDBRANCH  27  28
ENDBRANCH   1  27
TORSDOF 20
ENDMDL
