MODEL 1
REMARK VINA RESULT:     -10.1      0.000      0.000
REMARK SMILES C[C@H](Cc1cccs1)N(C)C(=O)N1CC[C@@H](CC(=O)NCCCCNC(=O)c2ccc(-c3c4nc(c(-c5ccc(S(=O)(=O)[O-])cc5)c5ccc([nH]5)c(-c5ccc(S(=O)(=O)[O-])cc5)c5nc(c(-c6ccc(S(=O)(=O)[O-])cc6)c6ccc3[nH]6)C=C5)C=C4)cc2)C1
REMARK SMILES IDX 21 1 20 2 18 3 19 4 17 6 16 7 13 8 14 9 88 10 15 11 11 12
REMARK SMILES IDX 12 13 9 14 10 15 2 16 1 17 3 18 4 19 5 20 8 21 6 22 7 23
REMARK SMILES IDX 22 24 23 25 24 26 25 27 26 28 27 30 28 31 29 32 87 33 30 34
REMARK SMILES IDX 86 35 31 36 32 37 33 38 80 39 34 40 85 41 79 42 81 43 35 44
REMARK SMILES IDX 84 45 78 46 77 47 36 49 66 50 47 51 65 52 48 53 51 54 64 55
REMARK SMILES IDX 82 56 49 57 50 58 63 60 83 61 52 62 37 63 38 64 46 65 39 66
REMARK SMILES IDX 45 67 40 68 41 69 42 70 43 71 44 72 67 73 68 74 76 75 69 76
REMARK SMILES IDX 75 77 70 78 71 79 72 80 73 81 74 82 53 83 54 84 62 85 55 86
REMARK SMILES IDX 61 87 56 88 57 89 58 90 59 91 60 92
REMARK H PARENT 20 5 25 29 81 48 51 59
REMARK Flexibility Score: inf
ROOT
ATOM      1  C   UNL A   1      39.637  21.353  26.120  1.00  0.00     0.116 C 
ENDROOT
BRANCH   1   2
ATOM      2  N   UNL A   1      39.039  22.583  26.617  1.00  0.00    -0.356 N 
ATOM      3  C   UNL A   1      37.968  23.269  26.118  1.00  0.00     0.220 C 
ATOM      4  O   UNL A   1      37.757  24.422  26.493  1.00  0.00    -0.275 OA
ATOM      5  H   UNL A   1      39.461  22.972  27.417  1.00  0.00     0.163 HD
BRANCH   3   6
ATOM      6  C   UNL A   1      37.026  22.578  25.151  1.00  0.00     0.105 C 
BRANCH   6   7
ATOM      7  C   UNL A   1      35.988  21.602  25.735  1.00  0.00     0.020 C 
ATOM      8  N   UNL A   1      33.715  22.229  26.205  1.00  0.00    -0.324 N 
ATOM      9  C   UNL A   1      33.800  21.978  24.781  1.00  0.00     0.122 C 
ATOM     10  C   UNL A   1      35.036  22.111  26.821  1.00  0.00     0.125 C 
ATOM     11  C   UNL A   1      35.030  21.095  24.641  1.00  0.00     0.027 C 
BRANCH   8  12
ATOM     12  C   UNL A   1      32.752  22.976  26.846  1.00  0.00     0.320 C 
ATOM     13  O   UNL A   1      32.447  22.695  28.004  1.00  0.00    -0.248 OA
BRANCH  12  14
ATOM     14  N   UNL A   1      32.096  23.974  26.147  1.00  0.00    -0.325 N 
ATOM     15  C   UNL A   1      30.839  23.788  25.442  1.00  0.00     0.149 C 
BRANCH  14  16
ATOM     16  C   UNL A   1      32.570  25.377  26.271  1.00  0.00     0.088 C 
ATOM     17  C   UNL A   1      31.483  26.446  26.108  1.00  0.00     0.031 C 
BRANCH  16  18
ATOM     18  C   UNL A   1      33.877  25.688  25.485  1.00  0.00     0.071 C 
BRANCH  18  19
ATOM     19  C   UNL A   1      33.782  26.617  24.302  1.00  0.00     0.007 A 
ATOM     20  C   UNL A   1      33.960  27.987  24.249  1.00  0.00     0.015 A 
ATOM     21  S   UNL A   1      33.431  25.985  22.742  1.00  0.00    -0.149 S 
ATOM     22  C   UNL A   1      33.708  28.526  22.953  1.00  0.00     0.012 A 
ATOM     23  C   UNL A   1      33.428  27.541  22.034  1.00  0.00     0.065 A 
ENDBRANCH  18  19
ENDBRANCH  16  18
ENDBRANCH  14  16
ENDBRANCH  12  14
ENDBRANCH   8  12
ENDBRANCH   6   7
ENDBRANCH   3   6
ENDBRANCH   1   2
BRANCH   1  24
ATOM     24  C   UNL A   1      41.151  21.427  26.249  1.00  0.00     0.023 C 
BRANCH  24  25
ATOM     25  C   UNL A   1      41.665  22.169  27.475  1.00  0.00     0.023 C 
BRANCH  25  26
ATOM     26  C   UNL A   1      42.611  23.307  27.137  1.00  0.00     0.116 C 
BRANCH  26  27
ATOM     27  N   UNL A   1      42.137  24.149  26.046  1.00  0.00    -0.352 N 
ATOM     28  C   UNL A   1      41.649  25.436  26.103  1.00  0.00     0.251 C 
ATOM     29  H   UNL A   1      42.169  23.745  25.149  1.00  0.00     0.163 HD
ATOM     30  O   UNL A   1      41.217  25.982  25.102  1.00  0.00    -0.269 OA
BRANCH  28  31
ATOM     31  C   UNL A   1      41.604  26.118  27.416  1.00  0.00     0.039 A 
ATOM     32  C   UNL A   1      42.563  27.090  27.700  1.00  0.00     0.014 A 
ATOM     33  C   UNL A   1      40.571  25.858  28.318  1.00  0.00     0.014 A 
ATOM     34  C   UNL A   1      42.437  27.862  28.857  1.00  0.00     0.010 A 
ATOM     35  C   UNL A   1      40.392  26.691  29.414  1.00  0.00     0.010 A 
ATOM     36  C   UNL A   1      41.324  27.699  29.698  1.00  0.00    -0.014 A 
BRANCH  36  37
ATOM     37  C   UNL A   1      41.118  28.556  30.892  1.00  0.00     0.031 A 
ATOM     38  C   UNL A   1      40.029  29.594  30.880  1.00  0.00     0.074 A 
ATOM     39  C   UNL A   1      41.953  28.457  31.945  1.00  0.00     0.049 A 
ATOM     40  N   UNL A   1      39.759  30.515  31.767  1.00  0.00    -0.248 NA
ATOM     41  C   UNL A   1      39.150  29.622  29.698  1.00  0.00     0.031 C 
ATOM     42  C   UNL A   1      43.083  27.529  32.056  1.00  0.00     0.029 A 
ATOM     43  N   UNL A   1      41.987  29.156  33.126  1.00  0.00    -0.354 N 
ATOM     44  C   UNL A   1      38.697  31.243  31.242  1.00  0.00     0.074 A 
ATOM     45  C   UNL A   1      38.413  30.696  29.934  1.00  0.00     0.031 C 
ATOM     46  C   UNL A   1      43.680  27.700  33.247  1.00  0.00     0.029 A 
ATOM     47  C   UNL A   1      43.004  28.771  33.969  1.00  0.00     0.049 A 
ATOM     48  H   UNL A   1      41.343  29.866  33.349  1.00  0.00     0.167 HD
ATOM     49  C   UNL A   1      38.000  32.257  31.807  1.00  0.00     0.031 A 
ATOM     50  C   UNL A   1      43.353  29.234  35.183  1.00  0.00     0.031 A 
ATOM     51  C   UNL A   1      38.264  32.779  33.118  1.00  0.00     0.049 A 
ATOM     52  C   UNL A   1      42.547  30.344  35.803  1.00  0.00     0.074 A 
ATOM     53  C   UNL A   1      37.595  33.782  33.798  1.00  0.00     0.029 A 
ATOM     54  N   UNL A   1      39.270  32.327  33.958  1.00  0.00    -0.354 N 
ATOM     55  N   UNL A   1      41.521  30.993  35.304  1.00  0.00    -0.248 NA
ATOM     56  C   UNL A   1      42.935  30.774  37.153  1.00  0.00     0.031 C 
ATOM     57  C   UNL A   1      38.212  33.951  35.042  1.00  0.00     0.029 A 
ATOM     58  C   UNL A   1      39.238  33.026  35.151  1.00  0.00     0.049 A 
ATOM     59  H   UNL A   1      39.911  31.613  33.739  1.00  0.00     0.167 HD
ATOM     60  C   UNL A   1      41.125  31.888  36.291  1.00  0.00     0.074 A 
ATOM     61  C   UNL A   1      42.011  31.687  37.420  1.00  0.00     0.031 C 
ATOM     62  C   UNL A   1      40.120  32.798  36.266  1.00  0.00     0.031 A 
BRANCH  49  63
ATOM     63  C   UNL A   1      36.869  32.845  31.008  1.00  0.00    -0.014 A 
ATOM     64  C   UNL A   1      35.543  32.427  31.227  1.00  0.00     0.010 A 
ATOM     65  C   UNL A   1      37.125  33.838  30.047  1.00  0.00     0.010 A 
ATOM     66  C   UNL A   1      34.498  32.959  30.469  1.00  0.00     0.020 A 
ATOM     67  C   UNL A   1      36.079  34.394  29.304  1.00  0.00     0.020 A 
ATOM     68  C   UNL A   1      34.773  33.937  29.508  1.00  0.00     0.054 A 
BRANCH  68  69
ATOM     69  S   UNL A   1      33.396  34.626  28.552  1.00  0.00     0.124 S 
ATOM     70  O   UNL A   1      32.470  35.029  29.608  1.00  0.00    -0.237 OA
ATOM     71  O   UNL A   1      34.027  35.722  27.820  1.00  0.00    -0.237 OA
ATOM     72  O   UNL A   1      32.952  33.506  27.726  1.00  0.00    -0.744 OA
ENDBRANCH  68  69
ENDBRANCH  49  63
BRANCH  50  73
ATOM     73  C   UNL A   1      44.511  28.643  35.909  1.00  0.00    -0.014 A 
ATOM     74  C   UNL A   1      44.328  27.548  36.771  1.00  0.00     0.010 A 
ATOM     75  C   UNL A   1      45.801  29.181  35.750  1.00  0.00     0.010 A 
ATOM     76  C   UNL A   1      45.407  27.024  37.489  1.00  0.00     0.020 A 
ATOM     77  C   UNL A   1      46.888  28.643  36.447  1.00  0.00     0.020 A 
ATOM     78  C   UNL A   1      46.680  27.578  37.327  1.00  0.00     0.054 A 
BRANCH  78  79
ATOM     79  S   UNL A   1      48.072  26.870  38.250  1.00  0.00     0.124 S 
ATOM     80  O   UNL A   1      47.853  27.412  39.588  1.00  0.00    -0.237 OA
ATOM     81  O   UNL A   1      47.852  25.433  38.106  1.00  0.00    -0.237 OA
ATOM     82  O   UNL A   1      49.243  27.387  37.547  1.00  0.00    -0.744 OA
ENDBRANCH  78  79
ENDBRANCH  50  73
BRANCH  62  83
ATOM     83  C   UNL A   1      39.895  33.612  37.510  1.00  0.00    -0.014 A 
ATOM     84  C   UNL A   1      40.550  34.840  37.704  1.00  0.00     0.010 A 
ATOM     85  C   UNL A   1      38.970  33.164  38.471  1.00  0.00     0.010 A 
ATOM     86  C   UNL A   1      40.305  35.595  38.853  1.00  0.00     0.020 A 
ATOM     87  C   UNL A   1      38.705  33.927  39.610  1.00  0.00     0.020 A 
ATOM     88  C   UNL A   1      39.385  35.132  39.801  1.00  0.00     0.054 A 
BRANCH  88  89
ATOM     89  S   UNL A   1      39.046  36.151  41.263  1.00  0.00     0.124 S 
ATOM     90  O   UNL A   1      40.287  36.016  42.019  1.00  0.00    -0.237 OA
ATOM     91  O   UNL A   1      38.801  37.471  40.686  1.00  0.00    -0.237 OA
ATOM     92  O   UNL A   1      37.876  35.515  41.863  1.00  0.00    -0.744 OA
ENDBRANCH  88  89
ENDBRANCH  62  83
ENDBRANCH  36  37
ENDBRANCH  28  31
ENDBRANCH  26  27
ENDBRANCH  25  26
ENDBRANCH  24  25
ENDBRANCH   1  24
TORSDOF 20
ENDMDL
MODEL 2
REMARK VINA RESULT:     -10.1      1.230      8.219
REMARK SMILES C[C@H](Cc1cccs1)N(C)C(=O)N1CC[C@@H](CC(=O)NCCCCNC(=O)c2ccc(-c3c4nc(c(-c5ccc(S(=O)(=O)[O-])cc5)c5ccc([nH]5)c(-c5ccc(S(=O)(=O)[O-])cc5)c5nc(c(-c6ccc(S(=O)(=O)[O-])cc6)c6ccc3[nH]6)C=C5)C=C4)cc2)C1
REMARK SMILES IDX 21 1 20 2 18 3 19 4 17 6 16 7 13 8 14 9 88 10 15 11 11 12
REMARK SMILES IDX 12 13 9 14 10 15 2 16 1 17 3 18 4 19 5 20 8 21 6 22 7 23
REMARK SMILES IDX 22 24 23 25 24 26 25 27 26 28 27 30 28 31 29 32 87 33 30 34
REMARK SMILES IDX 86 35 31 36 32 37 33 38 80 39 34 40 85 41 79 42 81 43 35 44
REMARK SMILES IDX 84 45 78 46 77 47 36 49 66 50 47 51 65 52 48 53 51 54 64 55
REMARK SMILES IDX 82 56 49 57 50 58 63 60 83 61 52 62 37 63 38 64 46 65 39 66
REMARK SMILES IDX 45 67 40 68 41 69 42 70 43 71 44 72 67 73 68 74 76 75 69 76
REMARK SMILES IDX 75 77 70 78 71 79 72 80 73 81 74 82 53 83 54 84 62 85 55 86
REMARK SMILES IDX 61 87 56 88 57 89 58 90 59 91 60 92
REMARK H PARENT 20 5 25 29 81 48 51 59
REMARK Flexibility Score: inf
ROOT
ATOM      1  C   UNL A   1      38.669  21.276  25.775  1.00  0.00     0.116 C 
ENDROOT
BRANCH   1   2
ATOM      2  N   UNL A   1      38.017  22.535  25.450  1.00  0.00    -0.356 N 
ATOM      3  C   UNL A   1      36.792  22.736  24.881  1.00  0.00     0.220 C 
ATOM      4  O   UNL A   1      36.505  23.846  24.433  1.00  0.00    -0.275 OA
ATOM      5  H   UNL A   1      38.526  23.349  25.669  1.00  0.00     0.163 HD
BRANCH   3   6
ATOM      6  C   UNL A   1      35.785  21.602  24.862  1.00  0.00     0.105 C 
BRANCH   6   7
ATOM      7  C   UNL A   1      34.845  21.456  26.071  1.00  0.00     0.020 C 
ATOM      8  N   UNL A   1      32.709  22.553  26.215  1.00  0.00    -0.324 N 
ATOM      9  C   UNL A   1      32.531  21.383  25.378  1.00  0.00     0.122 C 
ATOM     10  C   UNL A   1      34.116  22.702  26.585  1.00  0.00     0.125 C 
ATOM     11  C   UNL A   1      33.693  20.481  25.762  1.00  0.00     0.027 C 
BRANCH   8  12
ATOM     12  C   UNL A   1      31.896  23.663  26.250  1.00  0.00     0.320 C 
ATOM     13  O   UNL A   1      31.344  23.970  27.305  1.00  0.00    -0.248 OA
BRANCH  12  14
ATOM     14  N   UNL A   1      31.658  24.362  25.079  1.00  0.00    -0.325 N 
ATOM     15  C   UNL A   1      31.000  23.801  23.911  1.00  0.00     0.149 C 
BRANCH  14  16
ATOM     16  C   UNL A   1      31.892  25.830  25.051  1.00  0.00     0.088 C 
ATOM     17  C   UNL A   1      32.189  26.412  23.664  1.00  0.00     0.031 C 
BRANCH  16  18
ATOM     18  C   UNL A   1      32.843  26.352  26.167  1.00  0.00     0.071 C 
BRANCH  18  19
ATOM     19  C   UNL A   1      32.759  27.811  26.536  1.00  0.00     0.007 A 
ATOM     20  C   UNL A   1      31.643  28.608  26.708  1.00  0.00     0.015 A 
ATOM     21  S   UNL A   1      34.199  28.704  26.832  1.00  0.00    -0.149 S 
ATOM     22  C   UNL A   1      31.973  29.968  26.980  1.00  0.00     0.012 A 
ATOM     23  C   UNL A   1      33.332  30.153  27.093  1.00  0.00     0.065 A 
ENDBRANCH  18  19
ENDBRANCH  16  18
ENDBRANCH  14  16
ENDBRANCH  12  14
ENDBRANCH   8  12
ENDBRANCH   6   7
ENDBRANCH   3   6
ENDBRANCH   1   2
BRANCH   1  24
ATOM     24  C   UNL A   1      40.134  21.522  26.104  1.00  0.00     0.023 C 
BRANCH  24  25
ATOM     25  C   UNL A   1      40.402  22.108  27.483  1.00  0.00     0.023 C 
BRANCH  25  26
ATOM     26  C   UNL A   1      41.408  23.245  27.467  1.00  0.00     0.116 C 
BRANCH  26  27
ATOM     27  N   UNL A   1      41.339  24.063  26.264  1.00  0.00    -0.352 N 
ATOM     28  C   UNL A   1      41.246  25.434  26.161  1.00  0.00     0.251 C 
ATOM     29  H   UNL A   1      41.361  23.572  25.412  1.00  0.00     0.163 HD
ATOM     30  O   UNL A   1      41.119  25.968  25.072  1.00  0.00    -0.269 OA
BRANCH  28  31
ATOM     31  C   UNL A   1      41.243  26.238  27.404  1.00  0.00     0.039 A 
ATOM     32  C   UNL A   1      42.177  27.266  27.540  1.00  0.00     0.014 A 
ATOM     33  C   UNL A   1      40.269  26.032  28.382  1.00  0.00     0.014 A 
ATOM     34  C   UNL A   1      42.080  28.142  28.623  1.00  0.00     0.010 A 
ATOM     35  C   UNL A   1      40.114  26.960  29.402  1.00  0.00     0.010 A 
ATOM     36  C   UNL A   1      41.020  28.023  29.536  1.00  0.00    -0.014 A 
BRANCH  36  37
ATOM     37  C   UNL A   1      40.843  28.984  30.653  1.00  0.00     0.031 A 
ATOM     38  C   UNL A   1      41.705  28.861  31.880  1.00  0.00     0.074 A 
ATOM     39  C   UNL A   1      39.863  29.908  30.599  1.00  0.00     0.049 A 
ATOM     40  N   UNL A   1      41.634  29.520  33.007  1.00  0.00    -0.248 NA
ATOM     41  C   UNL A   1      42.764  27.837  31.849  1.00  0.00     0.031 C 
ATOM     42  C   UNL A   1      38.924  30.094  29.489  1.00  0.00     0.029 A 
ATOM     43  N   UNL A   1      39.487  30.864  31.510  1.00  0.00    -0.354 N 
ATOM     44  C   UNL A   1      42.620  28.977  33.823  1.00  0.00     0.074 A 
ATOM     45  C   UNL A   1      43.234  27.896  33.085  1.00  0.00     0.031 C 
ATOM     46  C   UNL A   1      38.099  31.114  29.774  1.00  0.00     0.029 A 
ATOM     47  C   UNL A   1      38.422  31.632  31.098  1.00  0.00     0.049 A 
ATOM     48  H   UNL A   1      39.937  30.987  32.377  1.00  0.00     0.167 HD
ATOM     49  C   UNL A   1      43.003  29.361  35.064  1.00  0.00     0.031 A 
ATOM     50  C   UNL A   1      37.778  32.636  31.722  1.00  0.00     0.031 A 
ATOM     51  C   UNL A   1      42.413  30.455  35.783  1.00  0.00     0.049 A 
ATOM     52  C   UNL A   1      38.239  33.063  33.090  1.00  0.00     0.074 A 
ATOM     53  C   UNL A   1      42.750  30.948  37.031  1.00  0.00     0.029 A 
ATOM     54  N   UNL A   1      41.372  31.239  35.309  1.00  0.00    -0.354 N 
ATOM     55  N   UNL A   1      39.200  32.560  33.828  1.00  0.00    -0.248 NA
ATOM     56  C   UNL A   1      37.539  34.200  33.702  1.00  0.00     0.031 C 
ATOM     57  C   UNL A   1      41.896  32.017  37.322  1.00  0.00     0.029 A 
ATOM     58  C   UNL A   1      41.056  32.215  36.237  1.00  0.00     0.049 A 
ATOM     59  H   UNL A   1      40.925  31.119  34.440  1.00  0.00     0.167 HD
ATOM     60  C   UNL A   1      39.237  33.339  34.979  1.00  0.00     0.074 A 
ATOM     61  C   UNL A   1      38.213  34.354  34.833  1.00  0.00     0.031 C 
ATOM     62  C   UNL A   1      40.044  33.223  36.063  1.00  0.00     0.031 A 
BRANCH  49  63
ATOM     63  C   UNL A   1      44.132  28.600  35.703  1.00  0.00    -0.014 A 
ATOM     64  C   UNL A   1      45.467  29.003  35.514  1.00  0.00     0.010 A 
ATOM     65  C   UNL A   1      43.861  27.486  36.516  1.00  0.00     0.010 A 
ATOM     66  C   UNL A   1      46.513  28.282  36.092  1.00  0.00     0.020 A 
ATOM     67  C   UNL A   1      44.904  26.776  37.119  1.00  0.00     0.020 A 
ATOM     68  C   UNL A   1      46.226  27.168  36.888  1.00  0.00     0.054 A 
BRANCH  68  69
ATOM     69  S   UNL A   1      47.602  26.262  37.642  1.00  0.00     0.124 S 
ATOM     70  O   UNL A   1      48.720  26.645  36.784  1.00  0.00    -0.237 OA
ATOM     71  O   UNL A   1      47.639  26.803  38.999  1.00  0.00    -0.237 OA
ATOM     72  O   UNL A   1      47.191  24.863  37.545  1.00  0.00    -0.744 OA
ENDBRANCH  68  69
ENDBRANCH  49  63
BRANCH  50  73
ATOM     73  C   UNL A   1      36.637  33.324  31.058  1.00  0.00    -0.014 A 
ATOM     74  C   UNL A   1      36.796  33.904  29.786  1.00  0.00     0.010 A 
ATOM     75  C   UNL A   1      35.389  33.414  31.699  1.00  0.00     0.010 A 
ATOM     76  C   UNL A   1      35.740  34.592  29.184  1.00  0.00     0.020 A 
ATOM     77  C   UNL A   1      34.321  34.079  31.088  1.00  0.00     0.020 A 
ATOM     78  C   UNL A   1      34.509  34.680  29.841  1.00  0.00     0.054 A 
BRANCH  78  79
ATOM     79  S   UNL A   1      33.141  35.558  29.033  1.00  0.00     0.124 S 
ATOM     80  O   UNL A   1      33.850  36.573  28.260  1.00  0.00    -0.237 OA
ATOM     81  O   UNL A   1      32.501  34.501  28.254  1.00  0.00    -0.237 OA
ATOM     82  O   UNL A   1      32.352  36.060  30.154  1.00  0.00    -0.744 OA
ENDBRANCH  78  79
ENDBRANCH  50  73
BRANCH  62  83
ATOM     83  C   UNL A   1      39.884  34.245  37.154  1.00  0.00    -0.014 A 
ATOM     84  C   UNL A   1      40.551  35.480  37.097  1.00  0.00     0.010 A 
ATOM     85  C   UNL A   1      39.008  33.983  38.223  1.00  0.00     0.010 A 
ATOM     86  C   UNL A   1      40.365  36.427  38.107  1.00  0.00     0.020 A 
ATOM     87  C   UNL A   1      38.802  34.936  39.222  1.00  0.00     0.020 A 
ATOM     88  C   UNL A   1      39.493  36.148  39.165  1.00  0.00     0.054 A 
BRANCH  88  89
ATOM     89  S   UNL A   1      39.231  37.411  40.440  1.00  0.00     0.124 S 
ATOM     90  O   UNL A   1      38.833  36.604  41.589  1.00  0.00    -0.237 OA
ATOM     91  O   UNL A   1      40.544  38.045  40.540  1.00  0.00    -0.237 OA
ATOM     92  O   UNL A   1      38.181  38.257  39.877  1.00  0.00    -0.744 OA
ENDBRANCH  88  89
ENDBRANCH  62  83
ENDBRANCH  36  37
ENDBRANCH  28  31
ENDBRANCH  26  27
ENDBRANCH  25  26
ENDBRANCH  24  25
ENDBRANCH   1  24
TORSDOF 20
ENDMDL
MODEL 3
REMARK VINA RESULT:      -9.1      6.199     11.513
REMARK SMILES C[C@H](Cc1cccs1)N(C)C(=O)N1CC[C@@H](CC(=O)NCCCCNC(=O)c2ccc(-c3c4nc(c(-c5ccc(S(=O)(=O)[O-])cc5)c5ccc([nH]5)c(-c5ccc(S(=O)(=O)[O-])cc5)c5nc(c(-c6ccc(S(=O)(=O)[O-])cc6)c6ccc3[nH]6)C=C5)C=C4)cc2)C1
REMARK SMILES IDX 21 1 20 2 18 3 19 4 17 6 16 7 13 8 14 9 88 10 15 11 11 12
REMARK SMILES IDX 12 13 9 14 10 15 2 16 1 17 3 18 4 19 5 20 8 21 6 22 7 23
REMARK SMILES IDX 22 24 23 25 24 26 25 27 26 28 27 30 28 31 29 32 87 33 30 34
REMARK SMILES IDX 86 35 31 36 32 37 33 38 80 39 34 40 85 41 79 42 81 43 35 44
REMARK SMILES IDX 84 45 78 46 77 47 36 49 66 50 47 51 65 52 48 53 51 54 64 55
REMARK SMILES IDX 82 56 49 57 50 58 63 60 83 61 52 62 37 63 38 64 46 65 39 66
REMARK SMILES IDX 45 67 40 68 41 69 42 70 43 71 44 72 67 73 68 74 76 75 69 76
REMARK SMILES IDX 75 77 70 78 71 79 72 80 73 81 74 82 53 83 54 84 62 85 55 86
REMARK SMILES IDX 61 87 56 88 57 89 58 90 59 91 60 92
REMARK H PARENT 20 5 25 29 81 48 51 59
REMARK Flexibility Score: inf
ROOT
ATOM      1  C   UNL A   1      34.425  28.847  26.418  1.00  0.00     0.116 C 
ENDROOT
BRANCH   1   2
ATOM      2  N   UNL A   1      33.306  28.010  26.822  1.00  0.00    -0.356 N 
ATOM      3  C   UNL A   1      31.969  28.283  26.745  1.00  0.00     0.220 C 
ATOM      4  O   UNL A   1      31.171  27.585  27.370  1.00  0.00    -0.275 OA
ATOM      5  H   UNL A   1      33.542  27.133  27.202  1.00  0.00     0.163 HD
BRANCH   3   6
ATOM      6  C   UNL A   1      31.489  29.405  25.846  1.00  0.00     0.105 C 
BRANCH   6   7
ATOM      7  C   UNL A   1      31.542  29.179  24.325  1.00  0.00     0.020 C 
ATOM      8  N   UNL A   1      31.232  27.022  23.307  1.00  0.00    -0.324 N 
ATOM      9  C   UNL A   1      29.914  27.532  23.629  1.00  0.00     0.122 C 
ATOM     10  C   UNL A   1      32.263  27.935  23.795  1.00  0.00     0.125 C 
ATOM     11  C   UNL A   1      30.125  29.035  23.738  1.00  0.00     0.027 C 
BRANCH   8  12
ATOM     12  C   UNL A   1      31.565  25.704  23.091  1.00  0.00     0.320 C 
ATOM     13  O   UNL A   1      31.476  25.240  21.956  1.00  0.00    -0.248 OA
BRANCH  12  14
ATOM     14  N   UNL A   1      31.919  24.912  24.170  1.00  0.00    -0.325 N 
ATOM     15  C   UNL A   1      30.984  24.426  25.170  1.00  0.00     0.149 C 
BRANCH  14  16
ATOM     16  C   UNL A   1      33.290  24.340  24.230  1.00  0.00     0.088 C 
ATOM     17  C   UNL A   1      33.853  23.863  22.885  1.00  0.00     0.031 C 
BRANCH  16  18
ATOM     18  C   UNL A   1      33.519  23.336  25.396  1.00  0.00     0.071 C 
BRANCH  18  19
ATOM     19  C   UNL A   1      33.475  21.864  25.076  1.00  0.00     0.007 A 
ATOM     20  C   UNL A   1      32.386  21.066  24.778  1.00  0.00     0.015 A 
ATOM     21  S   UNL A   1      34.933  20.954  25.022  1.00  0.00    -0.149 S 
ATOM     22  C   UNL A   1      32.738  19.694  24.608  1.00  0.00     0.012 A 
ATOM     23  C   UNL A   1      34.097  19.499  24.697  1.00  0.00     0.065 A 
ENDBRANCH  18  19
ENDBRANCH  16  18
ENDBRANCH  14  16
ENDBRANCH  12  14
ENDBRANCH   8  12
ENDBRANCH   6   7
ENDBRANCH   3   6
ENDBRANCH   1   2
BRANCH   1  24
ATOM     24  C   UNL A   1      35.101  29.434  27.648  1.00  0.00     0.023 C 
BRANCH  24  25
ATOM     25  C   UNL A   1      34.542  30.766  28.126  1.00  0.00     0.023 C 
BRANCH  25  26
ATOM     26  C   UNL A   1      35.578  31.646  28.802  1.00  0.00     0.116 C 
BRANCH  26  27
ATOM     27  N   UNL A   1      35.546  31.568  30.256  1.00  0.00    -0.352 N 
ATOM     28  C   UNL A   1      36.463  30.992  31.107  1.00  0.00     0.251 C 
ATOM     29  H   UNL A   1      34.764  31.982  30.689  1.00  0.00     0.163 HD
ATOM     30  O   UNL A   1      36.253  30.942  32.307  1.00  0.00    -0.269 OA
BRANCH  28  31
ATOM     31  C   UNL A   1      37.680  30.382  30.526  1.00  0.00     0.039 A 
ATOM     32  C   UNL A   1      38.042  30.720  29.221  1.00  0.00     0.014 A 
ATOM     33  C   UNL A   1      38.499  29.554  31.296  1.00  0.00     0.014 A 
ATOM     34  C   UNL A   1      39.272  30.291  28.717  1.00  0.00     0.010 A 
ATOM     35  C   UNL A   1      39.761  29.213  30.831  1.00  0.00     0.010 A 
ATOM     36  C   UNL A   1      40.160  29.574  29.535  1.00  0.00    -0.014 A 
BRANCH  36  37
ATOM     37  C   UNL A   1      41.507  29.172  29.058  1.00  0.00     0.031 A 
ATOM     38  C   UNL A   1      42.595  30.206  28.953  1.00  0.00     0.074 A 
ATOM     39  C   UNL A   1      41.726  27.908  28.646  1.00  0.00     0.049 A 
ATOM     40  N   UNL A   1      43.798  30.089  28.454  1.00  0.00    -0.248 NA
ATOM     41  C   UNL A   1      42.277  31.558  29.442  1.00  0.00     0.031 C 
ATOM     42  C   UNL A   1      40.737  26.825  28.645  1.00  0.00     0.029 A 
ATOM     43  N   UNL A   1      42.857  27.319  28.137  1.00  0.00    -0.354 N 
ATOM     44  C   UNL A   1      44.368  31.353  28.548  1.00  0.00     0.074 A 
ATOM     45  C   UNL A   1      43.361  32.234  29.095  1.00  0.00     0.031 C 
ATOM     46  C   UNL A   1      41.312  25.703  28.183  1.00  0.00     0.029 A 
ATOM     47  C   UNL A   1      42.694  25.990  27.820  1.00  0.00     0.049 A 
ATOM     48  H   UNL A   1      43.705  27.803  28.010  1.00  0.00     0.167 HD
ATOM     49  C   UNL A   1      45.627  31.743  28.236  1.00  0.00     0.031 A 
ATOM     50  C   UNL A   1      43.562  25.106  27.292  1.00  0.00     0.031 A 
ATOM     51  C   UNL A   1      46.636  30.859  27.721  1.00  0.00     0.049 A 
ATOM     52  C   UNL A   1      44.964  25.556  26.978  1.00  0.00     0.074 A 
ATOM     53  C   UNL A   1      47.952  31.145  27.405  1.00  0.00     0.029 A 
ATOM     54  N   UNL A   1      46.444  29.510  27.463  1.00  0.00    -0.354 N 
ATOM     55  N   UNL A   1      45.495  26.748  27.112  1.00  0.00    -0.248 NA
ATOM     56  C   UNL A   1      45.887  24.539  26.457  1.00  0.00     0.031 C 
ATOM     57  C   UNL A   1      48.551  29.972  26.933  1.00  0.00     0.029 A 
ATOM     58  C   UNL A   1      47.619  28.948  26.996  1.00  0.00     0.049 A 
ATOM     59  H   UNL A   1      45.598  29.024  27.595  1.00  0.00     0.167 HD
ATOM     60  C   UNL A   1      46.821  26.616  26.717  1.00  0.00     0.074 A 
ATOM     61  C   UNL A   1      47.015  25.227  26.354  1.00  0.00     0.031 C 
ATOM     62  C   UNL A   1      47.793  27.561  26.656  1.00  0.00     0.031 A 
BRANCH  49  63
ATOM     63  C   UNL A   1      45.980  33.185  28.471  1.00  0.00    -0.014 A 
ATOM     64  C   UNL A   1      46.462  33.612  29.722  1.00  0.00     0.010 A 
ATOM     65  C   UNL A   1      45.852  34.122  27.430  1.00  0.00     0.010 A 
ATOM     66  C   UNL A   1      46.769  34.956  29.943  1.00  0.00     0.020 A 
ATOM     67  C   UNL A   1      46.184  35.465  27.639  1.00  0.00     0.020 A 
ATOM     68  C   UNL A   1      46.623  35.876  28.901  1.00  0.00     0.054 A 
BRANCH  68  69
ATOM     69  S   UNL A   1      47.048  37.611  29.208  1.00  0.00     0.124 S 
ATOM     70  O   UNL A   1      48.000  37.882  28.135  1.00  0.00    -0.237 OA
ATOM     71  O   UNL A   1      45.757  38.285  29.086  1.00  0.00    -0.237 OA
ATOM     72  O   UNL A   1      47.613  37.596  30.555  1.00  0.00    -0.744 OA
ENDBRANCH  68  69
ENDBRANCH  49  63
BRANCH  50  73
ATOM     73  C   UNL A   1      43.142  23.700  27.040  1.00  0.00    -0.014 A 
ATOM     74  C   UNL A   1      42.767  23.289  25.748  1.00  0.00     0.010 A 
ATOM     75  C   UNL A   1      43.104  22.768  28.092  1.00  0.00     0.010 A 
ATOM     76  C   UNL A   1      42.327  21.983  25.520  1.00  0.00     0.020 A 
ATOM     77  C   UNL A   1      42.690  21.452  27.863  1.00  0.00     0.020 A 
ATOM     78  C   UNL A   1      42.286  21.073  26.581  1.00  0.00     0.054 A 
BRANCH  78  79
ATOM     79  S   UNL A   1      41.733  19.374  26.262  1.00  0.00     0.124 S 
ATOM     80  O   UNL A   1      42.465  19.043  25.042  1.00  0.00    -0.237 OA
ATOM     81  O   UNL A   1      42.161  18.668  27.467  1.00  0.00    -0.237 OA
ATOM     82  O   UNL A   1      40.288  19.511  26.109  1.00  0.00    -0.744 OA
ENDBRANCH  78  79
ENDBRANCH  50  73
BRANCH  62  83
ATOM     83  C   UNL A   1      49.162  27.115  26.226  1.00  0.00    -0.014 A 
ATOM     84  C   UNL A   1      49.604  27.298  24.905  1.00  0.00     0.010 A 
ATOM     85  C   UNL A   1      50.037  26.555  27.175  1.00  0.00     0.010 A 
ATOM     86  C   UNL A   1      50.892  26.903  24.533  1.00  0.00     0.020 A 
ATOM     87  C   UNL A   1      51.332  26.181  26.812  1.00  0.00     0.020 A 
ATOM     88  C   UNL A   1      51.747  26.345  25.489  1.00  0.00     0.054 A 
BRANCH  88  89
ATOM     89  S   UNL A   1      53.430  25.883  24.995  1.00  0.00     0.124 S 
ATOM     90  O   UNL A   1      53.760  26.929  24.032  1.00  0.00    -0.237 OA
ATOM     91  O   UNL A   1      54.163  25.935  26.258  1.00  0.00    -0.237 OA
ATOM     92  O   UNL A   1      53.269  24.544  24.432  1.00  0.00    -0.744 OA
ENDBRANCH  88  89
ENDBRANCH  62  83
ENDBRANCH  36  37
ENDBRANCH  28  31
ENDBRANCH  26  27
ENDBRANCH  25  26
ENDBRANCH  24  25
ENDBRANCH   1  24
TORSDOF 20
ENDMDL
