MODEL 1
REMARK VINA RESULT:     -12.8      0.000      0.000
REMARK SMILES CC(C)OC(=O)c1c(NC(=O)[C@H]2[C@@H](C(=O)NCCCCNC(=O)c3ccc(-c4c5nc(c(-c6ccc(S(=O)(=O)[O-])cc6)c6ccc([nH]6)c(-c6ccc(S(=O)(=O)[O-])cc6)c6nc(c(-c7ccc(S(=O)(=O)[O-])cc7)c7ccc4[nH]7)C=C6)C=C5)cc3)[C@@H]3C=C[C@H]2CC3)sc2c1CCC2
REMARK SMILES IDX 17 1 16 2 14 3 15 4 13 6 12 7 87 8 84 9 86 10 88 11 85 12
REMARK SMILES IDX 89 13 10 14 9 15 11 17 8 18 7 19 92 20 90 21 91 22 93 23
REMARK SMILES IDX 95 24 94 25 5 26 6 27 4 28 2 29 1 30 3 31 18 32 19 33 20 34
REMARK SMILES IDX 21 35 22 36 23 38 24 39 25 40 83 41 26 42 82 43 27 44 28 45
REMARK SMILES IDX 29 46 76 47 30 48 81 49 75 50 77 51 31 52 80 53 74 54 73 55
REMARK SMILES IDX 32 57 62 58 43 59 61 60 44 61 47 62 60 63 78 64 45 65 46 66
REMARK SMILES IDX 59 68 79 69 48 70 33 71 34 72 42 73 35 74 41 75 36 76 37 77
REMARK SMILES IDX 38 78 39 79 40 80 63 81 64 82 72 83 65 84 71 85 66 86 67 87
REMARK SMILES IDX 68 88 69 89 70 90 49 91 50 92 58 93 51 94 57 95 52 96 53 97
REMARK SMILES IDX 54 98 55 99 56 100
REMARK H PARENT 16 5 9 16 21 37 77 56 47 67
REMARK Flexibility Score: inf
ROOT
ATOM      1  C   UNL A   1      36.740  23.811  25.803  1.00  0.00     0.116 C 
ENDROOT
BRANCH   1   2
ATOM      2  N   UNL A   1      35.719  23.572  26.809  1.00  0.00    -0.356 N 
ATOM      3  C   UNL A   1      34.450  23.046  26.662  1.00  0.00     0.224 C 
ATOM      4  O   UNL A   1      33.944  22.554  27.669  1.00  0.00    -0.275 OA
ATOM      5  H   UNL A   1      35.968  23.818  27.729  1.00  0.00     0.163 HD
BRANCH   3   6
ATOM      6  C   UNL A   1      33.742  23.053  25.289  1.00  0.00     0.098 C 
ATOM      7  C   UNL A   1      32.118  23.179  25.247  1.00  0.00     0.099 C 
ATOM      8  C   UNL A   1      31.598  21.823  24.681  1.00  0.00     0.025 C 
ATOM      9  C   UNL A   1      34.136  21.759  24.484  1.00  0.00     0.025 C 
ATOM     10  C   UNL A   1      32.097  21.775  23.247  1.00  0.00    -0.027 C 
ATOM     11  C   UNL A   1      32.144  20.634  25.477  1.00  0.00     0.009 C 
ATOM     12  C   UNL A   1      33.431  21.781  23.147  1.00  0.00    -0.027 C 
ATOM     13  C   UNL A   1      33.649  20.524  25.269  1.00  0.00     0.009 C 
BRANCH   7  14
ATOM     14  C   UNL A   1      31.383  23.834  26.451  1.00  0.00     0.229 C 
ATOM     15  N   UNL A   1      30.794  25.078  26.428  1.00  0.00    -0.317 N 
ATOM     16  H   UNL A   1      30.114  25.222  27.124  1.00  0.00     0.170 HD
ATOM     17  O   UNL A   1      31.408  23.259  27.549  1.00  0.00    -0.274 OA
BRANCH  15  18
ATOM     18  C   UNL A   1      30.998  26.158  25.590  1.00  0.00     0.110 A 
ATOM     19  C   UNL A   1      31.410  27.461  25.901  1.00  0.00     0.098 A 
ATOM     20  C   UNL A   1      30.999  28.301  24.819  1.00  0.00    -0.017 A 
ATOM     21  S   UNL A   1      30.955  25.937  23.874  1.00  0.00    -0.122 S 
ATOM     22  C   UNL A   1      30.613  27.572  23.727  1.00  0.00     0.011 A 
ATOM     23  C   UNL A   1      30.820  29.754  24.561  1.00  0.00     0.038 C 
ATOM     24  C   UNL A   1      29.955  28.348  22.657  1.00  0.00     0.047 C 
ATOM     25  C   UNL A   1      29.871  29.760  23.316  1.00  0.00     0.010 C 
BRANCH  19  26
ATOM     26  C   UNL A   1      32.009  27.825  27.179  1.00  0.00     0.341 C 
ATOM     27  O   UNL A   1      31.321  27.892  28.196  1.00  0.00    -0.246 OA
BRANCH  26  28
ATOM     28  O   UNL A   1      33.357  27.980  27.125  1.00  0.00    -0.459 OA
BRANCH  28  29
ATOM     29  C   UNL A   1      33.935  29.266  26.773  1.00  0.00     0.170 C 
ATOM     30  C   UNL A   1      33.191  30.480  27.317  1.00  0.00     0.052 C 
ATOM     31  C   UNL A   1      35.414  29.284  27.150  1.00  0.00     0.052 C 
ENDBRANCH  28  29
ENDBRANCH  26  28
ENDBRANCH  19  26
ENDBRANCH  15  18
ENDBRANCH   7  14
ENDBRANCH   3   6
ENDBRANCH   1   2
BRANCH   1  32
ATOM     32  C   UNL A   1      38.195  23.847  26.269  1.00  0.00     0.023 C 
BRANCH  32  33
ATOM     33  C   UNL A   1      39.001  22.548  26.259  1.00  0.00     0.023 C 
BRANCH  33  34
ATOM     34  C   UNL A   1      40.332  22.596  26.992  1.00  0.00     0.116 C 
BRANCH  34  35
ATOM     35  N   UNL A   1      41.494  22.321  26.145  1.00  0.00    -0.352 N 
ATOM     36  C   UNL A   1      42.333  23.255  25.557  1.00  0.00     0.251 C 
ATOM     37  H   UNL A   1      41.701  21.375  25.974  1.00  0.00     0.163 HD
ATOM     38  O   UNL A   1      43.074  22.950  24.630  1.00  0.00    -0.269 OA
BRANCH  36  39
ATOM     39  C   UNL A   1      42.310  24.634  26.081  1.00  0.00     0.039 A 
ATOM     40  C   UNL A   1      41.450  25.607  25.563  1.00  0.00     0.014 A 
ATOM     41  C   UNL A   1      43.127  24.912  27.173  1.00  0.00     0.014 A 
ATOM     42  C   UNL A   1      41.353  26.833  26.218  1.00  0.00     0.010 A 
ATOM     43  C   UNL A   1      42.915  26.054  27.902  1.00  0.00     0.010 A 
ATOM     44  C   UNL A   1      42.073  27.042  27.404  1.00  0.00    -0.014 A 
BRANCH  44  45
ATOM     45  C   UNL A   1      41.880  28.252  28.201  1.00  0.00     0.031 A 
ATOM     46  C   UNL A   1      42.904  29.319  28.004  1.00  0.00     0.074 A 
ATOM     47  C   UNL A   1      40.733  28.509  28.868  1.00  0.00     0.049 A 
ATOM     48  N   UNL A   1      43.756  29.774  28.864  1.00  0.00    -0.248 NA
ATOM     49  C   UNL A   1      43.075  29.871  26.650  1.00  0.00     0.031 C 
ATOM     50  C   UNL A   1      39.489  27.729  28.879  1.00  0.00     0.029 A 
ATOM     51  N   UNL A   1      40.389  29.619  29.572  1.00  0.00    -0.354 N 
ATOM     52  C   UNL A   1      44.427  30.814  28.228  1.00  0.00     0.074 A 
ATOM     53  C   UNL A   1      44.097  30.708  26.828  1.00  0.00     0.031 C 
ATOM     54  C   UNL A   1      38.474  28.504  29.319  1.00  0.00     0.029 A 
ATOM     55  C   UNL A   1      39.024  29.757  29.796  1.00  0.00     0.049 A 
ATOM     56  H   UNL A   1      41.051  30.272  29.895  1.00  0.00     0.167 HD
ATOM     57  C   UNL A   1      45.017  31.829  28.923  1.00  0.00     0.031 A 
ATOM     58  C   UNL A   1      38.392  30.843  30.304  1.00  0.00     0.031 A 
ATOM     59  C   UNL A   1      45.148  31.515  30.323  1.00  0.00     0.049 A 
ATOM     60  C   UNL A   1      39.418  31.653  31.004  1.00  0.00     0.074 A 
ATOM     61  C   UNL A   1      45.754  30.498  31.035  1.00  0.00     0.029 A 
ATOM     62  N   UNL A   1      44.238  32.082  31.188  1.00  0.00    -0.354 N 
ATOM     63  N   UNL A   1      40.040  31.248  32.076  1.00  0.00    -0.248 NA
ATOM     64  C   UNL A   1      40.079  32.713  30.261  1.00  0.00     0.031 C 
ATOM     65  C   UNL A   1      44.827  30.176  32.070  1.00  0.00     0.029 A 
ATOM     66  C   UNL A   1      43.758  31.071  31.982  1.00  0.00     0.049 A 
ATOM     67  H   UNL A   1      43.981  33.031  31.228  1.00  0.00     0.167 HD
ATOM     68  C   UNL A   1      41.349  31.675  31.908  1.00  0.00     0.074 A 
ATOM     69  C   UNL A   1      41.289  32.656  30.824  1.00  0.00     0.031 C 
ATOM     70  C   UNL A   1      42.394  30.993  32.464  1.00  0.00     0.031 A 
BRANCH  57  71
ATOM     71  C   UNL A   1      45.132  33.242  28.404  1.00  0.00    -0.014 A 
ATOM     72  C   UNL A   1      46.374  33.906  28.467  1.00  0.00     0.010 A 
ATOM     73  C   UNL A   1      44.004  34.031  28.092  1.00  0.00     0.010 A 
ATOM     74  C   UNL A   1      46.469  35.293  28.274  1.00  0.00     0.020 A 
ATOM     75  C   UNL A   1      44.094  35.403  27.852  1.00  0.00     0.020 A 
ATOM     76  C   UNL A   1      45.324  36.032  27.975  1.00  0.00     0.054 A 
BRANCH  76  77
ATOM     77  S   UNL A   1      45.443  37.830  27.808  1.00  0.00     0.124 S 
ATOM     78  O   UNL A   1      45.344  38.269  29.197  1.00  0.00    -0.237 OA
ATOM     79  O   UNL A   1      46.751  37.998  27.181  1.00  0.00    -0.237 OA
ATOM     80  O   UNL A   1      44.303  38.171  26.959  1.00  0.00    -0.744 OA
ENDBRANCH  76  77
ENDBRANCH  57  71
BRANCH  58  81
ATOM     81  C   UNL A   1      37.057  31.386  29.954  1.00  0.00    -0.014 A 
ATOM     82  C   UNL A   1      36.118  31.660  30.967  1.00  0.00     0.010 A 
ATOM     83  C   UNL A   1      36.827  31.934  28.676  1.00  0.00     0.010 A 
ATOM     84  C   UNL A   1      35.044  32.534  30.739  1.00  0.00     0.020 A 
ATOM     85  C   UNL A   1      35.754  32.802  28.441  1.00  0.00     0.020 A 
ATOM     86  C   UNL A   1      34.888  33.125  29.485  1.00  0.00     0.054 A 
BRANCH  86  87
ATOM     87  S   UNL A   1      33.689  34.468  29.244  1.00  0.00     0.124 S 
ATOM     88  O   UNL A   1      34.524  35.536  28.700  1.00  0.00    -0.237 OA
ATOM     89  O   UNL A   1      32.716  33.899  28.316  1.00  0.00    -0.237 OA
ATOM     90  O   UNL A   1      33.187  34.694  30.597  1.00  0.00    -0.744 OA
ENDBRANCH  86  87
ENDBRANCH  58  81
BRANCH  70  91
ATOM     91  C   UNL A   1      42.097  29.912  33.482  1.00  0.00    -0.014 A 
ATOM     92  C   UNL A   1      41.654  28.615  33.148  1.00  0.00     0.010 A 
ATOM     93  C   UNL A   1      42.418  30.177  34.824  1.00  0.00     0.010 A 
ATOM     94  C   UNL A   1      41.506  27.627  34.137  1.00  0.00     0.020 A 
ATOM     95  C   UNL A   1      42.292  29.195  35.809  1.00  0.00     0.020 A 
ATOM     96  C   UNL A   1      41.825  27.927  35.464  1.00  0.00     0.054 A 
BRANCH  96  97
ATOM     97  S   UNL A   1      41.661  26.643  36.736  1.00  0.00     0.124 S 
ATOM     98  O   UNL A   1      42.891  26.800  37.507  1.00  0.00    -0.237 OA
ATOM     99  O   UNL A   1      40.433  27.023  37.429  1.00  0.00    -0.237 OA
ATOM    100  O   UNL A   1      41.569  25.401  35.969  1.00  0.00    -0.744 OA
ENDBRANCH  96  97
ENDBRANCH  70  91
ENDBRANCH  44  45
ENDBRANCH  36  39
ENDBRANCH  34  35
ENDBRANCH  33  34
ENDBRANCH  32  33
ENDBRANCH   1  32
TORSDOF 19
ENDMDL
MODEL 2
REMARK VINA RESULT:     -11.8      3.326      7.826
REMARK SMILES CC(C)OC(=O)c1c(NC(=O)[C@H]2[C@@H](C(=O)NCCCCNC(=O)c3ccc(-c4c5nc(c(-c6ccc(S(=O)(=O)[O-])cc6)c6ccc([nH]6)c(-c6ccc(S(=O)(=O)[O-])cc6)c6nc(c(-c7ccc(S(=O)(=O)[O-])cc7)c7ccc4[nH]7)C=C6)C=C5)cc3)[C@@H]3C=C[C@H]2CC3)sc2c1CCC2
REMARK SMILES IDX 17 1 16 2 14 3 15 4 13 6 12 7 87 8 84 9 86 10 88 11 85 12
REMARK SMILES IDX 89 13 10 14 9 15 11 17 8 18 7 19 92 20 90 21 91 22 93 23
REMARK SMILES IDX 95 24 94 25 5 26 6 27 4 28 2 29 1 30 3 31 18 32 19 33 20 34
REMARK SMILES IDX 21 35 22 36 23 38 24 39 25 40 83 41 26 42 82 43 27 44 28 45
REMARK SMILES IDX 29 46 76 47 30 48 81 49 75 50 77 51 31 52 80 53 74 54 73 55
REMARK SMILES IDX 32 57 62 58 43 59 61 60 44 61 47 62 60 63 78 64 45 65 46 66
REMARK SMILES IDX 59 68 79 69 48 70 33 71 34 72 42 73 35 74 41 75 36 76 37 77
REMARK SMILES IDX 38 78 39 79 40 80 63 81 64 82 72 83 65 84 71 85 66 86 67 87
REMARK SMILES IDX 68 88 69 89 70 90 49 91 50 92 58 93 51 94 57 95 52 96 53 97
REMARK SMILES IDX 54 98 55 99 56 100
REMARK H PARENT 16 5 9 16 21 37 77 56 47 67
REMARK Flexibility Score: inf
ROOT
ATOM      1  C   UNL A   1      36.739  23.936  26.142  1.00  0.00     0.116 C 
ENDROOT
BRANCH   1   2
ATOM      2  N   UNL A   1      35.688  23.465  27.029  1.00  0.00    -0.356 N 
ATOM      3  C   UNL A   1      34.453  22.929  26.717  1.00  0.00     0.224 C 
ATOM      4  O   UNL A   1      33.928  22.230  27.582  1.00  0.00    -0.275 OA
ATOM      5  H   UNL A   1      35.884  23.536  27.990  1.00  0.00     0.163 HD
BRANCH   3   6
ATOM      6  C   UNL A   1      33.806  23.177  25.336  1.00  0.00     0.098 C 
ATOM      7  C   UNL A   1      32.188  23.338  25.248  1.00  0.00     0.099 C 
ATOM      8  C   UNL A   1      31.677  22.104  24.443  1.00  0.00     0.025 C 
ATOM      9  C   UNL A   1      34.221  22.027  24.344  1.00  0.00     0.025 C 
ATOM     10  C   UNL A   1      32.238  22.285  23.044  1.00  0.00    -0.027 C 
ATOM     11  C   UNL A   1      32.173  20.790  25.053  1.00  0.00     0.009 C 
ATOM     12  C   UNL A   1      33.574  22.283  23.001  1.00  0.00    -0.027 C 
ATOM     13  C   UNL A   1      33.685  20.688  24.891  1.00  0.00     0.009 C 
BRANCH   7  14
ATOM     14  C   UNL A   1      31.408  23.798  26.513  1.00  0.00     0.229 C 
ATOM     15  N   UNL A   1      30.963  25.082  26.737  1.00  0.00    -0.317 N 
ATOM     16  H   UNL A   1      30.234  25.154  27.394  1.00  0.00     0.170 HD
ATOM     17  O   UNL A   1      31.257  22.995  27.445  1.00  0.00    -0.274 OA
BRANCH  15  18
ATOM     18  C   UNL A   1      31.369  26.285  26.192  1.00  0.00     0.110 A 
ATOM     19  C   UNL A   1      31.075  26.838  24.938  1.00  0.00     0.098 A 
ATOM     20  C   UNL A   1      32.088  27.808  24.659  1.00  0.00    -0.017 A 
ATOM     21  S   UNL A   1      32.201  27.440  27.176  1.00  0.00    -0.122 S 
ATOM     22  C   UNL A   1      32.831  28.102  25.770  1.00  0.00     0.011 A 
ATOM     23  C   UNL A   1      32.602  28.554  23.480  1.00  0.00     0.038 C 
ATOM     24  C   UNL A   1      34.041  28.911  25.519  1.00  0.00     0.047 C 
ATOM     25  C   UNL A   1      34.023  29.005  23.961  1.00  0.00     0.010 C 
BRANCH  19  26
ATOM     26  C   UNL A   1      30.000  26.351  24.082  1.00  0.00     0.341 C 
ATOM     27  O   UNL A   1      30.190  25.409  23.314  1.00  0.00    -0.246 OA
BRANCH  26  28
ATOM     28  O   UNL A   1      28.811  26.969  24.296  1.00  0.00    -0.459 OA
BRANCH  28  29
ATOM     29  C   UNL A   1      28.177  27.732  23.233  1.00  0.00     0.170 C 
ATOM     30  C   UNL A   1      26.769  28.226  23.543  1.00  0.00     0.052 C 
ATOM     31  C   UNL A   1      29.099  28.866  22.797  1.00  0.00     0.052 C 
ENDBRANCH  28  29
ENDBRANCH  26  28
ENDBRANCH  19  26
ENDBRANCH  15  18
ENDBRANCH   7  14
ENDBRANCH   3   6
ENDBRANCH   1   2
BRANCH   1  32
ATOM     32  C   UNL A   1      38.032  23.122  26.087  1.00  0.00     0.023 C 
BRANCH  32  33
ATOM     33  C   UNL A   1      37.940  21.597  26.115  1.00  0.00     0.023 C 
BRANCH  33  34
ATOM     34  C   UNL A   1      38.602  20.878  24.951  1.00  0.00     0.116 C 
BRANCH  34  35
ATOM     35  N   UNL A   1      39.300  19.647  25.322  1.00  0.00    -0.352 N 
ATOM     36  C   UNL A   1      40.572  19.543  25.862  1.00  0.00     0.251 C 
ATOM     37  H   UNL A   1      38.816  18.803  25.173  1.00  0.00     0.163 HD
ATOM     38  O   UNL A   1      41.184  18.481  25.849  1.00  0.00    -0.269 OA
BRANCH  36  39
ATOM     39  C   UNL A   1      41.173  20.752  26.457  1.00  0.00     0.039 A 
ATOM     40  C   UNL A   1      41.748  21.755  25.670  1.00  0.00     0.014 A 
ATOM     41  C   UNL A   1      41.074  20.897  27.838  1.00  0.00     0.014 A 
ATOM     42  C   UNL A   1      42.136  22.946  26.281  1.00  0.00     0.010 A 
ATOM     43  C   UNL A   1      41.310  22.121  28.408  1.00  0.00     0.010 A 
ATOM     44  C   UNL A   1      41.892  23.133  27.650  1.00  0.00    -0.014 A 
BRANCH  44  45
ATOM     45  C   UNL A   1      42.141  24.421  28.292  1.00  0.00     0.031 A 
ATOM     46  C   UNL A   1      41.086  25.455  28.086  1.00  0.00     0.074 A 
ATOM     47  C   UNL A   1      43.111  24.598  29.217  1.00  0.00     0.049 A 
ATOM     48  N   UNL A   1      41.185  26.580  27.458  1.00  0.00    -0.248 NA
ATOM     49  C   UNL A   1      39.720  25.148  28.543  1.00  0.00     0.031 C 
ATOM     50  C   UNL A   1      44.013  23.594  29.798  1.00  0.00     0.029 A 
ATOM     51  N   UNL A   1      43.398  25.706  29.947  1.00  0.00    -0.354 N 
ATOM     52  C   UNL A   1      39.959  27.221  27.618  1.00  0.00     0.074 A 
ATOM     53  C   UNL A   1      39.051  26.226  28.131  1.00  0.00     0.031 C 
ATOM     54  C   UNL A   1      44.539  24.071  30.947  1.00  0.00     0.029 A 
ATOM     55  C   UNL A   1      44.168  25.466  31.079  1.00  0.00     0.049 A 
ATOM     56  H   UNL A   1      43.086  26.606  29.696  1.00  0.00     0.167 HD
ATOM     57  C   UNL A   1      39.835  28.577  27.542  1.00  0.00     0.031 A 
ATOM     58  C   UNL A   1      44.445  26.345  32.074  1.00  0.00     0.031 A 
ATOM     59  C   UNL A   1      41.001  29.192  26.962  1.00  0.00     0.049 A 
ATOM     60  C   UNL A   1      44.198  27.703  31.531  1.00  0.00     0.074 A 
ATOM     61  C   UNL A   1      41.673  29.053  25.762  1.00  0.00     0.029 A 
ATOM     62  N   UNL A   1      41.894  29.794  27.820  1.00  0.00    -0.354 N 
ATOM     63  N   UNL A   1      44.908  28.232  30.575  1.00  0.00    -0.248 NA
ATOM     64  C   UNL A   1      42.885  28.293  31.734  1.00  0.00     0.031 C 
ATOM     65  C   UNL A   1      43.055  29.087  26.113  1.00  0.00     0.029 A 
ATOM     66  C   UNL A   1      43.143  29.332  27.486  1.00  0.00     0.049 A 
ATOM     67  H   UNL A   1      41.678  30.432  28.536  1.00  0.00     0.167 HD
ATOM     68  C   UNL A   1      43.989  28.904  29.783  1.00  0.00     0.074 A 
ATOM     69  C   UNL A   1      42.779  28.991  30.600  1.00  0.00     0.031 C 
ATOM     70  C   UNL A   1      44.199  29.079  28.444  1.00  0.00     0.031 A 
BRANCH  57  71
ATOM     71  C   UNL A   1      38.819  29.369  28.331  1.00  0.00    -0.014 A 
ATOM     72  C   UNL A   1      37.628  29.790  27.705  1.00  0.00     0.010 A 
ATOM     73  C   UNL A   1      39.111  29.934  29.591  1.00  0.00     0.010 A 
ATOM     74  C   UNL A   1      36.800  30.759  28.292  1.00  0.00     0.020 A 
ATOM     75  C   UNL A   1      38.270  30.865  30.205  1.00  0.00     0.020 A 
ATOM     76  C   UNL A   1      37.134  31.295  29.536  1.00  0.00     0.054 A 
BRANCH  76  77
ATOM     77  S   UNL A   1      36.104  32.603  30.247  1.00  0.00     0.124 S 
ATOM     78  O   UNL A   1      34.891  32.502  29.444  1.00  0.00    -0.237 OA
ATOM     79  O   UNL A   1      35.982  32.178  31.639  1.00  0.00    -0.237 OA
ATOM     80  O   UNL A   1      36.897  33.813  30.038  1.00  0.00    -0.744 OA
ENDBRANCH  76  77
ENDBRANCH  57  71
BRANCH  58  81
ATOM     81  C   UNL A   1      44.589  26.086  33.527  1.00  0.00    -0.014 A 
ATOM     82  C   UNL A   1      43.627  25.315  34.206  1.00  0.00     0.010 A 
ATOM     83  C   UNL A   1      45.821  26.318  34.170  1.00  0.00     0.010 A 
ATOM     84  C   UNL A   1      43.923  24.710  35.437  1.00  0.00     0.020 A 
ATOM     85  C   UNL A   1      46.121  25.723  35.400  1.00  0.00     0.020 A 
ATOM     86  C   UNL A   1      45.181  24.893  36.011  1.00  0.00     0.054 A 
BRANCH  86  87
ATOM     87  S   UNL A   1      45.691  23.902  37.446  1.00  0.00     0.124 S 
ATOM     88  O   UNL A   1      47.096  24.273  37.597  1.00  0.00    -0.237 OA
ATOM     89  O   UNL A   1      44.803  24.357  38.512  1.00  0.00    -0.237 OA
ATOM     90  O   UNL A   1      45.451  22.535  36.991  1.00  0.00    -0.744 OA
ENDBRANCH  86  87
ENDBRANCH  58  81
BRANCH  70  91
ATOM     91  C   UNL A   1      45.565  28.756  27.875  1.00  0.00    -0.014 A 
ATOM     92  C   UNL A   1      45.927  27.494  27.358  1.00  0.00     0.010 A 
ATOM     93  C   UNL A   1      46.474  29.817  27.728  1.00  0.00     0.010 A 
ATOM     94  C   UNL A   1      47.175  27.298  26.743  1.00  0.00     0.020 A 
ATOM     95  C   UNL A   1      47.709  29.634  27.100  1.00  0.00     0.020 A 
ATOM     96  C   UNL A   1      48.060  28.372  26.621  1.00  0.00     0.054 A 
BRANCH  96  97
ATOM     97  S   UNL A   1      49.660  28.125  25.801  1.00  0.00     0.124 S 
ATOM     98  O   UNL A   1      50.256  29.457  25.857  1.00  0.00    -0.237 OA
ATOM     99  O   UNL A   1      50.303  27.114  26.637  1.00  0.00    -0.237 OA
ATOM    100  O   UNL A   1      49.298  27.667  24.460  1.00  0.00    -0.744 OA
ENDBRANCH  96  97
ENDBRANCH  70  91
ENDBRANCH  44  45
ENDBRANCH  36  39
ENDBRANCH  34  35
ENDBRANCH  33  34
ENDBRANCH  32  33
ENDBRANCH   1  32
TORSDOF 19
ENDMDL
MODEL 3
REMARK VINA RESULT:     -11.7      2.832      8.482
REMARK SMILES CC(C)OC(=O)c1c(NC(=O)[C@H]2[C@@H](C(=O)NCCCCNC(=O)c3ccc(-c4c5nc(c(-c6ccc(S(=O)(=O)[O-])cc6)c6ccc([nH]6)c(-c6ccc(S(=O)(=O)[O-])cc6)c6nc(c(-c7ccc(S(=O)(=O)[O-])cc7)c7ccc4[nH]7)C=C6)C=C5)cc3)[C@@H]3C=C[C@H]2CC3)sc2c1CCC2
REMARK SMILES IDX 17 1 16 2 14 3 15 4 13 6 12 7 87 8 84 9 86 10 88 11 85 12
REMARK SMILES IDX 89 13 10 14 9 15 11 17 8 18 7 19 92 20 90 21 91 22 93 23
REMARK SMILES IDX 95 24 94 25 5 26 6 27 4 28 2 29 1 30 3 31 18 32 19 33 20 34
REMARK SMILES IDX 21 35 22 36 23 38 24 39 25 40 83 41 26 42 82 43 27 44 28 45
REMARK SMILES IDX 29 46 76 47 30 48 81 49 75 50 77 51 31 52 80 53 74 54 73 55
REMARK SMILES IDX 32 57 62 58 43 59 61 60 44 61 47 62 60 63 78 64 45 65 46 66
REMARK SMILES IDX 59 68 79 69 48 70 33 71 34 72 42 73 35 74 41 75 36 76 37 77
REMARK SMILES IDX 38 78 39 79 40 80 63 81 64 82 72 83 65 84 71 85 66 86 67 87
REMARK SMILES IDX 68 88 69 89 70 90 49 91 50 92 58 93 51 94 57 95 52 96 53 97
REMARK SMILES IDX 54 98 55 99 56 100
REMARK H PARENT 16 5 9 16 21 37 77 56 47 67
REMARK Flexibility Score: inf
ROOT
ATOM      1  C   UNL A   1      33.199  28.362  27.129  1.00  0.00     0.116 C 
ENDROOT
BRANCH   1   2
ATOM      2  N   UNL A   1      33.780  28.259  25.801  1.00  0.00    -0.356 N 
ATOM      3  C   UNL A   1      33.265  27.669  24.662  1.00  0.00     0.224 C 
ATOM      4  O   UNL A   1      33.722  28.064  23.591  1.00  0.00    -0.275 OA
ATOM      5  H   UNL A   1      34.669  28.669  25.696  1.00  0.00     0.163 HD
BRANCH   3   6
ATOM      6  C   UNL A   1      32.149  26.605  24.755  1.00  0.00     0.098 C 
ATOM      7  C   UNL A   1      32.334  25.206  23.940  1.00  0.00     0.099 C 
ATOM      8  C   UNL A   1      31.229  25.201  22.841  1.00  0.00     0.025 C 
ATOM      9  C   UNL A   1      30.779  27.235  24.306  1.00  0.00     0.025 C 
ATOM     10  C   UNL A   1      29.916  25.126  23.600  1.00  0.00    -0.027 C 
ATOM     11  C   UNL A   1      31.280  26.470  21.985  1.00  0.00     0.009 C 
ATOM     12  C   UNL A   1      29.702  26.177  24.399  1.00  0.00    -0.027 C 
ATOM     13  C   UNL A   1      30.899  27.676  22.834  1.00  0.00     0.009 C 
BRANCH   7  14
ATOM     14  C   UNL A   1      33.771  24.730  23.579  1.00  0.00     0.229 C 
ATOM     15  N   UNL A   1      34.126  23.423  23.333  1.00  0.00    -0.317 N 
ATOM     16  H   UNL A   1      34.958  23.314  22.819  1.00  0.00     0.170 HD
ATOM     17  O   UNL A   1      34.697  25.554  23.611  1.00  0.00    -0.274 OA
BRANCH  15  18
ATOM     18  C   UNL A   1      33.508  22.238  23.687  1.00  0.00     0.110 A 
ATOM     19  C   UNL A   1      33.696  21.441  24.824  1.00  0.00     0.098 A 
ATOM     20  C   UNL A   1      33.224  20.130  24.502  1.00  0.00    -0.017 A 
ATOM     21  S   UNL A   1      32.160  21.661  22.768  1.00  0.00    -0.122 S 
ATOM     22  C   UNL A   1      32.496  20.123  23.343  1.00  0.00     0.011 A 
ATOM     23  C   UNL A   1      33.347  18.752  25.045  1.00  0.00     0.038 C 
ATOM     24  C   UNL A   1      32.172  18.782  22.815  1.00  0.00     0.047 C 
ATOM     25  C   UNL A   1      32.949  17.869  23.814  1.00  0.00     0.010 C 
BRANCH  19  26
ATOM     26  C   UNL A   1      34.387  21.907  26.020  1.00  0.00     0.341 C 
ATOM     27  O   UNL A   1      34.125  21.427  27.122  1.00  0.00    -0.246 OA
BRANCH  26  28
ATOM     28  O   UNL A   1      35.364  22.816  25.766  1.00  0.00    -0.459 OA
BRANCH  28  29
ATOM     29  C   UNL A   1      36.760  22.410  25.751  1.00  0.00     0.170 C 
ATOM     30  C   UNL A   1      37.174  21.565  24.553  1.00  0.00     0.052 C 
ATOM     31  C   UNL A   1      37.651  23.636  25.924  1.00  0.00     0.052 C 
ENDBRANCH  28  29
ENDBRANCH  26  28
ENDBRANCH  19  26
ENDBRANCH  15  18
ENDBRANCH   7  14
ENDBRANCH   3   6
ENDBRANCH   1   2
BRANCH   1  32
ATOM     32  C   UNL A   1      31.862  29.090  27.258  1.00  0.00     0.023 C 
BRANCH  32  33
ATOM     33  C   UNL A   1      31.739  30.505  26.691  1.00  0.00     0.023 C 
BRANCH  33  34
ATOM     34  C   UNL A   1      32.863  31.459  27.060  1.00  0.00     0.116 C 
BRANCH  34  35
ATOM     35  N   UNL A   1      32.437  32.846  27.249  1.00  0.00    -0.352 N 
ATOM     36  C   UNL A   1      32.981  33.771  28.127  1.00  0.00     0.251 C 
ATOM     37  H   UNL A   1      31.685  33.156  26.695  1.00  0.00     0.163 HD
ATOM     38  O   UNL A   1      32.372  34.788  28.437  1.00  0.00    -0.269 OA
BRANCH  36  39
ATOM     39  C   UNL A   1      34.320  33.495  28.682  1.00  0.00     0.039 A 
ATOM     40  C   UNL A   1      34.495  32.770  29.864  1.00  0.00     0.014 A 
ATOM     41  C   UNL A   1      35.416  33.918  27.935  1.00  0.00     0.014 A 
ATOM     42  C   UNL A   1      35.785  32.395  30.236  1.00  0.00     0.010 A 
ATOM     43  C   UNL A   1      36.660  33.416  28.217  1.00  0.00     0.010 A 
ATOM     44  C   UNL A   1      36.864  32.701  29.393  1.00  0.00    -0.014 A 
BRANCH  44  45
ATOM     45  C   UNL A   1      38.205  32.192  29.670  1.00  0.00     0.031 A 
ATOM     46  C   UNL A   1      38.410  30.741  29.388  1.00  0.00     0.074 A 
ATOM     47  C   UNL A   1      39.257  33.005  29.909  1.00  0.00     0.049 A 
ATOM     48  N   UNL A   1      38.677  29.797  30.229  1.00  0.00    -0.248 NA
ATOM     49  C   UNL A   1      38.182  30.266  28.013  1.00  0.00     0.031 C 
ATOM     50  C   UNL A   1      39.304  34.473  29.873  1.00  0.00     0.029 A 
ATOM     51  N   UNL A   1      40.562  32.676  30.097  1.00  0.00    -0.354 N 
ATOM     52  C   UNL A   1      38.860  28.644  29.470  1.00  0.00     0.074 A 
ATOM     53  C   UNL A   1      38.370  28.952  28.149  1.00  0.00     0.031 C 
ATOM     54  C   UNL A   1      40.587  34.882  29.766  1.00  0.00     0.029 A 
ATOM     55  C   UNL A   1      41.452  33.729  29.920  1.00  0.00     0.049 A 
ATOM     56  H   UNL A   1      40.853  31.767  30.338  1.00  0.00     0.167 HD
ATOM     57  C   UNL A   1      39.615  27.598  29.911  1.00  0.00     0.031 A 
ATOM     58  C   UNL A   1      42.804  33.647  29.866  1.00  0.00     0.031 A 
ATOM     59  C   UNL A   1      39.890  27.690  31.322  1.00  0.00     0.049 A 
ATOM     60  C   UNL A   1      43.184  32.355  30.488  1.00  0.00     0.074 A 
ATOM     61  C   UNL A   1      39.106  27.777  32.457  1.00  0.00     0.029 A 
ATOM     62  N   UNL A   1      41.137  28.137  31.697  1.00  0.00    -0.354 N 
ATOM     63  N   UNL A   1      43.005  32.089  31.751  1.00  0.00    -0.248 NA
ATOM     64  C   UNL A   1      43.344  31.199  29.621  1.00  0.00     0.031 C 
ATOM     65  C   UNL A   1      39.761  28.741  33.279  1.00  0.00     0.029 A 
ATOM     66  C   UNL A   1      40.944  29.117  32.639  1.00  0.00     0.049 A 
ATOM     67  H   UNL A   1      42.002  27.815  31.355  1.00  0.00     0.167 HD
ATOM     68  C   UNL A   1      42.593  30.765  31.778  1.00  0.00     0.074 A 
ATOM     69  C   UNL A   1      42.918  30.242  30.451  1.00  0.00     0.031 C 
ATOM     70  C   UNL A   1      41.777  30.296  32.767  1.00  0.00     0.031 A 
BRANCH  57  71
ATOM     71  C   UNL A   1      40.411  26.696  28.997  1.00  0.00    -0.014 A 
ATOM     72  C   UNL A   1      39.810  25.535  28.471  1.00  0.00     0.010 A 
ATOM     73  C   UNL A   1      41.809  26.815  28.843  1.00  0.00     0.010 A 
ATOM     74  C   UNL A   1      40.577  24.527  27.866  1.00  0.00     0.020 A 
ATOM     75  C   UNL A   1      42.575  25.841  28.201  1.00  0.00     0.020 A 
ATOM     76  C   UNL A   1      41.957  24.686  27.743  1.00  0.00     0.054 A 
BRANCH  76  77
ATOM     77  S   UNL A   1      42.949  23.347  27.036  1.00  0.00     0.124 S 
ATOM     78  O   UNL A   1      43.238  23.860  25.700  1.00  0.00    -0.237 OA
ATOM     79  O   UNL A   1      44.084  23.286  27.952  1.00  0.00    -0.237 OA
ATOM     80  O   UNL A   1      42.052  22.195  27.086  1.00  0.00    -0.744 OA
ENDBRANCH  76  77
ENDBRANCH  57  71
BRANCH  58  81
ATOM     81  C   UNL A   1      43.748  34.437  29.039  1.00  0.00    -0.014 A 
ATOM     82  C   UNL A   1      44.991  34.833  29.569  1.00  0.00     0.010 A 
ATOM     83  C   UNL A   1      43.569  34.521  27.643  1.00  0.00     0.010 A 
ATOM     84  C   UNL A   1      46.052  35.199  28.727  1.00  0.00     0.020 A 
ATOM     85  C   UNL A   1      44.621  34.892  26.798  1.00  0.00     0.020 A 
ATOM     86  C   UNL A   1      45.869  35.196  27.344  1.00  0.00     0.054 A 
BRANCH  86  87
ATOM     87  S   UNL A   1      47.289  35.386  26.227  1.00  0.00     0.124 S 
ATOM     88  O   UNL A   1      48.411  35.009  27.084  1.00  0.00    -0.237 OA
ATOM     89  O   UNL A   1      46.995  34.463  25.135  1.00  0.00    -0.237 OA
ATOM     90  O   UNL A   1      47.225  36.800  25.868  1.00  0.00    -0.744 OA
ENDBRANCH  86  87
ENDBRANCH  58  81
BRANCH  70  91
ATOM     91  C   UNL A   1      41.530  31.169  33.981  1.00  0.00    -0.014 A 
ATOM     92  C   UNL A   1      40.537  32.168  34.045  1.00  0.00     0.010 A 
ATOM     93  C   UNL A   1      42.241  30.865  35.154  1.00  0.00     0.010 A 
ATOM     94  C   UNL A   1      40.289  32.862  35.241  1.00  0.00     0.020 A 
ATOM     95  C   UNL A   1      41.987  31.538  36.352  1.00  0.00     0.020 A 
ATOM     96  C   UNL A   1      41.021  32.543  36.387  1.00  0.00     0.054 A 
BRANCH  96  97
ATOM     97  S   UNL A   1      40.681  33.421  37.940  1.00  0.00     0.124 S 
ATOM     98  O   UNL A   1      40.026  34.642  37.478  1.00  0.00    -0.237 OA
ATOM     99  O   UNL A   1      39.825  32.484  38.664  1.00  0.00    -0.237 OA
ATOM    100  O   UNL A   1      42.006  33.617  38.527  1.00  0.00    -0.744 OA
ENDBRANCH  96  97
ENDBRANCH  70  91
ENDBRANCH  44  45
ENDBRANCH  36  39
ENDBRANCH  34  35
ENDBRANCH  33  34
ENDBRANCH  32  33
ENDBRANCH   1  32
TORSDOF 19
ENDMDL
