MODEL 1
REMARK VINA RESULT:     -12.0      0.000      0.000
REMARK SMILES O=C(NCCCCNC(=O)c1[nH]nc2ncc(F)cc12)c1ccc(-c2c3nc(c(-c4ccc(S(=O)(=O)[O-])cc4)c4ccc([nH]4)c(-c4ccc(S(=O)(=O)[O-])cc4)c4nc(c(-c5ccc(S(=O)(=O)[O-])cc5)c5ccc2[nH]5)C=C4)C=C3)cc1
REMARK SMILES IDX 4 1 3 2 1 3 2 4 21 6 22 7 80 8 23 9 79 10 24 11 25 12 26 13
REMARK SMILES IDX 73 14 27 15 78 16 72 17 74 18 28 19 77 20 71 21 70 22 29 24
REMARK SMILES IDX 59 25 40 26 58 27 41 28 44 29 57 30 75 31 42 32 43 33 56 35
REMARK SMILES IDX 76 36 45 37 30 38 31 39 39 40 32 41 38 42 33 43 34 44 35 45
REMARK SMILES IDX 36 46 37 47 60 48 61 49 69 50 62 51 68 52 63 53 64 54 65 55
REMARK SMILES IDX 66 56 67 57 46 58 47 59 55 60 48 61 54 62 49 63 50 64 51 65
REMARK SMILES IDX 52 66 53 67 5 68 6 69 7 70 8 71 9 72 10 74 11 75 12 76 20 77
REMARK SMILES IDX 13 78 14 80 19 81 15 82 17 83 16 84 18 85
REMARK H PARENT 3 5 74 23 44 34 8 73 12 79
REMARK Flexibility Score: inf
ROOT
ATOM      1  C   UNL A   1      40.140  21.513  26.549  1.00  0.00     0.116 C 
ENDROOT
BRANCH   1   2
ATOM      2  N   UNL A   1      41.269  21.848  25.705  1.00  0.00    -0.352 N 
ATOM      3  O   UNL A   1      43.058  22.777  24.825  1.00  0.00    -0.269 OA
ATOM      4  C   UNL A   1      42.074  22.944  25.553  1.00  0.00     0.251 C 
ATOM      5  H   UNL A   1      41.514  21.113  25.096  1.00  0.00     0.163 HD
BRANCH   4   6
ATOM      6  C   UNL A   1      41.844  24.292  26.149  1.00  0.00     0.039 A 
ATOM      7  C   UNL A   1      41.104  25.325  25.575  1.00  0.00     0.014 A 
ATOM      8  C   UNL A   1      42.456  24.529  27.397  1.00  0.00     0.014 A 
ATOM      9  C   UNL A   1      41.015  26.568  26.205  1.00  0.00     0.010 A 
ATOM     10  C   UNL A   1      42.364  25.768  28.035  1.00  0.00     0.010 A 
ATOM     11  C   UNL A   1      41.655  26.798  27.428  1.00  0.00    -0.014 A 
BRANCH  11  12
ATOM     12  C   UNL A   1      41.443  28.091  28.078  1.00  0.00     0.031 A 
ATOM     13  C   UNL A   1      42.522  29.100  27.875  1.00  0.00     0.074 A 
ATOM     14  C   UNL A   1      40.325  28.472  28.728  1.00  0.00     0.049 A 
ATOM     15  N   UNL A   1      43.338  29.588  28.753  1.00  0.00    -0.248 NA
ATOM     16  C   UNL A   1      42.759  29.575  26.505  1.00  0.00     0.031 C 
ATOM     17  C   UNL A   1      39.032  27.789  28.782  1.00  0.00     0.029 A 
ATOM     18  N   UNL A   1      40.100  29.627  29.420  1.00  0.00    -0.354 N 
ATOM     19  C   UNL A   1      44.078  30.566  28.092  1.00  0.00     0.074 A 
ATOM     20  C   UNL A   1      43.767  30.428  26.691  1.00  0.00     0.031 C 
ATOM     21  C   UNL A   1      38.106  28.634  29.291  1.00  0.00     0.029 A 
ATOM     22  C   UNL A   1      38.767  29.852  29.732  1.00  0.00     0.049 A 
ATOM     23  H   UNL A   1      40.820  30.247  29.676  1.00  0.00     0.167 HD
ATOM     24  C   UNL A   1      44.753  31.546  28.757  1.00  0.00     0.031 A 
ATOM     25  C   UNL A   1      38.239  30.975  30.277  1.00  0.00     0.031 A 
ATOM     26  C   UNL A   1      44.888  31.264  30.160  1.00  0.00     0.049 A 
ATOM     27  C   UNL A   1      39.328  31.698  30.972  1.00  0.00     0.074 A 
ATOM     28  C   UNL A   1      45.489  30.280  30.917  1.00  0.00     0.029 A 
ATOM     29  N   UNL A   1      44.051  31.942  31.012  1.00  0.00    -0.354 N 
ATOM     30  N   UNL A   1      39.927  31.254  32.040  1.00  0.00    -0.248 NA
ATOM     31  C   UNL A   1      39.997  32.800  30.299  1.00  0.00     0.031 C 
ATOM     32  C   UNL A   1      44.661  30.136  32.070  1.00  0.00     0.029 A 
ATOM     33  C   UNL A   1      43.614  31.054  31.958  1.00  0.00     0.049 A 
ATOM     34  H   UNL A   1      43.808  32.895  30.953  1.00  0.00     0.167 HD
ATOM     35  C   UNL A   1      41.224  31.730  31.948  1.00  0.00     0.074 A 
ATOM     36  C   UNL A   1      41.167  32.783  30.942  1.00  0.00     0.031 C 
ATOM     37  C   UNL A   1      42.268  31.039  32.494  1.00  0.00     0.031 A 
BRANCH  24  38
ATOM     38  C   UNL A   1      44.974  32.943  28.215  1.00  0.00    -0.014 A 
ATOM     39  C   UNL A   1      46.260  33.518  28.316  1.00  0.00     0.010 A 
ATOM     40  C   UNL A   1      43.912  33.809  27.887  1.00  0.00     0.010 A 
ATOM     41  C   UNL A   1      46.453  34.900  28.189  1.00  0.00     0.020 A 
ATOM     42  C   UNL A   1      44.103  35.183  27.709  1.00  0.00     0.020 A 
ATOM     43  C   UNL A   1      45.365  35.725  27.906  1.00  0.00     0.054 A 
BRANCH  43  44
ATOM     44  S   UNL A   1      45.596  37.521  27.893  1.00  0.00     0.124 S 
ATOM     45  O   UNL A   1      46.911  37.647  27.271  1.00  0.00    -0.237 OA
ATOM     46  O   UNL A   1      44.466  37.975  27.087  1.00  0.00    -0.237 OA
ATOM     47  O   UNL A   1      45.533  37.883  29.307  1.00  0.00    -0.744 OA
ENDBRANCH  43  44
ENDBRANCH  24  38
BRANCH  25  48
ATOM     48  C   UNL A   1      36.908  31.587  30.039  1.00  0.00    -0.014 A 
ATOM     49  C   UNL A   1      36.206  32.215  31.085  1.00  0.00     0.010 A 
ATOM     50  C   UNL A   1      36.462  31.809  28.721  1.00  0.00     0.010 A 
ATOM     51  C   UNL A   1      35.144  33.095  30.816  1.00  0.00     0.020 A 
ATOM     52  C   UNL A   1      35.398  32.676  28.447  1.00  0.00     0.020 A 
ATOM     53  C   UNL A   1      34.764  33.339  29.494  1.00  0.00     0.054 A 
BRANCH  53  54
ATOM     54  S   UNL A   1      33.524  34.621  29.146  1.00  0.00     0.124 S 
ATOM     55  O   UNL A   1      32.964  34.882  30.469  1.00  0.00    -0.237 OA
ATOM     56  O   UNL A   1      34.333  35.696  28.579  1.00  0.00    -0.237 OA
ATOM     57  O   UNL A   1      32.614  33.973  28.203  1.00  0.00    -0.744 OA
ENDBRANCH  53  54
ENDBRANCH  25  48
BRANCH  37  58
ATOM     58  C   UNL A   1      41.964  29.970  33.517  1.00  0.00    -0.014 A 
ATOM     59  C   UNL A   1      41.625  28.647  33.173  1.00  0.00     0.010 A 
ATOM     60  C   UNL A   1      42.185  30.276  34.871  1.00  0.00     0.010 A 
ATOM     61  C   UNL A   1      41.499  27.661  34.160  1.00  0.00     0.020 A 
ATOM     62  C   UNL A   1      42.079  29.293  35.859  1.00  0.00     0.020 A 
ATOM     63  C   UNL A   1      41.735  27.989  35.498  1.00  0.00     0.054 A 
BRANCH  63  64
ATOM     64  S   UNL A   1      41.661  26.684  36.757  1.00  0.00     0.124 S 
ATOM     65  O   UNL A   1      40.436  27.008  37.481  1.00  0.00    -0.237 OA
ATOM     66  O   UNL A   1      41.613  25.464  35.954  1.00  0.00    -0.237 OA
ATOM     67  O   UNL A   1      42.897  26.864  37.519  1.00  0.00    -0.744 OA
ENDBRANCH  63  64
ENDBRANCH  37  58
ENDBRANCH  11  12
ENDBRANCH   4   6
ENDBRANCH   1   2
BRANCH   1  68
ATOM     68  C   UNL A   1      38.815  22.145  26.125  1.00  0.00     0.023 C 
BRANCH  68  69
ATOM     69  C   UNL A   1      37.948  21.311  25.175  1.00  0.00     0.023 C 
BRANCH  69  70
ATOM     70  C   UNL A   1      36.505  21.781  24.993  1.00  0.00     0.116 C 
BRANCH  70  71
ATOM     71  N   UNL A   1      35.602  20.702  24.614  1.00  0.00    -0.351 N 
ATOM     72  C   UNL A   1      34.387  20.349  25.128  1.00  0.00     0.270 C 
ATOM     73  H   UNL A   1      35.918  20.140  23.869  1.00  0.00     0.163 HD
ATOM     74  O   UNL A   1      33.895  19.268  24.760  1.00  0.00    -0.268 OA
BRANCH  72  75
ATOM     75  C   UNL A   1      33.720  21.216  26.048  1.00  0.00     0.132 A 
ATOM     76  N   UNL A   1      34.040  21.336  27.380  1.00  0.00    -0.270 N 
ATOM     77  C   UNL A   1      32.734  22.159  25.861  1.00  0.00     0.055 A 
ATOM     78  N   UNL A   1      33.280  22.202  28.076  1.00  0.00    -0.154 NA
ATOM     79  H   UNL A   1      34.771  20.825  27.795  1.00  0.00     0.190 HD
ATOM     80  C   UNL A   1      32.469  22.720  27.153  1.00  0.00     0.181 A 
ATOM     81  C   UNL A   1      32.105  22.469  24.659  1.00  0.00     0.055 A 
ATOM     82  N   UNL A   1      31.508  23.661  27.343  1.00  0.00    -0.232 NA
ATOM     83  C   UNL A   1      31.125  23.438  24.881  1.00  0.00     0.142 A 
ATOM     84  C   UNL A   1      30.870  23.968  26.168  1.00  0.00     0.152 A 
ATOM     85  F   UNL A   1      30.402  23.882  23.844  1.00  0.00    -0.205 F 
ENDBRANCH  72  75
ENDBRANCH  70  71
ENDBRANCH  69  70
ENDBRANCH  68  69
ENDBRANCH   1  68
TORSDOF 14
ENDMDL
MODEL 2
REMARK VINA RESULT:     -12.0      3.351      9.718
REMARK SMILES O=C(NCCCCNC(=O)c1[nH]nc2ncc(F)cc12)c1ccc(-c2c3nc(c(-c4ccc(S(=O)(=O)[O-])cc4)c4ccc([nH]4)c(-c4ccc(S(=O)(=O)[O-])cc4)c4nc(c(-c5ccc(S(=O)(=O)[O-])cc5)c5ccc2[nH]5)C=C4)C=C3)cc1
REMARK SMILES IDX 4 1 3 2 1 3 2 4 21 6 22 7 80 8 23 9 79 10 24 11 25 12 26 13
REMARK SMILES IDX 73 14 27 15 78 16 72 17 74 18 28 19 77 20 71 21 70 22 29 24
REMARK SMILES IDX 59 25 40 26 58 27 41 28 44 29 57 30 75 31 42 32 43 33 56 35
REMARK SMILES IDX 76 36 45 37 30 38 31 39 39 40 32 41 38 42 33 43 34 44 35 45
REMARK SMILES IDX 36 46 37 47 60 48 61 49 69 50 62 51 68 52 63 53 64 54 65 55
REMARK SMILES IDX 66 56 67 57 46 58 47 59 55 60 48 61 54 62 49 63 50 64 51 65
REMARK SMILES IDX 52 66 53 67 5 68 6 69 7 70 8 71 9 72 10 74 11 75 12 76 20 77
REMARK SMILES IDX 13 78 14 80 19 81 15 82 17 83 16 84 18 85
REMARK H PARENT 3 5 74 23 44 34 8 73 12 79
REMARK Flexibility Score: inf
ROOT
ATOM      1  C   UNL A   1      33.257  30.491  26.718  1.00  0.00     0.116 C 
ENDROOT
BRANCH   1   2
ATOM      2  N   UNL A   1      33.451  31.535  27.703  1.00  0.00    -0.352 N 
ATOM      3  O   UNL A   1      34.312  33.011  29.089  1.00  0.00    -0.269 OA
ATOM      4  C   UNL A   1      34.498  31.952  28.480  1.00  0.00     0.251 C 
ATOM      5  H   UNL A   1      32.638  32.072  27.848  1.00  0.00     0.163 HD
BRANCH   4   6
ATOM      6  C   UNL A   1      35.790  31.232  28.672  1.00  0.00     0.039 A 
ATOM      7  C   UNL A   1      35.962  29.848  28.678  1.00  0.00     0.014 A 
ATOM      8  C   UNL A   1      36.925  32.042  28.886  1.00  0.00     0.014 A 
ATOM      9  C   UNL A   1      37.218  29.291  28.933  1.00  0.00     0.010 A 
ATOM     10  C   UNL A   1      38.183  31.490  29.134  1.00  0.00     0.010 A 
ATOM     11  C   UNL A   1      38.327  30.108  29.175  1.00  0.00    -0.014 A 
BRANCH  11  12
ATOM     12  C   UNL A   1      39.629  29.462  29.342  1.00  0.00     0.031 A 
ATOM     13  C   UNL A   1      40.034  29.179  30.748  1.00  0.00     0.074 A 
ATOM     14  C   UNL A   1      40.415  29.008  28.346  1.00  0.00     0.049 A 
ATOM     15  N   UNL A   1      41.000  29.709  31.426  1.00  0.00    -0.248 NA
ATOM     16  C   UNL A   1      39.213  28.230  31.513  1.00  0.00     0.031 C 
ATOM     17  C   UNL A   1      40.093  28.882  26.924  1.00  0.00     0.029 A 
ATOM     18  N   UNL A   1      41.668  28.473  28.433  1.00  0.00    -0.354 N 
ATOM     19  C   UNL A   1      41.032  29.036  32.646  1.00  0.00     0.074 A 
ATOM     20  C   UNL A   1      39.839  28.228  32.691  1.00  0.00     0.031 C 
ATOM     21  C   UNL A   1      41.039  28.124  26.321  1.00  0.00     0.029 A 
ATOM     22  C   UNL A   1      42.098  27.839  27.276  1.00  0.00     0.049 A 
ATOM     23  H   UNL A   1      42.220  28.531  29.247  1.00  0.00     0.167 HD
ATOM     24  C   UNL A   1      42.127  29.044  33.457  1.00  0.00     0.031 A 
ATOM     25  C   UNL A   1      43.224  27.101  27.125  1.00  0.00     0.031 A 
ATOM     26  C   UNL A   1      43.077  30.058  33.087  1.00  0.00     0.049 A 
ATOM     27  C   UNL A   1      44.177  27.503  28.185  1.00  0.00     0.074 A 
ATOM     28  C   UNL A   1      43.073  31.435  33.012  1.00  0.00     0.029 A 
ATOM     29  N   UNL A   1      44.193  29.642  32.403  1.00  0.00    -0.354 N 
ATOM     30  N   UNL A   1      44.745  28.673  28.244  1.00  0.00    -0.248 NA
ATOM     31  C   UNL A   1      44.275  26.704  29.397  1.00  0.00     0.031 C 
ATOM     32  C   UNL A   1      43.937  31.753  31.922  1.00  0.00     0.029 A 
ATOM     33  C   UNL A   1      44.433  30.553  31.409  1.00  0.00     0.049 A 
ATOM     34  H   UNL A   1      44.725  28.835  32.593  1.00  0.00     0.167 HD
ATOM     35  C   UNL A   1      44.912  28.923  29.596  1.00  0.00     0.074 A 
ATOM     36  C   UNL A   1      44.739  27.627  30.241  1.00  0.00     0.031 C 
ATOM     37  C   UNL A   1      44.900  30.199  30.083  1.00  0.00     0.031 A 
BRANCH  24  38
ATOM     38  C   UNL A   1      42.523  27.895  34.361  1.00  0.00    -0.014 A 
ATOM     39  C   UNL A   1      42.616  28.123  35.751  1.00  0.00     0.010 A 
ATOM     40  C   UNL A   1      43.086  26.700  33.871  1.00  0.00     0.010 A 
ATOM     41  C   UNL A   1      43.318  27.245  36.589  1.00  0.00     0.020 A 
ATOM     42  C   UNL A   1      43.746  25.793  34.707  1.00  0.00     0.020 A 
ATOM     43  C   UNL A   1      43.897  26.095  36.053  1.00  0.00     0.054 A 
BRANCH  43  44
ATOM     44  S   UNL A   1      44.928  25.048  37.111  1.00  0.00     0.124 S 
ATOM     45  O   UNL A   1      44.680  23.724  36.550  1.00  0.00    -0.237 OA
ATOM     46  O   UNL A   1      46.263  25.594  36.884  1.00  0.00    -0.237 OA
ATOM     47  O   UNL A   1      44.386  25.275  38.449  1.00  0.00    -0.744 OA
ENDBRANCH  43  44
ENDBRANCH  24  38
BRANCH  25  48
ATOM     48  C   UNL A   1      43.446  25.907  26.273  1.00  0.00    -0.014 A 
ATOM     49  C   UNL A   1      44.624  25.771  25.513  1.00  0.00     0.010 A 
ATOM     50  C   UNL A   1      42.633  24.767  26.435  1.00  0.00     0.010 A 
ATOM     51  C   UNL A   1      45.012  24.522  24.999  1.00  0.00     0.020 A 
ATOM     52  C   UNL A   1      43.008  23.523  25.916  1.00  0.00     0.020 A 
ATOM     53  C   UNL A   1      44.212  23.400  25.227  1.00  0.00     0.054 A 
BRANCH  53  54
ATOM     54  S   UNL A   1      44.816  21.760  24.729  1.00  0.00     0.124 S 
ATOM     55  O   UNL A   1      43.957  20.864  25.497  1.00  0.00    -0.237 OA
ATOM     56  O   UNL A   1      44.594  21.767  23.286  1.00  0.00    -0.237 OA
ATOM     57  O   UNL A   1      46.221  21.772  25.136  1.00  0.00    -0.744 OA
ENDBRANCH  53  54
ENDBRANCH  25  48
BRANCH  37  58
ATOM     58  C   UNL A   1      45.088  31.340  29.111  1.00  0.00    -0.014 A 
ATOM     59  C   UNL A   1      46.321  31.991  28.915  1.00  0.00     0.010 A 
ATOM     60  C   UNL A   1      44.017  31.656  28.256  1.00  0.00     0.010 A 
ATOM     61  C   UNL A   1      46.475  32.941  27.896  1.00  0.00     0.020 A 
ATOM     62  C   UNL A   1      44.169  32.589  27.226  1.00  0.00     0.020 A 
ATOM     63  C   UNL A   1      45.398  33.228  27.052  1.00  0.00     0.054 A 
BRANCH  63  64
ATOM     64  S   UNL A   1      45.635  34.389  25.678  1.00  0.00     0.124 S 
ATOM     65  O   UNL A   1      44.777  33.831  24.637  1.00  0.00    -0.237 OA
ATOM     66  O   UNL A   1      45.188  35.659  26.247  1.00  0.00    -0.237 OA
ATOM     67  O   UNL A   1      47.070  34.316  25.402  1.00  0.00    -0.744 OA
ENDBRANCH  63  64
ENDBRANCH  37  58
ENDBRANCH  11  12
ENDBRANCH   4   6
ENDBRANCH   1   2
BRANCH   1  68
ATOM     68  C   UNL A   1      32.461  29.284  27.214  1.00  0.00     0.023 C 
BRANCH  68  69
ATOM     69  C   UNL A   1      31.826  28.407  26.129  1.00  0.00     0.023 C 
BRANCH  69  70
ATOM     70  C   UNL A   1      32.236  28.716  24.690  1.00  0.00     0.116 C 
BRANCH  70  71
ATOM     71  N   UNL A   1      31.101  28.766  23.776  1.00  0.00    -0.351 N 
ATOM     72  C   UNL A   1      30.863  28.065  22.629  1.00  0.00     0.270 C 
ATOM     73  H   UNL A   1      30.396  29.405  24.027  1.00  0.00     0.163 HD
ATOM     74  O   UNL A   1      29.907  28.424  21.920  1.00  0.00    -0.268 OA
BRANCH  72  75
ATOM     75  C   UNL A   1      31.693  26.953  22.284  1.00  0.00     0.132 A 
ATOM     76  N   UNL A   1      32.764  27.015  21.425  1.00  0.00    -0.270 N 
ATOM     77  C   UNL A   1      31.718  25.656  22.746  1.00  0.00     0.055 A 
ATOM     78  N   UNL A   1      33.409  25.850  21.225  1.00  0.00    -0.154 NA
ATOM     79  H   UNL A   1      33.040  27.852  20.985  1.00  0.00     0.190 HD
ATOM     80  C   UNL A   1      32.776  25.000  22.035  1.00  0.00     0.181 A 
ATOM     81  C   UNL A   1      30.859  25.098  23.687  1.00  0.00     0.055 A 
ATOM     82  N   UNL A   1      33.052  23.683  22.215  1.00  0.00    -0.232 NA
ATOM     83  C   UNL A   1      31.165  23.746  23.856  1.00  0.00     0.142 A 
ATOM     84  C   UNL A   1      32.204  23.116  23.133  1.00  0.00     0.152 A 
ATOM     85  F   UNL A   1      30.452  23.021  24.730  1.00  0.00    -0.205 F 
ENDBRANCH  72  75
ENDBRANCH  70  71
ENDBRANCH  69  70
ENDBRANCH  68  69
ENDBRANCH   1  68
TORSDOF 14
ENDMDL
MODEL 3
REMARK VINA RESULT:     -12.0      1.586      2.188
REMARK SMILES O=C(NCCCCNC(=O)c1[nH]nc2ncc(F)cc12)c1ccc(-c2c3nc(c(-c4ccc(S(=O)(=O)[O-])cc4)c4ccc([nH]4)c(-c4ccc(S(=O)(=O)[O-])cc4)c4nc(c(-c5ccc(S(=O)(=O)[O-])cc5)c5ccc2[nH]5)C=C4)C=C3)cc1
REMARK SMILES IDX 4 1 3 2 1 3 2 4 21 6 22 7 80 8 23 9 79 10 24 11 25 12 26 13
REMARK SMILES IDX 73 14 27 15 78 16 72 17 74 18 28 19 77 20 71 21 70 22 29 24
REMARK SMILES IDX 59 25 40 26 58 27 41 28 44 29 57 30 75 31 42 32 43 33 56 35
REMARK SMILES IDX 76 36 45 37 30 38 31 39 39 40 32 41 38 42 33 43 34 44 35 45
REMARK SMILES IDX 36 46 37 47 60 48 61 49 69 50 62 51 68 52 63 53 64 54 65 55
REMARK SMILES IDX 66 56 67 57 46 58 47 59 55 60 48 61 54 62 49 63 50 64 51 65
REMARK SMILES IDX 52 66 53 67 5 68 6 69 7 70 8 71 9 72 10 74 11 75 12 76 20 77
REMARK SMILES IDX 13 78 14 80 19 81 15 82 17 83 16 84 18 85
REMARK H PARENT 3 5 74 23 44 34 8 73 12 79
REMARK Flexibility Score: inf
ROOT
ATOM      1  C   UNL A   1      37.570  22.343  25.658  1.00  0.00     0.116 C 
ENDROOT
BRANCH   1   2
ATOM      2  N   UNL A   1      38.929  21.845  25.716  1.00  0.00    -0.352 N 
ATOM      3  O   UNL A   1      41.020  21.444  26.270  1.00  0.00    -0.269 OA
ATOM      4  C   UNL A   1      40.084  22.248  26.331  1.00  0.00     0.251 C 
ATOM      5  H   UNL A   1      39.052  21.023  25.187  1.00  0.00     0.163 HD
BRANCH   4   6
ATOM      6  C   UNL A   1      40.304  23.554  27.017  1.00  0.00     0.039 A 
ATOM      7  C   UNL A   1      41.454  23.931  27.710  1.00  0.00     0.014 A 
ATOM      8  C   UNL A   1      39.232  24.469  26.965  1.00  0.00     0.014 A 
ATOM      9  C   UNL A   1      41.513  25.162  28.368  1.00  0.00     0.010 A 
ATOM     10  C   UNL A   1      39.290  25.704  27.613  1.00  0.00     0.010 A 
ATOM     11  C   UNL A   1      40.429  26.046  28.332  1.00  0.00    -0.014 A 
BRANCH  11  12
ATOM     12  C   UNL A   1      40.594  27.356  28.962  1.00  0.00     0.031 A 
ATOM     13  C   UNL A   1      41.666  28.217  28.389  1.00  0.00     0.074 A 
ATOM     14  C   UNL A   1      39.795  27.876  29.915  1.00  0.00     0.049 A 
ATOM     15  N   UNL A   1      42.772  28.597  28.945  1.00  0.00    -0.248 NA
ATOM     16  C   UNL A   1      41.513  28.658  26.996  1.00  0.00     0.031 C 
ATOM     17  C   UNL A   1      38.513  27.365  30.400  1.00  0.00     0.029 A 
ATOM     18  N   UNL A   1      39.943  29.051  30.595  1.00  0.00    -0.354 N 
ATOM     19  C   UNL A   1      43.377  29.472  28.046  1.00  0.00     0.074 A 
ATOM     20  C   UNL A   1      42.623  29.375  26.820  1.00  0.00     0.031 C 
ATOM     21  C   UNL A   1      37.906  28.322  31.141  1.00  0.00     0.029 A 
ATOM     22  C   UNL A   1      38.815  29.445  31.301  1.00  0.00     0.049 A 
ATOM     23  H   UNL A   1      40.777  29.573  30.585  1.00  0.00     0.167 HD
ATOM     24  C   UNL A   1      44.342  30.357  28.423  1.00  0.00     0.031 A 
ATOM     25  C   UNL A   1      38.628  30.627  31.937  1.00  0.00     0.031 A 
ATOM     26  C   UNL A   1      44.880  30.060  29.723  1.00  0.00     0.049 A 
ATOM     27  C   UNL A   1      39.961  31.204  32.225  1.00  0.00     0.074 A 
ATOM     28  C   UNL A   1      45.566  29.008  30.292  1.00  0.00     0.029 A 
ATOM     29  N   UNL A   1      44.445  30.841  30.767  1.00  0.00    -0.354 N 
ATOM     30  N   UNL A   1      40.809  30.687  33.068  1.00  0.00    -0.248 NA
ATOM     31  C   UNL A   1      40.511  32.211  31.331  1.00  0.00     0.031 C 
ATOM     32  C   UNL A   1      45.135  28.971  31.651  1.00  0.00     0.029 A 
ATOM     33  C   UNL A   1      44.227  30.015  31.838  1.00  0.00     0.049 A 
ATOM     34  H   UNL A   1      44.314  31.817  30.748  1.00  0.00     0.167 HD
ATOM     35  C   UNL A   1      42.058  30.993  32.553  1.00  0.00     0.074 A 
ATOM     36  C   UNL A   1      41.813  32.044  31.574  1.00  0.00     0.031 C 
ATOM     37  C   UNL A   1      43.129  30.174  32.770  1.00  0.00     0.031 A 
BRANCH  24  38
ATOM     38  C   UNL A   1      44.547  31.714  27.783  1.00  0.00    -0.014 A 
ATOM     39  C   UNL A   1      45.744  31.959  27.074  1.00  0.00     0.010 A 
ATOM     40  C   UNL A   1      43.754  32.834  28.101  1.00  0.00     0.010 A 
ATOM     41  C   UNL A   1      46.166  33.264  26.783  1.00  0.00     0.020 A 
ATOM     42  C   UNL A   1      44.143  34.136  27.772  1.00  0.00     0.020 A 
ATOM     43  C   UNL A   1      45.369  34.345  27.156  1.00  0.00     0.054 A 
BRANCH  43  44
ATOM     44  S   UNL A   1      45.991  36.028  26.914  1.00  0.00     0.124 S 
ATOM     45  O   UNL A   1      44.751  36.793  26.825  1.00  0.00    -0.237 OA
ATOM     46  O   UNL A   1      46.785  36.244  28.120  1.00  0.00    -0.237 OA
ATOM     47  O   UNL A   1      46.760  35.933  25.675  1.00  0.00    -0.744 OA
ENDBRANCH  43  44
ENDBRANCH  24  38
BRANCH  25  48
ATOM     48  C   UNL A   1      37.376  31.404  32.106  1.00  0.00    -0.014 A 
ATOM     49  C   UNL A   1      37.101  32.077  33.311  1.00  0.00     0.010 A 
ATOM     50  C   UNL A   1      36.591  31.724  30.981  1.00  0.00     0.010 A 
ATOM     51  C   UNL A   1      36.127  33.089  33.369  1.00  0.00     0.020 A 
ATOM     52  C   UNL A   1      35.611  32.723  31.034  1.00  0.00     0.020 A 
ATOM     53  C   UNL A   1      35.406  33.422  32.220  1.00  0.00     0.054 A 
BRANCH  53  54
ATOM     54  S   UNL A   1      34.292  34.858  32.253  1.00  0.00     0.124 S 
ATOM     55  O   UNL A   1      35.062  35.833  33.019  1.00  0.00    -0.237 OA
ATOM     56  O   UNL A   1      34.123  35.158  30.834  1.00  0.00    -0.237 OA
ATOM     57  O   UNL A   1      33.095  34.349  32.922  1.00  0.00    -0.744 OA
ENDBRANCH  53  54
ENDBRANCH  25  48
BRANCH  37  58
ATOM     58  C   UNL A   1      43.038  29.152  33.879  1.00  0.00    -0.014 A 
ATOM     59  C   UNL A   1      43.385  29.431  35.216  1.00  0.00     0.010 A 
ATOM     60  C   UNL A   1      42.430  27.919  33.586  1.00  0.00     0.010 A 
ATOM     61  C   UNL A   1      43.140  28.493  36.228  1.00  0.00     0.020 A 
ATOM     62  C   UNL A   1      42.166  26.987  34.594  1.00  0.00     0.020 A 
ATOM     63  C   UNL A   1      42.524  27.279  35.912  1.00  0.00     0.054 A 
BRANCH  63  64
ATOM     64  S   UNL A   1      42.127  26.114  37.244  1.00  0.00     0.124 S 
ATOM     65  O   UNL A   1      40.756  26.479  37.590  1.00  0.00    -0.237 OA
ATOM     66  O   UNL A   1      42.287  24.814  36.595  1.00  0.00    -0.237 OA
ATOM     67  O   UNL A   1      43.123  26.408  38.274  1.00  0.00    -0.744 OA
ENDBRANCH  63  64
ENDBRANCH  37  58
ENDBRANCH  11  12
ENDBRANCH   4   6
ENDBRANCH   1   2
BRANCH   1  68
ATOM     68  C   UNL A   1      37.106  22.774  24.266  1.00  0.00     0.023 C 
BRANCH  68  69
ATOM     69  C   UNL A   1      35.631  22.514  23.941  1.00  0.00     0.023 C 
BRANCH  69  70
ATOM     70  C   UNL A   1      34.711  22.273  25.137  1.00  0.00     0.116 C 
BRANCH  70  71
ATOM     71  N   UNL A   1      33.764  21.189  24.913  1.00  0.00    -0.351 N 
ATOM     72  C   UNL A   1      32.443  21.091  25.244  1.00  0.00     0.270 C 
ATOM     73  H   UNL A   1      34.136  20.404  24.449  1.00  0.00     0.163 HD
ATOM     74  O   UNL A   1      31.895  19.982  25.116  1.00  0.00    -0.268 OA
BRANCH  72  75
ATOM     75  C   UNL A   1      31.734  22.242  25.709  1.00  0.00     0.132 A 
ATOM     76  N   UNL A   1      31.386  22.468  27.019  1.00  0.00    -0.270 N 
ATOM     77  C   UNL A   1      31.328  23.386  25.060  1.00  0.00     0.055 A 
ATOM     78  N   UNL A   1      30.710  23.610  27.245  1.00  0.00    -0.154 NA
ATOM     79  H   UNL A   1      31.614  21.839  27.742  1.00  0.00     0.190 HD
ATOM     80  C   UNL A   1      30.666  24.190  26.045  1.00  0.00     0.181 A 
ATOM     81  C   UNL A   1      31.500  23.675  23.710  1.00  0.00     0.055 A 
ATOM     82  N   UNL A   1      30.097  25.383  25.733  1.00  0.00    -0.232 NA
ATOM     83  C   UNL A   1      30.909  24.905  23.416  1.00  0.00     0.142 A 
ATOM     84  C   UNL A   1      30.249  25.676  24.401  1.00  0.00     0.152 A 
ATOM     85  F   UNL A   1      30.968  25.373  22.161  1.00  0.00    -0.205 F 
ENDBRANCH  72  75
ENDBRANCH  70  71
ENDBRANCH  69  70
ENDBRANCH  68  69
ENDBRANCH   1  68
TORSDOF 14
ENDMDL
