MODEL 1
REMARK VINA RESULT:     -10.9      0.000      0.000
REMARK SMILES Cc1nc(C(=O)NCCCCNC(=O)c2ccc(-c3c4nc(c(-c5ccc(S(=O)(=O)[O-])cc5)c5ccc([nH]5)c(-c5ccc(S(=O)(=O)[O-])cc5)c5nc(c(-c6ccc(S(=O)(=O)[O-])cc6)c6ccc3[nH]6)C=C5)C=C4)cc2)c(-c2ccccc2F)s1
REMARK SMILES IDX 10 1 9 2 8 3 7 4 5 5 6 6 4 8 1 9 2 10 3 11 83 12 75 13 76 14
REMARK SMILES IDX 77 15 81 16 78 17 80 18 82 19 79 20 11 21 12 22 13 23 14 25
REMARK SMILES IDX 15 26 16 27 74 28 17 29 73 30 18 31 19 32 20 33 67 34 21 35
REMARK SMILES IDX 72 36 66 37 68 38 22 39 71 40 65 41 64 42 23 44 53 45 34 46
REMARK SMILES IDX 52 47 35 48 38 49 51 50 69 51 36 52 37 53 50 55 70 56 39 57
REMARK SMILES IDX 24 58 25 59 33 60 26 61 32 62 27 63 28 64 29 65 30 66 31 67
REMARK SMILES IDX 54 68 55 69 63 70 56 71 62 72 57 73 58 74 59 75 60 76 61 77
REMARK SMILES IDX 40 78 41 79 49 80 42 81 48 82 43 83 44 84 45 85 46 86 47 87
REMARK H PARENT 7 7 12 24 68 43 38 54
REMARK Flexibility Score: inf
ROOT
ATOM      1  C   UNL A   1      35.563  22.780  25.776  1.00  0.00     0.023 C 
ENDROOT
BRANCH   1   2
ATOM      2  C   UNL A   1      34.912  22.980  27.146  1.00  0.00     0.023 C 
BRANCH   2   3
ATOM      3  C   UNL A   1      33.982  21.847  27.571  1.00  0.00     0.116 C 
BRANCH   3   4
ATOM      4  N   UNL A   1      32.632  22.318  27.824  1.00  0.00    -0.351 N 
ATOM      5  C   UNL A   1      31.674  22.849  26.993  1.00  0.00     0.271 C 
ATOM      6  O   UNL A   1      30.589  23.118  27.519  1.00  0.00    -0.267 OA
ATOM      7  H   UNL A   1      32.353  22.244  28.766  1.00  0.00     0.163 HD
BRANCH   5   8
ATOM      8  C   UNL A   1      31.925  23.052  25.554  1.00  0.00     0.147 A 
ATOM      9  C   UNL A   1      32.019  21.553  22.210  1.00  0.00     0.079 C 
ATOM     10  C   UNL A   1      32.058  22.436  23.405  1.00  0.00     0.091 A 
ATOM     11  N   UNL A   1      31.848  22.012  24.626  1.00  0.00    -0.236 NA
ATOM     12  S   UNL A   1      32.376  24.107  23.260  1.00  0.00    -0.118 S 
ATOM     13  C   UNL A   1      32.220  24.283  24.970  1.00  0.00     0.070 A 
BRANCH  13  14
ATOM     14  C   UNL A   1      32.420  25.606  25.561  1.00  0.00     0.030 A 
ATOM     15  C   UNL A   1      33.701  26.170  25.649  1.00  0.00     0.013 A 
ATOM     16  C   UNL A   1      31.331  26.347  26.038  1.00  0.00     0.131 A 
ATOM     17  C   UNL A   1      33.879  27.446  26.196  1.00  0.00     0.001 A 
ATOM     18  C   UNL A   1      31.503  27.620  26.576  1.00  0.00     0.040 A 
ATOM     19  F   UNL A   1      30.093  25.832  25.995  1.00  0.00    -0.206 F 
ATOM     20  C   UNL A   1      32.780  28.171  26.654  1.00  0.00     0.003 A 
ENDBRANCH  13  14
ENDBRANCH   5   8
ENDBRANCH   3   4
ENDBRANCH   2   3
ENDBRANCH   1   2
BRANCH   1  21
ATOM     21  C   UNL A   1      36.885  23.514  25.570  1.00  0.00     0.116 C 
BRANCH  21  22
ATOM     22  N   UNL A   1      38.047  22.643  25.669  1.00  0.00    -0.352 N 
ATOM     23  C   UNL A   1      39.299  22.931  26.158  1.00  0.00     0.251 C 
ATOM     24  H   UNL A   1      37.919  21.724  25.341  1.00  0.00     0.163 HD
ATOM     25  O   UNL A   1      40.208  22.114  26.049  1.00  0.00    -0.269 OA
BRANCH  23  26
ATOM     26  C   UNL A   1      39.546  24.247  26.785  1.00  0.00     0.039 A 
ATOM     27  C   UNL A   1      39.149  24.450  28.108  1.00  0.00     0.014 A 
ATOM     28  C   UNL A   1      40.204  25.257  26.080  1.00  0.00     0.014 A 
ATOM     29  C   UNL A   1      39.480  25.646  28.748  1.00  0.00     0.010 A 
ATOM     30  C   UNL A   1      40.603  26.412  26.744  1.00  0.00     0.010 A 
ATOM     31  C   UNL A   1      40.245  26.621  28.085  1.00  0.00    -0.014 A 
BRANCH  31  32
ATOM     32  C   UNL A   1      40.687  27.858  28.779  1.00  0.00     0.031 A 
ATOM     33  C   UNL A   1      42.061  27.934  29.387  1.00  0.00     0.074 A 
ATOM     34  C   UNL A   1      39.828  28.887  28.921  1.00  0.00     0.049 A 
ATOM     35  N   UNL A   1      42.607  28.907  30.072  1.00  0.00    -0.248 NA
ATOM     36  C   UNL A   1      42.927  26.754  29.228  1.00  0.00     0.031 C 
ATOM     37  C   UNL A   1      38.453  28.919  28.415  1.00  0.00     0.029 A 
ATOM     38  N   UNL A   1      39.981  30.104  29.537  1.00  0.00    -0.354 N 
ATOM     39  C   UNL A   1      43.868  28.452  30.437  1.00  0.00     0.074 A 
ATOM     40  C   UNL A   1      43.984  27.096  29.948  1.00  0.00     0.031 C 
ATOM     41  C   UNL A   1      37.902  30.105  28.715  1.00  0.00     0.029 A 
ATOM     42  C   UNL A   1      38.863  30.901  29.473  1.00  0.00     0.049 A 
ATOM     43  H   UNL A   1      40.815  30.380  29.983  1.00  0.00     0.167 HD
ATOM     44  C   UNL A   1      44.849  29.108  31.102  1.00  0.00     0.031 A 
ATOM     45  C   UNL A   1      38.630  32.131  29.973  1.00  0.00     0.031 A 
ATOM     46  C   UNL A   1      44.726  30.457  31.589  1.00  0.00     0.049 A 
ATOM     47  C   UNL A   1      39.726  32.835  30.726  1.00  0.00     0.074 A 
ATOM     48  C   UNL A   1      45.680  31.231  32.227  1.00  0.00     0.029 A 
ATOM     49  N   UNL A   1      43.578  31.231  31.501  1.00  0.00    -0.354 N 
ATOM     50  N   UNL A   1      40.939  32.415  30.998  1.00  0.00    -0.248 NA
ATOM     51  C   UNL A   1      39.427  34.182  31.227  1.00  0.00     0.031 C 
ATOM     52  C   UNL A   1      45.088  32.448  32.582  1.00  0.00     0.029 A 
ATOM     53  C   UNL A   1      43.789  32.462  32.100  1.00  0.00     0.049 A 
ATOM     54  H   UNL A   1      42.737  30.947  31.075  1.00  0.00     0.167 HD
ATOM     55  C   UNL A   1      41.556  33.459  31.678  1.00  0.00     0.074 A 
ATOM     56  C   UNL A   1      40.588  34.533  31.761  1.00  0.00     0.031 C 
ATOM     57  C   UNL A   1      42.814  33.523  32.182  1.00  0.00     0.031 A 
BRANCH  44  58
ATOM     58  C   UNL A   1      46.135  28.364  31.355  1.00  0.00    -0.014 A 
ATOM     59  C   UNL A   1      46.327  27.613  32.530  1.00  0.00     0.010 A 
ATOM     60  C   UNL A   1      47.162  28.397  30.394  1.00  0.00     0.010 A 
ATOM     61  C   UNL A   1      47.538  26.957  32.763  1.00  0.00     0.020 A 
ATOM     62  C   UNL A   1      48.363  27.714  30.607  1.00  0.00     0.020 A 
ATOM     63  C   UNL A   1      48.551  27.016  31.801  1.00  0.00     0.054 A 
BRANCH  63  64
ATOM     64  S   UNL A   1      50.111  26.151  32.129  1.00  0.00     0.124 S 
ATOM     65  O   UNL A   1      49.690  24.752  32.107  1.00  0.00    -0.237 OA
ATOM     66  O   UNL A   1      50.951  26.572  31.011  1.00  0.00    -0.237 OA
ATOM     67  O   UNL A   1      50.520  26.657  33.437  1.00  0.00    -0.744 OA
ENDBRANCH  63  64
ENDBRANCH  44  58
BRANCH  45  68
ATOM     68  C   UNL A   1      37.305  32.777  29.761  1.00  0.00    -0.014 A 
ATOM     69  C   UNL A   1      36.267  32.604  30.694  1.00  0.00     0.010 A 
ATOM     70  C   UNL A   1      37.085  33.598  28.639  1.00  0.00     0.010 A 
ATOM     71  C   UNL A   1      35.032  33.231  30.504  1.00  0.00     0.020 A 
ATOM     72  C   UNL A   1      35.861  34.250  28.462  1.00  0.00     0.020 A 
ATOM     73  C   UNL A   1      34.839  34.056  29.392  1.00  0.00     0.054 A 
BRANCH  73  74
ATOM     74  S   UNL A   1      33.251  34.913  29.204  1.00  0.00     0.124 S 
ATOM     75  O   UNL A   1      33.668  36.221  28.707  1.00  0.00    -0.237 OA
ATOM     76  O   UNL A   1      32.548  34.065  28.243  1.00  0.00    -0.237 OA
ATOM     77  O   UNL A   1      32.694  34.904  30.555  1.00  0.00    -0.744 OA
ENDBRANCH  73  74
ENDBRANCH  45  68
BRANCH  57  78
ATOM     78  C   UNL A   1      43.235  34.811  32.841  1.00  0.00    -0.014 A 
ATOM     79  C   UNL A   1      43.713  35.899  32.090  1.00  0.00     0.010 A 
ATOM     80  C   UNL A   1      43.092  34.952  34.235  1.00  0.00     0.010 A 
ATOM     81  C   UNL A   1      44.070  37.093  32.724  1.00  0.00     0.020 A 
ATOM     82  C   UNL A   1      43.417  36.154  34.868  1.00  0.00     0.020 A 
ATOM     83  C   UNL A   1      43.917  37.213  34.108  1.00  0.00     0.054 A 
BRANCH  83  84
ATOM     84  S   UNL A   1      44.343  38.789  34.899  1.00  0.00     0.124 S 
ATOM     85  O   UNL A   1      45.766  38.908  34.594  1.00  0.00    -0.237 OA
ATOM     86  O   UNL A   1      43.471  39.738  34.211  1.00  0.00    -0.237 OA
ATOM     87  O   UNL A   1      44.025  38.568  36.308  1.00  0.00    -0.744 OA
ENDBRANCH  83  84
ENDBRANCH  57  78
ENDBRANCH  31  32
ENDBRANCH  23  26
ENDBRANCH  21  22
ENDBRANCH   1  21
TORSDOF 15
ENDMDL
MODEL 2
REMARK VINA RESULT:     -10.5      3.140      3.769
REMARK SMILES Cc1nc(C(=O)NCCCCNC(=O)c2ccc(-c3c4nc(c(-c5ccc(S(=O)(=O)[O-])cc5)c5ccc([nH]5)c(-c5ccc(S(=O)(=O)[O-])cc5)c5nc(c(-c6ccc(S(=O)(=O)[O-])cc6)c6ccc3[nH]6)C=C5)C=C4)cc2)c(-c2ccccc2F)s1
REMARK SMILES IDX 10 1 9 2 8 3 7 4 5 5 6 6 4 8 1 9 2 10 3 11 83 12 75 13 76 14
REMARK SMILES IDX 77 15 81 16 78 17 80 18 82 19 79 20 11 21 12 22 13 23 14 25
REMARK SMILES IDX 15 26 16 27 74 28 17 29 73 30 18 31 19 32 20 33 67 34 21 35
REMARK SMILES IDX 72 36 66 37 68 38 22 39 71 40 65 41 64 42 23 44 53 45 34 46
REMARK SMILES IDX 52 47 35 48 38 49 51 50 69 51 36 52 37 53 50 55 70 56 39 57
REMARK SMILES IDX 24 58 25 59 33 60 26 61 32 62 27 63 28 64 29 65 30 66 31 67
REMARK SMILES IDX 54 68 55 69 63 70 56 71 62 72 57 73 58 74 59 75 60 76 61 77
REMARK SMILES IDX 40 78 41 79 49 80 42 81 48 82 43 83 44 84 45 85 46 86 47 87
REMARK H PARENT 7 7 12 24 68 43 38 54
REMARK Flexibility Score: inf
ROOT
ATOM      1  C   UNL A   1      37.780  23.621  25.528  1.00  0.00     0.023 C 
ENDROOT
BRANCH   1   2
ATOM      2  C   UNL A   1      36.304  23.624  25.932  1.00  0.00     0.023 C 
BRANCH   2   3
ATOM      3  C   UNL A   1      35.772  22.266  26.379  1.00  0.00     0.116 C 
BRANCH   3   4
ATOM      4  N   UNL A   1      34.612  22.393  27.243  1.00  0.00    -0.351 N 
ATOM      5  C   UNL A   1      33.286  22.634  26.969  1.00  0.00     0.271 C 
ATOM      6  O   UNL A   1      32.525  22.643  27.942  1.00  0.00    -0.267 OA
ATOM      7  H   UNL A   1      34.813  22.289  28.201  1.00  0.00     0.163 HD
BRANCH   5   8
ATOM      8  C   UNL A   1      32.806  22.837  25.589  1.00  0.00     0.147 A 
ATOM      9  C   UNL A   1      31.887  21.287  22.396  1.00  0.00     0.079 C 
ATOM     10  C   UNL A   1      32.169  22.192  23.541  1.00  0.00     0.091 A 
ATOM     11  N   UNL A   1      32.657  21.783  24.685  1.00  0.00    -0.236 NA
ATOM     12  S   UNL A   1      31.857  23.867  23.441  1.00  0.00    -0.118 S 
ATOM     13  C   UNL A   1      32.418  24.067  25.061  1.00  0.00     0.070 A 
BRANCH  13  14
ATOM     14  C   UNL A   1      32.435  25.411  25.638  1.00  0.00     0.030 A 
ATOM     15  C   UNL A   1      33.638  26.120  25.778  1.00  0.00     0.013 A 
ATOM     16  C   UNL A   1      31.247  26.028  26.049  1.00  0.00     0.131 A 
ATOM     17  C   UNL A   1      33.642  27.413  26.311  1.00  0.00     0.001 A 
ATOM     18  C   UNL A   1      31.245  27.319  26.572  1.00  0.00     0.040 A 
ATOM     19  F   UNL A   1      30.079  25.374  25.954  1.00  0.00    -0.206 F 
ATOM     20  C   UNL A   1      32.446  28.014  26.702  1.00  0.00     0.003 A 
ENDBRANCH  13  14
ENDBRANCH   5   8
ENDBRANCH   3   4
ENDBRANCH   2   3
ENDBRANCH   1   2
BRANCH   1  21
ATOM     21  C   UNL A   1      38.765  23.914  26.656  1.00  0.00     0.116 C 
BRANCH  21  22
ATOM     22  N   UNL A   1      40.156  23.876  26.228  1.00  0.00    -0.352 N 
ATOM     23  C   UNL A   1      41.170  24.756  26.520  1.00  0.00     0.251 C 
ATOM     24  H   UNL A   1      40.403  23.118  25.651  1.00  0.00     0.163 HD
ATOM     25  O   UNL A   1      42.261  24.648  25.969  1.00  0.00    -0.269 OA
BRANCH  23  26
ATOM     26  C   UNL A   1      40.922  25.854  27.478  1.00  0.00     0.039 A 
ATOM     27  C   UNL A   1      39.929  25.694  28.448  1.00  0.00     0.014 A 
ATOM     28  C   UNL A   1      41.696  27.017  27.444  1.00  0.00     0.014 A 
ATOM     29  C   UNL A   1      39.763  26.673  29.429  1.00  0.00     0.010 A 
ATOM     30  C   UNL A   1      41.583  27.950  28.469  1.00  0.00     0.010 A 
ATOM     31  C   UNL A   1      40.616  27.790  29.473  1.00  0.00    -0.014 A 
BRANCH  31  32
ATOM     32  C   UNL A   1      40.517  28.793  30.564  1.00  0.00     0.031 A 
ATOM     33  C   UNL A   1      41.411  28.690  31.771  1.00  0.00     0.074 A 
ATOM     34  C   UNL A   1      39.577  29.758  30.500  1.00  0.00     0.049 A 
ATOM     35  N   UNL A   1      41.438  29.440  32.842  1.00  0.00    -0.248 NA
ATOM     36  C   UNL A   1      42.382  27.585  31.787  1.00  0.00     0.031 C 
ATOM     37  C   UNL A   1      38.621  29.938  29.405  1.00  0.00     0.029 A 
ATOM     38  N   UNL A   1      39.267  30.766  31.379  1.00  0.00    -0.354 N 
ATOM     39  C   UNL A   1      42.414  28.890  33.664  1.00  0.00     0.074 A 
ATOM     40  C   UNL A   1      42.915  27.711  32.992  1.00  0.00     0.031 C 
ATOM     41  C   UNL A   1      37.854  31.009  29.663  1.00  0.00     0.029 A 
ATOM     42  C   UNL A   1      38.229  31.564  30.960  1.00  0.00     0.049 A 
ATOM     43  H   UNL A   1      39.744  30.905  32.229  1.00  0.00     0.167 HD
ATOM     44  C   UNL A   1      42.868  29.335  34.861  1.00  0.00     0.031 A 
ATOM     45  C   UNL A   1      37.637  32.620  31.553  1.00  0.00     0.031 A 
ATOM     46  C   UNL A   1      42.363  30.509  35.525  1.00  0.00     0.049 A 
ATOM     47  C   UNL A   1      38.143  33.086  32.891  1.00  0.00     0.074 A 
ATOM     48  C   UNL A   1      42.793  31.075  36.713  1.00  0.00     0.029 A 
ATOM     49  N   UNL A   1      41.314  31.291  35.066  1.00  0.00    -0.354 N 
ATOM     50  N   UNL A   1      39.117  32.596  33.620  1.00  0.00    -0.248 NA
ATOM     51  C   UNL A   1      37.479  34.256  33.480  1.00  0.00     0.031 C 
ATOM     52  C   UNL A   1      41.961  32.160  37.004  1.00  0.00     0.029 A 
ATOM     53  C   UNL A   1      41.061  32.317  35.962  1.00  0.00     0.049 A 
ATOM     54  H   UNL A   1      40.822  31.140  34.227  1.00  0.00     0.167 HD
ATOM     55  C   UNL A   1      39.201  33.415  34.740  1.00  0.00     0.074 A 
ATOM     56  C   UNL A   1      38.190  34.440  34.584  1.00  0.00     0.031 C 
ATOM     57  C   UNL A   1      40.045  33.329  35.799  1.00  0.00     0.031 A 
BRANCH  44  58
ATOM     58  C   UNL A   1      43.955  28.536  35.533  1.00  0.00    -0.014 A 
ATOM     59  C   UNL A   1      45.310  28.716  35.195  1.00  0.00     0.010 A 
ATOM     60  C   UNL A   1      43.621  27.605  36.533  1.00  0.00     0.010 A 
ATOM     61  C   UNL A   1      46.301  27.942  35.804  1.00  0.00     0.020 A 
ATOM     62  C   UNL A   1      44.613  26.853  37.170  1.00  0.00     0.020 A 
ATOM     63  C   UNL A   1      45.945  27.012  36.785  1.00  0.00     0.054 A 
BRANCH  63  64
ATOM     64  S   UNL A   1      47.255  26.025  37.561  1.00  0.00     0.124 S 
ATOM     65  O   UNL A   1      48.048  27.053  38.231  1.00  0.00    -0.237 OA
ATOM     66  O   UNL A   1      46.504  25.136  38.444  1.00  0.00    -0.237 OA
ATOM     67  O   UNL A   1      47.910  25.370  36.432  1.00  0.00    -0.744 OA
ENDBRANCH  63  64
ENDBRANCH  44  58
BRANCH  45  68
ATOM     68  C   UNL A   1      36.509  33.314  30.873  1.00  0.00    -0.014 A 
ATOM     69  C   UNL A   1      35.254  33.423  31.498  1.00  0.00     0.010 A 
ATOM     70  C   UNL A   1      36.694  33.902  29.607  1.00  0.00     0.010 A 
ATOM     71  C   UNL A   1      34.204  34.095  30.867  1.00  0.00     0.020 A 
ATOM     72  C   UNL A   1      35.655  34.601  28.987  1.00  0.00     0.020 A 
ATOM     73  C   UNL A   1      34.413  34.686  29.617  1.00  0.00     0.054 A 
BRANCH  73  74
ATOM     74  S   UNL A   1      33.054  35.613  28.850  1.00  0.00     0.124 S 
ATOM     75  O   UNL A   1      32.424  34.593  28.016  1.00  0.00    -0.237 OA
ATOM     76  O   UNL A   1      32.280  36.051  30.009  1.00  0.00    -0.237 OA
ATOM     77  O   UNL A   1      33.735  36.683  28.125  1.00  0.00    -0.744 OA
ENDBRANCH  73  74
ENDBRANCH  45  68
BRANCH  57  78
ATOM     78  C   UNL A   1      39.939  34.391  36.862  1.00  0.00    -0.014 A 
ATOM     79  C   UNL A   1      40.673  35.587  36.782  1.00  0.00     0.010 A 
ATOM     80  C   UNL A   1      39.038  34.211  37.930  1.00  0.00     0.010 A 
ATOM     81  C   UNL A   1      40.534  36.568  37.768  1.00  0.00     0.020 A 
ATOM     82  C   UNL A   1      38.872  35.203  38.899  1.00  0.00     0.020 A 
ATOM     83  C   UNL A   1      39.633  36.371  38.818  1.00  0.00     0.054 A 
BRANCH  83  84
ATOM     84  S   UNL A   1      39.436  37.682  40.058  1.00  0.00     0.124 S 
ATOM     85  O   UNL A   1      40.668  38.448  39.888  1.00  0.00    -0.237 OA
ATOM     86  O   UNL A   1      38.214  38.351  39.623  1.00  0.00    -0.237 OA
ATOM     87  O   UNL A   1      39.326  36.953  41.319  1.00  0.00    -0.744 OA
ENDBRANCH  83  84
ENDBRANCH  57  78
ENDBRANCH  31  32
ENDBRANCH  23  26
ENDBRANCH  21  22
ENDBRANCH   1  21
TORSDOF 15
ENDMDL
MODEL 3
REMARK VINA RESULT:     -10.5      2.704      9.258
REMARK SMILES Cc1nc(C(=O)NCCCCNC(=O)c2ccc(-c3c4nc(c(-c5ccc(S(=O)(=O)[O-])cc5)c5ccc([nH]5)c(-c5ccc(S(=O)(=O)[O-])cc5)c5nc(c(-c6ccc(S(=O)(=O)[O-])cc6)c6ccc3[nH]6)C=C5)C=C4)cc2)c(-c2ccccc2F)s1
REMARK SMILES IDX 10 1 9 2 8 3 7 4 5 5 6 6 4 8 1 9 2 10 3 11 83 12 75 13 76 14
REMARK SMILES IDX 77 15 81 16 78 17 80 18 82 19 79 20 11 21 12 22 13 23 14 25
REMARK SMILES IDX 15 26 16 27 74 28 17 29 73 30 18 31 19 32 20 33 67 34 21 35
REMARK SMILES IDX 72 36 66 37 68 38 22 39 71 40 65 41 64 42 23 44 53 45 34 46
REMARK SMILES IDX 52 47 35 48 38 49 51 50 69 51 36 52 37 53 50 55 70 56 39 57
REMARK SMILES IDX 24 58 25 59 33 60 26 61 32 62 27 63 28 64 29 65 30 66 31 67
REMARK SMILES IDX 54 68 55 69 63 70 56 71 62 72 57 73 58 74 59 75 60 76 61 77
REMARK SMILES IDX 40 78 41 79 49 80 42 81 48 82 43 83 44 84 45 85 46 86 47 87
REMARK H PARENT 7 7 12 24 68 43 38 54
REMARK Flexibility Score: inf
ROOT
ATOM      1  C   UNL A   1      32.457  28.006  26.068  1.00  0.00     0.023 C 
ENDROOT
BRANCH   1   2
ATOM      2  C   UNL A   1      31.131  27.327  26.418  1.00  0.00     0.023 C 
BRANCH   2   3
ATOM      3  C   UNL A   1      31.069  25.845  26.056  1.00  0.00     0.116 C 
BRANCH   3   4
ATOM      4  N   UNL A   1      32.266  25.135  26.467  1.00  0.00    -0.351 N 
ATOM      5  C   UNL A   1      33.215  24.445  25.750  1.00  0.00     0.271 C 
ATOM      6  O   UNL A   1      34.155  23.979  26.403  1.00  0.00    -0.267 OA
ATOM      7  H   UNL A   1      32.426  25.148  27.439  1.00  0.00     0.163 HD
BRANCH   5   8
ATOM      8  C   UNL A   1      33.126  24.303  24.285  1.00  0.00     0.147 A 
ATOM      9  C   UNL A   1      32.794  25.992  21.048  1.00  0.00     0.079 C 
ATOM     10  C   UNL A   1      32.947  25.037  22.177  1.00  0.00     0.091 A 
ATOM     11  N   UNL A   1      32.945  25.396  23.436  1.00  0.00    -0.236 NA
ATOM     12  S   UNL A   1      33.153  23.366  21.898  1.00  0.00    -0.118 S 
ATOM     13  C   UNL A   1      33.250  23.095  23.599  1.00  0.00     0.070 A 
BRANCH  13  14
ATOM     14  C   UNL A   1      33.419  21.725  24.085  1.00  0.00     0.030 A 
ATOM     15  C   UNL A   1      32.320  20.861  24.200  1.00  0.00     0.013 A 
ATOM     16  C   UNL A   1      34.687  21.242  24.430  1.00  0.00     0.131 A 
ATOM     17  C   UNL A   1      32.496  19.546  24.644  1.00  0.00     0.001 A 
ATOM     18  C   UNL A   1      34.867  19.931  24.865  1.00  0.00     0.040 A 
ATOM     19  F   UNL A   1      35.760  22.045  24.357  1.00  0.00    -0.206 F 
ATOM     20  C   UNL A   1      33.769  19.080  24.971  1.00  0.00     0.003 A 
ENDBRANCH  13  14
ENDBRANCH   5   8
ENDBRANCH   3   4
ENDBRANCH   2   3
ENDBRANCH   1   2
BRANCH   1  21
ATOM     21  C   UNL A   1      33.299  28.443  27.264  1.00  0.00     0.116 C 
BRANCH  21  22
ATOM     22  N   UNL A   1      33.265  29.880  27.493  1.00  0.00    -0.352 N 
ATOM     23  C   UNL A   1      34.252  30.695  27.995  1.00  0.00     0.251 C 
ATOM     24  H   UNL A   1      32.422  30.330  27.257  1.00  0.00     0.163 HD
ATOM     25  O   UNL A   1      34.014  31.872  28.247  1.00  0.00    -0.269 OA
BRANCH  23  26
ATOM     26  C   UNL A   1      35.592  30.129  28.260  1.00  0.00     0.039 A 
ATOM     27  C   UNL A   1      36.541  30.132  27.235  1.00  0.00     0.014 A 
ATOM     28  C   UNL A   1      35.920  29.639  29.526  1.00  0.00     0.014 A 
ATOM     29  C   UNL A   1      37.844  29.707  27.504  1.00  0.00     0.010 A 
ATOM     30  C   UNL A   1      37.237  29.295  29.812  1.00  0.00     0.010 A 
ATOM     31  C   UNL A   1      38.214  29.324  28.805  1.00  0.00    -0.014 A 
BRANCH  31  32
ATOM     32  C   UNL A   1      39.617  28.961  29.132  1.00  0.00     0.031 A 
ATOM     33  C   UNL A   1      40.531  29.972  29.769  1.00  0.00     0.074 A 
ATOM     34  C   UNL A   1      40.087  27.743  28.794  1.00  0.00     0.049 A 
ATOM     35  N   UNL A   1      41.796  29.856  30.083  1.00  0.00    -0.248 NA
ATOM     36  C   UNL A   1      39.957  31.293  30.070  1.00  0.00     0.031 C 
ATOM     37  C   UNL A   1      39.313  26.690  28.131  1.00  0.00     0.029 A 
ATOM     38  N   UNL A   1      41.331  27.187  28.955  1.00  0.00    -0.354 N 
ATOM     39  C   UNL A   1      42.172  31.089  30.601  1.00  0.00     0.074 A 
ATOM     40  C   UNL A   1      41.017  31.955  30.507  1.00  0.00     0.031 C 
ATOM     41  C   UNL A   1      40.091  25.608  27.971  1.00  0.00     0.029 A 
ATOM     42  C   UNL A   1      41.429  25.902  28.476  1.00  0.00     0.049 A 
ATOM     43  H   UNL A   1      42.083  27.664  29.376  1.00  0.00     0.167 HD
ATOM     44  C   UNL A   1      43.363  31.464  31.127  1.00  0.00     0.031 A 
ATOM     45  C   UNL A   1      42.477  25.056  28.436  1.00  0.00     0.031 A 
ATOM     46  C   UNL A   1      44.509  30.597  31.217  1.00  0.00     0.049 A 
ATOM     47  C   UNL A   1      43.797  25.498  29.007  1.00  0.00     0.074 A 
ATOM     48  C   UNL A   1      45.745  30.863  31.781  1.00  0.00     0.029 A 
ATOM     49  N   UNL A   1      44.566  29.302  30.722  1.00  0.00    -0.354 N 
ATOM     50  N   UNL A   1      44.112  26.645  29.560  1.00  0.00    -0.248 NA
ATOM     51  C   UNL A   1      44.898  24.527  28.962  1.00  0.00     0.031 C 
ATOM     52  C   UNL A   1      46.568  29.752  31.570  1.00  0.00     0.029 A 
ATOM     53  C   UNL A   1      45.825  28.767  30.941  1.00  0.00     0.049 A 
ATOM     54  H   UNL A   1      43.821  28.833  30.282  1.00  0.00     0.167 HD
ATOM     55  C   UNL A   1      45.440  26.523  29.953  1.00  0.00     0.074 A 
ATOM     56  C   UNL A   1      45.862  25.186  29.589  1.00  0.00     0.031 C 
ATOM     57  C   UNL A   1      46.235  27.435  30.567  1.00  0.00     0.031 A 
BRANCH  44  58
ATOM     58  C   UNL A   1      43.487  32.880  31.630  1.00  0.00    -0.014 A 
ATOM     59  C   UNL A   1      44.011  33.902  30.817  1.00  0.00     0.010 A 
ATOM     60  C   UNL A   1      43.053  33.199  32.930  1.00  0.00     0.010 A 
ATOM     61  C   UNL A   1      44.149  35.200  31.311  1.00  0.00     0.020 A 
ATOM     62  C   UNL A   1      43.157  34.505  33.417  1.00  0.00     0.020 A 
ATOM     63  C   UNL A   1      43.725  35.493  32.611  1.00  0.00     0.054 A 
BRANCH  63  64
ATOM     64  S   UNL A   1      43.914  37.190  33.224  1.00  0.00     0.124 S 
ATOM     65  O   UNL A   1      42.892  37.248  34.266  1.00  0.00    -0.237 OA
ATOM     66  O   UNL A   1      45.295  37.206  33.698  1.00  0.00    -0.237 OA
ATOM     67  O   UNL A   1      43.652  38.015  32.048  1.00  0.00    -0.744 OA
ENDBRANCH  63  64
ENDBRANCH  44  58
BRANCH  45  68
ATOM     68  C   UNL A   1      42.310  23.698  27.846  1.00  0.00    -0.014 A 
ATOM     69  C   UNL A   1      42.545  23.479  26.478  1.00  0.00     0.010 A 
ATOM     70  C   UNL A   1      41.947  22.609  28.660  1.00  0.00     0.010 A 
ATOM     71  C   UNL A   1      42.411  22.199  25.932  1.00  0.00     0.020 A 
ATOM     72  C   UNL A   1      41.840  21.322  28.123  1.00  0.00     0.020 A 
ATOM     73  C   UNL A   1      42.065  21.127  26.759  1.00  0.00     0.054 A 
BRANCH  73  74
ATOM     74  S   UNL A   1      41.964  19.464  26.040  1.00  0.00     0.124 S 
ATOM     75  O   UNL A   1      42.884  19.565  24.911  1.00  0.00    -0.237 OA
ATOM     76  O   UNL A   1      42.408  18.617  27.145  1.00  0.00    -0.237 OA
ATOM     77  O   UNL A   1      40.553  19.327  25.689  1.00  0.00    -0.744 OA
ENDBRANCH  73  74
ENDBRANCH  45  68
BRANCH  57  78
ATOM     78  C   UNL A   1      47.638  27.011  30.918  1.00  0.00    -0.014 A 
ATOM     79  C   UNL A   1      47.934  26.400  32.149  1.00  0.00     0.010 A 
ATOM     80  C   UNL A   1      48.666  27.173  29.970  1.00  0.00     0.010 A 
ATOM     81  C   UNL A   1      49.239  25.990  32.438  1.00  0.00     0.020 A 
ATOM     82  C   UNL A   1      49.965  26.735  30.242  1.00  0.00     0.020 A 
ATOM     83  C   UNL A   1      50.245  26.158  31.482  1.00  0.00     0.054 A 
BRANCH  83  84
ATOM     84  S   UNL A   1      51.919  25.574  31.865  1.00  0.00     0.124 S 
ATOM     85  O   UNL A   1      51.711  24.137  32.024  1.00  0.00    -0.237 OA
ATOM     86  O   UNL A   1      52.675  25.972  30.680  1.00  0.00    -0.237 OA
ATOM     87  O   UNL A   1      52.267  26.292  33.089  1.00  0.00    -0.744 OA
ENDBRANCH  83  84
ENDBRANCH  57  78
ENDBRANCH  31  32
ENDBRANCH  23  26
ENDBRANCH  21  22
ENDBRANCH   1  21
TORSDOF 15
ENDMDL
