MODEL 1
REMARK VINA RESULT:     -10.0      0.000      0.000
REMARK SMILES C[C@@H](C(=O)NCCCCNC(=O)c1ccc(-c2c3nc(c(-c4ccc(S(=O)(=O)[O-])cc4)c4ccc([nH]4)c(-c4ccc(S(=O)(=O)[O-])cc4)c4nc(c(-c5ccc(S(=O)(=O)[O-])cc5)c5ccc2[nH]5)C=C4)C=C3)cc1)c1cccn(C(F)F)c1=O
REMARK SMILES IDX 8 1 7 2 6 3 5 4 3 5 4 6 2 8 1 9 73 10 74 11 81 12 75 13
REMARK SMILES IDX 77 14 82 15 76 16 78 17 79 18 80 19 9 20 10 21 11 22 12 24
REMARK SMILES IDX 13 25 14 26 72 27 15 28 71 29 16 30 17 31 18 32 65 33 19 34
REMARK SMILES IDX 70 35 64 36 66 37 20 38 69 39 63 40 62 41 21 43 51 44 32 45
REMARK SMILES IDX 50 46 33 47 36 48 49 49 67 50 34 51 35 52 48 54 68 55 37 56
REMARK SMILES IDX 22 57 23 58 31 59 24 60 30 61 25 62 26 63 27 64 28 65 29 66
REMARK SMILES IDX 52 67 53 68 61 69 54 70 60 71 55 72 56 73 57 74 58 75 59 76
REMARK SMILES IDX 38 77 39 78 47 79 40 80 46 81 41 82 42 83 43 84 44 85 45 86
REMARK H PARENT 5 7 10 23 66 42 36 53
REMARK Flexibility Score: inf
ROOT
ATOM      1  C   UNL A   1      35.489  22.939  25.257  1.00  0.00     0.023 C 
ENDROOT
BRANCH   1   2
ATOM      2  C   UNL A   1      35.151  22.298  23.908  1.00  0.00     0.023 C 
BRANCH   2   3
ATOM      3  C   UNL A   1      33.761  22.628  23.360  1.00  0.00     0.116 C 
BRANCH   3   4
ATOM      4  N   UNL A   1      33.806  23.715  22.401  1.00  0.00    -0.356 N 
ATOM      5  C   UNL A   1      33.160  24.916  22.378  1.00  0.00     0.227 C 
ATOM      6  O   UNL A   1      33.423  25.647  21.421  1.00  0.00    -0.274 OA
ATOM      7  H   UNL A   1      34.404  23.558  21.636  1.00  0.00     0.163 HD
BRANCH   5   8
ATOM      8  C   UNL A   1      32.206  25.319  23.527  1.00  0.00     0.111 C 
ATOM      9  C   UNL A   1      30.743  24.989  23.214  1.00  0.00     0.023 C 
BRANCH   8  10
ATOM     10  C   UNL A   1      32.260  26.787  23.931  1.00  0.00     0.030 A 
ATOM     11  C   UNL A   1      31.439  27.765  23.503  1.00  0.00     0.012 A 
ATOM     12  C   UNL A   1      33.272  27.136  24.995  1.00  0.00     0.258 A 
ATOM     13  C   UNL A   1      31.522  29.110  24.009  1.00  0.00     0.019 A 
ATOM     14  N   UNL A   1      33.244  28.436  25.475  1.00  0.00    -0.258 N 
ATOM     15  O   UNL A   1      34.042  26.278  25.421  1.00  0.00    -0.269 OA
ATOM     16  C   UNL A   1      32.394  29.402  24.977  1.00  0.00     0.095 A 
BRANCH  14  17
ATOM     17  C   UNL A   1      34.148  28.774  26.543  1.00  0.00     0.451 C 
ATOM     18  F   UNL A   1      34.272  30.126  26.630  1.00  0.00    -0.185 F 
ATOM     19  F   UNL A   1      33.618  28.369  27.731  1.00  0.00    -0.185 F 
ENDBRANCH  14  17
ENDBRANCH   8  10
ENDBRANCH   5   8
ENDBRANCH   3   4
ENDBRANCH   2   3
ENDBRANCH   1   2
BRANCH   1  20
ATOM     20  C   UNL A   1      36.843  23.635  25.334  1.00  0.00     0.116 C 
BRANCH  20  21
ATOM     21  N   UNL A   1      37.939  22.712  25.581  1.00  0.00    -0.352 N 
ATOM     22  C   UNL A   1      39.155  22.946  26.177  1.00  0.00     0.251 C 
ATOM     23  H   UNL A   1      37.790  21.788  25.275  1.00  0.00     0.163 HD
ATOM     24  O   UNL A   1      40.013  22.068  26.174  1.00  0.00    -0.269 OA
BRANCH  22  25
ATOM     25  C   UNL A   1      39.437  24.262  26.791  1.00  0.00     0.039 A 
ATOM     26  C   UNL A   1      39.000  24.501  28.096  1.00  0.00     0.014 A 
ATOM     27  C   UNL A   1      40.139  25.250  26.094  1.00  0.00     0.014 A 
ATOM     28  C   UNL A   1      39.334  25.701  28.729  1.00  0.00     0.010 A 
ATOM     29  C   UNL A   1      40.527  26.416  26.750  1.00  0.00     0.010 A 
ATOM     30  C   UNL A   1      40.138  26.651  28.077  1.00  0.00    -0.014 A 
BRANCH  30  31
ATOM     31  C   UNL A   1      40.610  27.871  28.781  1.00  0.00     0.031 A 
ATOM     32  C   UNL A   1      41.984  27.919  29.392  1.00  0.00     0.074 A 
ATOM     33  C   UNL A   1      39.770  28.917  28.926  1.00  0.00     0.049 A 
ATOM     34  N   UNL A   1      42.542  28.878  30.088  1.00  0.00    -0.248 NA
ATOM     35  C   UNL A   1      42.835  26.730  29.219  1.00  0.00     0.031 C 
ATOM     36  C   UNL A   1      38.397  28.978  28.417  1.00  0.00     0.029 A 
ATOM     37  N   UNL A   1      39.944  30.128  29.550  1.00  0.00    -0.354 N 
ATOM     38  C   UNL A   1      43.799  28.406  30.446  1.00  0.00     0.074 A 
ATOM     39  C   UNL A   1      43.907  27.059  29.928  1.00  0.00     0.031 C 
ATOM     40  C   UNL A   1      37.863  30.170  28.729  1.00  0.00     0.029 A 
ATOM     41  C   UNL A   1      38.836  30.941  29.496  1.00  0.00     0.049 A 
ATOM     42  H   UNL A   1      40.781  30.389  29.994  1.00  0.00     0.167 HD
ATOM     43  C   UNL A   1      44.780  29.041  31.130  1.00  0.00     0.031 A 
ATOM     44  C   UNL A   1      38.618  32.166  30.014  1.00  0.00     0.031 A 
ATOM     45  C   UNL A   1      44.674  30.385  31.635  1.00  0.00     0.049 A 
ATOM     46  C   UNL A   1      39.722  32.843  30.782  1.00  0.00     0.074 A 
ATOM     47  C   UNL A   1      45.638  31.136  32.286  1.00  0.00     0.029 A 
ATOM     48  N   UNL A   1      43.540  31.177  31.551  1.00  0.00    -0.354 N 
ATOM     49  N   UNL A   1      40.930  32.407  31.043  1.00  0.00    -0.248 NA
ATOM     50  C   UNL A   1      39.435  34.183  31.315  1.00  0.00     0.031 C 
ATOM     51  C   UNL A   1      45.069  32.361  32.645  1.00  0.00     0.029 A 
ATOM     52  C   UNL A   1      43.770  32.398  32.164  1.00  0.00     0.049 A 
ATOM     53  H   UNL A   1      42.696  30.913  31.120  1.00  0.00     0.167 HD
ATOM     54  C   UNL A   1      41.557  33.429  31.748  1.00  0.00     0.074 A 
ATOM     55  C   UNL A   1      40.600  34.511  31.855  1.00  0.00     0.031 C 
ATOM     56  C   UNL A   1      42.810  33.467  32.263  1.00  0.00     0.031 A 
BRANCH  43  57
ATOM     57  C   UNL A   1      46.063  28.292  31.380  1.00  0.00    -0.014 A 
ATOM     58  C   UNL A   1      47.133  28.364  30.471  1.00  0.00     0.010 A 
ATOM     59  C   UNL A   1      46.228  27.568  32.575  1.00  0.00     0.010 A 
ATOM     60  C   UNL A   1      48.336  27.704  30.740  1.00  0.00     0.020 A 
ATOM     61  C   UNL A   1      47.438  26.929  32.860  1.00  0.00     0.020 A 
ATOM     62  C   UNL A   1      48.481  26.993  31.934  1.00  0.00     0.054 A 
BRANCH  62  63
ATOM     63  S   UNL A   1      50.070  26.188  32.277  1.00  0.00     0.124 S 
ATOM     64  O   UNL A   1      50.198  25.278  31.142  1.00  0.00    -0.237 OA
ATOM     65  O   UNL A   1      51.002  27.312  32.288  1.00  0.00    -0.237 OA
ATOM     66  O   UNL A   1      49.861  25.543  33.572  1.00  0.00    -0.744 OA
ENDBRANCH  62  63
ENDBRANCH  43  57
BRANCH  44  67
ATOM     67  C   UNL A   1      37.301  32.835  29.829  1.00  0.00    -0.014 A 
ATOM     68  C   UNL A   1      37.079  33.692  28.736  1.00  0.00     0.010 A 
ATOM     69  C   UNL A   1      36.262  32.629  30.755  1.00  0.00     0.010 A 
ATOM     70  C   UNL A   1      35.856  34.351  28.589  1.00  0.00     0.020 A 
ATOM     71  C   UNL A   1      35.027  33.261  30.595  1.00  0.00     0.020 A 
ATOM     72  C   UNL A   1      34.838  34.132  29.521  1.00  0.00     0.054 A 
BRANCH  72  73
ATOM     73  S   UNL A   1      33.246  34.975  29.296  1.00  0.00     0.124 S 
ATOM     74  O   UNL A   1      32.705  34.966  30.651  1.00  0.00    -0.237 OA
ATOM     75  O   UNL A   1      33.651  36.282  28.783  1.00  0.00    -0.237 OA
ATOM     76  O   UNL A   1      32.545  34.128  28.334  1.00  0.00    -0.744 OA
ENDBRANCH  72  73
ENDBRANCH  44  67
BRANCH  56  77
ATOM     77  C   UNL A   1      43.236  34.733  32.960  1.00  0.00    -0.014 A 
ATOM     78  C   UNL A   1      43.822  35.796  32.250  1.00  0.00     0.010 A 
ATOM     79  C   UNL A   1      42.999  34.878  34.339  1.00  0.00     0.010 A 
ATOM     80  C   UNL A   1      44.193  36.968  32.913  1.00  0.00     0.020 A 
ATOM     81  C   UNL A   1      43.342  36.060  35.000  1.00  0.00     0.020 A 
ATOM     82  C   UNL A   1      43.951  37.092  34.284  1.00  0.00     0.054 A 
BRANCH  82  83
ATOM     83  S   UNL A   1      44.405  38.641  35.115  1.00  0.00     0.124 S 
ATOM     84  O   UNL A   1      43.559  39.613  34.428  1.00  0.00    -0.237 OA
ATOM     85  O   UNL A   1      44.051  38.373  36.507  1.00  0.00    -0.237 OA
ATOM     86  O   UNL A   1      45.837  38.767  34.854  1.00  0.00    -0.744 OA
ENDBRANCH  82  83
ENDBRANCH  56  77
ENDBRANCH  30  31
ENDBRANCH  22  25
ENDBRANCH  20  21
ENDBRANCH   1  20
TORSDOF 16
ENDMDL
MODEL 2
REMARK VINA RESULT:      -9.7      3.490      9.436
REMARK SMILES C[C@@H](C(=O)NCCCCNC(=O)c1ccc(-c2c3nc(c(-c4ccc(S(=O)(=O)[O-])cc4)c4ccc([nH]4)c(-c4ccc(S(=O)(=O)[O-])cc4)c4nc(c(-c5ccc(S(=O)(=O)[O-])cc5)c5ccc2[nH]5)C=C4)C=C3)cc1)c1cccn(C(F)F)c1=O
REMARK SMILES IDX 8 1 7 2 6 3 5 4 3 5 4 6 2 8 1 9 73 10 74 11 81 12 75 13
REMARK SMILES IDX 77 14 82 15 76 16 78 17 79 18 80 19 9 20 10 21 11 22 12 24
REMARK SMILES IDX 13 25 14 26 72 27 15 28 71 29 16 30 17 31 18 32 65 33 19 34
REMARK SMILES IDX 70 35 64 36 66 37 20 38 69 39 63 40 62 41 21 43 51 44 32 45
REMARK SMILES IDX 50 46 33 47 36 48 49 49 67 50 34 51 35 52 48 54 68 55 37 56
REMARK SMILES IDX 22 57 23 58 31 59 24 60 30 61 25 62 26 63 27 64 28 65 29 66
REMARK SMILES IDX 52 67 53 68 61 69 54 70 60 71 55 72 56 73 57 74 58 75 59 76
REMARK SMILES IDX 38 77 39 78 47 79 40 80 46 81 41 82 42 83 43 84 44 85 45 86
REMARK H PARENT 5 7 10 23 66 42 36 53
REMARK Flexibility Score: inf
ROOT
ATOM      1  C   UNL A   1      32.619  28.348  25.683  1.00  0.00     0.023 C 
ENDROOT
BRANCH   1   2
ATOM      2  C   UNL A   1      31.975  27.388  26.688  1.00  0.00     0.023 C 
BRANCH   2   3
ATOM      3  C   UNL A   1      31.141  26.263  26.072  1.00  0.00     0.116 C 
BRANCH   3   4
ATOM      4  N   UNL A   1      31.161  25.068  26.893  1.00  0.00    -0.356 N 
ATOM      5  C   UNL A   1      31.543  23.790  26.606  1.00  0.00     0.227 C 
ATOM      6  O   UNL A   1      31.460  22.984  27.535  1.00  0.00    -0.274 OA
ATOM      7  H   UNL A   1      30.844  25.201  27.815  1.00  0.00     0.163 HD
BRANCH   5   8
ATOM      8  C   UNL A   1      32.092  23.428  25.205  1.00  0.00     0.111 C 
ATOM      9  C   UNL A   1      31.007  23.469  24.125  1.00  0.00     0.023 C 
BRANCH   8  10
ATOM     10  C   UNL A   1      32.776  22.071  25.106  1.00  0.00     0.030 A 
ATOM     11  C   UNL A   1      32.184  20.896  24.815  1.00  0.00     0.012 A 
ATOM     12  C   UNL A   1      34.278  22.082  25.249  1.00  0.00     0.258 A 
ATOM     13  C   UNL A   1      32.935  19.678  24.665  1.00  0.00     0.019 A 
ATOM     14  N   UNL A   1      34.932  20.881  25.026  1.00  0.00    -0.258 N 
ATOM     15  O   UNL A   1      34.867  23.130  25.512  1.00  0.00    -0.269 OA
ATOM     16  C   UNL A   1      34.267  19.703  24.755  1.00  0.00     0.095 A 
BRANCH  14  17
ATOM     17  C   UNL A   1      36.371  20.882  25.081  1.00  0.00     0.451 C 
ATOM     18  F   UNL A   1      36.832  19.602  25.073  1.00  0.00    -0.185 F 
ATOM     19  F   UNL A   1      36.868  21.467  23.957  1.00  0.00    -0.185 F 
ENDBRANCH  14  17
ENDBRANCH   8  10
ENDBRANCH   5   8
ENDBRANCH   3   4
ENDBRANCH   2   3
ENDBRANCH   1   2
BRANCH   1  20
ATOM     20  C   UNL A   1      33.913  29.011  26.142  1.00  0.00     0.116 C 
BRANCH  20  21
ATOM     21  N   UNL A   1      33.716  30.378  26.596  1.00  0.00    -0.352 N 
ATOM     22  C   UNL A   1      34.426  31.094  27.531  1.00  0.00     0.251 C 
ATOM     23  H   UNL A   1      32.967  30.859  26.175  1.00  0.00     0.163 HD
ATOM     24  O   UNL A   1      34.023  32.199  27.883  1.00  0.00    -0.269 OA
BRANCH  22  25
ATOM     25  C   UNL A   1      35.649  30.519  28.131  1.00  0.00     0.039 A 
ATOM     26  C   UNL A   1      36.889  30.863  27.586  1.00  0.00     0.014 A 
ATOM     27  C   UNL A   1      35.580  29.659  29.231  1.00  0.00     0.014 A 
ATOM     28  C   UNL A   1      38.062  30.406  28.192  1.00  0.00     0.010 A 
ATOM     29  C   UNL A   1      36.751  29.260  29.872  1.00  0.00     0.010 A 
ATOM     30  C   UNL A   1      38.004  29.637  29.367  1.00  0.00    -0.014 A 
BRANCH  30  31
ATOM     31  C   UNL A   1      39.240  29.254  30.095  1.00  0.00     0.031 A 
ATOM     32  C   UNL A   1      39.660  29.996  31.334  1.00  0.00     0.074 A 
ATOM     33  C   UNL A   1      40.023  28.272  29.599  1.00  0.00     0.049 A 
ATOM     34  N   UNL A   1      40.733  29.835  32.067  1.00  0.00    -0.248 NA
ATOM     35  C   UNL A   1      38.772  31.074  31.801  1.00  0.00     0.031 C 
ATOM     36  C   UNL A   1      39.750  27.504  28.381  1.00  0.00     0.029 A 
ATOM     37  N   UNL A   1      41.212  27.757  30.053  1.00  0.00    -0.354 N 
ATOM     38  C   UNL A   1      40.658  30.794  33.070  1.00  0.00     0.074 A 
ATOM     39  C   UNL A   1      39.456  31.562  32.828  1.00  0.00     0.031 C 
ATOM     40  C   UNL A   1      40.728  26.604  28.198  1.00  0.00     0.029 A 
ATOM     41  C   UNL A   1      41.720  26.756  29.257  1.00  0.00     0.049 A 
ATOM     42  H   UNL A   1      41.659  28.074  30.870  1.00  0.00     0.167 HD
ATOM     43  C   UNL A   1      41.504  31.006  34.105  1.00  0.00     0.031 A 
ATOM     44  C   UNL A   1      42.861  26.046  29.358  1.00  0.00     0.031 A 
ATOM     45  C   UNL A   1      42.693  30.234  34.350  1.00  0.00     0.049 A 
ATOM     46  C   UNL A   1      43.789  26.313  30.513  1.00  0.00     0.074 A 
ATOM     47  C   UNL A   1      43.580  30.334  35.409  1.00  0.00     0.029 A 
ATOM     48  N   UNL A   1      43.167  29.224  33.526  1.00  0.00    -0.354 N 
ATOM     49  N   UNL A   1      43.659  27.175  31.492  1.00  0.00    -0.248 NA
ATOM     50  C   UNL A   1      45.013  25.502  30.581  1.00  0.00     0.031 C 
ATOM     51  C   UNL A   1      44.619  29.423  35.197  1.00  0.00     0.029 A 
ATOM     52  C   UNL A   1      44.348  28.712  34.038  1.00  0.00     0.049 A 
ATOM     53  H   UNL A   1      42.729  28.915  32.701  1.00  0.00     0.167 HD
ATOM     54  C   UNL A   1      44.771  26.992  32.307  1.00  0.00     0.074 A 
ATOM     55  C   UNL A   1      45.552  25.925  31.716  1.00  0.00     0.031 C 
ATOM     56  C   UNL A   1      45.116  27.650  33.441  1.00  0.00     0.031 A 
BRANCH  43  57
ATOM     57  C   UNL A   1      41.179  32.124  35.062  1.00  0.00    -0.014 A 
ATOM     58  C   UNL A   1      40.478  31.876  36.255  1.00  0.00     0.010 A 
ATOM     59  C   UNL A   1      41.647  33.425  34.801  1.00  0.00     0.010 A 
ATOM     60  C   UNL A   1      40.228  32.914  37.158  1.00  0.00     0.020 A 
ATOM     61  C   UNL A   1      41.421  34.461  35.713  1.00  0.00     0.020 A 
ATOM     62  C   UNL A   1      40.703  34.199  36.881  1.00  0.00     0.054 A 
BRANCH  62  63
ATOM     63  S   UNL A   1      40.404  35.514  38.094  1.00  0.00     0.124 S 
ATOM     64  O   UNL A   1      39.190  35.044  38.755  1.00  0.00    -0.237 OA
ATOM     65  O   UNL A   1      41.616  35.479  38.908  1.00  0.00    -0.237 OA
ATOM     66  O   UNL A   1      40.242  36.713  37.275  1.00  0.00    -0.744 OA
ENDBRANCH  62  63
ENDBRANCH  43  57
BRANCH  44  67
ATOM     67  C   UNL A   1      43.195  25.015  28.337  1.00  0.00    -0.014 A 
ATOM     68  C   UNL A   1      43.912  25.361  27.178  1.00  0.00     0.010 A 
ATOM     69  C   UNL A   1      42.785  23.681  28.513  1.00  0.00     0.010 A 
ATOM     70  C   UNL A   1      44.186  24.399  26.201  1.00  0.00     0.020 A 
ATOM     71  C   UNL A   1      43.084  22.711  27.554  1.00  0.00     0.020 A 
ATOM     72  C   UNL A   1      43.769  23.080  26.395  1.00  0.00     0.054 A 
BRANCH  72  73
ATOM     73  S   UNL A   1      44.161  21.841  25.129  1.00  0.00     0.124 S 
ATOM     74  O   UNL A   1      45.539  21.492  25.463  1.00  0.00    -0.237 OA
ATOM     75  O   UNL A   1      43.165  20.802  25.385  1.00  0.00    -0.237 OA
ATOM     76  O   UNL A   1      43.983  22.567  23.874  1.00  0.00    -0.744 OA
ENDBRANCH  72  73
ENDBRANCH  44  67
BRANCH  56  77
ATOM     77  C   UNL A   1      46.376  27.213  34.140  1.00  0.00    -0.014 A 
ATOM     78  C   UNL A   1      47.614  27.820  33.860  1.00  0.00     0.010 A 
ATOM     79  C   UNL A   1      46.311  26.215  35.129  1.00  0.00     0.010 A 
ATOM     80  C   UNL A   1      48.768  27.411  34.532  1.00  0.00     0.020 A 
ATOM     81  C   UNL A   1      47.458  25.825  35.825  1.00  0.00     0.020 A 
ATOM     82  C   UNL A   1      48.683  26.417  35.511  1.00  0.00     0.054 A 
BRANCH  82  83
ATOM     83  S   UNL A   1      50.190  25.934  36.399  1.00  0.00     0.124 S 
ATOM     84  O   UNL A   1      50.045  26.659  37.658  1.00  0.00    -0.237 OA
ATOM     85  O   UNL A   1      50.055  24.482  36.492  1.00  0.00    -0.237 OA
ATOM     86  O   UNL A   1      51.269  26.400  35.532  1.00  0.00    -0.744 OA
ENDBRANCH  82  83
ENDBRANCH  56  77
ENDBRANCH  30  31
ENDBRANCH  22  25
ENDBRANCH  20  21
ENDBRANCH   1  20
TORSDOF 16
ENDMDL
MODEL 3
REMARK VINA RESULT:      -9.7      3.425      8.569
REMARK SMILES C[C@@H](C(=O)NCCCCNC(=O)c1ccc(-c2c3nc(c(-c4ccc(S(=O)(=O)[O-])cc4)c4ccc([nH]4)c(-c4ccc(S(=O)(=O)[O-])cc4)c4nc(c(-c5ccc(S(=O)(=O)[O-])cc5)c5ccc2[nH]5)C=C4)C=C3)cc1)c1cccn(C(F)F)c1=O
REMARK SMILES IDX 8 1 7 2 6 3 5 4 3 5 4 6 2 8 1 9 73 10 74 11 81 12 75 13
REMARK SMILES IDX 77 14 82 15 76 16 78 17 79 18 80 19 9 20 10 21 11 22 12 24
REMARK SMILES IDX 13 25 14 26 72 27 15 28 71 29 16 30 17 31 18 32 65 33 19 34
REMARK SMILES IDX 70 35 64 36 66 37 20 38 69 39 63 40 62 41 21 43 51 44 32 45
REMARK SMILES IDX 50 46 33 47 36 48 49 49 67 50 34 51 35 52 48 54 68 55 37 56
REMARK SMILES IDX 22 57 23 58 31 59 24 60 30 61 25 62 26 63 27 64 28 65 29 66
REMARK SMILES IDX 52 67 53 68 61 69 54 70 60 71 55 72 56 73 57 74 58 75 59 76
REMARK SMILES IDX 38 77 39 78 47 79 40 80 46 81 41 82 42 83 43 84 44 85 45 86
REMARK H PARENT 5 7 10 23 66 42 36 53
REMARK Flexibility Score: inf
ROOT
ATOM      1  C   UNL A   1      32.659  27.968  26.053  1.00  0.00     0.023 C 
ENDROOT
BRANCH   1   2
ATOM      2  C   UNL A   1      31.445  27.165  26.527  1.00  0.00     0.023 C 
BRANCH   2   3
ATOM      3  C   UNL A   1      31.153  25.893  25.729  1.00  0.00     0.116 C 
BRANCH   3   4
ATOM      4  N   UNL A   1      30.493  24.889  26.541  1.00  0.00    -0.356 N 
ATOM      5  C   UNL A   1      30.843  23.604  26.836  1.00  0.00     0.227 C 
ATOM      6  O   UNL A   1      30.071  22.996  27.582  1.00  0.00    -0.274 OA
ATOM      7  H   UNL A   1      29.648  25.185  26.948  1.00  0.00     0.163 HD
BRANCH   5   8
ATOM      8  C   UNL A   1      32.160  23.001  26.293  1.00  0.00     0.111 C 
ATOM      9  C   UNL A   1      33.282  24.040  26.200  1.00  0.00     0.023 C 
BRANCH   8  10
ATOM     10  C   UNL A   1      32.054  22.328  24.931  1.00  0.00     0.030 A 
ATOM     11  C   UNL A   1      31.822  22.939  23.753  1.00  0.00     0.012 A 
ATOM     12  C   UNL A   1      32.344  20.847  24.907  1.00  0.00     0.258 A 
ATOM     13  C   UNL A   1      31.821  22.221  22.506  1.00  0.00     0.019 A 
ATOM     14  N   UNL A   1      32.387  20.243  23.662  1.00  0.00    -0.258 N 
ATOM     15  O   UNL A   1      32.565  20.244  25.956  1.00  0.00    -0.269 OA
ATOM     16  C   UNL A   1      32.115  20.919  22.489  1.00  0.00     0.095 A 
BRANCH  14  17
ATOM     17  C   UNL A   1      32.737  18.848  23.606  1.00  0.00     0.451 C 
ATOM     18  F   UNL A   1      31.886  18.129  24.388  1.00  0.00    -0.185 F 
ATOM     19  F   UNL A   1      32.562  18.386  22.337  1.00  0.00    -0.185 F 
ENDBRANCH  14  17
ENDBRANCH   8  10
ENDBRANCH   5   8
ENDBRANCH   3   4
ENDBRANCH   2   3
ENDBRANCH   1   2
BRANCH   1  20
ATOM     20  C   UNL A   1      33.663  28.345  27.136  1.00  0.00     0.116 C 
BRANCH  20  21
ATOM     21  N   UNL A   1      33.571  29.742  27.530  1.00  0.00    -0.352 N 
ATOM     22  C   UNL A   1      34.518  30.541  28.127  1.00  0.00     0.251 C 
ATOM     23  H   UNL A   1      32.708  30.177  27.344  1.00  0.00     0.163 HD
ATOM     24  O   UNL A   1      34.209  31.665  28.511  1.00  0.00    -0.269 OA
BRANCH  22  25
ATOM     25  C   UNL A   1      35.892  30.033  28.334  1.00  0.00     0.039 A 
ATOM     26  C   UNL A   1      36.802  30.114  27.277  1.00  0.00     0.014 A 
ATOM     27  C   UNL A   1      36.286  29.493  29.562  1.00  0.00     0.014 A 
ATOM     28  C   UNL A   1      38.130  29.726  27.477  1.00  0.00     0.010 A 
ATOM     29  C   UNL A   1      37.624  29.170  29.777  1.00  0.00     0.010 A 
ATOM     30  C   UNL A   1      38.563  29.292  28.741  1.00  0.00    -0.014 A 
BRANCH  30  31
ATOM     31  C   UNL A   1      39.995  29.000  29.004  1.00  0.00     0.031 A 
ATOM     32  C   UNL A   1      40.580  27.659  28.652  1.00  0.00     0.074 A 
ATOM     33  C   UNL A   1      40.756  29.926  29.623  1.00  0.00     0.049 A 
ATOM     34  N   UNL A   1      41.793  27.210  28.857  1.00  0.00    -0.248 NA
ATOM     35  C   UNL A   1      39.683  26.687  28.004  1.00  0.00     0.031 C 
ATOM     36  C   UNL A   1      40.297  31.249  30.056  1.00  0.00     0.029 A 
ATOM     37  N   UNL A   1      42.075  29.895  30.005  1.00  0.00    -0.354 N 
ATOM     38  C   UNL A   1      41.802  25.905  28.378  1.00  0.00     0.074 A 
ATOM     39  C   UNL A   1      40.463  25.619  27.911  1.00  0.00     0.031 C 
ATOM     40  C   UNL A   1      41.321  31.909  30.621  1.00  0.00     0.029 A 
ATOM     41  C   UNL A   1      42.497  31.045  30.631  1.00  0.00     0.049 A 
ATOM     42  H   UNL A   1      42.663  29.123  29.845  1.00  0.00     0.167 HD
ATOM     43  C   UNL A   1      42.835  25.032  28.320  1.00  0.00     0.031 A 
ATOM     44  C   UNL A   1      43.691  31.367  31.166  1.00  0.00     0.031 A 
ATOM     45  C   UNL A   1      44.169  25.323  28.775  1.00  0.00     0.049 A 
ATOM     46  C   UNL A   1      44.817  30.371  31.098  1.00  0.00     0.074 A 
ATOM     47  C   UNL A   1      45.296  24.523  28.700  1.00  0.00     0.029 A 
ATOM     48  N   UNL A   1      44.556  26.502  29.394  1.00  0.00    -0.354 N 
ATOM     49  N   UNL A   1      44.823  29.170  30.572  1.00  0.00    -0.248 NA
ATOM     50  C   UNL A   1      46.100  30.779  31.686  1.00  0.00     0.031 C 
ATOM     51  C   UNL A   1      46.352  25.195  29.323  1.00  0.00     0.029 A 
ATOM     52  C   UNL A   1      45.898  26.439  29.732  1.00  0.00     0.049 A 
ATOM     53  H   UNL A   1      43.966  27.270  29.568  1.00  0.00     0.167 HD
ATOM     54  C   UNL A   1      46.117  28.690  30.743  1.00  0.00     0.074 A 
ATOM     55  C   UNL A   1      46.869  29.737  31.403  1.00  0.00     0.031 C 
ATOM     56  C   UNL A   1      46.635  27.488  30.388  1.00  0.00     0.031 A 
BRANCH  43  57
ATOM     57  C   UNL A   1      42.569  23.666  27.741  1.00  0.00    -0.014 A 
ATOM     58  C   UNL A   1      42.758  23.409  26.372  1.00  0.00     0.010 A 
ATOM     59  C   UNL A   1      42.199  22.608  28.591  1.00  0.00     0.010 A 
ATOM     60  C   UNL A   1      42.557  22.125  25.858  1.00  0.00     0.020 A 
ATOM     61  C   UNL A   1      42.022  21.316  28.086  1.00  0.00     0.020 A 
ATOM     62  C   UNL A   1      42.191  21.087  26.719  1.00  0.00     0.054 A 
BRANCH  62  63
ATOM     63  S   UNL A   1      41.985  19.421  26.031  1.00  0.00     0.124 S 
ATOM     64  O   UNL A   1      42.851  19.471  24.856  1.00  0.00    -0.237 OA
ATOM     65  O   UNL A   1      42.451  18.565  27.118  1.00  0.00    -0.237 OA
ATOM     66  O   UNL A   1      40.554  19.337  25.746  1.00  0.00    -0.744 OA
ENDBRANCH  62  63
ENDBRANCH  43  57
BRANCH  44  67
ATOM     67  C   UNL A   1      43.886  32.692  31.817  1.00  0.00    -0.014 A 
ATOM     68  C   UNL A   1      43.617  32.865  33.187  1.00  0.00     0.010 A 
ATOM     69  C   UNL A   1      44.331  33.795  31.065  1.00  0.00     0.010 A 
ATOM     70  C   UNL A   1      43.761  34.120  33.784  1.00  0.00     0.020 A 
ATOM     71  C   UNL A   1      44.506  35.044  31.666  1.00  0.00     0.020 A 
ATOM     72  C   UNL A   1      44.204  35.202  33.019  1.00  0.00     0.054 A 
BRANCH  72  73
ATOM     73  S   UNL A   1      44.412  36.817  33.821  1.00  0.00     0.124 S 
ATOM     74  O   UNL A   1      44.377  36.459  35.236  1.00  0.00    -0.237 OA
ATOM     75  O   UNL A   1      45.709  37.257  33.311  1.00  0.00    -0.237 OA
ATOM     76  O   UNL A   1      43.268  37.587  33.340  1.00  0.00    -0.744 OA
ENDBRANCH  72  73
ENDBRANCH  44  67
BRANCH  56  77
ATOM     77  C   UNL A   1      48.095  27.251  30.673  1.00  0.00    -0.014 A 
ATOM     78  C   UNL A   1      48.515  26.653  31.874  1.00  0.00     0.010 A 
ATOM     79  C   UNL A   1      49.055  27.587  29.701  1.00  0.00     0.010 A 
ATOM     80  C   UNL A   1      49.873  26.425  32.112  1.00  0.00     0.020 A 
ATOM     81  C   UNL A   1      50.411  27.333  29.923  1.00  0.00     0.020 A 
ATOM     82  C   UNL A   1      50.812  26.767  31.134  1.00  0.00     0.054 A 
BRANCH  82  83
ATOM     83  S   UNL A   1      52.566  26.424  31.450  1.00  0.00     0.124 S 
ATOM     84  O   UNL A   1      52.953  27.560  32.281  1.00  0.00    -0.237 OA
ATOM     85  O   UNL A   1      52.522  25.133  32.132  1.00  0.00    -0.237 OA
ATOM     86  O   UNL A   1      53.160  26.398  30.115  1.00  0.00    -0.744 OA
ENDBRANCH  82  83
ENDBRANCH  56  77
ENDBRANCH  30  31
ENDBRANCH  22  25
ENDBRANCH  20  21
ENDBRANCH   1  20
TORSDOF 16
ENDMDL
