MODEL 1
REMARK VINA RESULT:     -10.6      0.000      0.000
REMARK SMILES C[C@H]1SC[C@H](C(=O)NCCCCNC(=O)c2ccc(-c3c4nc(c(-c5ccc(S(=O)(=O)[O-])cc5)c5ccc([nH]5)c(-c5ccc(S(=O)(=O)[O-])cc5)c5nc(c(-c6ccc(S(=O)(=O)[O-])cc6)c6ccc3[nH]6)C=C5)C=C4)cc2)N1C(=O)[C@@H]1CSc2ccccc21
REMARK SMILES IDX 11 1 10 2 9 3 8 4 6 5 7 6 5 8 1 9 2 10 3 11 76 12 4 13 77 14
REMARK SMILES IDX 78 15 79 16 80 17 87 18 81 19 82 20 86 21 83 22 85 23 84 24
REMARK SMILES IDX 12 25 13 26 14 27 15 29 16 30 17 31 75 32 18 33 74 34 19 35
REMARK SMILES IDX 20 36 21 37 68 38 22 39 73 40 67 41 69 42 23 43 72 44 66 45
REMARK SMILES IDX 65 46 24 48 54 49 35 50 53 51 36 52 39 53 52 54 70 55 37 56
REMARK SMILES IDX 38 57 51 59 71 60 40 61 25 62 26 63 34 64 27 65 33 66 28 67
REMARK SMILES IDX 29 68 30 69 31 70 32 71 55 72 56 73 64 74 57 75 63 76 58 77
REMARK SMILES IDX 59 78 60 79 61 80 62 81 41 82 42 83 50 84 43 85 49 86 44 87
REMARK SMILES IDX 45 88 46 89 47 90 48 91
REMARK H PARENT 8 7 13 28 69 47 39 58
REMARK Flexibility Score: inf
ROOT
ATOM      1  C   UNL A   1      33.083  28.011  25.123  1.00  0.00     0.023 C 
ENDROOT
BRANCH   1   2
ATOM      2  C   UNL A   1      33.682  27.428  23.843  1.00  0.00     0.023 C 
BRANCH   2   3
ATOM      3  C   UNL A   1      32.674  26.757  22.917  1.00  0.00     0.116 C 
BRANCH   3   4
ATOM      4  N   UNL A   1      33.252  25.623  22.231  1.00  0.00    -0.354 N 
ATOM      5  C   UNL A   1      33.353  24.326  22.629  1.00  0.00     0.243 C 
ATOM      6  O   UNL A   1      34.055  23.577  21.939  1.00  0.00    -0.273 OA
ATOM      7  H   UNL A   1      33.629  25.820  21.343  1.00  0.00     0.163 HD
BRANCH   5   8
ATOM      8  C   UNL A   1      32.815  23.829  23.987  1.00  0.00     0.185 C 
ATOM      9  C   UNL A   1      32.272  23.426  27.045  1.00  0.00     0.043 C 
ATOM     10  C   UNL A   1      33.011  22.542  26.040  1.00  0.00     0.141 C 
ATOM     11  S   UNL A   1      31.771  21.595  25.114  1.00  0.00    -0.135 SA
ATOM     12  N   UNL A   1      33.726  23.306  25.025  1.00  0.00    -0.318 N 
ATOM     13  C   UNL A   1      31.793  22.720  23.683  1.00  0.00     0.107 C 
BRANCH  12  14
ATOM     14  C   UNL A   1      34.996  23.840  25.177  1.00  0.00     0.232 C 
ATOM     15  O   UNL A   1      35.140  24.975  25.633  1.00  0.00    -0.274 OA
BRANCH  14  16
ATOM     16  C   UNL A   1      36.215  23.004  24.781  1.00  0.00     0.120 C 
ATOM     17  C   UNL A   1      35.819  21.510  24.708  1.00  0.00     0.093 C 
ATOM     18  C   UNL A   1      37.442  23.028  25.688  1.00  0.00    -0.021 A 
ATOM     19  S   UNL A   1      37.375  20.573  24.704  1.00  0.00    -0.125 SA
ATOM     20  C   UNL A   1      38.189  21.842  25.629  1.00  0.00     0.011 A 
ATOM     21  C   UNL A   1      37.965  24.098  26.412  1.00  0.00     0.006 A 
ATOM     22  C   UNL A   1      39.438  21.726  26.228  1.00  0.00     0.015 A 
ATOM     23  C   UNL A   1      39.226  24.001  27.005  1.00  0.00     0.000 A 
ATOM     24  C   UNL A   1      39.966  22.823  26.904  1.00  0.00     0.001 A 
ENDBRANCH  14  16
ENDBRANCH  12  14
ENDBRANCH   5   8
ENDBRANCH   3   4
ENDBRANCH   2   3
ENDBRANCH   1   2
BRANCH   1  25
ATOM     25  C   UNL A   1      34.094  28.606  26.096  1.00  0.00     0.116 C 
BRANCH  25  26
ATOM     26  N   UNL A   1      33.759  29.964  26.494  1.00  0.00    -0.352 N 
ATOM     27  C   UNL A   1      34.361  30.769  27.433  1.00  0.00     0.251 C 
ATOM     28  H   UNL A   1      32.992  30.365  26.024  1.00  0.00     0.163 HD
ATOM     29  O   UNL A   1      33.837  31.828  27.753  1.00  0.00    -0.269 OA
BRANCH  27  30
ATOM     30  C   UNL A   1      35.622  30.335  28.073  1.00  0.00     0.039 A 
ATOM     31  C   UNL A   1      36.834  30.707  27.488  1.00  0.00     0.014 A 
ATOM     32  C   UNL A   1      35.614  29.577  29.249  1.00  0.00     0.014 A 
ATOM     33  C   UNL A   1      38.035  30.375  28.119  1.00  0.00     0.010 A 
ATOM     34  C   UNL A   1      36.809  29.321  29.918  1.00  0.00     0.010 A 
ATOM     35  C   UNL A   1      38.033  29.716  29.361  1.00  0.00    -0.014 A 
BRANCH  35  36
ATOM     36  C   UNL A   1      39.304  29.447  30.083  1.00  0.00     0.031 A 
ATOM     37  C   UNL A   1      40.226  28.348  29.622  1.00  0.00     0.074 A 
ATOM     38  C   UNL A   1      39.612  30.172  31.177  1.00  0.00     0.049 A 
ATOM     39  N   UNL A   1      41.369  27.966  30.135  1.00  0.00    -0.248 NA
ATOM     40  C   UNL A   1      39.804  27.565  28.450  1.00  0.00     0.031 C 
ATOM     41  C   UNL A   1      38.777  31.228  31.756  1.00  0.00     0.029 A 
ATOM     42  N   UNL A   1      40.711  30.132  31.999  1.00  0.00    -0.354 N 
ATOM     43  C   UNL A   1      41.801  26.904  29.348  1.00  0.00     0.074 A 
ATOM     44  C   UNL A   1      40.767  26.659  28.367  1.00  0.00     0.031 C 
ATOM     45  C   UNL A   1      39.406  31.755  32.819  1.00  0.00     0.029 A 
ATOM     46  C   UNL A   1      40.667  31.049  33.024  1.00  0.00     0.049 A 
ATOM     47  H   UNL A   1      41.459  29.506  31.869  1.00  0.00     0.167 HD
ATOM     48  C   UNL A   1      42.965  26.215  29.415  1.00  0.00     0.031 A 
ATOM     49  C   UNL A   1      41.538  31.293  34.023  1.00  0.00     0.031 A 
ATOM     50  C   UNL A   1      43.991  26.456  30.395  1.00  0.00     0.049 A 
ATOM     51  C   UNL A   1      42.815  30.498  34.089  1.00  0.00     0.074 A 
ATOM     52  C   UNL A   1      45.219  25.831  30.528  1.00  0.00     0.029 A 
ATOM     53  N   UNL A   1      43.911  27.397  31.411  1.00  0.00    -0.354 N 
ATOM     54  N   UNL A   1      43.233  29.542  33.293  1.00  0.00    -0.248 NA
ATOM     55  C   UNL A   1      43.746  30.828  35.176  1.00  0.00     0.031 C 
ATOM     56  C   UNL A   1      45.858  26.357  31.655  1.00  0.00     0.029 A 
ATOM     57  C   UNL A   1      45.059  27.357  32.185  1.00  0.00     0.049 A 
ATOM     58  H   UNL A   1      43.151  28.005  31.560  1.00  0.00     0.167 HD
ATOM     59  C   UNL A   1      44.485  29.173  33.771  1.00  0.00     0.074 A 
ATOM     60  C   UNL A   1      44.768  30.028  34.905  1.00  0.00     0.031 C 
ATOM     61  C   UNL A   1      45.326  28.212  33.314  1.00  0.00     0.031 A 
BRANCH  48  62
ATOM     62  C   UNL A   1      43.198  25.138  28.385  1.00  0.00    -0.014 A 
ATOM     63  C   UNL A   1      43.624  25.466  27.084  1.00  0.00     0.010 A 
ATOM     64  C   UNL A   1      43.049  23.784  28.733  1.00  0.00     0.010 A 
ATOM     65  C   UNL A   1      43.863  24.463  26.142  1.00  0.00     0.020 A 
ATOM     66  C   UNL A   1      43.318  22.775  27.802  1.00  0.00     0.020 A 
ATOM     67  C   UNL A   1      43.712  23.123  26.508  1.00  0.00     0.054 A 
BRANCH  67  68
ATOM     68  S   UNL A   1      44.073  21.843  25.275  1.00  0.00     0.124 S 
ATOM     69  O   UNL A   1      43.933  22.583  24.022  1.00  0.00    -0.237 OA
ATOM     70  O   UNL A   1      45.436  21.444  25.619  1.00  0.00    -0.237 OA
ATOM     71  O   UNL A   1      43.050  20.829  25.515  1.00  0.00    -0.744 OA
ENDBRANCH  67  68
ENDBRANCH  48  62
BRANCH  49  72
ATOM     72  C   UNL A   1      41.231  32.332  35.046  1.00  0.00    -0.014 A 
ATOM     73  C   UNL A   1      40.544  32.005  36.228  1.00  0.00     0.010 A 
ATOM     74  C   UNL A   1      41.622  33.668  34.833  1.00  0.00     0.010 A 
ATOM     75  C   UNL A   1      40.223  32.997  37.159  1.00  0.00     0.020 A 
ATOM     76  C   UNL A   1      41.333  34.656  35.778  1.00  0.00     0.020 A 
ATOM     77  C   UNL A   1      40.619  34.317  36.928  1.00  0.00     0.054 A 
BRANCH  77  78
ATOM     78  S   UNL A   1      40.216  35.584  38.162  1.00  0.00     0.124 S 
ATOM     79  O   UNL A   1      39.846  36.719  37.322  1.00  0.00    -0.237 OA
ATOM     80  O   UNL A   1      39.123  34.963  38.906  1.00  0.00    -0.237 OA
ATOM     81  O   UNL A   1      41.460  35.739  38.913  1.00  0.00    -0.744 OA
ENDBRANCH  77  78
ENDBRANCH  49  72
BRANCH  61  82
ATOM     82  C   UNL A   1      46.647  28.056  34.022  1.00  0.00    -0.014 A 
ATOM     83  C   UNL A   1      46.803  27.158  35.093  1.00  0.00     0.010 A 
ATOM     84  C   UNL A   1      47.760  28.796  33.583  1.00  0.00     0.010 A 
ATOM     85  C   UNL A   1      48.036  27.038  35.741  1.00  0.00     0.020 A 
ATOM     86  C   UNL A   1      49.002  28.654  34.206  1.00  0.00     0.020 A 
ATOM     87  C   UNL A   1      49.126  27.789  35.294  1.00  0.00     0.054 A 
BRANCH  87  88
ATOM     88  S   UNL A   1      50.721  27.596  36.137  1.00  0.00     0.124 S 
ATOM     89  O   UNL A   1      51.555  27.028  35.080  1.00  0.00    -0.237 OA
ATOM     90  O   UNL A   1      51.046  28.966  36.524  1.00  0.00    -0.237 OA
ATOM     91  O   UNL A   1      50.422  26.694  37.246  1.00  0.00    -0.744 OA
ENDBRANCH  87  88
ENDBRANCH  61  82
ENDBRANCH  35  36
ENDBRANCH  27  30
ENDBRANCH  25  26
ENDBRANCH   1  25
TORSDOF 16
ENDMDL
MODEL 2
REMARK VINA RESULT:     -10.6      2.836      8.614
REMARK SMILES C[C@H]1SC[C@H](C(=O)NCCCCNC(=O)c2ccc(-c3c4nc(c(-c5ccc(S(=O)(=O)[O-])cc5)c5ccc([nH]5)c(-c5ccc(S(=O)(=O)[O-])cc5)c5nc(c(-c6ccc(S(=O)(=O)[O-])cc6)c6ccc3[nH]6)C=C5)C=C4)cc2)N1C(=O)[C@@H]1CSc2ccccc21
REMARK SMILES IDX 11 1 10 2 9 3 8 4 6 5 7 6 5 8 1 9 2 10 3 11 76 12 4 13 77 14
REMARK SMILES IDX 78 15 79 16 80 17 87 18 81 19 82 20 86 21 83 22 85 23 84 24
REMARK SMILES IDX 12 25 13 26 14 27 15 29 16 30 17 31 75 32 18 33 74 34 19 35
REMARK SMILES IDX 20 36 21 37 68 38 22 39 73 40 67 41 69 42 23 43 72 44 66 45
REMARK SMILES IDX 65 46 24 48 54 49 35 50 53 51 36 52 39 53 52 54 70 55 37 56
REMARK SMILES IDX 38 57 51 59 71 60 40 61 25 62 26 63 34 64 27 65 33 66 28 67
REMARK SMILES IDX 29 68 30 69 31 70 32 71 55 72 56 73 64 74 57 75 63 76 58 77
REMARK SMILES IDX 59 78 60 79 61 80 62 81 41 82 42 83 50 84 43 85 49 86 44 87
REMARK SMILES IDX 45 88 46 89 47 90 48 91
REMARK H PARENT 8 7 13 28 69 47 39 58
REMARK Flexibility Score: inf
ROOT
ATOM      1  C   UNL A   1      39.660  22.139  26.724  1.00  0.00     0.023 C 
ENDROOT
BRANCH   1   2
ATOM      2  C   UNL A   1      38.435  22.819  26.113  1.00  0.00     0.023 C 
BRANCH   2   3
ATOM      3  C   UNL A   1      37.409  21.864  25.514  1.00  0.00     0.116 C 
BRANCH   3   4
ATOM      4  N   UNL A   1      36.300  21.638  26.415  1.00  0.00    -0.354 N 
ATOM      5  C   UNL A   1      34.962  21.700  26.179  1.00  0.00     0.243 C 
ATOM      6  O   UNL A   1      34.212  21.643  27.161  1.00  0.00    -0.273 OA
ATOM      7  H   UNL A   1      36.553  21.404  27.338  1.00  0.00     0.163 HD
BRANCH   5   8
ATOM      8  C   UNL A   1      34.378  22.047  24.793  1.00  0.00     0.185 C 
ATOM      9  C   UNL A   1      33.777  23.394  22.031  1.00  0.00     0.043 C 
ATOM     10  C   UNL A   1      32.959  23.364  23.323  1.00  0.00     0.141 C 
ATOM     11  S   UNL A   1      32.076  21.780  23.386  1.00  0.00    -0.135 SA
ATOM     12  N   UNL A   1      33.787  23.372  24.523  1.00  0.00    -0.318 N 
ATOM     13  C   UNL A   1      33.292  20.999  24.493  1.00  0.00     0.107 C 
BRANCH  12  14
ATOM     14  C   UNL A   1      34.309  24.509  25.123  1.00  0.00     0.232 C 
ATOM     15  O   UNL A   1      35.527  24.632  25.263  1.00  0.00    -0.274 OA
BRANCH  14  16
ATOM     16  C   UNL A   1      33.359  25.609  25.601  1.00  0.00     0.120 C 
ATOM     17  C   UNL A   1      32.041  24.975  26.103  1.00  0.00     0.093 C 
ATOM     18  C   UNL A   1      32.914  26.673  24.601  1.00  0.00    -0.021 A 
ATOM     19  S   UNL A   1      30.832  26.328  26.198  1.00  0.00    -0.125 SA
ATOM     20  C   UNL A   1      31.649  27.203  24.896  1.00  0.00     0.011 A 
ATOM     21  C   UNL A   1      33.650  27.260  23.573  1.00  0.00     0.006 A 
ATOM     22  C   UNL A   1      31.139  28.310  24.227  1.00  0.00     0.015 A 
ATOM     23  C   UNL A   1      33.156  28.383  22.904  1.00  0.00     0.000 A 
ATOM     24  C   UNL A   1      31.911  28.914  23.237  1.00  0.00     0.001 A 
ENDBRANCH  14  16
ENDBRANCH  12  14
ENDBRANCH   5   8
ENDBRANCH   3   4
ENDBRANCH   2   3
ENDBRANCH   1   2
BRANCH   1  25
ATOM     25  C   UNL A   1      40.754  23.087  27.200  1.00  0.00     0.116 C 
BRANCH  25  26
ATOM     26  N   UNL A   1      41.303  23.897  26.125  1.00  0.00    -0.352 N 
ATOM     27  C   UNL A   1      41.543  25.251  26.092  1.00  0.00     0.251 C 
ATOM     28  H   UNL A   1      41.535  23.407  25.303  1.00  0.00     0.163 HD
ATOM     29  O   UNL A   1      41.854  25.788  25.037  1.00  0.00    -0.269 OA
BRANCH  27  30
ATOM     30  C   UNL A   1      41.394  26.055  27.325  1.00  0.00     0.039 A 
ATOM     31  C   UNL A   1      42.395  26.970  27.655  1.00  0.00     0.014 A 
ATOM     32  C   UNL A   1      40.270  25.918  28.146  1.00  0.00     0.014 A 
ATOM     33  C   UNL A   1      42.236  27.794  28.772  1.00  0.00     0.010 A 
ATOM     34  C   UNL A   1      40.075  26.798  29.209  1.00  0.00     0.010 A 
ATOM     35  C   UNL A   1      41.056  27.744  29.535  1.00  0.00    -0.014 A 
BRANCH  35  36
ATOM     36  C   UNL A   1      40.840  28.685  30.665  1.00  0.00     0.031 A 
ATOM     37  C   UNL A   1      41.658  28.567  31.925  1.00  0.00     0.074 A 
ATOM     38  C   UNL A   1      39.881  29.629  30.570  1.00  0.00     0.049 A 
ATOM     39  N   UNL A   1      41.600  29.291  33.014  1.00  0.00    -0.248 NA
ATOM     40  C   UNL A   1      42.654  27.484  31.979  1.00  0.00     0.031 C 
ATOM     41  C   UNL A   1      38.986  29.813  29.424  1.00  0.00     0.029 A 
ATOM     42  N   UNL A   1      39.498  30.610  31.450  1.00  0.00    -0.354 N 
ATOM     43  C   UNL A   1      42.550  28.756  33.877  1.00  0.00     0.074 A 
ATOM     44  C   UNL A   1      43.121  27.606  33.213  1.00  0.00     0.031 C 
ATOM     45  C   UNL A   1      38.180  30.861  29.659  1.00  0.00     0.029 A 
ATOM     46  C   UNL A   1      38.469  31.397  30.985  1.00  0.00     0.049 A 
ATOM     47  H   UNL A   1      39.917  30.738  32.330  1.00  0.00     0.167 HD
ATOM     48  C   UNL A   1      42.934  29.199  35.098  1.00  0.00     0.031 A 
ATOM     49  C   UNL A   1      37.825  32.431  31.561  1.00  0.00     0.031 A 
ATOM     50  C   UNL A   1      42.360  30.341  35.760  1.00  0.00     0.049 A 
ATOM     51  C   UNL A   1      38.256  32.890  32.929  1.00  0.00     0.074 A 
ATOM     52  C   UNL A   1      42.702  30.886  36.986  1.00  0.00     0.029 A 
ATOM     53  N   UNL A   1      41.327  31.114  35.253  1.00  0.00    -0.354 N 
ATOM     54  N   UNL A   1      39.203  32.408  33.699  1.00  0.00    -0.248 NA
ATOM     55  C   UNL A   1      37.544  34.043  33.496  1.00  0.00     0.031 C 
ATOM     56  C   UNL A   1      41.840  31.956  37.244  1.00  0.00     0.029 A 
ATOM     57  C   UNL A   1      41.006  32.121  36.149  1.00  0.00     0.049 A 
ATOM     58  H   UNL A   1      40.887  30.971  34.385  1.00  0.00     0.167 HD
ATOM     59  C   UNL A   1      39.215  33.215  34.832  1.00  0.00     0.074 A 
ATOM     60  C   UNL A   1      38.201  34.230  34.632  1.00  0.00     0.031 C 
ATOM     61  C   UNL A   1      39.992  33.123  35.939  1.00  0.00     0.031 A 
BRANCH  48  62
ATOM     62  C   UNL A   1      44.042  28.449  35.794  1.00  0.00    -0.014 A 
ATOM     63  C   UNL A   1      45.389  28.809  35.596  1.00  0.00     0.010 A 
ATOM     64  C   UNL A   1      43.737  27.417  36.699  1.00  0.00     0.010 A 
ATOM     65  C   UNL A   1      46.410  28.128  36.264  1.00  0.00     0.020 A 
ATOM     66  C   UNL A   1      44.754  26.754  37.393  1.00  0.00     0.020 A 
ATOM     67  C   UNL A   1      46.086  27.106  37.161  1.00  0.00     0.054 A 
BRANCH  67  68
ATOM     68  S   UNL A   1      47.433  26.272  38.045  1.00  0.00     0.124 S 
ATOM     69  O   UNL A   1      48.494  27.275  37.993  1.00  0.00    -0.237 OA
ATOM     70  O   UNL A   1      46.852  26.040  39.364  1.00  0.00    -0.237 OA
ATOM     71  O   UNL A   1      47.676  25.070  37.252  1.00  0.00    -0.744 OA
ENDBRANCH  67  68
ENDBRANCH  48  62
BRANCH  49  72
ATOM     72  C   UNL A   1      36.699  33.100  30.850  1.00  0.00    -0.014 A 
ATOM     73  C   UNL A   1      36.929  33.896  29.714  1.00  0.00     0.010 A 
ATOM     74  C   UNL A   1      35.381  32.950  31.321  1.00  0.00     0.010 A 
ATOM     75  C   UNL A   1      35.869  34.555  29.084  1.00  0.00     0.020 A 
ATOM     76  C   UNL A   1      34.315  33.579  30.673  1.00  0.00     0.020 A 
ATOM     77  C   UNL A   1      34.568  34.393  29.567  1.00  0.00     0.054 A 
BRANCH  77  78
ATOM     78  S   UNL A   1      33.204  35.235  28.718  1.00  0.00     0.124 S 
ATOM     79  O   UNL A   1      32.429  35.760  29.837  1.00  0.00    -0.237 OA
ATOM     80  O   UNL A   1      33.904  36.230  27.908  1.00  0.00    -0.237 OA
ATOM     81  O   UNL A   1      32.563  34.165  27.957  1.00  0.00    -0.744 OA
ENDBRANCH  77  78
ENDBRANCH  49  72
BRANCH  61  82
ATOM     82  C   UNL A   1      39.800  34.169  37.007  1.00  0.00    -0.014 A 
ATOM     83  C   UNL A   1      38.987  33.930  38.129  1.00  0.00     0.010 A 
ATOM     84  C   UNL A   1      40.475  35.399  36.901  1.00  0.00     0.010 A 
ATOM     85  C   UNL A   1      38.816  34.919  39.102  1.00  0.00     0.020 A 
ATOM     86  C   UNL A   1      40.333  36.377  37.889  1.00  0.00     0.020 A 
ATOM     87  C   UNL A   1      39.488  36.137  38.973  1.00  0.00     0.054 A 
BRANCH  87  88
ATOM     88  S   UNL A   1      39.269  37.395  40.262  1.00  0.00     0.124 S 
ATOM     89  O   UNL A   1      38.752  36.601  41.375  1.00  0.00    -0.237 OA
ATOM     90  O   UNL A   1      40.623  37.914  40.437  1.00  0.00    -0.237 OA
ATOM     91  O   UNL A   1      38.318  38.334  39.673  1.00  0.00    -0.744 OA
ENDBRANCH  87  88
ENDBRANCH  61  82
ENDBRANCH  35  36
ENDBRANCH  27  30
ENDBRANCH  25  26
ENDBRANCH   1  25
TORSDOF 16
ENDMDL
MODEL 3
REMARK VINA RESULT:     -10.6      0.584      8.187
REMARK SMILES C[C@H]1SC[C@H](C(=O)NCCCCNC(=O)c2ccc(-c3c4nc(c(-c5ccc(S(=O)(=O)[O-])cc5)c5ccc([nH]5)c(-c5ccc(S(=O)(=O)[O-])cc5)c5nc(c(-c6ccc(S(=O)(=O)[O-])cc6)c6ccc3[nH]6)C=C5)C=C4)cc2)N1C(=O)[C@@H]1CSc2ccccc21
REMARK SMILES IDX 11 1 10 2 9 3 8 4 6 5 7 6 5 8 1 9 2 10 3 11 76 12 4 13 77 14
REMARK SMILES IDX 78 15 79 16 80 17 87 18 81 19 82 20 86 21 83 22 85 23 84 24
REMARK SMILES IDX 12 25 13 26 14 27 15 29 16 30 17 31 75 32 18 33 74 34 19 35
REMARK SMILES IDX 20 36 21 37 68 38 22 39 73 40 67 41 69 42 23 43 72 44 66 45
REMARK SMILES IDX 65 46 24 48 54 49 35 50 53 51 36 52 39 53 52 54 70 55 37 56
REMARK SMILES IDX 38 57 51 59 71 60 40 61 25 62 26 63 34 64 27 65 33 66 28 67
REMARK SMILES IDX 29 68 30 69 31 70 32 71 55 72 56 73 64 74 57 75 63 76 58 77
REMARK SMILES IDX 59 78 60 79 61 80 62 81 41 82 42 83 50 84 43 85 49 86 44 87
REMARK SMILES IDX 45 88 46 89 47 90 48 91
REMARK H PARENT 8 7 13 28 69 47 39 58
REMARK Flexibility Score: inf
ROOT
ATOM      1  C   UNL A   1      33.516  27.818  25.468  1.00  0.00     0.023 C 
ENDROOT
BRANCH   1   2
ATOM      2  C   UNL A   1      33.850  27.594  23.993  1.00  0.00     0.023 C 
BRANCH   2   3
ATOM      3  C   UNL A   1      32.746  26.923  23.185  1.00  0.00     0.116 C 
BRANCH   3   4
ATOM      4  N   UNL A   1      33.253  25.813  22.408  1.00  0.00    -0.354 N 
ATOM      5  C   UNL A   1      33.293  24.487  22.711  1.00  0.00     0.243 C 
ATOM      6  O   UNL A   1      33.943  23.755  21.955  1.00  0.00    -0.273 OA
ATOM      7  H   UNL A   1      33.623  26.054  21.528  1.00  0.00     0.163 HD
BRANCH   5   8
ATOM      8  C   UNL A   1      32.753  23.922  24.041  1.00  0.00     0.185 C 
ATOM      9  C   UNL A   1      32.224  23.348  27.074  1.00  0.00     0.043 C 
ATOM     10  C   UNL A   1      32.935  22.510  26.012  1.00  0.00     0.141 C 
ATOM     11  S   UNL A   1      31.668  21.648  25.041  1.00  0.00    -0.135 SA
ATOM     12  N   UNL A   1      33.660  23.317  25.038  1.00  0.00    -0.318 N 
ATOM     13  C   UNL A   1      31.705  22.855  23.680  1.00  0.00     0.107 C 
BRANCH  12  14
ATOM     14  C   UNL A   1      34.943  23.813  25.211  1.00  0.00     0.232 C 
ATOM     15  O   UNL A   1      35.115  24.928  25.707  1.00  0.00    -0.274 OA
BRANCH  14  16
ATOM     16  C   UNL A   1      36.142  22.960  24.789  1.00  0.00     0.120 C 
ATOM     17  C   UNL A   1      35.729  21.470  24.744  1.00  0.00     0.093 C 
ATOM     18  C   UNL A   1      37.395  22.983  25.659  1.00  0.00    -0.021 A 
ATOM     19  S   UNL A   1      37.275  20.517  24.705  1.00  0.00    -0.125 SA
ATOM     20  C   UNL A   1      38.128  21.789  25.591  1.00  0.00     0.011 A 
ATOM     21  C   UNL A   1      37.950  24.055  26.355  1.00  0.00     0.006 A 
ATOM     22  C   UNL A   1      39.393  21.666  26.154  1.00  0.00     0.015 A 
ATOM     23  C   UNL A   1      39.227  23.951  26.912  1.00  0.00     0.000 A 
ATOM     24  C   UNL A   1      39.952  22.765  26.802  1.00  0.00     0.001 A 
ENDBRANCH  14  16
ENDBRANCH  12  14
ENDBRANCH   5   8
ENDBRANCH   3   4
ENDBRANCH   2   3
ENDBRANCH   1   2
BRANCH   1  25
ATOM     25  C   UNL A   1      34.506  28.691  26.229  1.00  0.00     0.116 C 
BRANCH  25  26
ATOM     26  N   UNL A   1      33.974  30.012  26.529  1.00  0.00    -0.352 N 
ATOM     27  C   UNL A   1      34.377  30.915  27.485  1.00  0.00     0.251 C 
ATOM     28  H   UNL A   1      33.218  30.300  25.968  1.00  0.00     0.163 HD
ATOM     29  O   UNL A   1      33.702  31.912  27.703  1.00  0.00    -0.269 OA
BRANCH  27  30
ATOM     30  C   UNL A   1      35.609  30.659  28.265  1.00  0.00     0.039 A 
ATOM     31  C   UNL A   1      35.587  29.667  29.248  1.00  0.00     0.014 A 
ATOM     32  C   UNL A   1      36.781  31.383  28.024  1.00  0.00     0.014 A 
ATOM     33  C   UNL A   1      36.760  29.357  29.940  1.00  0.00     0.010 A 
ATOM     34  C   UNL A   1      37.967  31.014  28.655  1.00  0.00     0.010 A 
ATOM     35  C   UNL A   1      37.970  29.998  29.621  1.00  0.00    -0.014 A 
BRANCH  35  36
ATOM     36  C   UNL A   1      39.239  29.604  30.287  1.00  0.00     0.031 A 
ATOM     37  C   UNL A   1      39.716  30.333  31.516  1.00  0.00     0.074 A 
ATOM     38  C   UNL A   1      39.982  28.608  29.763  1.00  0.00     0.049 A 
ATOM     39  N   UNL A   1      40.801  30.133  32.221  1.00  0.00    -0.248 NA
ATOM     40  C   UNL A   1      38.879  31.441  32.006  1.00  0.00     0.031 C 
ATOM     41  C   UNL A   1      39.657  27.860  28.545  1.00  0.00     0.029 A 
ATOM     42  N   UNL A   1      41.164  28.053  30.185  1.00  0.00    -0.354 N 
ATOM     43  C   UNL A   1      40.775  31.085  33.235  1.00  0.00     0.074 A 
ATOM     44  C   UNL A   1      39.604  31.903  33.015  1.00  0.00     0.031 C 
ATOM     45  C   UNL A   1      40.598  26.926  28.337  1.00  0.00     0.029 A 
ATOM     46  C   UNL A   1      41.615  27.034  29.378  1.00  0.00     0.049 A 
ATOM     47  H   UNL A   1      41.645  28.356  30.989  1.00  0.00     0.167 HD
ATOM     48  C   UNL A   1      41.630  31.243  34.274  1.00  0.00     0.031 A 
ATOM     49  C   UNL A   1      42.726  26.275  29.459  1.00  0.00     0.031 A 
ATOM     50  C   UNL A   1      42.798  30.431  34.489  1.00  0.00     0.049 A 
ATOM     51  C   UNL A   1      43.673  26.486  30.611  1.00  0.00     0.074 A 
ATOM     52  C   UNL A   1      43.711  30.495  35.528  1.00  0.00     0.029 A 
ATOM     53  N   UNL A   1      43.216  29.406  33.653  1.00  0.00    -0.354 N 
ATOM     54  N   UNL A   1      43.593  27.350  31.596  1.00  0.00    -0.248 NA
ATOM     55  C   UNL A   1      44.848  25.608  30.672  1.00  0.00     0.031 C 
ATOM     56  C   UNL A   1      44.709  29.544  35.292  1.00  0.00     0.029 A 
ATOM     57  C   UNL A   1      44.383  28.842  34.143  1.00  0.00     0.049 A 
ATOM     58  H   UNL A   1      42.752  29.120  32.834  1.00  0.00     0.167 HD
ATOM     59  C   UNL A   1      44.696  27.102  32.405  1.00  0.00     0.074 A 
ATOM     60  C   UNL A   1      45.409  25.992  31.810  1.00  0.00     0.031 C 
ATOM     61  C   UNL A   1      45.085  27.739  33.538  1.00  0.00     0.031 A 
BRANCH  48  62
ATOM     62  C   UNL A   1      41.324  32.334  35.268  1.00  0.00    -0.014 A 
ATOM     63  C   UNL A   1      41.880  33.619  35.121  1.00  0.00     0.010 A 
ATOM     64  C   UNL A   1      40.428  32.095  36.325  1.00  0.00     0.010 A 
ATOM     65  C   UNL A   1      41.572  34.634  36.032  1.00  0.00     0.020 A 
ATOM     66  C   UNL A   1      40.093  33.116  37.220  1.00  0.00     0.020 A 
ATOM     67  C   UNL A   1      40.677  34.377  37.074  1.00  0.00     0.054 A 
BRANCH  67  68
ATOM     68  S   UNL A   1      40.264  35.727  38.212  1.00  0.00     0.124 S 
ATOM     69  O   UNL A   1      39.818  36.771  37.292  1.00  0.00    -0.237 OA
ATOM     70  O   UNL A   1      39.220  35.135  39.044  1.00  0.00    -0.237 OA
ATOM     71  O   UNL A   1      41.524  36.002  38.898  1.00  0.00    -0.744 OA
ENDBRANCH  67  68
ENDBRANCH  48  62
BRANCH  49  72
ATOM     72  C   UNL A   1      43.008  25.248  28.417  1.00  0.00    -0.014 A 
ATOM     73  C   UNL A   1      42.841  23.878  28.685  1.00  0.00     0.010 A 
ATOM     74  C   UNL A   1      43.460  25.643  27.144  1.00  0.00     0.010 A 
ATOM     75  C   UNL A   1      43.152  22.922  27.713  1.00  0.00     0.020 A 
ATOM     76  C   UNL A   1      43.739  24.692  26.159  1.00  0.00     0.020 A 
ATOM     77  C   UNL A   1      43.600  23.335  26.455  1.00  0.00     0.054 A 
BRANCH  77  78
ATOM     78  S   UNL A   1      43.972  22.080  25.200  1.00  0.00     0.124 S 
ATOM     79  O   UNL A   1      42.963  21.064  25.478  1.00  0.00    -0.237 OA
ATOM     80  O   UNL A   1      43.800  22.821  23.953  1.00  0.00    -0.237 OA
ATOM     81  O   UNL A   1      45.349  21.695  25.500  1.00  0.00    -0.744 OA
ENDBRANCH  77  78
ENDBRANCH  49  72
BRANCH  61  82
ATOM     82  C   UNL A   1      46.323  27.225  34.228  1.00  0.00    -0.014 A 
ATOM     83  C   UNL A   1      47.596  27.747  33.932  1.00  0.00     0.010 A 
ATOM     84  C   UNL A   1      46.205  26.229  35.214  1.00  0.00     0.010 A 
ATOM     85  C   UNL A   1      48.731  27.249  34.577  1.00  0.00     0.020 A 
ATOM     86  C   UNL A   1      47.334  25.752  35.885  1.00  0.00     0.020 A 
ATOM     87  C   UNL A   1      48.592  26.253  35.548  1.00  0.00     0.054 A 
BRANCH  87  88
ATOM     88  S   UNL A   1      50.079  25.641  36.388  1.00  0.00     0.124 S 
ATOM     89  O   UNL A   1      49.746  25.863  37.793  1.00  0.00    -0.237 OA
ATOM     90  O   UNL A   1      50.131  24.242  35.968  1.00  0.00    -0.237 OA
ATOM     91  O   UNL A   1      51.148  26.484  35.860  1.00  0.00    -0.744 OA
ENDBRANCH  87  88
ENDBRANCH  61  82
ENDBRANCH  35  36
ENDBRANCH  27  30
ENDBRANCH  25  26
ENDBRANCH   1  25
TORSDOF 16
ENDMDL
