MODEL 1
REMARK VINA RESULT:     -10.5      0.000      0.000
REMARK SMILES CCCc1n[nH]c(C(=O)NC2(CC(=O)NCCCCNC(=O)c3ccc(-c4c5nc(c(-c6ccc(S(=O)(=O)[O-])cc6)c6ccc([nH]6)c(-c6ccc(S(=O)(=O)[O-])cc6)c6nc(c(-c7ccc(S(=O)(=O)[O-])cc7)c7ccc4[nH]7)C=C6)C=C5)cc3)CCC2)n1
REMARK SMILES IDX 16 1 15 2 13 3 14 4 12 6 11 7 83 8 85 9 84 10 10 11 8 12
REMARK SMILES IDX 9 13 7 15 4 16 5 17 86 18 6 19 3 21 2 22 1 23 17 24 18 25
REMARK SMILES IDX 19 26 20 27 21 28 22 30 23 31 24 32 82 33 25 34 81 35 26 36
REMARK SMILES IDX 27 37 28 38 75 39 29 40 80 41 74 42 76 43 30 44 79 45 73 46
REMARK SMILES IDX 72 47 31 49 61 50 42 51 60 52 43 53 46 54 59 55 77 56 44 57
REMARK SMILES IDX 45 58 58 60 78 61 47 62 32 63 33 64 41 65 34 66 40 67 35 68
REMARK SMILES IDX 36 69 37 70 38 71 39 72 62 73 63 74 71 75 64 76 70 77 65 78
REMARK SMILES IDX 66 79 67 80 68 81 69 82 48 83 49 84 57 85 50 86 56 87 51 88
REMARK SMILES IDX 52 89 53 90 54 91 55 92
REMARK H PARENT 15 5 10 14 6 20 20 29 76 48 46 59
REMARK Flexibility Score: inf
ROOT
ATOM      1  C   UNL A   1      34.001  26.642  23.878  1.00  0.00     0.116 C 
ENDROOT
BRANCH   1   2
ATOM      2  N   UNL A   1      33.217  25.590  23.262  1.00  0.00    -0.356 N 
ATOM      3  C   UNL A   1      33.588  24.325  22.923  1.00  0.00     0.222 C 
ATOM      4  O   UNL A   1      32.833  23.674  22.199  1.00  0.00    -0.275 OA
ATOM      5  H   UNL A   1      32.283  25.825  23.060  1.00  0.00     0.163 HD
BRANCH   3   6
ATOM      6  C   UNL A   1      34.892  23.737  23.423  1.00  0.00     0.128 C 
BRANCH   6   7
ATOM      7  C   UNL A   1      34.806  22.859  24.685  1.00  0.00     0.049 C 
ATOM      8  C   UNL A   1      34.765  23.703  26.001  1.00  0.00     0.029 C 
ATOM      9  C   UNL A   1      36.128  22.282  25.318  1.00  0.00     0.029 C 
ATOM     10  C   UNL A   1      36.295  23.618  26.054  1.00  0.00     0.005 C 
BRANCH   7  11
ATOM     11  N   UNL A   1      33.835  21.758  24.449  1.00  0.00    -0.343 N 
ATOM     12  C   UNL A   1      32.507  21.536  24.739  1.00  0.00     0.289 C 
ATOM     13  O   UNL A   1      32.042  20.439  24.414  1.00  0.00    -0.266 OA
ATOM     14  H   UNL A   1      34.242  21.001  23.967  1.00  0.00     0.164 HD
BRANCH  12  15
ATOM     15  C   UNL A   1      31.707  22.484  25.461  1.00  0.00     0.214 A 
ATOM     16  C   UNL A   1      30.740  24.231  26.128  1.00  0.00     0.151 A 
ATOM     17  N   UNL A   1      31.023  23.606  27.278  1.00  0.00    -0.158 NA
ATOM     18  N   UNL A   1      31.028  23.512  25.002  1.00  0.00    -0.207 NA
ATOM     19  N   UNL A   1      31.598  22.475  26.823  1.00  0.00    -0.255 N 
ATOM     20  H   UNL A   1      31.901  21.736  27.399  1.00  0.00     0.192 HD
BRANCH  16  21
ATOM     21  C   UNL A   1      30.327  25.656  26.039  1.00  0.00     0.079 C 
BRANCH  21  22
ATOM     22  C   UNL A   1      29.515  25.983  24.778  1.00  0.00     0.005 C 
ATOM     23  C   UNL A   1      30.045  27.172  23.983  1.00  0.00     0.004 C 
ENDBRANCH  21  22
ENDBRANCH  16  21
ENDBRANCH  12  15
ENDBRANCH   7  11
ENDBRANCH   6   7
ENDBRANCH   3   6
ENDBRANCH   1   2
BRANCH   1  24
ATOM     24  C   UNL A   1      33.473  26.947  25.281  1.00  0.00     0.023 C 
BRANCH  24  25
ATOM     25  C   UNL A   1      33.591  28.393  25.729  1.00  0.00     0.023 C 
BRANCH  25  26
ATOM     26  C   UNL A   1      33.498  28.608  27.230  1.00  0.00     0.116 C 
BRANCH  26  27
ATOM     27  N   UNL A   1      33.500  30.009  27.632  1.00  0.00    -0.352 N 
ATOM     28  C   UNL A   1      34.540  30.739  28.161  1.00  0.00     0.251 C 
ATOM     29  H   UNL A   1      32.653  30.493  27.510  1.00  0.00     0.163 HD
ATOM     30  O   UNL A   1      34.374  31.900  28.515  1.00  0.00    -0.269 OA
BRANCH  28  31
ATOM     31  C   UNL A   1      35.845  30.073  28.339  1.00  0.00     0.039 A 
ATOM     32  C   UNL A   1      36.775  30.119  27.300  1.00  0.00     0.014 A 
ATOM     33  C   UNL A   1      36.181  29.515  29.575  1.00  0.00     0.014 A 
ATOM     34  C   UNL A   1      38.082  29.690  27.534  1.00  0.00     0.010 A 
ATOM     35  C   UNL A   1      37.501  29.176  29.832  1.00  0.00     0.010 A 
ATOM     36  C   UNL A   1      38.466  29.266  28.817  1.00  0.00    -0.014 A 
BRANCH  36  37
ATOM     37  C   UNL A   1      39.871  28.912  29.133  1.00  0.00     0.031 A 
ATOM     38  C   UNL A   1      40.776  29.943  29.749  1.00  0.00     0.074 A 
ATOM     39  C   UNL A   1      40.357  27.707  28.775  1.00  0.00     0.049 A 
ATOM     40  N   UNL A   1      42.060  29.878  29.983  1.00  0.00    -0.248 NA
ATOM     41  C   UNL A   1      40.163  31.233  30.110  1.00  0.00     0.031 C 
ATOM     42  C   UNL A   1      39.598  26.643  28.110  1.00  0.00     0.029 A 
ATOM     43  N   UNL A   1      41.616  27.178  28.908  1.00  0.00    -0.354 N 
ATOM     44  C   UNL A   1      42.415  31.127  30.478  1.00  0.00     0.074 A 
ATOM     45  C   UNL A   1      41.220  31.943  30.473  1.00  0.00     0.031 C 
ATOM     46  C   UNL A   1      40.400  25.582  27.921  1.00  0.00     0.029 A 
ATOM     47  C   UNL A   1      41.734  25.899  28.417  1.00  0.00     0.049 A 
ATOM     48  H   UNL A   1      42.365  27.668  29.318  1.00  0.00     0.167 HD
ATOM     49  C   UNL A   1      43.623  31.553  30.915  1.00  0.00     0.031 A 
ATOM     50  C   UNL A   1      42.799  25.076  28.371  1.00  0.00     0.031 A 
ATOM     51  C   UNL A   1      44.796  30.727  30.967  1.00  0.00     0.049 A 
ATOM     52  C   UNL A   1      44.112  25.547  28.929  1.00  0.00     0.074 A 
ATOM     53  C   UNL A   1      46.051  31.040  31.459  1.00  0.00     0.029 A 
ATOM     54  N   UNL A   1      44.854  29.414  30.524  1.00  0.00    -0.354 N 
ATOM     55  N   UNL A   1      44.415  26.715  29.443  1.00  0.00    -0.248 NA
ATOM     56  C   UNL A   1      45.223  24.584  28.914  1.00  0.00     0.031 C 
ATOM     57  C   UNL A   1      46.874  29.921  31.297  1.00  0.00     0.029 A 
ATOM     58  C   UNL A   1      46.122  28.902  30.732  1.00  0.00     0.049 A 
ATOM     59  H   UNL A   1      44.105  28.920  30.120  1.00  0.00     0.167 HD
ATOM     60  C   UNL A   1      45.745  26.620  29.832  1.00  0.00     0.074 A 
ATOM     61  C   UNL A   1      46.186  25.279  29.506  1.00  0.00     0.031 C 
ATOM     62  C   UNL A   1      46.534  27.561  30.408  1.00  0.00     0.031 A 
BRANCH  49  63
ATOM     63  C   UNL A   1      43.723  32.979  31.379  1.00  0.00    -0.014 A 
ATOM     64  C   UNL A   1      43.391  33.335  32.699  1.00  0.00     0.010 A 
ATOM     65  C   UNL A   1      44.161  33.976  30.490  1.00  0.00     0.010 A 
ATOM     66  C   UNL A   1      43.450  34.668  33.108  1.00  0.00     0.020 A 
ATOM     67  C   UNL A   1      44.246  35.308  30.902  1.00  0.00     0.020 A 
ATOM     68  C   UNL A   1      43.869  35.649  32.204  1.00  0.00     0.054 A 
BRANCH  68  69
ATOM     69  S   UNL A   1      43.946  37.373  32.759  1.00  0.00     0.124 S 
ATOM     70  O   UNL A   1      45.313  37.464  33.265  1.00  0.00    -0.237 OA
ATOM     71  O   UNL A   1      43.680  38.121  31.532  1.00  0.00    -0.237 OA
ATOM     72  O   UNL A   1      42.897  37.455  33.773  1.00  0.00    -0.744 OA
ENDBRANCH  68  69
ENDBRANCH  49  63
BRANCH  50  73
ATOM     73  C   UNL A   1      42.658  23.709  27.804  1.00  0.00    -0.014 A 
ATOM     74  C   UNL A   1      42.973  23.468  26.455  1.00  0.00     0.010 A 
ATOM     75  C   UNL A   1      42.223  22.642  28.609  1.00  0.00     0.010 A 
ATOM     76  C   UNL A   1      42.839  22.186  25.916  1.00  0.00     0.020 A 
ATOM     77  C   UNL A   1      42.107  21.354  28.077  1.00  0.00     0.020 A 
ATOM     78  C   UNL A   1      42.406  21.137  26.729  1.00  0.00     0.054 A 
BRANCH  78  79
ATOM     79  S   UNL A   1      42.291  19.467  26.026  1.00  0.00     0.124 S 
ATOM     80  O   UNL A   1      43.194  19.557  24.884  1.00  0.00    -0.237 OA
ATOM     81  O   UNL A   1      42.746  18.624  27.129  1.00  0.00    -0.237 OA
ATOM     82  O   UNL A   1      40.873  19.335  25.699  1.00  0.00    -0.744 OA
ENDBRANCH  78  79
ENDBRANCH  50  73
BRANCH  62  83
ATOM     83  C   UNL A   1      47.939  27.163  30.754  1.00  0.00    -0.014 A 
ATOM     84  C   UNL A   1      49.017  27.521  29.926  1.00  0.00     0.010 A 
ATOM     85  C   UNL A   1      48.189  26.475  31.955  1.00  0.00     0.010 A 
ATOM     86  C   UNL A   1      50.322  27.178  30.283  1.00  0.00     0.020 A 
ATOM     87  C   UNL A   1      49.495  26.147  32.324  1.00  0.00     0.020 A 
ATOM     88  C   UNL A   1      50.553  26.490  31.479  1.00  0.00     0.054 A 
BRANCH  88  89
ATOM     89  S   UNL A   1      52.260  26.100  31.953  1.00  0.00     0.124 S 
ATOM     90  O   UNL A   1      52.849  25.714  30.674  1.00  0.00    -0.237 OA
ATOM     91  O   UNL A   1      52.739  27.363  32.510  1.00  0.00    -0.237 OA
ATOM     92  O   UNL A   1      52.109  25.018  32.924  1.00  0.00    -0.744 OA
ENDBRANCH  88  89
ENDBRANCH  62  83
ENDBRANCH  36  37
ENDBRANCH  28  31
ENDBRANCH  26  27
ENDBRANCH  25  26
ENDBRANCH  24  25
ENDBRANCH   1  24
TORSDOF 19
ENDMDL
MODEL 2
REMARK VINA RESULT:     -10.2      1.067      2.646
REMARK SMILES CCCc1n[nH]c(C(=O)NC2(CC(=O)NCCCCNC(=O)c3ccc(-c4c5nc(c(-c6ccc(S(=O)(=O)[O-])cc6)c6ccc([nH]6)c(-c6ccc(S(=O)(=O)[O-])cc6)c6nc(c(-c7ccc(S(=O)(=O)[O-])cc7)c7ccc4[nH]7)C=C6)C=C5)cc3)CCC2)n1
REMARK SMILES IDX 16 1 15 2 13 3 14 4 12 6 11 7 83 8 85 9 84 10 10 11 8 12
REMARK SMILES IDX 9 13 7 15 4 16 5 17 86 18 6 19 3 21 2 22 1 23 17 24 18 25
REMARK SMILES IDX 19 26 20 27 21 28 22 30 23 31 24 32 82 33 25 34 81 35 26 36
REMARK SMILES IDX 27 37 28 38 75 39 29 40 80 41 74 42 76 43 30 44 79 45 73 46
REMARK SMILES IDX 72 47 31 49 61 50 42 51 60 52 43 53 46 54 59 55 77 56 44 57
REMARK SMILES IDX 45 58 58 60 78 61 47 62 32 63 33 64 41 65 34 66 40 67 35 68
REMARK SMILES IDX 36 69 37 70 38 71 39 72 62 73 63 74 71 75 64 76 70 77 65 78
REMARK SMILES IDX 66 79 67 80 68 81 69 82 48 83 49 84 57 85 50 86 56 87 51 88
REMARK SMILES IDX 52 89 53 90 54 91 55 92
REMARK H PARENT 15 5 10 14 6 20 20 29 76 48 46 59
REMARK Flexibility Score: inf
ROOT
ATOM      1  C   UNL A   1      32.702  28.523  24.248  1.00  0.00     0.116 C 
ENDROOT
BRANCH   1   2
ATOM      2  N   UNL A   1      32.178  27.913  23.043  1.00  0.00    -0.356 N 
ATOM      3  C   UNL A   1      32.158  26.602  22.679  1.00  0.00     0.222 C 
ATOM      4  O   UNL A   1      31.877  26.328  21.511  1.00  0.00    -0.275 OA
ATOM      5  H   UNL A   1      31.781  28.538  22.393  1.00  0.00     0.163 HD
BRANCH   3   6
ATOM      6  C   UNL A   1      32.472  25.512  23.685  1.00  0.00     0.128 C 
BRANCH   6   7
ATOM      7  C   UNL A   1      31.356  24.483  23.947  1.00  0.00     0.049 C 
ATOM      8  C   UNL A   1      29.966  25.157  24.190  1.00  0.00     0.029 C 
ATOM      9  C   UNL A   1      31.137  23.936  25.407  1.00  0.00     0.029 C 
ATOM     10  C   UNL A   1      30.286  25.182  25.690  1.00  0.00     0.005 C 
BRANCH   7  11
ATOM     11  N   UNL A   1      31.505  23.349  22.998  1.00  0.00    -0.343 N 
ATOM     12  C   UNL A   1      32.397  22.311  22.835  1.00  0.00     0.289 C 
ATOM     13  O   UNL A   1      32.214  21.568  21.866  1.00  0.00    -0.266 OA
ATOM     14  H   UNL A   1      30.792  23.336  22.319  1.00  0.00     0.164 HD
BRANCH  12  15
ATOM     15  C   UNL A   1      33.538  22.135  23.687  1.00  0.00     0.214 A 
ATOM     16  C   UNL A   1      35.490  22.036  24.468  1.00  0.00     0.151 A 
ATOM     17  N   UNL A   1      34.890  21.001  25.071  1.00  0.00    -0.158 NA
ATOM     18  N   UNL A   1      34.659  22.822  23.721  1.00  0.00    -0.207 NA
ATOM     19  N   UNL A   1      33.636  21.115  24.591  1.00  0.00    -0.255 N 
ATOM     20  H   UNL A   1      32.885  20.536  24.857  1.00  0.00     0.192 HD
BRANCH  16  21
ATOM     21  C   UNL A   1      36.962  22.236  24.436  1.00  0.00     0.079 C 
BRANCH  21  22
ATOM     22  C   UNL A   1      37.488  23.121  25.574  1.00  0.00     0.005 C 
ATOM     23  C   UNL A   1      38.777  22.617  26.216  1.00  0.00     0.004 C 
ENDBRANCH  21  22
ENDBRANCH  16  21
ENDBRANCH  12  15
ENDBRANCH   7  11
ENDBRANCH   6   7
ENDBRANCH   3   6
ENDBRANCH   1   2
BRANCH   1  24
ATOM     24  C   UNL A   1      31.598  28.657  25.299  1.00  0.00     0.023 C 
BRANCH  24  25
ATOM     25  C   UNL A   1      31.960  28.189  26.697  1.00  0.00     0.023 C 
BRANCH  25  26
ATOM     26  C   UNL A   1      33.305  28.675  27.208  1.00  0.00     0.116 C 
BRANCH  26  27
ATOM     27  N   UNL A   1      33.319  30.077  27.608  1.00  0.00    -0.352 N 
ATOM     28  C   UNL A   1      34.361  30.797  28.144  1.00  0.00     0.251 C 
ATOM     29  H   UNL A   1      32.477  30.570  27.477  1.00  0.00     0.163 HD
ATOM     30  O   UNL A   1      34.203  31.961  28.494  1.00  0.00    -0.269 OA
BRANCH  28  31
ATOM     31  C   UNL A   1      35.657  30.118  28.335  1.00  0.00     0.039 A 
ATOM     32  C   UNL A   1      36.582  30.119  27.290  1.00  0.00     0.014 A 
ATOM     33  C   UNL A   1      35.992  29.594  29.586  1.00  0.00     0.014 A 
ATOM     34  C   UNL A   1      37.884  29.678  27.530  1.00  0.00     0.010 A 
ATOM     35  C   UNL A   1      37.310  29.243  29.846  1.00  0.00     0.010 A 
ATOM     36  C   UNL A   1      38.269  29.288  28.824  1.00  0.00    -0.014 A 
BRANCH  36  37
ATOM     37  C   UNL A   1      39.671  28.924  29.142  1.00  0.00     0.031 A 
ATOM     38  C   UNL A   1      40.583  29.949  29.758  1.00  0.00     0.074 A 
ATOM     39  C   UNL A   1      40.148  27.714  28.786  1.00  0.00     0.049 A 
ATOM     40  N   UNL A   1      41.866  29.874  29.995  1.00  0.00    -0.248 NA
ATOM     41  C   UNL A   1      39.979  31.244  30.116  1.00  0.00     0.031 C 
ATOM     42  C   UNL A   1      39.382  26.655  28.122  1.00  0.00     0.029 A 
ATOM     43  N   UNL A   1      41.403  27.176  28.923  1.00  0.00    -0.354 N 
ATOM     44  C   UNL A   1      42.230  31.120  30.488  1.00  0.00     0.074 A 
ATOM     45  C   UNL A   1      41.042  31.945  30.481  1.00  0.00     0.031 C 
ATOM     46  C   UNL A   1      40.176  25.588  27.935  1.00  0.00     0.029 A 
ATOM     47  C   UNL A   1      41.512  25.895  28.433  1.00  0.00     0.049 A 
ATOM     48  H   UNL A   1      42.155  27.661  29.333  1.00  0.00     0.167 HD
ATOM     49  C   UNL A   1      43.440  31.538  30.927  1.00  0.00     0.031 A 
ATOM     50  C   UNL A   1      42.570  25.064  28.390  1.00  0.00     0.031 A 
ATOM     51  C   UNL A   1      44.607  30.702  30.982  1.00  0.00     0.049 A 
ATOM     52  C   UNL A   1      43.886  25.525  28.949  1.00  0.00     0.074 A 
ATOM     53  C   UNL A   1      45.863  31.006  31.476  1.00  0.00     0.029 A 
ATOM     54  N   UNL A   1      44.656  29.388  30.541  1.00  0.00    -0.354 N 
ATOM     55  N   UNL A   1      44.197  26.691  29.463  1.00  0.00    -0.248 NA
ATOM     56  C   UNL A   1      44.989  24.554  28.938  1.00  0.00     0.031 C 
ATOM     57  C   UNL A   1      46.678  29.880  31.317  1.00  0.00     0.029 A 
ATOM     58  C   UNL A   1      45.919  28.867  30.752  1.00  0.00     0.049 A 
ATOM     59  H   UNL A   1      43.903  28.900  30.137  1.00  0.00     0.167 HD
ATOM     60  C   UNL A   1      45.526  26.587  29.854  1.00  0.00     0.074 A 
ATOM     61  C   UNL A   1      45.956  25.242  29.530  1.00  0.00     0.031 C 
ATOM     62  C   UNL A   1      46.321  27.522  30.431  1.00  0.00     0.031 A 
BRANCH  49  63
ATOM     63  C   UNL A   1      43.551  32.963  31.390  1.00  0.00    -0.014 A 
ATOM     64  C   UNL A   1      44.000  33.973  30.520  1.00  0.00     0.010 A 
ATOM     65  C   UNL A   1      43.194  33.302  32.707  1.00  0.00     0.010 A 
ATOM     66  C   UNL A   1      44.136  35.287  30.971  1.00  0.00     0.020 A 
ATOM     67  C   UNL A   1      43.305  34.620  33.157  1.00  0.00     0.020 A 
ATOM     68  C   UNL A   1      43.795  35.600  32.291  1.00  0.00     0.054 A 
BRANCH  68  69
ATOM     69  S   UNL A   1      43.972  37.315  32.854  1.00  0.00     0.124 S 
ATOM     70  O   UNL A   1      42.932  37.403  33.876  1.00  0.00    -0.237 OA
ATOM     71  O   UNL A   1      45.345  37.353  33.353  1.00  0.00    -0.237 OA
ATOM     72  O   UNL A   1      43.729  38.101  31.646  1.00  0.00    -0.744 OA
ENDBRANCH  68  69
ENDBRANCH  49  63
BRANCH  50  73
ATOM     73  C   UNL A   1      42.419  23.697  27.825  1.00  0.00    -0.014 A 
ATOM     74  C   UNL A   1      42.721  23.455  26.473  1.00  0.00     0.010 A 
ATOM     75  C   UNL A   1      41.987  22.632  28.633  1.00  0.00     0.010 A 
ATOM     76  C   UNL A   1      42.579  22.174  25.935  1.00  0.00     0.020 A 
ATOM     77  C   UNL A   1      41.862  21.344  28.103  1.00  0.00     0.020 A 
ATOM     78  C   UNL A   1      42.149  21.126  26.753  1.00  0.00     0.054 A 
BRANCH  78  79
ATOM     79  S   UNL A   1      42.022  19.456  26.051  1.00  0.00     0.124 S 
ATOM     80  O   UNL A   1      40.595  19.357  25.762  1.00  0.00    -0.237 OA
ATOM     81  O   UNL A   1      42.900  19.531  24.886  1.00  0.00    -0.237 OA
ATOM     82  O   UNL A   1      42.506  18.599  27.130  1.00  0.00    -0.744 OA
ENDBRANCH  78  79
ENDBRANCH  50  73
BRANCH  62  83
ATOM     83  C   UNL A   1      47.722  27.113  30.779  1.00  0.00    -0.014 A 
ATOM     84  C   UNL A   1      47.978  26.263  31.868  1.00  0.00     0.010 A 
ATOM     85  C   UNL A   1      48.790  27.538  29.967  1.00  0.00     0.010 A 
ATOM     86  C   UNL A   1      49.285  25.860  32.153  1.00  0.00     0.020 A 
ATOM     87  C   UNL A   1      50.095  27.122  30.239  1.00  0.00     0.020 A 
ATOM     88  C   UNL A   1      50.335  26.295  31.339  1.00  0.00     0.054 A 
BRANCH  88  89
ATOM     89  S   UNL A   1      52.019  25.718  31.693  1.00  0.00     0.124 S 
ATOM     90  O   UNL A   1      51.790  24.325  32.064  1.00  0.00    -0.237 OA
ATOM     91  O   UNL A   1      52.707  25.925  30.420  1.00  0.00    -0.237 OA
ATOM     92  O   UNL A   1      52.460  26.591  32.779  1.00  0.00    -0.744 OA
ENDBRANCH  88  89
ENDBRANCH  62  83
ENDBRANCH  36  37
ENDBRANCH  28  31
ENDBRANCH  26  27
ENDBRANCH  25  26
ENDBRANCH  24  25
ENDBRANCH   1  24
TORSDOF 19
ENDMDL
MODEL 3
REMARK VINA RESULT:     -10.0      2.905      9.242
REMARK SMILES CCCc1n[nH]c(C(=O)NC2(CC(=O)NCCCCNC(=O)c3ccc(-c4c5nc(c(-c6ccc(S(=O)(=O)[O-])cc6)c6ccc([nH]6)c(-c6ccc(S(=O)(=O)[O-])cc6)c6nc(c(-c7ccc(S(=O)(=O)[O-])cc7)c7ccc4[nH]7)C=C6)C=C5)cc3)CCC2)n1
REMARK SMILES IDX 16 1 15 2 13 3 14 4 12 6 11 7 83 8 85 9 84 10 10 11 8 12
REMARK SMILES IDX 9 13 7 15 4 16 5 17 86 18 6 19 3 21 2 22 1 23 17 24 18 25
REMARK SMILES IDX 19 26 20 27 21 28 22 30 23 31 24 32 82 33 25 34 81 35 26 36
REMARK SMILES IDX 27 37 28 38 75 39 29 40 80 41 74 42 76 43 30 44 79 45 73 46
REMARK SMILES IDX 72 47 31 49 61 50 42 51 60 52 43 53 46 54 59 55 77 56 44 57
REMARK SMILES IDX 45 58 58 60 78 61 47 62 32 63 33 64 41 65 34 66 40 67 35 68
REMARK SMILES IDX 36 69 37 70 38 71 39 72 62 73 63 74 71 75 64 76 70 77 65 78
REMARK SMILES IDX 66 79 67 80 68 81 69 82 48 83 49 84 57 85 50 86 56 87 51 88
REMARK SMILES IDX 52 89 53 90 54 91 55 92
REMARK H PARENT 15 5 10 14 6 20 20 29 76 48 46 59
REMARK Flexibility Score: inf
ROOT
ATOM      1  C   UNL A   1      33.720  23.041  23.392  1.00  0.00     0.116 C 
ENDROOT
BRANCH   1   2
ATOM      2  N   UNL A   1      33.354  24.103  22.477  1.00  0.00    -0.356 N 
ATOM      3  C   UNL A   1      33.189  25.431  22.721  1.00  0.00     0.222 C 
ATOM      4  O   UNL A   1      32.651  26.118  21.851  1.00  0.00    -0.275 OA
ATOM      5  H   UNL A   1      33.203  23.822  21.546  1.00  0.00     0.163 HD
BRANCH   3   6
ATOM      6  C   UNL A   1      33.656  26.046  24.025  1.00  0.00     0.128 C 
BRANCH   6   7
ATOM      7  C   UNL A   1      32.656  26.975  24.739  1.00  0.00     0.049 C 
ATOM      8  C   UNL A   1      32.934  28.487  24.452  1.00  0.00     0.029 C 
ATOM      9  C   UNL A   1      32.926  27.402  26.231  1.00  0.00     0.029 C 
ATOM     10  C   UNL A   1      33.835  28.515  25.693  1.00  0.00     0.005 C 
BRANCH   7  11
ATOM     11  N   UNL A   1      31.287  26.409  24.614  1.00  0.00    -0.343 N 
ATOM     12  C   UNL A   1      30.106  26.807  24.027  1.00  0.00     0.289 C 
ATOM     13  O   UNL A   1      29.131  26.066  24.181  1.00  0.00    -0.266 OA
ATOM     14  H   UNL A   1      31.204  25.535  25.061  1.00  0.00     0.164 HD
BRANCH  12  15
ATOM     15  C   UNL A   1      29.972  28.060  23.338  1.00  0.00     0.214 A 
ATOM     16  C   UNL A   1      29.266  29.892  22.580  1.00  0.00     0.151 A 
ATOM     17  N   UNL A   1      29.965  29.407  21.545  1.00  0.00    -0.158 NA
ATOM     18  N   UNL A   1      29.360  29.156  23.727  1.00  0.00    -0.207 NA
ATOM     19  N   UNL A   1      30.442  28.261  22.071  1.00  0.00    -0.255 N 
ATOM     20  H   UNL A   1      31.050  27.646  21.601  1.00  0.00     0.192 HD
BRANCH  16  21
ATOM     21  C   UNL A   1      28.309  31.023  22.475  1.00  0.00     0.079 C 
BRANCH  21  22
ATOM     22  C   UNL A   1      28.967  32.352  22.081  1.00  0.00     0.005 C 
ATOM     23  C   UNL A   1      28.897  33.431  23.157  1.00  0.00     0.004 C 
ENDBRANCH  21  22
ENDBRANCH  16  21
ENDBRANCH  12  15
ENDBRANCH   7  11
ENDBRANCH   6   7
ENDBRANCH   3   6
ENDBRANCH   1   2
BRANCH   1  24
ATOM     24  C   UNL A   1      35.242  22.923  23.491  1.00  0.00     0.023 C 
BRANCH  24  25
ATOM     25  C   UNL A   1      35.821  23.017  24.892  1.00  0.00     0.023 C 
BRANCH  25  26
ATOM     26  C   UNL A   1      37.214  23.617  24.970  1.00  0.00     0.116 C 
BRANCH  26  27
ATOM     27  N   UNL A   1      38.235  22.689  25.441  1.00  0.00    -0.352 N 
ATOM     28  C   UNL A   1      39.265  22.935  26.321  1.00  0.00     0.251 C 
ATOM     29  H   UNL A   1      38.181  21.773  25.086  1.00  0.00     0.163 HD
ATOM     30  O   UNL A   1      40.092  22.066  26.574  1.00  0.00    -0.269 OA
BRANCH  28  31
ATOM     31  C   UNL A   1      39.377  24.283  26.909  1.00  0.00     0.039 A 
ATOM     32  C   UNL A   1      38.863  24.509  28.187  1.00  0.00     0.014 A 
ATOM     33  C   UNL A   1      40.098  25.277  26.243  1.00  0.00     0.014 A 
ATOM     34  C   UNL A   1      39.157  25.707  28.839  1.00  0.00     0.010 A 
ATOM     35  C   UNL A   1      40.465  26.427  26.928  1.00  0.00     0.010 A 
ATOM     36  C   UNL A   1      40.004  26.650  28.234  1.00  0.00    -0.014 A 
BRANCH  36  37
ATOM     37  C   UNL A   1      40.431  27.881  28.942  1.00  0.00     0.031 A 
ATOM     38  C   UNL A   1      41.775  27.923  29.614  1.00  0.00     0.074 A 
ATOM     39  C   UNL A   1      39.575  28.916  29.066  1.00  0.00     0.049 A 
ATOM     40  N   UNL A   1      42.281  28.847  30.387  1.00  0.00    -0.248 NA
ATOM     41  C   UNL A   1      42.647  26.750  29.428  1.00  0.00     0.031 C 
ATOM     42  C   UNL A   1      38.217  28.972  28.515  1.00  0.00     0.029 A 
ATOM     43  N   UNL A   1      39.718  30.119  29.710  1.00  0.00    -0.354 N 
ATOM     44  C   UNL A   1      43.508  28.352  30.810  1.00  0.00     0.074 A 
ATOM     45  C   UNL A   1      43.653  27.030  30.242  1.00  0.00     0.031 C 
ATOM     46  C   UNL A   1      37.666  30.158  28.823  1.00  0.00     0.029 A 
ATOM     47  C   UNL A   1      38.613  30.931  29.618  1.00  0.00     0.049 A 
ATOM     48  H   UNL A   1      40.537  30.376  30.194  1.00  0.00     0.167 HD
ATOM     49  C   UNL A   1      44.441  28.950  31.588  1.00  0.00     0.031 A 
ATOM     50  C   UNL A   1      38.389  32.160  30.119  1.00  0.00     0.031 A 
ATOM     51  C   UNL A   1      44.318  30.282  32.110  1.00  0.00     0.049 A 
ATOM     52  C   UNL A   1      39.468  32.833  30.919  1.00  0.00     0.074 A 
ATOM     53  C   UNL A   1      45.237  31.008  32.847  1.00  0.00     0.029 A 
ATOM     54  N   UNL A   1      43.211  31.097  31.933  1.00  0.00    -0.354 N 
ATOM     55  N   UNL A   1      40.645  32.369  31.263  1.00  0.00    -0.248 NA
ATOM     56  C   UNL A   1      39.196  34.201  31.384  1.00  0.00     0.031 C 
ATOM     57  C   UNL A   1      44.677  32.257  33.133  1.00  0.00     0.029 A 
ATOM     58  C   UNL A   1      43.423  32.319  32.547  1.00  0.00     0.049 A 
ATOM     59  H   UNL A   1      42.395  30.844  31.444  1.00  0.00     0.167 HD
ATOM     60  C   UNL A   1      41.262  33.395  31.968  1.00  0.00     0.074 A 
ATOM     61  C   UNL A   1      40.335  34.507  31.991  1.00  0.00     0.031 C 
ATOM     62  C   UNL A   1      42.488  33.415  32.547  1.00  0.00     0.031 A 
BRANCH  49  63
ATOM     63  C   UNL A   1      45.679  28.160  31.908  1.00  0.00    -0.014 A 
ATOM     64  C   UNL A   1      46.813  28.225  31.077  1.00  0.00     0.010 A 
ATOM     65  C   UNL A   1      45.715  27.349  33.056  1.00  0.00     0.010 A 
ATOM     66  C   UNL A   1      47.943  27.457  31.363  1.00  0.00     0.020 A 
ATOM     67  C   UNL A   1      46.853  26.598  33.359  1.00  0.00     0.020 A 
ATOM     68  C   UNL A   1      47.953  26.640  32.498  1.00  0.00     0.054 A 
BRANCH  68  69
ATOM     69  S   UNL A   1      49.435  25.657  32.854  1.00  0.00     0.124 S 
ATOM     70  O   UNL A   1      49.835  25.225  31.518  1.00  0.00    -0.237 OA
ATOM     71  O   UNL A   1      50.322  26.627  33.492  1.00  0.00    -0.237 OA
ATOM     72  O   UNL A   1      48.942  24.598  33.732  1.00  0.00    -0.744 OA
ENDBRANCH  68  69
ENDBRANCH  49  63
BRANCH  50  73
ATOM     73  C   UNL A   1      37.098  32.849  29.850  1.00  0.00    -0.014 A 
ATOM     74  C   UNL A   1      36.069  32.818  30.807  1.00  0.00     0.010 A 
ATOM     75  C   UNL A   1      36.897  33.547  28.647  1.00  0.00     0.010 A 
ATOM     76  C   UNL A   1      34.853  33.460  30.560  1.00  0.00     0.020 A 
ATOM     77  C   UNL A   1      35.688  34.207  28.404  1.00  0.00     0.020 A 
ATOM     78  C   UNL A   1      34.669  34.150  29.359  1.00  0.00     0.054 A 
BRANCH  78  79
ATOM     79  S   UNL A   1      33.104  35.025  29.077  1.00  0.00     0.124 S 
ATOM     80  O   UNL A   1      32.484  34.208  28.040  1.00  0.00    -0.237 OA
ATOM     81  O   UNL A   1      32.467  34.973  30.390  1.00  0.00    -0.237 OA
ATOM     82  O   UNL A   1      33.533  36.357  28.656  1.00  0.00    -0.744 OA
ENDBRANCH  78  79
ENDBRANCH  50  73
BRANCH  62  83
ATOM     83  C   UNL A   1      42.910  34.687  33.221  1.00  0.00    -0.014 A 
ATOM     84  C   UNL A   1      42.667  34.896  34.589  1.00  0.00     0.010 A 
ATOM     85  C   UNL A   1      43.615  35.659  32.489  1.00  0.00     0.010 A 
ATOM     86  C   UNL A   1      43.102  36.068  35.210  1.00  0.00     0.020 A 
ATOM     87  C   UNL A   1      44.068  36.824  33.111  1.00  0.00     0.020 A 
ATOM     88  C   UNL A   1      43.798  37.027  34.466  1.00  0.00     0.054 A 
BRANCH  88  89
ATOM     89  S   UNL A   1      44.403  38.519  35.302  1.00  0.00     0.124 S 
ATOM     90  O   UNL A   1      43.478  39.536  34.812  1.00  0.00    -0.237 OA
ATOM     91  O   UNL A   1      44.269  38.176  36.716  1.00  0.00    -0.237 OA
ATOM     92  O   UNL A   1      45.779  38.645  34.828  1.00  0.00    -0.744 OA
ENDBRANCH  88  89
ENDBRANCH  62  83
ENDBRANCH  36  37
ENDBRANCH  28  31
ENDBRANCH  26  27
ENDBRANCH  25  26
ENDBRANCH  24  25
ENDBRANCH   1  24
TORSDOF 19
ENDMDL
