MODEL 1
REMARK VINA RESULT:     -10.4      0.000      0.000
REMARK SMILES Cn1cc(/C=C/C(=O)N(CC(=O)NCCCCNC(=O)c2ccc(-c3c4nc(c(-c5ccc(S(=O)(=O)[O-])cc5)c5ccc([nH]5)c(-c5ccc(S(=O)(=O)[O-])cc5)c5nc(c(-c6ccc(S(=O)(=O)[O-])cc6)c6ccc3[nH]6)C=C5)C=C4)cc2)C(C)(C)C)cn1
REMARK SMILES IDX 15 1 14 2 13 3 11 4 12 5 10 7 9 8 7 9 8 10 6 11 5 12 4 13
REMARK SMILES IDX 1 14 2 15 3 16 86 17 85 18 81 19 82 20 83 21 84 22 16 23
REMARK SMILES IDX 17 24 18 25 19 26 20 28 21 29 22 30 80 31 23 32 79 33 24 34
REMARK SMILES IDX 25 35 26 36 73 37 27 38 78 39 72 40 74 41 28 42 77 43 71 44
REMARK SMILES IDX 70 45 29 47 59 48 40 49 58 50 41 51 44 52 57 53 75 54 42 55
REMARK SMILES IDX 43 56 56 58 76 59 45 60 30 61 31 62 39 63 32 64 38 65 33 66
REMARK SMILES IDX 34 67 35 68 36 69 37 70 60 71 61 72 69 73 62 74 68 75 63 76
REMARK SMILES IDX 64 77 65 78 66 79 67 80 46 81 47 82 55 83 48 84 54 85 49 86
REMARK SMILES IDX 50 87 51 88 52 89 53 90
REMARK H PARENT 13 6 18 27 74 46 44 57
REMARK Flexibility Score: inf
ROOT
ATOM      1  C   UNL A   1      35.053  23.067  23.502  1.00  0.00     0.023 C 
ENDROOT
BRANCH   1   2
ATOM      2  C   UNL A   1      34.024  24.127  23.143  1.00  0.00     0.116 C 
BRANCH   2   3
ATOM      3  N   UNL A   1      32.649  23.671  23.127  1.00  0.00    -0.355 N 
ATOM      4  C   UNL A   1      31.513  24.185  23.673  1.00  0.00     0.239 C 
ATOM      5  O   UNL A   1      30.445  23.764  23.211  1.00  0.00    -0.273 OA
ATOM      6  H   UNL A   1      32.510  22.833  22.628  1.00  0.00     0.163 HD
BRANCH   4   7
ATOM      7  C   UNL A   1      31.479  25.343  24.693  1.00  0.00     0.220 C 
BRANCH   7   8
ATOM      8  N   UNL A   1      31.954  26.664  24.262  1.00  0.00    -0.325 N 
BRANCH   8   9
ATOM      9  C   UNL A   1      31.561  27.286  23.075  1.00  0.00     0.247 C 
ATOM     10  O   UNL A   1      31.910  26.862  21.969  1.00  0.00    -0.270 OA
BRANCH   9  11
ATOM     11  C   UNL A   1      30.733  28.545  22.996  1.00  0.00     0.072 C 
ATOM     12  C   UNL A   1      29.418  28.757  22.827  1.00  0.00     0.017 C 
BRANCH  12  13
ATOM     13  C   UNL A   1      28.776  30.006  22.600  1.00  0.00     0.013 A 
ATOM     14  C   UNL A   1      27.707  32.757  20.544  1.00  0.00     0.173 C 
ATOM     15  N   UNL A   1      28.034  31.781  21.554  1.00  0.00    -0.275 N 
ATOM     16  C   UNL A   1      28.585  30.550  21.349  1.00  0.00     0.116 A 
ATOM     17  N   UNL A   1      27.830  32.065  22.856  1.00  0.00    -0.181 NA
ATOM     18  C   UNL A   1      28.298  30.986  23.492  1.00  0.00     0.143 A 
ENDBRANCH  12  13
ENDBRANCH   9  11
ENDBRANCH   8   9
BRANCH   8  19
ATOM     19  C   UNL A   1      32.896  27.407  25.211  1.00  0.00     0.035 C 
ATOM     20  C   UNL A   1      33.832  26.448  25.968  1.00  0.00     0.034 C 
ATOM     21  C   UNL A   1      33.747  28.440  24.435  1.00  0.00     0.034 C 
ATOM     22  C   UNL A   1      32.170  28.227  26.318  1.00  0.00     0.034 C 
ENDBRANCH   8  19
ENDBRANCH   7   8
ENDBRANCH   4   7
ENDBRANCH   2   3
ENDBRANCH   1   2
BRANCH   1  23
ATOM     23  C   UNL A   1      35.551  23.110  24.939  1.00  0.00     0.023 C 
BRANCH  23  24
ATOM     24  C   UNL A   1      36.931  23.728  25.103  1.00  0.00     0.116 C 
BRANCH  24  25
ATOM     25  N   UNL A   1      37.957  22.749  25.440  1.00  0.00    -0.352 N 
ATOM     26  C   UNL A   1      39.106  22.940  26.172  1.00  0.00     0.251 C 
ATOM     27  H   UNL A   1      37.809  21.837  25.101  1.00  0.00     0.163 HD
ATOM     28  O   UNL A   1      39.941  22.054  26.274  1.00  0.00    -0.269 OA
BRANCH  26  29
ATOM     29  C   UNL A   1      39.323  24.257  26.803  1.00  0.00     0.039 A 
ATOM     30  C   UNL A   1      38.846  24.479  28.096  1.00  0.00     0.014 A 
ATOM     31  C   UNL A   1      40.077  25.230  26.141  1.00  0.00     0.014 A 
ATOM     32  C   UNL A   1      39.195  25.656  28.762  1.00  0.00     0.010 A 
ATOM     33  C   UNL A   1      40.479  26.366  26.831  1.00  0.00     0.010 A 
ATOM     34  C   UNL A   1      40.047  26.587  28.149  1.00  0.00    -0.014 A 
BRANCH  34  35
ATOM     35  C   UNL A   1      40.513  27.807  28.850  1.00  0.00     0.031 A 
ATOM     36  C   UNL A   1      41.859  27.806  29.519  1.00  0.00     0.074 A 
ATOM     37  C   UNL A   1      39.689  28.867  28.977  1.00  0.00     0.049 A 
ATOM     38  N   UNL A   1      42.383  28.696  30.319  1.00  0.00    -0.248 NA
ATOM     39  C   UNL A   1      42.712  26.628  29.284  1.00  0.00     0.031 C 
ATOM     40  C   UNL A   1      38.347  28.975  28.401  1.00  0.00     0.029 A 
ATOM     41  N   UNL A   1      39.856  30.050  29.654  1.00  0.00    -0.354 N 
ATOM     42  C   UNL A   1      43.609  28.173  30.711  1.00  0.00     0.074 A 
ATOM     43  C   UNL A   1      43.735  26.873  30.089  1.00  0.00     0.031 C 
ATOM     44  C   UNL A   1      37.819  30.164  28.738  1.00  0.00     0.029 A 
ATOM     45  C   UNL A   1      38.763  30.882  29.588  1.00  0.00     0.049 A 
ATOM     46  H   UNL A   1      40.680  30.280  30.140  1.00  0.00     0.167 HD
ATOM     47  C   UNL A   1      44.553  28.731  31.505  1.00  0.00     0.031 A 
ATOM     48  C   UNL A   1      38.540  32.081  30.161  1.00  0.00     0.031 A 
ATOM     49  C   UNL A   1      44.435  30.036  32.096  1.00  0.00     0.049 A 
ATOM     50  C   UNL A   1      39.608  32.688  31.028  1.00  0.00     0.074 A 
ATOM     51  C   UNL A   1      45.355  30.714  32.874  1.00  0.00     0.029 A 
ATOM     52  N   UNL A   1      43.330  30.864  31.966  1.00  0.00    -0.354 N 
ATOM     53  N   UNL A   1      40.779  32.197  31.355  1.00  0.00    -0.248 NA
ATOM     54  C   UNL A   1      39.329  34.014  31.598  1.00  0.00     0.031 C 
ATOM     55  C   UNL A   1      44.795  31.941  33.242  1.00  0.00     0.029 A 
ATOM     56  C   UNL A   1      43.543  32.045  32.655  1.00  0.00     0.049 A 
ATOM     57  H   UNL A   1      42.515  30.645  31.459  1.00  0.00     0.167 HD
ATOM     58  C   UNL A   1      41.391  33.166  32.141  1.00  0.00     0.074 A 
ATOM     59  C   UNL A   1      40.461  34.273  32.240  1.00  0.00     0.031 C 
ATOM     60  C   UNL A   1      42.612  33.142  32.725  1.00  0.00     0.031 A 
BRANCH  47  61
ATOM     61  C   UNL A   1      45.792  27.924  31.781  1.00  0.00    -0.014 A 
ATOM     62  C   UNL A   1      45.874  27.085  32.906  1.00  0.00     0.010 A 
ATOM     63  C   UNL A   1      46.879  27.988  30.891  1.00  0.00     0.010 A 
ATOM     64  C   UNL A   1      47.040  26.361  33.164  1.00  0.00     0.020 A 
ATOM     65  C   UNL A   1      48.038  27.244  31.131  1.00  0.00     0.020 A 
ATOM     66  C   UNL A   1      48.117  26.450  32.277  1.00  0.00     0.054 A 
BRANCH  66  67
ATOM     67  S   UNL A   1      49.617  25.491  32.628  1.00  0.00     0.124 S 
ATOM     68  O   UNL A   1      50.012  25.054  31.293  1.00  0.00    -0.237 OA
ATOM     69  O   UNL A   1      50.494  26.480  33.251  1.00  0.00    -0.237 OA
ATOM     70  O   UNL A   1      49.148  24.431  33.518  1.00  0.00    -0.744 OA
ENDBRANCH  66  67
ENDBRANCH  47  61
BRANCH  48  71
ATOM     71  C   UNL A   1      37.257  32.792  29.917  1.00  0.00    -0.014 A 
ATOM     72  C   UNL A   1      37.105  33.613  28.787  1.00  0.00     0.010 A 
ATOM     73  C   UNL A   1      36.173  32.638  30.801  1.00  0.00     0.010 A 
ATOM     74  C   UNL A   1      35.899  34.278  28.550  1.00  0.00     0.020 A 
ATOM     75  C   UNL A   1      34.957  33.283  30.557  1.00  0.00     0.020 A 
ATOM     76  C   UNL A   1      34.831  34.108  29.437  1.00  0.00     0.054 A 
BRANCH  76  77
ATOM     77  S   UNL A   1      33.255  34.936  29.081  1.00  0.00     0.124 S 
ATOM     78  O   UNL A   1      32.697  34.084  28.035  1.00  0.00    -0.237 OA
ATOM     79  O   UNL A   1      32.572  34.885  30.371  1.00  0.00    -0.237 OA
ATOM     80  O   UNL A   1      33.663  36.272  28.653  1.00  0.00    -0.744 OA
ENDBRANCH  76  77
ENDBRANCH  48  71
BRANCH  60  81
ATOM     81  C   UNL A   1      43.051  34.365  33.481  1.00  0.00    -0.014 A 
ATOM     82  C   UNL A   1      42.857  34.470  34.869  1.00  0.00     0.010 A 
ATOM     83  C   UNL A   1      43.758  35.376  32.804  1.00  0.00     0.010 A 
ATOM     84  C   UNL A   1      43.359  35.570  35.567  1.00  0.00     0.020 A 
ATOM     85  C   UNL A   1      44.278  36.468  33.502  1.00  0.00     0.020 A 
ATOM     86  C   UNL A   1      44.070  36.560  34.880  1.00  0.00     0.054 A 
BRANCH  86  87
ATOM     87  S   UNL A   1      44.787  37.936  35.821  1.00  0.00     0.124 S 
ATOM     88  O   UNL A   1      44.033  39.078  35.311  1.00  0.00    -0.237 OA
ATOM     89  O   UNL A   1      44.503  37.562  37.205  1.00  0.00    -0.237 OA
ATOM     90  O   UNL A   1      46.201  37.907  35.453  1.00  0.00    -0.744 OA
ENDBRANCH  86  87
ENDBRANCH  60  81
ENDBRANCH  34  35
ENDBRANCH  26  29
ENDBRANCH  24  25
ENDBRANCH  23  24
ENDBRANCH   1  23
TORSDOF 19
ENDMDL
MODEL 2
REMARK VINA RESULT:     -10.4      3.110      9.877
REMARK SMILES Cn1cc(/C=C/C(=O)N(CC(=O)NCCCCNC(=O)c2ccc(-c3c4nc(c(-c5ccc(S(=O)(=O)[O-])cc5)c5ccc([nH]5)c(-c5ccc(S(=O)(=O)[O-])cc5)c5nc(c(-c6ccc(S(=O)(=O)[O-])cc6)c6ccc3[nH]6)C=C5)C=C4)cc2)C(C)(C)C)cn1
REMARK SMILES IDX 15 1 14 2 13 3 11 4 12 5 10 7 9 8 7 9 8 10 6 11 5 12 4 13
REMARK SMILES IDX 1 14 2 15 3 16 86 17 85 18 81 19 82 20 83 21 84 22 16 23
REMARK SMILES IDX 17 24 18 25 19 26 20 28 21 29 22 30 80 31 23 32 79 33 24 34
REMARK SMILES IDX 25 35 26 36 73 37 27 38 78 39 72 40 74 41 28 42 77 43 71 44
REMARK SMILES IDX 70 45 29 47 59 48 40 49 58 50 41 51 44 52 57 53 75 54 42 55
REMARK SMILES IDX 43 56 56 58 76 59 45 60 30 61 31 62 39 63 32 64 38 65 33 66
REMARK SMILES IDX 34 67 35 68 36 69 37 70 60 71 61 72 69 73 62 74 68 75 63 76
REMARK SMILES IDX 64 77 65 78 66 79 67 80 46 81 47 82 55 83 48 84 54 85 49 86
REMARK SMILES IDX 50 87 51 88 52 89 53 90
REMARK H PARENT 13 6 18 27 74 46 44 57
REMARK Flexibility Score: inf
ROOT
ATOM      1  C   UNL A   1      31.862  27.791  26.740  1.00  0.00     0.023 C 
ENDROOT
BRANCH   1   2
ATOM      2  C   UNL A   1      31.165  26.456  26.536  1.00  0.00     0.116 C 
BRANCH   2   3
ATOM      3  N   UNL A   1      31.037  26.030  25.158  1.00  0.00    -0.355 N 
ATOM      4  C   UNL A   1      31.201  24.818  24.561  1.00  0.00     0.239 C 
ATOM      5  O   UNL A   1      30.699  24.689  23.438  1.00  0.00    -0.273 OA
ATOM      6  H   UNL A   1      30.786  26.752  24.537  1.00  0.00     0.163 HD
BRANCH   4   7
ATOM      7  C   UNL A   1      31.819  23.581  25.247  1.00  0.00     0.220 C 
BRANCH   7   8
ATOM      8  N   UNL A   1      32.960  22.922  24.599  1.00  0.00    -0.325 N 
BRANCH   8   9
ATOM      9  C   UNL A   1      32.845  22.056  23.510  1.00  0.00     0.247 C 
ATOM     10  O   UNL A   1      32.765  22.473  22.350  1.00  0.00    -0.270 OA
BRANCH   9  11
ATOM     11  C   UNL A   1      32.753  20.553  23.610  1.00  0.00     0.072 C 
ATOM     12  C   UNL A   1      33.181  19.677  24.534  1.00  0.00     0.017 C 
BRANCH  12  13
ATOM     13  C   UNL A   1      33.180  18.258  24.431  1.00  0.00     0.013 A 
ATOM     14  C   UNL A   1      32.523  14.937  25.643  1.00  0.00     0.173 C 
ATOM     15  N   UNL A   1      32.881  16.155  24.959  1.00  0.00    -0.275 N 
ATOM     16  C   UNL A   1      32.581  17.427  25.350  1.00  0.00     0.116 A 
ATOM     17  N   UNL A   1      33.615  16.102  23.830  1.00  0.00    -0.181 NA
ATOM     18  C   UNL A   1      33.809  17.389  23.519  1.00  0.00     0.143 A 
ENDBRANCH  12  13
ENDBRANCH   9  11
ENDBRANCH   8   9
BRANCH   8  19
ATOM     19  C   UNL A   1      34.353  23.260  25.133  1.00  0.00     0.035 C 
ATOM     20  C   UNL A   1      34.617  24.777  25.146  1.00  0.00     0.034 C 
ATOM     21  C   UNL A   1      34.537  22.701  26.564  1.00  0.00     0.034 C 
ATOM     22  C   UNL A   1      35.520  22.650  24.304  1.00  0.00     0.034 C 
ENDBRANCH   8  19
ENDBRANCH   7   8
ENDBRANCH   4   7
ENDBRANCH   2   3
ENDBRANCH   1   2
BRANCH   1  23
ATOM     23  C   UNL A   1      33.382  27.737  26.718  1.00  0.00     0.023 C 
BRANCH  23  24
ATOM     24  C   UNL A   1      34.041  28.950  26.078  1.00  0.00     0.116 C 
BRANCH  24  25
ATOM     25  N   UNL A   1      33.794  30.185  26.812  1.00  0.00    -0.352 N 
ATOM     26  C   UNL A   1      34.567  30.757  27.795  1.00  0.00     0.251 C 
ATOM     27  H   UNL A   1      32.972  30.670  26.573  1.00  0.00     0.163 HD
ATOM     28  O   UNL A   1      34.174  31.737  28.412  1.00  0.00    -0.269 OA
BRANCH  26  29
ATOM     29  C   UNL A   1      35.868  30.137  28.115  1.00  0.00     0.039 A 
ATOM     30  C   UNL A   1      36.910  30.230  27.191  1.00  0.00     0.014 A 
ATOM     31  C   UNL A   1      36.069  29.546  29.365  1.00  0.00     0.014 A 
ATOM     32  C   UNL A   1      38.188  29.798  27.555  1.00  0.00     0.010 A 
ATOM     33  C   UNL A   1      37.353  29.183  29.748  1.00  0.00     0.010 A 
ATOM     34  C   UNL A   1      38.425  29.311  28.850  1.00  0.00    -0.014 A 
BRANCH  34  35
ATOM     35  C   UNL A   1      39.781  28.922  29.306  1.00  0.00     0.031 A 
ATOM     36  C   UNL A   1      40.629  29.925  30.037  1.00  0.00     0.074 A 
ATOM     37  C   UNL A   1      40.285  27.717  28.973  1.00  0.00     0.049 A 
ATOM     38  N   UNL A   1      41.890  29.850  30.373  1.00  0.00    -0.248 NA
ATOM     39  C   UNL A   1      39.981  31.195  30.405  1.00  0.00     0.031 C 
ATOM     40  C   UNL A   1      39.571  26.670  28.237  1.00  0.00     0.029 A 
ATOM     41  N   UNL A   1      41.528  27.178  29.193  1.00  0.00    -0.354 N 
ATOM     42  C   UNL A   1      42.195  31.072  30.959  1.00  0.00     0.074 A 
ATOM     43  C   UNL A   1      40.998  31.883  30.900  1.00  0.00     0.031 C 
ATOM     44  C   UNL A   1      40.383  25.612  28.080  1.00  0.00     0.029 A 
ATOM     45  C   UNL A   1      41.686  25.920  28.661  1.00  0.00     0.049 A 
ATOM     46  H   UNL A   1      42.239  27.649  29.685  1.00  0.00     0.167 HD
ATOM     47  C   UNL A   1      43.363  31.478  31.509  1.00  0.00     0.031 A 
ATOM     48  C   UNL A   1      42.764  25.112  28.630  1.00  0.00     0.031 A 
ATOM     49  C   UNL A   1      44.540  30.658  31.591  1.00  0.00     0.049 A 
ATOM     50  C   UNL A   1      44.047  25.578  29.261  1.00  0.00     0.074 A 
ATOM     51  C   UNL A   1      45.758  30.956  32.174  1.00  0.00     0.029 A 
ATOM     52  N   UNL A   1      44.643  29.373  31.080  1.00  0.00    -0.354 N 
ATOM     53  N   UNL A   1      44.306  26.722  29.847  1.00  0.00    -0.248 NA
ATOM     54  C   UNL A   1      45.182  24.643  29.233  1.00  0.00     0.031 C 
ATOM     55  C   UNL A   1      46.610  29.862  31.989  1.00  0.00     0.029 A 
ATOM     56  C   UNL A   1      45.906  28.866  31.330  1.00  0.00     0.049 A 
ATOM     57  H   UNL A   1      43.924  28.892  30.610  1.00  0.00     0.167 HD
ATOM     58  C   UNL A   1      45.622  26.633  30.287  1.00  0.00     0.074 A 
ATOM     59  C   UNL A   1      46.105  25.323  29.901  1.00  0.00     0.031 C 
ATOM     60  C   UNL A   1      46.361  27.552  30.954  1.00  0.00     0.031 A 
BRANCH  47  61
ATOM     61  C   UNL A   1      43.420  32.876  32.061  1.00  0.00    -0.014 A 
ATOM     62  C   UNL A   1      43.599  33.983  31.213  1.00  0.00     0.010 A 
ATOM     63  C   UNL A   1      43.268  33.088  33.443  1.00  0.00     0.010 A 
ATOM     64  C   UNL A   1      43.674  35.274  31.741  1.00  0.00     0.020 A 
ATOM     65  C   UNL A   1      43.317  34.381  33.974  1.00  0.00     0.020 A 
ATOM     66  C   UNL A   1      43.539  35.463  33.121  1.00  0.00     0.054 A 
BRANCH  66  67
ATOM     67  S   UNL A   1      43.631  37.150  33.781  1.00  0.00     0.124 S 
ATOM     68  O   UNL A   1      43.726  37.945  32.560  1.00  0.00    -0.237 OA
ATOM     69  O   UNL A   1      42.376  37.277  34.518  1.00  0.00    -0.237 OA
ATOM     70  O   UNL A   1      44.836  37.132  34.608  1.00  0.00    -0.744 OA
ENDBRANCH  66  67
ENDBRANCH  47  61
BRANCH  48  71
ATOM     71  C   UNL A   1      42.669  23.771  27.993  1.00  0.00    -0.014 A 
ATOM     72  C   UNL A   1      42.091  22.695  28.689  1.00  0.00     0.010 A 
ATOM     73  C   UNL A   1      43.134  23.567  26.682  1.00  0.00     0.010 A 
ATOM     74  C   UNL A   1      41.993  21.436  28.092  1.00  0.00     0.020 A 
ATOM     75  C   UNL A   1      43.018  22.314  26.071  1.00  0.00     0.020 A 
ATOM     76  C   UNL A   1      42.456  21.253  26.785  1.00  0.00     0.054 A 
BRANCH  76  77
ATOM     77  S   UNL A   1      42.268  19.624  26.008  1.00  0.00     0.124 S 
ATOM     78  O   UNL A   1      43.096  19.762  24.813  1.00  0.00    -0.237 OA
ATOM     79  O   UNL A   1      42.783  18.721  27.034  1.00  0.00    -0.237 OA
ATOM     80  O   UNL A   1      40.830  19.526  25.768  1.00  0.00    -0.744 OA
ENDBRANCH  76  77
ENDBRANCH  48  71
BRANCH  60  81
ATOM     81  C   UNL A   1      47.755  27.166  31.363  1.00  0.00    -0.014 A 
ATOM     82  C   UNL A   1      47.996  26.476  32.562  1.00  0.00     0.010 A 
ATOM     83  C   UNL A   1      48.823  27.412  30.480  1.00  0.00     0.010 A 
ATOM     84  C   UNL A   1      49.285  26.041  32.876  1.00  0.00     0.020 A 
ATOM     85  C   UNL A   1      50.110  26.961  30.781  1.00  0.00     0.020 A 
ATOM     86  C   UNL A   1      50.334  26.282  31.981  1.00  0.00     0.054 A 
BRANCH  86  87
ATOM     87  S   UNL A   1      51.983  25.633  32.369  1.00  0.00     0.124 S 
ATOM     88  O   UNL A   1      52.494  26.639  33.296  1.00  0.00    -0.237 OA
ATOM     89  O   UNL A   1      51.685  24.329  32.958  1.00  0.00    -0.237 OA
ATOM     90  O   UNL A   1      52.650  25.585  31.071  1.00  0.00    -0.744 OA
ENDBRANCH  86  87
ENDBRANCH  60  81
ENDBRANCH  34  35
ENDBRANCH  26  29
ENDBRANCH  24  25
ENDBRANCH  23  24
ENDBRANCH   1  23
TORSDOF 19
ENDMDL
MODEL 3
REMARK VINA RESULT:     -10.4      3.393      9.797
REMARK SMILES Cn1cc(/C=C/C(=O)N(CC(=O)NCCCCNC(=O)c2ccc(-c3c4nc(c(-c5ccc(S(=O)(=O)[O-])cc5)c5ccc([nH]5)c(-c5ccc(S(=O)(=O)[O-])cc5)c5nc(c(-c6ccc(S(=O)(=O)[O-])cc6)c6ccc3[nH]6)C=C5)C=C4)cc2)C(C)(C)C)cn1
REMARK SMILES IDX 15 1 14 2 13 3 11 4 12 5 10 7 9 8 7 9 8 10 6 11 5 12 4 13
REMARK SMILES IDX 1 14 2 15 3 16 86 17 85 18 81 19 82 20 83 21 84 22 16 23
REMARK SMILES IDX 17 24 18 25 19 26 20 28 21 29 22 30 80 31 23 32 79 33 24 34
REMARK SMILES IDX 25 35 26 36 73 37 27 38 78 39 72 40 74 41 28 42 77 43 71 44
REMARK SMILES IDX 70 45 29 47 59 48 40 49 58 50 41 51 44 52 57 53 75 54 42 55
REMARK SMILES IDX 43 56 56 58 76 59 45 60 30 61 31 62 39 63 32 64 38 65 33 66
REMARK SMILES IDX 34 67 35 68 36 69 37 70 60 71 61 72 69 73 62 74 68 75 63 76
REMARK SMILES IDX 64 77 65 78 66 79 67 80 46 81 47 82 55 83 48 84 54 85 49 86
REMARK SMILES IDX 50 87 51 88 52 89 53 90
REMARK H PARENT 13 6 18 27 74 46 44 57
REMARK Flexibility Score: inf
ROOT
ATOM      1  C   UNL A   1      31.675  27.811  26.324  1.00  0.00     0.023 C 
ENDROOT
BRANCH   1   2
ATOM      2  C   UNL A   1      31.077  26.414  26.284  1.00  0.00     0.116 C 
BRANCH   2   3
ATOM      3  N   UNL A   1      30.774  25.910  24.961  1.00  0.00    -0.355 N 
ATOM      4  C   UNL A   1      30.840  24.661  24.424  1.00  0.00     0.239 C 
ATOM      5  O   UNL A   1      30.201  24.479  23.381  1.00  0.00    -0.273 OA
ATOM      6  H   UNL A   1      30.461  26.600  24.331  1.00  0.00     0.163 HD
BRANCH   4   7
ATOM      7  C   UNL A   1      31.514  23.451  25.106  1.00  0.00     0.220 C 
BRANCH   7   8
ATOM      8  N   UNL A   1      32.745  22.914  24.512  1.00  0.00    -0.325 N 
BRANCH   8   9
ATOM      9  C   UNL A   1      32.771  22.046  23.420  1.00  0.00     0.247 C 
ATOM     10  O   UNL A   1      32.802  22.461  22.257  1.00  0.00    -0.270 OA
BRANCH   9  11
ATOM     11  C   UNL A   1      32.712  20.541  23.514  1.00  0.00     0.072 C 
ATOM     12  C   UNL A   1      33.082  19.676  24.473  1.00  0.00     0.017 C 
BRANCH  12  13
ATOM     13  C   UNL A   1      33.128  18.258  24.371  1.00  0.00     0.013 A 
ATOM     14  C   UNL A   1      32.602  14.918  25.596  1.00  0.00     0.173 C 
ATOM     15  N   UNL A   1      32.909  16.146  24.906  1.00  0.00    -0.275 N 
ATOM     16  C   UNL A   1      32.570  17.408  25.300  1.00  0.00     0.116 A 
ATOM     17  N   UNL A   1      33.630  16.117  23.768  1.00  0.00    -0.181 NA
ATOM     18  C   UNL A   1      33.775  17.409  23.453  1.00  0.00     0.143 A 
ENDBRANCH  12  13
ENDBRANCH   9  11
ENDBRANCH   8   9
BRANCH   8  19
ATOM     19  C   UNL A   1      34.070  23.390  25.112  1.00  0.00     0.035 C 
ATOM     20  C   UNL A   1      35.265  22.559  24.611  1.00  0.00     0.034 C 
ATOM     21  C   UNL A   1      34.313  24.882  24.779  1.00  0.00     0.034 C 
ATOM     22  C   UNL A   1      34.135  23.304  26.665  1.00  0.00     0.034 C 
ENDBRANCH   8  19
ENDBRANCH   7   8
ENDBRANCH   4   7
ENDBRANCH   2   3
ENDBRANCH   1   2
BRANCH   1  23
ATOM     23  C   UNL A   1      33.125  27.881  26.777  1.00  0.00     0.023 C 
BRANCH  23  24
ATOM     24  C   UNL A   1      33.964  28.905  26.028  1.00  0.00     0.116 C 
BRANCH  24  25
ATOM     25  N   UNL A   1      33.759  30.267  26.503  1.00  0.00    -0.352 N 
ATOM     26  C   UNL A   1      34.478  30.952  27.456  1.00  0.00     0.251 C 
ATOM     27  H   UNL A   1      33.012  30.759  26.091  1.00  0.00     0.163 HD
ATOM     28  O   UNL A   1      34.116  32.053  27.845  1.00  0.00    -0.269 OA
BRANCH  26  29
ATOM     29  C   UNL A   1      35.679  30.308  28.024  1.00  0.00     0.039 A 
ATOM     30  C   UNL A   1      36.898  30.431  27.355  1.00  0.00     0.014 A 
ATOM     31  C   UNL A   1      35.602  29.663  29.262  1.00  0.00     0.014 A 
ATOM     32  C   UNL A   1      38.065  29.973  27.970  1.00  0.00     0.010 A 
ATOM     33  C   UNL A   1      36.772  29.274  29.900  1.00  0.00     0.010 A 
ATOM     34  C   UNL A   1      38.014  29.430  29.263  1.00  0.00    -0.014 A 
BRANCH  34  35
ATOM     35  C   UNL A   1      39.238  29.011  29.988  1.00  0.00     0.031 A 
ATOM     36  C   UNL A   1      39.665  29.768  31.215  1.00  0.00     0.074 A 
ATOM     37  C   UNL A   1      40.016  28.030  29.487  1.00  0.00     0.049 A 
ATOM     38  N   UNL A   1      40.777  29.677  31.895  1.00  0.00    -0.248 NA
ATOM     39  C   UNL A   1      38.729  30.786  31.721  1.00  0.00     0.031 C 
ATOM     40  C   UNL A   1      39.726  27.245  28.285  1.00  0.00     0.029 A 
ATOM     41  N   UNL A   1      41.225  27.543  29.917  1.00  0.00    -0.354 N 
ATOM     42  C   UNL A   1      40.691  30.648  32.885  1.00  0.00     0.074 A 
ATOM     43  C   UNL A   1      39.435  31.339  32.696  1.00  0.00     0.031 C 
ATOM     44  C   UNL A   1      40.721  26.366  28.084  1.00  0.00     0.029 A 
ATOM     45  C   UNL A   1      41.739  26.554  29.112  1.00  0.00     0.049 A 
ATOM     46  H   UNL A   1      41.680  27.870  30.726  1.00  0.00     0.167 HD
ATOM     47  C   UNL A   1      41.573  30.928  33.873  1.00  0.00     0.031 A 
ATOM     48  C   UNL A   1      42.908  25.887  29.184  1.00  0.00     0.031 A 
ATOM     49  C   UNL A   1      42.807  30.218  34.073  1.00  0.00     0.049 A 
ATOM     50  C   UNL A   1      43.866  26.206  30.298  1.00  0.00     0.074 A 
ATOM     51  C   UNL A   1      43.746  30.391  35.074  1.00  0.00     0.029 A 
ATOM     52  N   UNL A   1      43.268  29.194  33.261  1.00  0.00    -0.354 N 
ATOM     53  N   UNL A   1      43.751  27.100  31.250  1.00  0.00    -0.248 NA
ATOM     54  C   UNL A   1      45.109  25.422  30.353  1.00  0.00     0.031 C 
ATOM     55  C   UNL A   1      44.792  29.490  34.850  1.00  0.00     0.029 A 
ATOM     56  C   UNL A   1      44.482  28.727  33.735  1.00  0.00     0.049 A 
ATOM     57  H   UNL A   1      42.802  28.848  32.466  1.00  0.00     0.167 HD
ATOM     58  C   UNL A   1      44.889  26.964  32.037  1.00  0.00     0.074 A 
ATOM     59  C   UNL A   1      45.680  25.902  31.450  1.00  0.00     0.031 C 
ATOM     60  C   UNL A   1      45.244  27.655  33.147  1.00  0.00     0.031 A 
BRANCH  47  61
ATOM     61  C   UNL A   1      41.232  32.057  34.806  1.00  0.00    -0.014 A 
ATOM     62  C   UNL A   1      41.627  33.376  34.523  1.00  0.00     0.010 A 
ATOM     63  C   UNL A   1      40.486  31.799  35.970  1.00  0.00     0.010 A 
ATOM     64  C   UNL A   1      41.325  34.411  35.411  1.00  0.00     0.020 A 
ATOM     65  C   UNL A   1      40.158  32.836  36.848  1.00  0.00     0.020 A 
ATOM     66  C   UNL A   1      40.597  34.132  36.572  1.00  0.00     0.054 A 
BRANCH  66  67
ATOM     67  S   UNL A   1      40.208  35.495  37.704  1.00  0.00     0.124 S 
ATOM     68  O   UNL A   1      39.020  34.988  38.385  1.00  0.00    -0.237 OA
ATOM     69  O   UNL A   1      41.412  35.587  38.526  1.00  0.00    -0.237 OA
ATOM     70  O   UNL A   1      39.978  36.630  36.812  1.00  0.00    -0.744 OA
ENDBRANCH  66  67
ENDBRANCH  47  61
BRANCH  48  71
ATOM     71  C   UNL A   1      43.226  24.838  28.179  1.00  0.00    -0.014 A 
ATOM     72  C   UNL A   1      43.917  25.171  27.001  1.00  0.00     0.010 A 
ATOM     73  C   UNL A   1      42.860  23.498  28.401  1.00  0.00     0.010 A 
ATOM     74  C   UNL A   1      44.224  24.188  26.057  1.00  0.00     0.020 A 
ATOM     75  C   UNL A   1      43.186  22.507  27.470  1.00  0.00     0.020 A 
ATOM     76  C   UNL A   1      43.857  22.861  26.298  1.00  0.00     0.054 A 
BRANCH  76  77
ATOM     77  S   UNL A   1      44.315  21.590  25.085  1.00  0.00     0.124 S 
ATOM     78  O   UNL A   1      44.174  22.312  23.824  1.00  0.00    -0.237 OA
ATOM     79  O   UNL A   1      45.683  21.258  25.475  1.00  0.00    -0.237 OA
ATOM     80  O   UNL A   1      43.335  20.532  25.317  1.00  0.00    -0.744 OA
ENDBRANCH  76  77
ENDBRANCH  48  71
BRANCH  60  81
ATOM     81  C   UNL A   1      46.517  27.258  33.841  1.00  0.00    -0.014 A 
ATOM     82  C   UNL A   1      46.549  26.176  34.736  1.00  0.00     0.010 A 
ATOM     83  C   UNL A   1      47.715  27.918  33.511  1.00  0.00     0.010 A 
ATOM     84  C   UNL A   1      47.760  25.762  35.295  1.00  0.00     0.020 A 
ATOM     85  C   UNL A   1      48.930  27.495  34.053  1.00  0.00     0.020 A 
ATOM     86  C   UNL A   1      48.944  26.422  34.947  1.00  0.00     0.054 A 
BRANCH  86  87
ATOM     87  S   UNL A   1      50.516  25.812  35.618  1.00  0.00     0.124 S 
ATOM     88  O   UNL A   1      51.492  26.511  34.785  1.00  0.00    -0.237 OA
ATOM     89  O   UNL A   1      50.458  26.241  37.013  1.00  0.00    -0.237 OA
ATOM     90  O   UNL A   1      50.443  24.368  35.413  1.00  0.00    -0.744 OA
ENDBRANCH  86  87
ENDBRANCH  60  81
ENDBRANCH  34  35
ENDBRANCH  26  29
ENDBRANCH  24  25
ENDBRANCH  23  24
ENDBRANCH   1  23
TORSDOF 19
ENDMDL
