MODEL 1
REMARK VINA RESULT:     -11.7      0.000      0.000
REMARK SMILES C[C@@H]1[C@H](C(=O)NCCCCNC(=O)c2ccc(-c3c4nc(c(-c5ccc(S(=O)(=O)[O-])cc5)c5ccc([nH]5)c(-c5ccc(S(=O)(=O)[O-])cc5)c5nc(c(-c6ccc(S(=O)(=O)[O-])cc6)c6ccc3[nH]6)C=C5)C=C4)cc2)CCN1C(=O)c1ccc([N+](=O)[O-])c(F)c1
REMARK SMILES IDX 8 1 7 2 6 3 4 4 5 5 3 7 1 8 2 9 76 10 74 11 75 12 77 13
REMARK SMILES IDX 78 14 79 15 80 16 88 17 81 18 86 19 82 20 87 21 83 22 84 23
REMARK SMILES IDX 85 24 9 25 10 26 11 27 12 28 13 30 14 31 15 32 73 33 16 34
REMARK SMILES IDX 72 35 17 36 18 37 19 38 66 39 20 40 71 41 65 42 67 43 21 44
REMARK SMILES IDX 70 45 64 46 63 47 22 49 52 50 33 51 51 52 34 53 37 54 50 55
REMARK SMILES IDX 68 56 35 57 36 58 49 60 69 61 38 62 23 63 24 64 32 65 25 66
REMARK SMILES IDX 31 67 26 68 27 69 28 70 29 71 30 72 53 73 54 74 62 75 55 76
REMARK SMILES IDX 61 77 56 78 57 79 58 80 59 81 60 82 39 83 40 84 48 85 41 86
REMARK SMILES IDX 47 87 42 88 43 89 44 90 45 91 46 92
REMARK H PARENT 6 6 11 29 67 48 37 59
REMARK Flexibility Score: inf
ROOT
ATOM      1  C   UNL A   1      33.651  27.174  24.494  1.00  0.00     0.023 C 
ENDROOT
BRANCH   1   2
ATOM      2  C   UNL A   1      32.427  27.056  23.584  1.00  0.00     0.116 C 
BRANCH   2   3
ATOM      3  N   UNL A   1      32.772  26.624  22.241  1.00  0.00    -0.356 N 
ATOM      4  C   UNL A   1      32.740  25.405  21.642  1.00  0.00     0.225 C 
ATOM      5  O   UNL A   1      33.144  25.342  20.477  1.00  0.00    -0.275 OA
ATOM      6  H   UNL A   1      33.086  27.351  21.655  1.00  0.00     0.163 HD
BRANCH   4   7
ATOM      7  C   UNL A   1      32.257  24.135  22.331  1.00  0.00     0.102 C 
ATOM      8  C   UNL A   1      34.700  23.807  23.178  1.00  0.00     0.032 C 
ATOM      9  C   UNL A   1      33.298  23.238  23.039  1.00  0.00     0.094 C 
ATOM     10  N   UNL A   1      32.650  22.842  24.306  1.00  0.00    -0.335 N 
ATOM     11  C   UNL A   1      31.102  24.340  23.311  1.00  0.00     0.037 C 
ATOM     12  C   UNL A   1      31.248  23.216  24.315  1.00  0.00     0.121 C 
BRANCH  10  13
ATOM     13  C   UNL A   1      33.085  21.955  25.281  1.00  0.00     0.254 C 
ATOM     14  O   UNL A   1      33.305  22.274  26.446  1.00  0.00    -0.269 OA
BRANCH  13  15
ATOM     15  C   UNL A   1      33.317  20.548  24.926  1.00  0.00     0.043 A 
ATOM     16  C   UNL A   1      32.232  19.724  24.610  1.00  0.00     0.021 A 
ATOM     17  C   UNL A   1      34.619  20.038  24.969  1.00  0.00     0.060 A 
ATOM     18  C   UNL A   1      32.461  18.389  24.263  1.00  0.00     0.090 A 
ATOM     19  C   UNL A   1      34.846  18.715  24.607  1.00  0.00     0.201 A 
ATOM     20  C   UNL A   1      33.777  17.898  24.243  1.00  0.00     0.304 A 
ATOM     21  F   UNL A   1      36.107  18.263  24.632  1.00  0.00    -0.199 F 
BRANCH  20  22
ATOM     22  N   UNL A   1      34.019  16.524  23.832  1.00  0.00     0.065 N 
ATOM     23  O   UNL A   1      33.957  15.655  24.714  1.00  0.00    -0.258 OA
ATOM     24  O   UNL A   1      34.228  16.299  22.635  1.00  0.00    -0.258 OA
ENDBRANCH  20  22
ENDBRANCH  13  15
ENDBRANCH  10  13
ENDBRANCH   4   7
ENDBRANCH   2   3
ENDBRANCH   1   2
BRANCH   1  25
ATOM     25  C   UNL A   1      33.364  27.266  25.986  1.00  0.00     0.023 C 
BRANCH  25  26
ATOM     26  C   UNL A   1      34.408  28.013  26.798  1.00  0.00     0.116 C 
BRANCH  26  27
ATOM     27  N   UNL A   1      33.995  29.362  27.159  1.00  0.00    -0.352 N 
ATOM     28  C   UNL A   1      34.680  30.316  27.880  1.00  0.00     0.251 C 
ATOM     29  H   UNL A   1      33.102  29.630  26.843  1.00  0.00     0.163 HD
ATOM     30  O   UNL A   1      34.128  31.359  28.199  1.00  0.00    -0.269 OA
BRANCH  28  31
ATOM     31  C   UNL A   1      36.075  30.044  28.286  1.00  0.00     0.039 A 
ATOM     32  C   UNL A   1      36.328  29.554  29.569  1.00  0.00     0.014 A 
ATOM     33  C   UNL A   1      37.120  30.228  27.379  1.00  0.00     0.014 A 
ATOM     34  C   UNL A   1      37.628  29.175  29.914  1.00  0.00     0.010 A 
ATOM     35  C   UNL A   1      38.388  29.759  27.689  1.00  0.00     0.010 A 
ATOM     36  C   UNL A   1      38.659  29.240  28.964  1.00  0.00    -0.014 A 
BRANCH  36  37
ATOM     37  C   UNL A   1      40.043  28.807  29.281  1.00  0.00     0.031 A 
ATOM     38  C   UNL A   1      40.981  29.766  29.965  1.00  0.00     0.074 A 
ATOM     39  C   UNL A   1      40.479  27.595  28.884  1.00  0.00     0.049 A 
ATOM     40  N   UNL A   1      42.253  29.627  30.235  1.00  0.00    -0.248 NA
ATOM     41  C   UNL A   1      40.422  31.071  30.360  1.00  0.00     0.031 C 
ATOM     42  C   UNL A   1      39.682  26.595  28.168  1.00  0.00     0.029 A 
ATOM     43  N   UNL A   1      41.708  27.000  29.021  1.00  0.00    -0.354 N 
ATOM     44  C   UNL A   1      42.651  30.834  30.797  1.00  0.00     0.074 A 
ATOM     45  C   UNL A   1      41.502  31.712  30.778  1.00  0.00     0.031 C 
ATOM     46  C   UNL A   1      40.433  25.501  27.959  1.00  0.00     0.029 A 
ATOM     47  C   UNL A   1      41.772  25.734  28.490  1.00  0.00     0.049 A 
ATOM     48  H   UNL A   1      42.473  27.440  29.459  1.00  0.00     0.167 HD
ATOM     49  C   UNL A   1      43.856  31.175  31.311  1.00  0.00     0.031 A 
ATOM     50  C   UNL A   1      42.796  24.860  28.438  1.00  0.00     0.031 A 
ATOM     51  C   UNL A   1      44.984  30.286  31.362  1.00  0.00     0.049 A 
ATOM     52  C   UNL A   1      44.117  25.246  29.046  1.00  0.00     0.074 A 
ATOM     53  C   UNL A   1      46.233  30.508  31.914  1.00  0.00     0.029 A 
ATOM     54  N   UNL A   1      44.993  28.996  30.852  1.00  0.00    -0.354 N 
ATOM     55  N   UNL A   1      44.460  26.374  29.620  1.00  0.00    -0.248 NA
ATOM     56  C   UNL A   1      45.183  24.234  29.012  1.00  0.00     0.031 C 
ATOM     57  C   UNL A   1      47.010  29.363  31.707  1.00  0.00     0.029 A 
ATOM     58  C   UNL A   1      46.228  28.412  31.070  1.00  0.00     0.049 A 
ATOM     59  H   UNL A   1      44.234  28.561  30.401  1.00  0.00     0.167 HD
ATOM     60  C   UNL A   1      45.772  26.197  30.046  1.00  0.00     0.074 A 
ATOM     61  C   UNL A   1      46.155  24.850  29.670  1.00  0.00     0.031 C 
ATOM     62  C   UNL A   1      46.585  27.067  30.694  1.00  0.00     0.031 A 
BRANCH  49  63
ATOM     63  C   UNL A   1      44.003  32.569  31.859  1.00  0.00    -0.014 A 
ATOM     64  C   UNL A   1      43.805  32.836  33.226  1.00  0.00     0.010 A 
ATOM     65  C   UNL A   1      44.346  33.628  30.999  1.00  0.00     0.010 A 
ATOM     66  C   UNL A   1      43.890  34.143  33.714  1.00  0.00     0.020 A 
ATOM     67  C   UNL A   1      44.462  34.932  31.488  1.00  0.00     0.020 A 
ATOM     68  C   UNL A   1      44.211  35.185  32.838  1.00  0.00     0.054 A 
BRANCH  68  69
ATOM     69  S   UNL A   1      44.315  36.872  33.496  1.00  0.00     0.124 S 
ATOM     70  O   UNL A   1      42.997  37.405  33.164  1.00  0.00    -0.237 OA
ATOM     71  O   UNL A   1      44.562  36.648  34.919  1.00  0.00    -0.237 OA
ATOM     72  O   UNL A   1      45.430  37.461  32.760  1.00  0.00    -0.744 OA
ENDBRANCH  68  69
ENDBRANCH  49  63
BRANCH  50  73
ATOM     73  C   UNL A   1      42.597  23.518  27.824  1.00  0.00    -0.014 A 
ATOM     74  C   UNL A   1      43.087  23.252  26.533  1.00  0.00     0.010 A 
ATOM     75  C   UNL A   1      41.941  22.496  28.531  1.00  0.00     0.010 A 
ATOM     76  C   UNL A   1      42.908  21.992  25.953  1.00  0.00     0.020 A 
ATOM     77  C   UNL A   1      41.782  21.227  27.964  1.00  0.00     0.020 A 
ATOM     78  C   UNL A   1      42.258  20.986  26.673  1.00  0.00     0.054 A 
BRANCH  78  79
ATOM     79  S   UNL A   1      42.086  19.343  25.924  1.00  0.00     0.124 S 
ATOM     80  O   UNL A   1      42.914  19.466  24.729  1.00  0.00    -0.237 OA
ATOM     81  O   UNL A   1      42.608  18.464  26.967  1.00  0.00    -0.237 OA
ATOM     82  O   UNL A   1      40.650  19.227  25.683  1.00  0.00    -0.744 OA
ENDBRANCH  78  79
ENDBRANCH  50  73
BRANCH  62  83
ATOM     83  C   UNL A   1      47.954  26.579  31.078  1.00  0.00    -0.014 A 
ATOM     84  C   UNL A   1      49.067  26.804  30.251  1.00  0.00     0.010 A 
ATOM     85  C   UNL A   1      48.135  25.937  32.316  1.00  0.00     0.010 A 
ATOM     86  C   UNL A   1      50.336  26.367  30.643  1.00  0.00     0.020 A 
ATOM     87  C   UNL A   1      49.403  25.521  32.724  1.00  0.00     0.020 A 
ATOM     88  C   UNL A   1      50.495  25.726  31.877  1.00  0.00     0.054 A 
BRANCH  88  89
ATOM     89  S   UNL A   1      52.156  25.209  32.386  1.00  0.00     0.124 S 
ATOM     90  O   UNL A   1      51.985  23.769  32.561  1.00  0.00    -0.237 OA
ATOM     91  O   UNL A   1      52.981  25.611  31.249  1.00  0.00    -0.237 OA
ATOM     92  O   UNL A   1      52.392  25.963  33.614  1.00  0.00    -0.744 OA
ENDBRANCH  88  89
ENDBRANCH  62  83
ENDBRANCH  36  37
ENDBRANCH  28  31
ENDBRANCH  26  27
ENDBRANCH  25  26
ENDBRANCH   1  25
TORSDOF 17
ENDMDL
MODEL 2
REMARK VINA RESULT:     -11.6      2.109      2.586
REMARK SMILES C[C@@H]1[C@H](C(=O)NCCCCNC(=O)c2ccc(-c3c4nc(c(-c5ccc(S(=O)(=O)[O-])cc5)c5ccc([nH]5)c(-c5ccc(S(=O)(=O)[O-])cc5)c5nc(c(-c6ccc(S(=O)(=O)[O-])cc6)c6ccc3[nH]6)C=C5)C=C4)cc2)CCN1C(=O)c1ccc([N+](=O)[O-])c(F)c1
REMARK SMILES IDX 8 1 7 2 6 3 4 4 5 5 3 7 1 8 2 9 76 10 74 11 75 12 77 13
REMARK SMILES IDX 78 14 79 15 80 16 88 17 81 18 86 19 82 20 87 21 83 22 84 23
REMARK SMILES IDX 85 24 9 25 10 26 11 27 12 28 13 30 14 31 15 32 73 33 16 34
REMARK SMILES IDX 72 35 17 36 18 37 19 38 66 39 20 40 71 41 65 42 67 43 21 44
REMARK SMILES IDX 70 45 64 46 63 47 22 49 52 50 33 51 51 52 34 53 37 54 50 55
REMARK SMILES IDX 68 56 35 57 36 58 49 60 69 61 38 62 23 63 24 64 32 65 25 66
REMARK SMILES IDX 31 67 26 68 27 69 28 70 29 71 30 72 53 73 54 74 62 75 55 76
REMARK SMILES IDX 61 77 56 78 57 79 58 80 59 81 60 82 39 83 40 84 48 85 41 86
REMARK SMILES IDX 47 87 42 88 43 89 44 90 45 91 46 92
REMARK H PARENT 6 6 11 29 67 48 37 59
REMARK Flexibility Score: inf
ROOT
ATOM      1  C   UNL A   1      33.324  29.169  24.864  1.00  0.00     0.023 C 
ENDROOT
BRANCH   1   2
ATOM      2  C   UNL A   1      33.268  28.678  23.416  1.00  0.00     0.116 C 
BRANCH   2   3
ATOM      3  N   UNL A   1      32.064  29.108  22.728  1.00  0.00    -0.356 N 
ATOM      4  C   UNL A   1      30.874  28.489  22.510  1.00  0.00     0.225 C 
ATOM      5  O   UNL A   1      30.038  29.104  21.840  1.00  0.00    -0.275 OA
ATOM      6  H   UNL A   1      32.119  30.016  22.352  1.00  0.00     0.163 HD
BRANCH   4   7
ATOM      7  C   UNL A   1      30.535  27.096  23.024  1.00  0.00     0.102 C 
ATOM      8  C   UNL A   1      32.364  26.183  21.408  1.00  0.00     0.032 C 
ATOM      9  C   UNL A   1      31.229  25.880  22.372  1.00  0.00     0.094 C 
ATOM     10  N   UNL A   1      31.583  24.999  23.504  1.00  0.00    -0.335 N 
ATOM     11  C   UNL A   1      30.662  26.927  24.538  1.00  0.00     0.037 C 
ATOM     12  C   UNL A   1      30.962  25.456  24.734  1.00  0.00     0.121 C 
BRANCH  10  13
ATOM     13  C   UNL A   1      32.129  23.723  23.495  1.00  0.00     0.254 C 
ATOM     14  O   UNL A   1      31.529  22.726  23.104  1.00  0.00    -0.269 OA
BRANCH  13  15
ATOM     15  C   UNL A   1      33.498  23.520  23.989  1.00  0.00     0.043 A 
ATOM     16  C   UNL A   1      34.548  23.366  23.078  1.00  0.00     0.021 A 
ATOM     17  C   UNL A   1      33.719  23.421  25.367  1.00  0.00     0.060 A 
ATOM     18  C   UNL A   1      35.849  23.183  23.555  1.00  0.00     0.090 A 
ATOM     19  C   UNL A   1      35.017  23.256  25.839  1.00  0.00     0.201 A 
ATOM     20  C   UNL A   1      36.078  23.151  24.941  1.00  0.00     0.304 A 
ATOM     21  F   UNL A   1      35.201  23.194  27.165  1.00  0.00    -0.199 F 
BRANCH  20  22
ATOM     22  N   UNL A   1      37.438  23.013  25.436  1.00  0.00     0.065 N 
ATOM     23  O   UNL A   1      37.970  24.029  25.910  1.00  0.00    -0.258 OA
ATOM     24  O   UNL A   1      37.965  21.896  25.397  1.00  0.00    -0.258 OA
ENDBRANCH  20  22
ENDBRANCH  13  15
ENDBRANCH  10  13
ENDBRANCH   4   7
ENDBRANCH   2   3
ENDBRANCH   1   2
BRANCH   1  25
ATOM     25  C   UNL A   1      34.024  28.248  25.853  1.00  0.00     0.023 C 
BRANCH  25  26
ATOM     26  C   UNL A   1      33.632  28.447  27.307  1.00  0.00     0.116 C 
BRANCH  26  27
ATOM     27  N   UNL A   1      33.551  29.849  27.692  1.00  0.00    -0.352 N 
ATOM     28  C   UNL A   1      34.516  30.648  28.265  1.00  0.00     0.251 C 
ATOM     29  H   UNL A   1      32.687  30.286  27.519  1.00  0.00     0.163 HD
ATOM     30  O   UNL A   1      34.236  31.778  28.640  1.00  0.00    -0.269 OA
BRANCH  28  31
ATOM     31  C   UNL A   1      35.881  30.109  28.446  1.00  0.00     0.039 A 
ATOM     32  C   UNL A   1      36.790  30.186  27.389  1.00  0.00     0.014 A 
ATOM     33  C   UNL A   1      36.267  29.577  29.677  1.00  0.00     0.014 A 
ATOM     34  C   UNL A   1      38.116  29.796  27.596  1.00  0.00     0.010 A 
ATOM     35  C   UNL A   1      37.605  29.285  29.909  1.00  0.00     0.010 A 
ATOM     36  C   UNL A   1      38.541  29.378  28.867  1.00  0.00    -0.014 A 
BRANCH  36  37
ATOM     37  C   UNL A   1      39.949  28.997  29.135  1.00  0.00     0.031 A 
ATOM     38  C   UNL A   1      40.889  30.008  29.736  1.00  0.00     0.074 A 
ATOM     39  C   UNL A   1      40.401  27.782  28.768  1.00  0.00     0.049 A 
ATOM     40  N   UNL A   1      42.175  29.915  29.952  1.00  0.00    -0.248 NA
ATOM     41  C   UNL A   1      40.311  31.313  30.104  1.00  0.00     0.031 C 
ATOM     42  C   UNL A   1      39.602  26.732  28.131  1.00  0.00     0.029 A 
ATOM     43  N   UNL A   1      41.652  27.227  28.871  1.00  0.00    -0.354 N 
ATOM     44  C   UNL A   1      42.563  31.155  30.447  1.00  0.00     0.074 A 
ATOM     45  C   UNL A   1      41.390  32.000  30.445  1.00  0.00     0.031 C 
ATOM     46  C   UNL A   1      40.375  25.650  27.931  1.00  0.00     0.029 A 
ATOM     47  C   UNL A   1      41.729  25.942  28.389  1.00  0.00     0.049 A 
ATOM     48  H   UNL A   1      42.423  27.705  29.255  1.00  0.00     0.167 HD
ATOM     49  C   UNL A   1      43.780  31.549  30.890  1.00  0.00     0.031 A 
ATOM     50  C   UNL A   1      42.774  25.094  28.325  1.00  0.00     0.031 A 
ATOM     51  C   UNL A   1      44.934  30.694  30.924  1.00  0.00     0.049 A 
ATOM     52  C   UNL A   1      44.110  25.540  28.854  1.00  0.00     0.074 A 
ATOM     53  C   UNL A   1      46.200  30.973  31.408  1.00  0.00     0.029 A 
ATOM     54  N   UNL A   1      44.958  29.385  30.466  1.00  0.00    -0.354 N 
ATOM     55  N   UNL A   1      44.446  26.700  29.367  1.00  0.00    -0.248 NA
ATOM     56  C   UNL A   1      45.201  24.558  28.813  1.00  0.00     0.031 C 
ATOM     57  C   UNL A   1      46.999  29.842  31.211  1.00  0.00     0.029 A 
ATOM     58  C   UNL A   1      46.218  28.844  30.650  1.00  0.00     0.049 A 
ATOM     59  H   UNL A   1      44.191  28.911  30.069  1.00  0.00     0.167 HD
ATOM     60  C   UNL A   1      45.780  26.577  29.738  1.00  0.00     0.074 A 
ATOM     61  C   UNL A   1      46.185  25.227  29.399  1.00  0.00     0.031 C 
ATOM     62  C   UNL A   1      46.596  27.495  30.311  1.00  0.00     0.031 A 
BRANCH  49  63
ATOM     63  C   UNL A   1      43.911  32.969  31.374  1.00  0.00    -0.014 A 
ATOM     64  C   UNL A   1      43.789  33.284  32.740  1.00  0.00     0.010 A 
ATOM     65  C   UNL A   1      44.162  34.003  30.454  1.00  0.00     0.010 A 
ATOM     66  C   UNL A   1      43.858  34.611  33.171  1.00  0.00     0.020 A 
ATOM     67  C   UNL A   1      44.262  35.329  30.885  1.00  0.00     0.020 A 
ATOM     68  C   UNL A   1      44.086  35.627  32.238  1.00  0.00     0.054 A 
BRANCH  68  69
ATOM     69  S   UNL A   1      44.171  37.341  32.823  1.00  0.00     0.124 S 
ATOM     70  O   UNL A   1      45.415  37.336  33.588  1.00  0.00    -0.237 OA
ATOM     71  O   UNL A   1      44.204  38.106  31.577  1.00  0.00    -0.237 OA
ATOM     72  O   UNL A   1      42.954  37.498  33.613  1.00  0.00    -0.744 OA
ENDBRANCH  68  69
ENDBRANCH  49  63
BRANCH  50  73
ATOM     73  C   UNL A   1      42.587  23.723  27.776  1.00  0.00    -0.014 A 
ATOM     74  C   UNL A   1      42.190  22.671  28.620  1.00  0.00     0.010 A 
ATOM     75  C   UNL A   1      42.781  23.466  26.407  1.00  0.00     0.010 A 
ATOM     76  C   UNL A   1      42.008  21.382  28.110  1.00  0.00     0.020 A 
ATOM     77  C   UNL A   1      42.575  22.184  25.888  1.00  0.00     0.020 A 
ATOM     78  C   UNL A   1      42.199  21.147  26.745  1.00  0.00     0.054 A 
BRANCH  78  79
ATOM     79  S   UNL A   1      41.902  19.480  26.094  1.00  0.00     0.124 S 
ATOM     80  O   UNL A   1      42.757  19.458  24.912  1.00  0.00    -0.237 OA
ATOM     81  O   UNL A   1      42.331  18.627  27.201  1.00  0.00    -0.237 OA
ATOM     82  O   UNL A   1      40.465  19.468  25.830  1.00  0.00    -0.744 OA
ENDBRANCH  78  79
ENDBRANCH  50  73
BRANCH  62  83
ATOM     83  C   UNL A   1      47.994  27.061  30.651  1.00  0.00    -0.014 A 
ATOM     84  C   UNL A   1      49.073  27.340  29.795  1.00  0.00     0.010 A 
ATOM     85  C   UNL A   1      48.237  26.414  31.876  1.00  0.00     0.010 A 
ATOM     86  C   UNL A   1      50.370  26.952  30.146  1.00  0.00     0.020 A 
ATOM     87  C   UNL A   1      49.533  26.047  32.243  1.00  0.00     0.020 A 
ATOM     88  C   UNL A   1      50.591  26.306  31.368  1.00  0.00     0.054 A 
BRANCH  88  89
ATOM     89  S   UNL A   1      52.286  25.854  31.823  1.00  0.00     0.124 S 
ATOM     90  O   UNL A   1      52.132  24.455  32.213  1.00  0.00    -0.237 OA
ATOM     91  O   UNL A   1      53.025  26.084  30.584  1.00  0.00    -0.237 OA
ATOM     92  O   UNL A   1      52.608  26.773  32.912  1.00  0.00    -0.744 OA
ENDBRANCH  88  89
ENDBRANCH  62  83
ENDBRANCH  36  37
ENDBRANCH  28  31
ENDBRANCH  26  27
ENDBRANCH  25  26
ENDBRANCH   1  25
TORSDOF 17
ENDMDL
MODEL 3
REMARK VINA RESULT:     -11.5      4.468     10.022
REMARK SMILES C[C@@H]1[C@H](C(=O)NCCCCNC(=O)c2ccc(-c3c4nc(c(-c5ccc(S(=O)(=O)[O-])cc5)c5ccc([nH]5)c(-c5ccc(S(=O)(=O)[O-])cc5)c5nc(c(-c6ccc(S(=O)(=O)[O-])cc6)c6ccc3[nH]6)C=C5)C=C4)cc2)CCN1C(=O)c1ccc([N+](=O)[O-])c(F)c1
REMARK SMILES IDX 8 1 7 2 6 3 4 4 5 5 3 7 1 8 2 9 76 10 74 11 75 12 77 13
REMARK SMILES IDX 78 14 79 15 80 16 88 17 81 18 86 19 82 20 87 21 83 22 84 23
REMARK SMILES IDX 85 24 9 25 10 26 11 27 12 28 13 30 14 31 15 32 73 33 16 34
REMARK SMILES IDX 72 35 17 36 18 37 19 38 66 39 20 40 71 41 65 42 67 43 21 44
REMARK SMILES IDX 70 45 64 46 63 47 22 49 52 50 33 51 51 52 34 53 37 54 50 55
REMARK SMILES IDX 68 56 35 57 36 58 49 60 69 61 38 62 23 63 24 64 32 65 25 66
REMARK SMILES IDX 31 67 26 68 27 69 28 70 29 71 30 72 53 73 54 74 62 75 55 76
REMARK SMILES IDX 61 77 56 78 57 79 58 80 59 81 60 82 39 83 40 84 48 85 41 86
REMARK SMILES IDX 47 87 42 88 43 89 44 90 45 91 46 92
REMARK H PARENT 6 6 11 29 67 48 37 59
REMARK Flexibility Score: inf
ROOT
ATOM      1  C   UNL A   1      40.233  21.328  26.502  1.00  0.00     0.023 C 
ENDROOT
BRANCH   1   2
ATOM      2  C   UNL A   1      38.887  21.412  25.781  1.00  0.00     0.116 C 
BRANCH   2   3
ATOM      3  N   UNL A   1      38.241  22.701  25.956  1.00  0.00    -0.356 N 
ATOM      4  C   UNL A   1      37.135  23.247  25.386  1.00  0.00     0.225 C 
ATOM      5  O   UNL A   1      36.852  24.404  25.709  1.00  0.00    -0.275 OA
ATOM      6  H   UNL A   1      38.687  23.287  26.609  1.00  0.00     0.163 HD
BRANCH   4   7
ATOM      7  C   UNL A   1      36.257  22.522  24.374  1.00  0.00     0.102 C 
ATOM      8  C   UNL A   1      35.177  21.268  26.388  1.00  0.00     0.032 C 
ATOM      9  C   UNL A   1      35.313  21.408  24.881  1.00  0.00     0.094 C 
ATOM     10  N   UNL A   1      34.048  21.629  24.152  1.00  0.00    -0.335 N 
ATOM     11  C   UNL A   1      35.426  23.439  23.477  1.00  0.00     0.037 C 
ATOM     12  C   UNL A   1      34.218  22.610  23.096  1.00  0.00     0.121 C 
BRANCH  10  13
ATOM     13  C   UNL A   1      32.891  20.862  24.135  1.00  0.00     0.254 C 
ATOM     14  O   UNL A   1      31.774  21.314  23.900  1.00  0.00    -0.269 OA
BRANCH  13  15
ATOM     15  C   UNL A   1      32.974  19.424  24.426  1.00  0.00     0.043 A 
ATOM     16  C   UNL A   1      32.517  18.936  25.655  1.00  0.00     0.021 A 
ATOM     17  C   UNL A   1      33.569  18.571  23.490  1.00  0.00     0.060 A 
ATOM     18  C   UNL A   1      32.590  17.566  25.920  1.00  0.00     0.090 A 
ATOM     19  C   UNL A   1      33.626  17.206  23.749  1.00  0.00     0.201 A 
ATOM     20  C   UNL A   1      33.128  16.703  24.951  1.00  0.00     0.304 A 
ATOM     21  F   UNL A   1      34.176  16.411  22.822  1.00  0.00    -0.199 F 
BRANCH  20  22
ATOM     22  N   UNL A   1      33.156  15.272  25.207  1.00  0.00     0.065 N 
ATOM     23  O   UNL A   1      34.272  14.744  25.322  1.00  0.00    -0.258 OA
ATOM     24  O   UNL A   1      32.079  14.678  25.336  1.00  0.00    -0.258 OA
ENDBRANCH  20  22
ENDBRANCH  13  15
ENDBRANCH  10  13
ENDBRANCH   4   7
ENDBRANCH   2   3
ENDBRANCH   1   2
BRANCH   1  25
ATOM     25  C   UNL A   1      40.457  22.343  27.614  1.00  0.00     0.023 C 
BRANCH  25  26
ATOM     26  C   UNL A   1      41.676  23.233  27.438  1.00  0.00     0.116 C 
BRANCH  26  27
ATOM     27  N   UNL A   1      41.624  24.042  26.228  1.00  0.00    -0.352 N 
ATOM     28  C   UNL A   1      41.432  25.400  26.100  1.00  0.00     0.251 C 
ATOM     29  H   UNL A   1      41.744  23.550  25.384  1.00  0.00     0.163 HD
ATOM     30  O   UNL A   1      41.291  25.900  24.993  1.00  0.00    -0.269 OA
BRANCH  28  31
ATOM     31  C   UNL A   1      41.367  26.234  27.319  1.00  0.00     0.039 A 
ATOM     32  C   UNL A   1      42.355  27.196  27.540  1.00  0.00     0.014 A 
ATOM     33  C   UNL A   1      40.302  26.094  28.211  1.00  0.00     0.014 A 
ATOM     34  C   UNL A   1      42.229  28.072  28.622  1.00  0.00     0.010 A 
ATOM     35  C   UNL A   1      40.128  27.027  29.223  1.00  0.00     0.010 A 
ATOM     36  C   UNL A   1      41.096  28.018  29.448  1.00  0.00    -0.014 A 
BRANCH  36  37
ATOM     37  C   UNL A   1      40.907  28.958  30.580  1.00  0.00     0.031 A 
ATOM     38  C   UNL A   1      41.769  28.822  31.808  1.00  0.00     0.074 A 
ATOM     39  C   UNL A   1      39.918  29.872  30.541  1.00  0.00     0.049 A 
ATOM     40  N   UNL A   1      41.698  29.467  32.943  1.00  0.00    -0.248 NA
ATOM     41  C   UNL A   1      42.824  27.793  31.767  1.00  0.00     0.031 C 
ATOM     42  C   UNL A   1      38.983  30.069  29.430  1.00  0.00     0.029 A 
ATOM     43  N   UNL A   1      39.528  30.805  31.469  1.00  0.00    -0.354 N 
ATOM     44  C   UNL A   1      42.671  28.901  33.758  1.00  0.00     0.074 A 
ATOM     45  C   UNL A   1      43.280  27.824  33.009  1.00  0.00     0.031 C 
ATOM     46  C   UNL A   1      38.152  31.082  29.728  1.00  0.00     0.029 A 
ATOM     47  C   UNL A   1      38.467  31.578  31.063  1.00  0.00     0.049 A 
ATOM     48  H   UNL A   1      39.967  30.909  32.344  1.00  0.00     0.167 HD
ATOM     49  C   UNL A   1      43.047  29.261  35.007  1.00  0.00     0.031 A 
ATOM     50  C   UNL A   1      37.822  32.578  31.697  1.00  0.00     0.031 A 
ATOM     51  C   UNL A   1      42.464  30.355  35.734  1.00  0.00     0.049 A 
ATOM     52  C   UNL A   1      38.278  32.985  33.072  1.00  0.00     0.074 A 
ATOM     53  C   UNL A   1      42.810  30.844  36.981  1.00  0.00     0.029 A 
ATOM     54  N   UNL A   1      41.421  31.142  35.268  1.00  0.00    -0.354 N 
ATOM     55  N   UNL A   1      39.235  32.471  33.807  1.00  0.00    -0.248 NA
ATOM     56  C   UNL A   1      37.577  34.116  33.695  1.00  0.00     0.031 C 
ATOM     57  C   UNL A   1      41.951  31.906  37.285  1.00  0.00     0.029 A 
ATOM     58  C   UNL A   1      41.104  32.109  36.206  1.00  0.00     0.049 A 
ATOM     59  H   UNL A   1      40.972  31.029  34.399  1.00  0.00     0.167 HD
ATOM     60  C   UNL A   1      39.274  33.238  34.966  1.00  0.00     0.074 A 
ATOM     61  C   UNL A   1      38.249  34.254  34.829  1.00  0.00     0.031 C 
ATOM     62  C   UNL A   1      40.086  33.115  36.045  1.00  0.00     0.031 A 
BRANCH  49  63
ATOM     63  C   UNL A   1      44.143  28.458  35.657  1.00  0.00    -0.014 A 
ATOM     64  C   UNL A   1      43.848  27.313  36.419  1.00  0.00     0.010 A 
ATOM     65  C   UNL A   1      45.485  28.850  35.503  1.00  0.00     0.010 A 
ATOM     66  C   UNL A   1      44.869  26.608  37.063  1.00  0.00     0.020 A 
ATOM     67  C   UNL A   1      46.511  28.130  36.120  1.00  0.00     0.020 A 
ATOM     68  C   UNL A   1      46.195  27.027  36.915  1.00  0.00     0.054 A 
BRANCH  68  69
ATOM     69  S   UNL A   1      47.500  26.094  37.760  1.00  0.00     0.124 S 
ATOM     70  O   UNL A   1      48.581  26.134  36.779  1.00  0.00    -0.237 OA
ATOM     71  O   UNL A   1      47.723  26.879  38.973  1.00  0.00    -0.237 OA
ATOM     72  O   UNL A   1      46.901  24.779  37.975  1.00  0.00    -0.744 OA
ENDBRANCH  68  69
ENDBRANCH  49  63
BRANCH  50  73
ATOM     73  C   UNL A   1      36.704  33.289  31.019  1.00  0.00    -0.014 A 
ATOM     74  C   UNL A   1      35.380  33.103  31.454  1.00  0.00     0.010 A 
ATOM     75  C   UNL A   1      36.956  34.170  29.953  1.00  0.00     0.010 A 
ATOM     76  C   UNL A   1      34.326  33.771  30.824  1.00  0.00     0.020 A 
ATOM     77  C   UNL A   1      35.907  34.860  29.336  1.00  0.00     0.020 A 
ATOM     78  C   UNL A   1      34.596  34.648  29.770  1.00  0.00     0.054 A 
BRANCH  78  79
ATOM     79  S   UNL A   1      33.220  35.548  29.004  1.00  0.00     0.124 S 
ATOM     80  O   UNL A   1      33.917  36.476  28.120  1.00  0.00    -0.237 OA
ATOM     81  O   UNL A   1      32.474  34.480  28.341  1.00  0.00    -0.237 OA
ATOM     82  O   UNL A   1      32.536  36.159  30.143  1.00  0.00    -0.744 OA
ENDBRANCH  78  79
ENDBRANCH  50  73
BRANCH  62  83
ATOM     83  C   UNL A   1      39.933  34.130  37.144  1.00  0.00    -0.014 A 
ATOM     84  C   UNL A   1      40.689  35.314  37.154  1.00  0.00     0.010 A 
ATOM     85  C   UNL A   1      38.972  33.918  38.149  1.00  0.00     0.010 A 
ATOM     86  C   UNL A   1      40.508  36.257  38.169  1.00  0.00     0.020 A 
ATOM     87  C   UNL A   1      38.770  34.868  39.152  1.00  0.00     0.020 A 
ATOM     88  C   UNL A   1      39.550  36.026  39.164  1.00  0.00     0.054 A 
BRANCH  88  89
ATOM     89  S   UNL A   1      39.300  37.284  40.445  1.00  0.00     0.124 S 
ATOM     90  O   UNL A   1      39.017  36.466  41.622  1.00  0.00    -0.237 OA
ATOM     91  O   UNL A   1      40.581  37.987  40.461  1.00  0.00    -0.237 OA
ATOM     92  O   UNL A   1      38.174  38.068  39.945  1.00  0.00    -0.744 OA
ENDBRANCH  88  89
ENDBRANCH  62  83
ENDBRANCH  36  37
ENDBRANCH  28  31
ENDBRANCH  26  27
ENDBRANCH  25  26
ENDBRANCH   1  25
TORSDOF 17
ENDMDL
