MODEL 1
REMARK VINA RESULT:     -13.0      0.000      0.000
REMARK SMILES O=C(NCCCCNC(=O)c1cc2c(c(S(=O)(=O)Nc3cc(C(F)(F)F)ccc3-n3cccn3)c1)CCC2)c1ccc(-c2c3nc(c(-c4ccc(S(=O)(=O)[O-])cc4)c4ccc([nH]4)c(-c4ccc(S(=O)(=O)[O-])cc4)c4nc(c(-c5ccc(S(=O)(=O)[O-])cc5)c5ccc2[nH]5)C=C4)C=C3)cc1
REMARK SMILES IDX 6 1 5 2 4 3 3 4 1 5 2 6 39 8 40 9 98 10 41 11 97 12 42 13
REMARK SMILES IDX 43 14 44 15 91 16 45 17 96 18 90 19 92 20 46 21 95 22 89 23
REMARK SMILES IDX 88 24 47 26 77 27 58 28 76 29 59 30 62 31 75 32 93 33 60 34
REMARK SMILES IDX 61 35 74 37 94 38 63 39 48 40 49 41 57 42 50 43 56 44 51 45
REMARK SMILES IDX 52 46 53 47 54 48 55 49 78 50 79 51 87 52 80 53 86 54 81 55
REMARK SMILES IDX 82 56 83 57 84 58 85 59 64 60 65 61 73 62 66 63 72 64 67 65
REMARK SMILES IDX 68 66 69 67 70 68 71 69 7 70 8 71 9 72 10 74 11 75 12 76
REMARK SMILES IDX 35 77 13 78 15 79 14 80 38 81 36 82 37 83 16 84 17 85 18 86
REMARK SMILES IDX 19 87 20 89 21 90 29 91 22 92 28 93 27 94 30 95 31 96 34 97
REMARK SMILES IDX 32 98 33 99 23 100 24 101 25 102 26 103
REMARK H PARENT 3 7 92 25 62 36 8 73 19 88
REMARK Flexibility Score: inf
ROOT
ATOM      1  C   UNL A   1      38.893  23.303  26.862  1.00  0.00     0.023 C 
ENDROOT
BRANCH   1   2
ATOM      2  C   UNL A   1      39.261  22.011  26.137  1.00  0.00     0.023 C 
BRANCH   2   3
ATOM      3  C   UNL A   1      40.659  21.457  26.422  1.00  0.00     0.116 C 
BRANCH   3   4
ATOM      4  N   UNL A   1      41.669  21.746  25.422  1.00  0.00    -0.352 N 
ATOM      5  O   UNL A   1      43.439  22.556  24.368  1.00  0.00    -0.269 OA
ATOM      6  C   UNL A   1      42.618  22.724  25.275  1.00  0.00     0.251 C 
ATOM      7  H   UNL A   1      41.674  21.094  24.685  1.00  0.00     0.163 HD
BRANCH   6   8
ATOM      8  C   UNL A   1      42.673  23.978  26.073  1.00  0.00     0.039 A 
ATOM      9  C   UNL A   1      43.422  24.160  27.236  1.00  0.00     0.014 A 
ATOM     10  C   UNL A   1      41.868  25.040  25.622  1.00  0.00     0.014 A 
ATOM     11  C   UNL A   1      43.264  25.304  28.012  1.00  0.00     0.010 A 
ATOM     12  C   UNL A   1      41.744  26.208  26.369  1.00  0.00     0.010 A 
ATOM     13  C   UNL A   1      42.399  26.313  27.596  1.00  0.00    -0.014 A 
BRANCH  13  14
ATOM     14  C   UNL A   1      42.256  27.487  28.457  1.00  0.00     0.031 A 
ATOM     15  C   UNL A   1      43.354  28.499  28.412  1.00  0.00     0.074 A 
ATOM     16  C   UNL A   1      41.118  27.745  29.132  1.00  0.00     0.049 A 
ATOM     17  N   UNL A   1      44.010  29.038  29.391  1.00  0.00    -0.248 NA
ATOM     18  C   UNL A   1      43.798  28.940  27.080  1.00  0.00     0.031 C 
ATOM     19  C   UNL A   1      39.846  27.025  29.029  1.00  0.00     0.029 A 
ATOM     20  N   UNL A   1      40.818  28.806  29.935  1.00  0.00    -0.354 N 
ATOM     21  C   UNL A   1      44.836  30.005  28.817  1.00  0.00     0.074 A 
ATOM     22  C   UNL A   1      44.737  29.833  27.389  1.00  0.00     0.031 C 
ATOM     23  C   UNL A   1      38.861  27.809  29.518  1.00  0.00     0.029 A 
ATOM     24  C   UNL A   1      39.454  29.013  30.077  1.00  0.00     0.049 A 
ATOM     25  H   UNL A   1      41.500  29.367  30.371  1.00  0.00     0.167 HD
ATOM     26  C   UNL A   1      45.429  31.008  29.522  1.00  0.00     0.031 A 
ATOM     27  C   UNL A   1      38.843  30.143  30.508  1.00  0.00     0.031 A 
ATOM     28  C   UNL A   1      45.461  30.767  30.934  1.00  0.00     0.049 A 
ATOM     29  C   UNL A   1      39.835  30.951  31.253  1.00  0.00     0.074 A 
ATOM     30  C   UNL A   1      46.038  29.820  31.755  1.00  0.00     0.029 A 
ATOM     31  N   UNL A   1      44.563  31.446  31.721  1.00  0.00    -0.354 N 
ATOM     32  N   UNL A   1      40.367  30.587  32.386  1.00  0.00    -0.248 NA
ATOM     33  C   UNL A   1      40.529  32.027  30.562  1.00  0.00     0.031 C 
ATOM     34  C   UNL A   1      45.134  29.671  32.847  1.00  0.00     0.029 A 
ATOM     35  C   UNL A   1      44.065  30.542  32.625  1.00  0.00     0.049 A 
ATOM     36  H   UNL A   1      44.323  32.398  31.650  1.00  0.00     0.167 HD
ATOM     37  C   UNL A   1      41.658  31.092  32.358  1.00  0.00     0.074 A 
ATOM     38  C   UNL A   1      41.654  32.073  31.278  1.00  0.00     0.031 C 
ATOM     39  C   UNL A   1      42.676  30.473  33.027  1.00  0.00     0.031 A 
BRANCH  26  40
ATOM     40  C   UNL A   1      45.702  32.371  28.937  1.00  0.00    -0.014 A 
ATOM     41  C   UNL A   1      46.882  33.060  29.280  1.00  0.00     0.010 A 
ATOM     42  C   UNL A   1      44.697  33.106  28.273  1.00  0.00     0.010 A 
ATOM     43  C   UNL A   1      47.028  34.429  29.008  1.00  0.00     0.020 A 
ATOM     44  C   UNL A   1      44.850  34.458  27.959  1.00  0.00     0.020 A 
ATOM     45  C   UNL A   1      46.001  35.121  28.364  1.00  0.00     0.054 A 
BRANCH  45  46
ATOM     46  S   UNL A   1      46.141  36.912  28.131  1.00  0.00     0.124 S 
ATOM     47  O   UNL A   1      45.173  37.151  27.066  1.00  0.00    -0.237 OA
ATOM     48  O   UNL A   1      45.777  37.430  29.447  1.00  0.00    -0.237 OA
ATOM     49  O   UNL A   1      47.542  37.099  27.760  1.00  0.00    -0.744 OA
ENDBRANCH  45  46
ENDBRANCH  26  40
BRANCH  27  50
ATOM     50  C   UNL A   1      37.563  30.689  29.998  1.00  0.00    -0.014 A 
ATOM     51  C   UNL A   1      36.595  31.221  30.867  1.00  0.00     0.010 A 
ATOM     52  C   UNL A   1      37.393  30.904  28.613  1.00  0.00     0.010 A 
ATOM     53  C   UNL A   1      35.515  31.970  30.367  1.00  0.00     0.020 A 
ATOM     54  C   UNL A   1      36.315  31.634  28.108  1.00  0.00     0.020 A 
ATOM     55  C   UNL A   1      35.389  32.181  28.989  1.00  0.00     0.054 A 
BRANCH  55  56
ATOM     56  S   UNL A   1      34.078  33.268  28.362  1.00  0.00     0.124 S 
ATOM     57  O   UNL A   1      34.821  34.185  27.503  1.00  0.00    -0.237 OA
ATOM     58  O   UNL A   1      33.193  32.332  27.672  1.00  0.00    -0.237 OA
ATOM     59  O   UNL A   1      33.518  33.868  29.571  1.00  0.00    -0.744 OA
ENDBRANCH  55  56
ENDBRANCH  27  50
BRANCH  39  60
ATOM     60  C   UNL A   1      42.320  29.397  34.028  1.00  0.00    -0.014 A 
ATOM     61  C   UNL A   1      41.984  28.084  33.639  1.00  0.00     0.010 A 
ATOM     62  C   UNL A   1      42.491  29.666  35.397  1.00  0.00     0.010 A 
ATOM     63  C   UNL A   1      41.803  27.075  34.594  1.00  0.00     0.020 A 
ATOM     64  C   UNL A   1      42.327  28.659  36.355  1.00  0.00     0.020 A 
ATOM     65  C   UNL A   1      41.979  27.369  35.949  1.00  0.00     0.054 A 
BRANCH  65  66
ATOM     66  S   UNL A   1      41.819  26.034  37.168  1.00  0.00     0.124 S 
ATOM     67  O   UNL A   1      42.852  26.369  38.144  1.00  0.00    -0.237 OA
ATOM     68  O   UNL A   1      40.442  26.182  37.633  1.00  0.00    -0.237 OA
ATOM     69  O   UNL A   1      42.073  24.821  36.391  1.00  0.00    -0.744 OA
ENDBRANCH  65  66
ENDBRANCH  39  60
ENDBRANCH  13  14
ENDBRANCH   6   8
ENDBRANCH   3   4
ENDBRANCH   2   3
ENDBRANCH   1   2
BRANCH   1  70
ATOM     70  C   UNL A   1      37.714  24.081  26.293  1.00  0.00     0.116 C 
BRANCH  70  71
ATOM     71  N   UNL A   1      37.339  23.719  24.928  1.00  0.00    -0.352 N 
ATOM     72  C   UNL A   1      36.071  23.676  24.376  1.00  0.00     0.251 C 
ATOM     73  H   UNL A   1      38.080  23.477  24.328  1.00  0.00     0.163 HD
ATOM     74  O   UNL A   1      35.888  23.337  23.212  1.00  0.00    -0.269 OA
BRANCH  72  75
ATOM     75  C   UNL A   1      34.914  24.020  25.237  1.00  0.00     0.041 A 
ATOM     76  C   UNL A   1      33.994  23.016  25.540  1.00  0.00     0.018 A 
ATOM     77  C   UNL A   1      34.664  25.371  25.560  1.00  0.00     0.036 A 
ATOM     78  C   UNL A   1      32.736  23.412  25.935  1.00  0.00    -0.043 A 
ATOM     79  C   UNL A   1      33.395  25.756  26.031  1.00  0.00     0.092 A 
ATOM     80  C   UNL A   1      32.412  24.771  26.102  1.00  0.00    -0.024 A 
ATOM     81  C   UNL A   1      31.524  22.535  26.036  1.00  0.00     0.036 C 
ATOM     82  C   UNL A   1      30.919  24.888  26.147  1.00  0.00     0.037 C 
ATOM     83  C   UNL A   1      30.526  23.504  26.668  1.00  0.00     0.010 C 
BRANCH  79  84
ATOM     84  S   UNL A   1      33.016  27.485  26.234  1.00  0.00     0.262 S 
ATOM     85  O   UNL A   1      31.684  27.585  26.784  1.00  0.00    -0.201 OA
ATOM     86  O   UNL A   1      34.132  28.121  26.912  1.00  0.00    -0.201 OA
BRANCH  84  87
ATOM     87  N   UNL A   1      32.885  28.230  24.697  1.00  0.00    -0.277 N 
ATOM     88  H   UNL A   1      33.697  28.541  24.234  1.00  0.00     0.180 HD
BRANCH  87  89
ATOM     89  C   UNL A   1      31.602  28.406  24.080  1.00  0.00     0.075 A 
ATOM     90  C   UNL A   1      30.893  29.595  24.317  1.00  0.00     0.042 A 
ATOM     91  C   UNL A   1      31.119  27.492  23.129  1.00  0.00     0.089 A 
ATOM     92  C   UNL A   1      29.738  29.910  23.571  1.00  0.00     0.058 A 
ATOM     93  C   UNL A   1      29.954  27.790  22.403  1.00  0.00     0.031 A 
ATOM     94  C   UNL A   1      29.268  28.987  22.628  1.00  0.00     0.015 A 
BRANCH  91  95
ATOM     95  N   UNL A   1      31.808  26.287  22.835  1.00  0.00    -0.239 N 
ATOM     96  C   UNL A   1      33.070  26.134  22.302  1.00  0.00     0.115 A 
ATOM     97  N   UNL A   1      31.206  25.083  23.014  1.00  0.00    -0.177 NA
ATOM     98  C   UNL A   1      33.183  24.822  21.915  1.00  0.00     0.042 A 
ATOM     99  C   UNL A   1      31.989  24.229  22.349  1.00  0.00     0.135 A 
ENDBRANCH  91  95
BRANCH  92 100
ATOM    100  C   UNL A   1      29.065  31.255  23.734  1.00  0.00     0.416 C 
ATOM    101  F   UNL A   1      29.600  31.984  24.750  1.00  0.00    -0.166 F 
ATOM    102  F   UNL A   1      29.164  32.028  22.619  1.00  0.00    -0.166 F 
ATOM    103  F   UNL A   1      27.732  31.162  24.002  1.00  0.00    -0.166 F 
ENDBRANCH  92 100
ENDBRANCH  87  89
ENDBRANCH  84  87
ENDBRANCH  79  84
ENDBRANCH  72  75
ENDBRANCH  70  71
ENDBRANCH   1  70
TORSDOF 19
ENDMDL
MODEL 2
REMARK VINA RESULT:     -12.6      3.776      9.491
REMARK SMILES O=C(NCCCCNC(=O)c1cc2c(c(S(=O)(=O)Nc3cc(C(F)(F)F)ccc3-n3cccn3)c1)CCC2)c1ccc(-c2c3nc(c(-c4ccc(S(=O)(=O)[O-])cc4)c4ccc([nH]4)c(-c4ccc(S(=O)(=O)[O-])cc4)c4nc(c(-c5ccc(S(=O)(=O)[O-])cc5)c5ccc2[nH]5)C=C4)C=C3)cc1
REMARK SMILES IDX 6 1 5 2 4 3 3 4 1 5 2 6 39 8 40 9 98 10 41 11 97 12 42 13
REMARK SMILES IDX 43 14 44 15 91 16 45 17 96 18 90 19 92 20 46 21 95 22 89 23
REMARK SMILES IDX 88 24 47 26 77 27 58 28 76 29 59 30 62 31 75 32 93 33 60 34
REMARK SMILES IDX 61 35 74 37 94 38 63 39 48 40 49 41 57 42 50 43 56 44 51 45
REMARK SMILES IDX 52 46 53 47 54 48 55 49 78 50 79 51 87 52 80 53 86 54 81 55
REMARK SMILES IDX 82 56 83 57 84 58 85 59 64 60 65 61 73 62 66 63 72 64 67 65
REMARK SMILES IDX 68 66 69 67 70 68 71 69 7 70 8 71 9 72 10 74 11 75 12 76
REMARK SMILES IDX 35 77 13 78 15 79 14 80 38 81 36 82 37 83 16 84 17 85 18 86
REMARK SMILES IDX 19 87 20 89 21 90 29 91 22 92 28 93 27 94 30 95 31 96 34 97
REMARK SMILES IDX 32 98 33 99 23 100 24 101 25 102 26 103
REMARK H PARENT 3 7 92 25 62 36 8 73 19 88
REMARK Flexibility Score: inf
ROOT
ATOM      1  C   UNL A   1      33.805  28.458  24.903  1.00  0.00     0.023 C 
ENDROOT
BRANCH   1   2
ATOM      2  C   UNL A   1      32.735  28.334  25.984  1.00  0.00     0.023 C 
BRANCH   2   3
ATOM      3  C   UNL A   1      33.067  28.975  27.333  1.00  0.00     0.116 C 
BRANCH   3   4
ATOM      4  N   UNL A   1      33.160  30.422  27.339  1.00  0.00    -0.352 N 
ATOM      5  O   UNL A   1      33.925  32.499  27.284  1.00  0.00    -0.269 OA
ATOM      6  C   UNL A   1      34.184  31.315  27.521  1.00  0.00     0.251 C 
ATOM      7  H   UNL A   1      32.294  30.862  27.177  1.00  0.00     0.163 HD
BRANCH   6   8
ATOM      8  C   UNL A   1      35.532  30.964  28.044  1.00  0.00     0.039 A 
ATOM      9  C   UNL A   1      36.409  31.852  28.668  1.00  0.00     0.014 A 
ATOM     10  C   UNL A   1      35.950  29.635  27.849  1.00  0.00     0.014 A 
ATOM     11  C   UNL A   1      37.717  31.475  28.954  1.00  0.00     0.010 A 
ATOM     12  C   UNL A   1      37.243  29.239  28.179  1.00  0.00     0.010 A 
ATOM     13  C   UNL A   1      38.145  30.179  28.679  1.00  0.00    -0.014 A 
BRANCH  13  14
ATOM     14  C   UNL A   1      39.534  29.839  28.983  1.00  0.00     0.031 A 
ATOM     15  C   UNL A   1      39.905  29.727  30.426  1.00  0.00     0.074 A 
ATOM     16  C   UNL A   1      40.407  29.470  28.024  1.00  0.00     0.049 A 
ATOM     17  N   UNL A   1      40.894  30.274  31.060  1.00  0.00    -0.248 NA
ATOM     18  C   UNL A   1      39.022  28.916  31.279  1.00  0.00     0.031 C 
ATOM     19  C   UNL A   1      40.115  29.219  26.610  1.00  0.00     0.029 A 
ATOM     20  N   UNL A   1      41.711  29.089  28.150  1.00  0.00    -0.354 N 
ATOM     21  C   UNL A   1      40.859  29.751  32.354  1.00  0.00     0.074 A 
ATOM     22  C   UNL A   1      39.633  29.001  32.460  1.00  0.00     0.031 C 
ATOM     23  C   UNL A   1      41.117  28.485  26.081  1.00  0.00     0.029 A 
ATOM     24  C   UNL A   1      42.164  28.333  27.079  1.00  0.00     0.049 A 
ATOM     25  H   UNL A   1      42.273  29.326  28.923  1.00  0.00     0.167 HD
ATOM     26  C   UNL A   1      41.907  29.812  33.222  1.00  0.00     0.031 A 
ATOM     27  C   UNL A   1      43.260  27.537  27.050  1.00  0.00     0.031 A 
ATOM     28  C   UNL A   1      42.894  30.784  32.855  1.00  0.00     0.049 A 
ATOM     29  C   UNL A   1      44.162  27.951  28.149  1.00  0.00     0.074 A 
ATOM     30  C   UNL A   1      42.910  32.156  32.704  1.00  0.00     0.029 A 
ATOM     31  N   UNL A   1      44.060  30.332  32.288  1.00  0.00    -0.354 N 
ATOM     32  N   UNL A   1      44.773  29.101  28.194  1.00  0.00    -0.248 NA
ATOM     33  C   UNL A   1      44.118  27.225  29.408  1.00  0.00     0.031 C 
ATOM     34  C   UNL A   1      43.844  32.405  31.657  1.00  0.00     0.029 A 
ATOM     35  C   UNL A   1      44.342  31.170  31.239  1.00  0.00     0.049 A 
ATOM     36  H   UNL A   1      44.591  29.556  32.579  1.00  0.00     0.167 HD
ATOM     37  C   UNL A   1      44.834  29.426  29.541  1.00  0.00     0.074 A 
ATOM     38  C   UNL A   1      44.536  28.180  30.240  1.00  0.00     0.031 C 
ATOM     39  C   UNL A   1      44.849  30.727  29.957  1.00  0.00     0.031 A 
BRANCH  26  40
ATOM     40  C   UNL A   1      42.181  28.744  34.251  1.00  0.00    -0.014 A 
ATOM     41  C   UNL A   1      42.622  27.470  33.842  1.00  0.00     0.010 A 
ATOM     42  C   UNL A   1      41.756  28.879  35.590  1.00  0.00     0.010 A 
ATOM     43  C   UNL A   1      42.594  26.376  34.720  1.00  0.00     0.020 A 
ATOM     44  C   UNL A   1      41.766  27.807  36.484  1.00  0.00     0.020 A 
ATOM     45  C   UNL A   1      42.150  26.551  36.032  1.00  0.00     0.054 A 
BRANCH  45  46
ATOM     46  S   UNL A   1      41.996  25.112  37.121  1.00  0.00     0.124 S 
ATOM     47  O   UNL A   1      41.815  24.029  36.159  1.00  0.00    -0.237 OA
ATOM     48  O   UNL A   1      43.270  25.120  37.834  1.00  0.00    -0.237 OA
ATOM     49  O   UNL A   1      40.828  25.427  37.939  1.00  0.00    -0.744 OA
ENDBRANCH  45  46
ENDBRANCH  26  40
BRANCH  27  50
ATOM     50  C   UNL A   1      43.374  26.238  26.346  1.00  0.00    -0.014 A 
ATOM     51  C   UNL A   1      44.399  25.995  25.416  1.00  0.00     0.010 A 
ATOM     52  C   UNL A   1      42.598  25.137  26.772  1.00  0.00     0.010 A 
ATOM     53  C   UNL A   1      44.658  24.692  24.957  1.00  0.00     0.020 A 
ATOM     54  C   UNL A   1      42.840  23.843  26.309  1.00  0.00     0.020 A 
ATOM     55  C   UNL A   1      43.882  23.622  25.416  1.00  0.00     0.054 A 
BRANCH  55  56
ATOM     56  S   UNL A   1      44.314  21.925  24.934  1.00  0.00     0.124 S 
ATOM     57  O   UNL A   1      44.509  22.054  23.493  1.00  0.00    -0.237 OA
ATOM     58  O   UNL A   1      45.521  21.671  25.716  1.00  0.00    -0.237 OA
ATOM     59  O   UNL A   1      43.144  21.145  25.333  1.00  0.00    -0.744 OA
ENDBRANCH  55  56
ENDBRANCH  27  50
BRANCH  39  60
ATOM     60  C   UNL A   1      45.086  31.803  28.921  1.00  0.00    -0.014 A 
ATOM     61  C   UNL A   1      46.360  32.358  28.686  1.00  0.00     0.010 A 
ATOM     62  C   UNL A   1      44.036  32.143  28.050  1.00  0.00     0.010 A 
ATOM     63  C   UNL A   1      46.573  33.246  27.623  1.00  0.00     0.020 A 
ATOM     64  C   UNL A   1      44.246  33.016  26.977  1.00  0.00     0.020 A 
ATOM     65  C   UNL A   1      45.513  33.567  26.771  1.00  0.00     0.054 A 
BRANCH  65  66
ATOM     66  S   UNL A   1      45.822  34.655  25.351  1.00  0.00     0.124 S 
ATOM     67  O   UNL A   1      44.943  34.098  24.327  1.00  0.00    -0.237 OA
ATOM     68  O   UNL A   1      45.439  35.970  25.861  1.00  0.00    -0.237 OA
ATOM     69  O   UNL A   1      47.252  34.493  25.095  1.00  0.00    -0.744 OA
ENDBRANCH  65  66
ENDBRANCH  39  60
ENDBRANCH  13  14
ENDBRANCH   6   8
ENDBRANCH   3   4
ENDBRANCH   2   3
ENDBRANCH   1   2
BRANCH   1  70
ATOM     70  C   UNL A   1      33.605  27.606  23.656  1.00  0.00     0.116 C 
BRANCH  70  71
ATOM     71  N   UNL A   1      32.554  28.072  22.755  1.00  0.00    -0.352 N 
ATOM     72  C   UNL A   1      31.340  27.468  22.478  1.00  0.00     0.251 C 
ATOM     73  H   UNL A   1      32.731  28.920  22.288  1.00  0.00     0.163 HD
ATOM     74  O   UNL A   1      30.546  27.957  21.683  1.00  0.00    -0.269 OA
BRANCH  72  75
ATOM     75  C   UNL A   1      31.024  26.182  23.143  1.00  0.00     0.041 A 
ATOM     76  C   UNL A   1      30.147  26.195  24.228  1.00  0.00     0.018 A 
ATOM     77  C   UNL A   1      31.754  25.023  22.801  1.00  0.00     0.036 A 
ATOM     78  C   UNL A   1      30.204  25.130  25.098  1.00  0.00    -0.043 A 
ATOM     79  C   UNL A   1      31.750  23.911  23.662  1.00  0.00     0.092 A 
ATOM     80  C   UNL A   1      31.054  24.034  24.863  1.00  0.00    -0.024 A 
ATOM     81  C   UNL A   1      29.574  25.064  26.457  1.00  0.00     0.036 C 
ATOM     82  C   UNL A   1      31.175  23.260  26.141  1.00  0.00     0.037 C 
ATOM     83  C   UNL A   1      29.852  23.608  26.826  1.00  0.00     0.010 C 
BRANCH  79  84
ATOM     84  S   UNL A   1      32.837  22.537  23.336  1.00  0.00     0.262 S 
ATOM     85  O   UNL A   1      32.071  21.518  22.658  1.00  0.00    -0.201 OA
ATOM     86  O   UNL A   1      34.055  23.051  22.735  1.00  0.00    -0.201 OA
BRANCH  84  87
ATOM     87  N   UNL A   1      33.290  21.799  24.814  1.00  0.00    -0.277 N 
ATOM     88  H   UNL A   1      33.017  22.207  25.668  1.00  0.00     0.180 HD
BRANCH  87  89
ATOM     89  C   UNL A   1      34.065  20.592  24.817  1.00  0.00     0.075 A 
ATOM     90  C   UNL A   1      33.429  19.377  24.511  1.00  0.00     0.042 A 
ATOM     91  C   UNL A   1      35.461  20.622  24.963  1.00  0.00     0.089 A 
ATOM     92  C   UNL A   1      34.180  18.203  24.289  1.00  0.00     0.058 A 
ATOM     93  C   UNL A   1      36.210  19.449  24.769  1.00  0.00     0.031 A 
ATOM     94  C   UNL A   1      35.572  18.250  24.440  1.00  0.00     0.015 A 
BRANCH  91  95
ATOM     95  N   UNL A   1      36.155  21.827  25.249  1.00  0.00    -0.239 N 
ATOM     96  C   UNL A   1      37.417  22.203  24.844  1.00  0.00     0.115 A 
ATOM     97  N   UNL A   1      35.607  22.764  26.067  1.00  0.00    -0.177 NA
ATOM     98  C   UNL A   1      37.775  23.288  25.604  1.00  0.00     0.042 A 
ATOM     99  C   UNL A   1      36.631  23.569  26.365  1.00  0.00     0.135 A 
ENDBRANCH  91  95
BRANCH  92 100
ATOM    100  C   UNL A   1      33.499  16.937  23.821  1.00  0.00     0.416 C 
ATOM    101  F   UNL A   1      34.355  16.091  23.186  1.00  0.00    -0.166 F 
ATOM    102  F   UNL A   1      32.954  16.226  24.845  1.00  0.00    -0.166 F 
ATOM    103  F   UNL A   1      32.480  17.164  22.945  1.00  0.00    -0.166 F 
ENDBRANCH  92 100
ENDBRANCH  87  89
ENDBRANCH  84  87
ENDBRANCH  79  84
ENDBRANCH  72  75
ENDBRANCH  70  71
ENDBRANCH   1  70
TORSDOF 19
ENDMDL
MODEL 3
REMARK VINA RESULT:     -11.8      3.705      9.413
REMARK SMILES O=C(NCCCCNC(=O)c1cc2c(c(S(=O)(=O)Nc3cc(C(F)(F)F)ccc3-n3cccn3)c1)CCC2)c1ccc(-c2c3nc(c(-c4ccc(S(=O)(=O)[O-])cc4)c4ccc([nH]4)c(-c4ccc(S(=O)(=O)[O-])cc4)c4nc(c(-c5ccc(S(=O)(=O)[O-])cc5)c5ccc2[nH]5)C=C4)C=C3)cc1
REMARK SMILES IDX 6 1 5 2 4 3 3 4 1 5 2 6 39 8 40 9 98 10 41 11 97 12 42 13
REMARK SMILES IDX 43 14 44 15 91 16 45 17 96 18 90 19 92 20 46 21 95 22 89 23
REMARK SMILES IDX 88 24 47 26 77 27 58 28 76 29 59 30 62 31 75 32 93 33 60 34
REMARK SMILES IDX 61 35 74 37 94 38 63 39 48 40 49 41 57 42 50 43 56 44 51 45
REMARK SMILES IDX 52 46 53 47 54 48 55 49 78 50 79 51 87 52 80 53 86 54 81 55
REMARK SMILES IDX 82 56 83 57 84 58 85 59 64 60 65 61 73 62 66 63 72 64 67 65
REMARK SMILES IDX 68 66 69 67 70 68 71 69 7 70 8 71 9 72 10 74 11 75 12 76
REMARK SMILES IDX 35 77 13 78 15 79 14 80 38 81 36 82 37 83 16 84 17 85 18 86
REMARK SMILES IDX 19 87 20 89 21 90 29 91 22 92 28 93 27 94 30 95 31 96 34 97
REMARK SMILES IDX 32 98 33 99 23 100 24 101 25 102 26 103
REMARK H PARENT 3 7 92 25 62 36 8 73 19 88
REMARK Flexibility Score: inf
ROOT
ATOM      1  C   UNL A   1      32.487  28.851  25.017  1.00  0.00     0.023 C 
ENDROOT
BRANCH   1   2
ATOM      2  C   UNL A   1      32.656  27.965  26.248  1.00  0.00     0.023 C 
BRANCH   2   3
ATOM      3  C   UNL A   1      33.324  28.619  27.459  1.00  0.00     0.116 C 
BRANCH   3   4
ATOM      4  N   UNL A   1      33.427  30.065  27.419  1.00  0.00    -0.352 N 
ATOM      5  O   UNL A   1      34.206  32.133  27.289  1.00  0.00    -0.269 OA
ATOM      6  C   UNL A   1      34.459  30.955  27.561  1.00  0.00     0.251 C 
ATOM      7  H   UNL A   1      32.562  30.506  27.253  1.00  0.00     0.163 HD
BRANCH   6   8
ATOM      8  C   UNL A   1      35.810  30.611  28.079  1.00  0.00     0.039 A 
ATOM      9  C   UNL A   1      36.660  31.487  28.756  1.00  0.00     0.014 A 
ATOM     10  C   UNL A   1      36.263  29.304  27.822  1.00  0.00     0.014 A 
ATOM     11  C   UNL A   1      37.974  31.127  29.036  1.00  0.00     0.010 A 
ATOM     12  C   UNL A   1      37.561  28.922  28.146  1.00  0.00     0.010 A 
ATOM     13  C   UNL A   1      38.436  29.856  28.700  1.00  0.00    -0.014 A 
BRANCH  13  14
ATOM     14  C   UNL A   1      39.830  29.535  29.001  1.00  0.00     0.031 A 
ATOM     15  C   UNL A   1      40.205  29.423  30.444  1.00  0.00     0.074 A 
ATOM     16  C   UNL A   1      40.707  29.182  28.040  1.00  0.00     0.049 A 
ATOM     17  N   UNL A   1      41.187  29.980  31.079  1.00  0.00    -0.248 NA
ATOM     18  C   UNL A   1      39.334  28.596  31.295  1.00  0.00     0.031 C 
ATOM     19  C   UNL A   1      40.416  28.933  26.625  1.00  0.00     0.029 A 
ATOM     20  N   UNL A   1      42.016  28.819  28.163  1.00  0.00    -0.354 N 
ATOM     21  C   UNL A   1      41.161  29.452  32.370  1.00  0.00     0.074 A 
ATOM     22  C   UNL A   1      39.945  28.684  32.475  1.00  0.00     0.031 C 
ATOM     23  C   UNL A   1      41.428  28.215  26.092  1.00  0.00     0.029 A 
ATOM     24  C   UNL A   1      42.478  28.074  27.088  1.00  0.00     0.049 A 
ATOM     25  H   UNL A   1      42.576  29.061  28.935  1.00  0.00     0.167 HD
ATOM     26  C   UNL A   1      42.209  29.524  33.237  1.00  0.00     0.031 A 
ATOM     27  C   UNL A   1      43.585  27.294  27.054  1.00  0.00     0.031 A 
ATOM     28  C   UNL A   1      43.182  30.511  32.873  1.00  0.00     0.049 A 
ATOM     29  C   UNL A   1      44.483  27.716  28.153  1.00  0.00     0.074 A 
ATOM     30  C   UNL A   1      43.179  31.884  32.728  1.00  0.00     0.029 A 
ATOM     31  N   UNL A   1      44.353  30.078  32.302  1.00  0.00    -0.354 N 
ATOM     32  N   UNL A   1      45.078  28.874  28.202  1.00  0.00    -0.248 NA
ATOM     33  C   UNL A   1      44.451  26.983  29.409  1.00  0.00     0.031 C 
ATOM     34  C   UNL A   1      44.108  32.151  31.680  1.00  0.00     0.029 A 
ATOM     35  C   UNL A   1      44.622  30.924  31.256  1.00  0.00     0.049 A 
ATOM     36  H   UNL A   1      44.895  29.308  32.590  1.00  0.00     0.167 HD
ATOM     37  C   UNL A   1      45.137  29.194  29.551  1.00  0.00     0.074 A 
ATOM     38  C   UNL A   1      44.857  27.941  30.245  1.00  0.00     0.031 C 
ATOM     39  C   UNL A   1      45.133  30.493  29.972  1.00  0.00     0.031 A 
BRANCH  26  40
ATOM     40  C   UNL A   1      42.500  28.456  34.262  1.00  0.00    -0.014 A 
ATOM     41  C   UNL A   1      42.752  28.816  35.601  1.00  0.00     0.010 A 
ATOM     42  C   UNL A   1      42.799  27.130  33.883  1.00  0.00     0.010 A 
ATOM     43  C   UNL A   1      43.317  27.902  36.502  1.00  0.00     0.020 A 
ATOM     44  C   UNL A   1      43.322  26.200  34.785  1.00  0.00     0.020 A 
ATOM     45  C   UNL A   1      43.614  26.604  36.081  1.00  0.00     0.054 A 
BRANCH  45  46
ATOM     46  S   UNL A   1      44.461  25.471  37.212  1.00  0.00     0.124 S 
ATOM     47  O   UNL A   1      44.235  24.181  36.566  1.00  0.00    -0.237 OA
ATOM     48  O   UNL A   1      45.835  25.963  37.181  1.00  0.00    -0.237 OA
ATOM     49  O   UNL A   1      43.762  25.669  38.480  1.00  0.00    -0.744 OA
ENDBRANCH  45  46
ENDBRANCH  26  40
BRANCH  27  50
ATOM     50  C   UNL A   1      43.716  25.999  26.344  1.00  0.00    -0.014 A 
ATOM     51  C   UNL A   1      44.775  25.755  25.453  1.00  0.00     0.010 A 
ATOM     52  C   UNL A   1      42.916  24.902  26.731  1.00  0.00     0.010 A 
ATOM     53  C   UNL A   1      45.041  24.453  24.993  1.00  0.00     0.020 A 
ATOM     54  C   UNL A   1      43.166  23.608  26.268  1.00  0.00     0.020 A 
ATOM     55  C   UNL A   1      44.240  23.386  25.414  1.00  0.00     0.054 A 
BRANCH  55  56
ATOM     56  S   UNL A   1      44.677  21.690  24.935  1.00  0.00     0.124 S 
ATOM     57  O   UNL A   1      46.080  21.609  25.330  1.00  0.00    -0.237 OA
ATOM     58  O   UNL A   1      43.749  20.888  25.728  1.00  0.00    -0.237 OA
ATOM     59  O   UNL A   1      44.437  21.666  23.493  1.00  0.00    -0.744 OA
ENDBRANCH  55  56
ENDBRANCH  27  50
BRANCH  39  60
ATOM     60  C   UNL A   1      45.354  31.577  28.940  1.00  0.00    -0.014 A 
ATOM     61  C   UNL A   1      44.303  32.113  28.170  1.00  0.00     0.010 A 
ATOM     62  C   UNL A   1      46.618  32.188  28.865  1.00  0.00     0.010 A 
ATOM     63  C   UNL A   1      44.514  33.215  27.330  1.00  0.00     0.020 A 
ATOM     64  C   UNL A   1      46.832  33.298  28.040  1.00  0.00     0.020 A 
ATOM     65  C   UNL A   1      45.780  33.804  27.273  1.00  0.00     0.054 A 
BRANCH  65  66
ATOM     66  S   UNL A   1      46.021  35.278  26.243  1.00  0.00     0.124 S 
ATOM     67  O   UNL A   1      44.826  36.066  26.531  1.00  0.00    -0.237 OA
ATOM     68  O   UNL A   1      47.275  35.828  26.752  1.00  0.00    -0.237 OA
ATOM     69  O   UNL A   1      46.097  34.743  24.884  1.00  0.00    -0.744 OA
ENDBRANCH  65  66
ENDBRANCH  39  60
ENDBRANCH  13  14
ENDBRANCH   6   8
ENDBRANCH   3   4
ENDBRANCH   2   3
ENDBRANCH   1   2
BRANCH   1  70
ATOM     70  C   UNL A   1      33.196  28.388  23.751  1.00  0.00     0.116 C 
BRANCH  70  71
ATOM     71  N   UNL A   1      32.314  28.111  22.619  1.00  0.00    -0.352 N 
ATOM     72  C   UNL A   1      31.686  26.920  22.300  1.00  0.00     0.251 C 
ATOM     73  H   UNL A   1      32.147  28.865  22.009  1.00  0.00     0.163 HD
ATOM     74  O   UNL A   1      30.979  26.814  21.305  1.00  0.00    -0.269 OA
BRANCH  72  75
ATOM     75  C   UNL A   1      31.911  25.747  23.177  1.00  0.00     0.041 A 
ATOM     76  C   UNL A   1      30.877  25.345  24.023  1.00  0.00     0.018 A 
ATOM     77  C   UNL A   1      33.206  25.195  23.283  1.00  0.00     0.036 A 
ATOM     78  C   UNL A   1      31.218  24.583  25.118  1.00  0.00    -0.043 A 
ATOM     79  C   UNL A   1      33.525  24.359  24.368  1.00  0.00     0.092 A 
ATOM     80  C   UNL A   1      32.542  24.160  25.335  1.00  0.00    -0.024 A 
ATOM     81  C   UNL A   1      30.338  24.281  26.294  1.00  0.00     0.036 C 
ATOM     82  C   UNL A   1      32.655  23.706  26.758  1.00  0.00     0.037 C 
ATOM     83  C   UNL A   1      31.213  23.286  27.053  1.00  0.00     0.010 C 
BRANCH  79  84
ATOM     84  S   UNL A   1      35.211  23.838  24.614  1.00  0.00     0.262 S 
ATOM     85  O   UNL A   1      35.745  23.446  23.331  1.00  0.00    -0.201 OA
ATOM     86  O   UNL A   1      35.891  24.848  25.406  1.00  0.00    -0.201 OA
BRANCH  84  87
ATOM     87  N   UNL A   1      35.239  22.392  25.532  1.00  0.00    -0.277 N 
ATOM     88  H   UNL A   1      34.547  22.232  26.214  1.00  0.00     0.180 HD
BRANCH  87  89
ATOM     89  C   UNL A   1      36.264  21.412  25.316  1.00  0.00     0.075 A 
ATOM     90  C   UNL A   1      37.593  21.739  25.632  1.00  0.00     0.042 A 
ATOM     91  C   UNL A   1      35.947  20.093  24.949  1.00  0.00     0.089 A 
ATOM     92  C   UNL A   1      38.599  20.751  25.644  1.00  0.00     0.058 A 
ATOM     93  C   UNL A   1      36.951  19.111  24.935  1.00  0.00     0.031 A 
ATOM     94  C   UNL A   1      38.266  19.441  25.274  1.00  0.00     0.015 A 
BRANCH  91  95
ATOM     95  N   UNL A   1      34.617  19.704  24.644  1.00  0.00    -0.239 N 
ATOM     96  C   UNL A   1      34.142  18.444  24.349  1.00  0.00     0.115 A 
ATOM     97  N   UNL A   1      33.628  20.631  24.550  1.00  0.00    -0.177 NA
ATOM     98  C   UNL A   1      32.882  18.604  23.828  1.00  0.00     0.042 A 
ATOM     99  C   UNL A   1      32.631  19.979  23.946  1.00  0.00     0.135 A 
ENDBRANCH  91  95
BRANCH  92 100
ATOM    100  C   UNL A   1      39.994  21.084  26.122  1.00  0.00     0.416 C 
ATOM    101  F   UNL A   1      40.561  22.095  25.409  1.00  0.00    -0.166 F 
ATOM    102  F   UNL A   1      40.021  21.477  27.425  1.00  0.00    -0.166 F 
ATOM    103  F   UNL A   1      40.859  20.035  26.036  1.00  0.00    -0.166 F 
ENDBRANCH  92 100
ENDBRANCH  87  89
ENDBRANCH  84  87
ENDBRANCH  79  84
ENDBRANCH  72  75
ENDBRANCH  70  71
ENDBRANCH   1  70
TORSDOF 19
ENDMDL
