MODEL 1
REMARK VINA RESULT:     -10.4      0.000      0.000
REMARK SMILES Nc1ccc2c(c1)C(=O)N(CCC(=O)NCCCCNC(=O)c1ccc(-c3c4nc(c(-c5ccc(S(=O)(=O)[O-])cc5)c5ccc([nH]5)c(-c5ccc(S(=O)(=O)[O-])cc5)c5nc(c(-c6ccc(S(=O)(=O)[O-])cc6)c6ccc3[nH]6)C=C5)C=C4)cc1)C2
REMARK SMILES IDX 17 1 16 2 15 3 13 4 14 5 12 7 11 8 10 9 2 10 3 11 7 12 4 13
REMARK SMILES IDX 6 14 5 15 8 16 83 17 9 18 1 19 18 22 19 23 20 24 21 25 22 27
REMARK SMILES IDX 23 28 24 29 82 30 25 31 81 32 26 33 27 34 28 35 75 36 29 37
REMARK SMILES IDX 80 38 74 39 76 40 30 41 79 42 73 43 72 44 31 46 61 47 42 48
REMARK SMILES IDX 60 49 43 50 46 51 59 52 77 53 44 54 45 55 58 57 78 58 47 59
REMARK SMILES IDX 32 60 33 61 41 62 34 63 40 64 35 65 36 66 37 67 38 68 39 69
REMARK SMILES IDX 62 70 63 71 71 72 64 73 70 74 65 75 66 76 67 77 68 78 69 79
REMARK SMILES IDX 48 80 49 81 57 82 50 83 56 84 51 85 52 86 53 87 54 88 55 89
REMARK H PARENT 15 6 1 20 1 21 20 26 76 45 46 56
REMARK Flexibility Score: inf
ROOT
ATOM      1  C   UNL A   1      32.837  29.315  24.900  1.00  0.00     0.023 C 
ENDROOT
BRANCH   1   2
ATOM      2  C   UNL A   1      31.823  28.659  23.976  1.00  0.00     0.116 C 
BRANCH   2   3
ATOM      3  N   UNL A   1      30.963  27.773  24.734  1.00  0.00    -0.356 N 
ATOM      4  C   UNL A   1      30.522  26.528  24.406  1.00  0.00     0.221 C 
ATOM      5  O   UNL A   1      29.621  26.029  25.081  1.00  0.00    -0.275 OA
ATOM      6  H   UNL A   1      30.657  28.120  25.603  1.00  0.00     0.163 HD
BRANCH   4   7
ATOM      7  C   UNL A   1      31.151  25.760  23.261  1.00  0.00     0.121 C 
BRANCH   7   8
ATOM      8  C   UNL A   1      31.167  24.247  23.487  1.00  0.00     0.130 C 
BRANCH   8   9
ATOM      9  N   UNL A   1      32.465  23.724  23.887  1.00  0.00    -0.334 N 
ATOM     10  C   UNL A   1      36.700  23.318  25.636  1.00  0.00     0.032 A 
ATOM     11  C   UNL A   1      36.990  23.149  24.267  1.00  0.00     0.026 A 
ATOM     12  C   UNL A   1      35.372  23.445  26.048  1.00  0.00     0.039 A 
ATOM     13  C   UNL A   1      35.973  23.002  23.312  1.00  0.00     0.008 A 
ATOM     14  C   UNL A   1      34.388  23.378  25.078  1.00  0.00     0.047 A 
ATOM     15  C   UNL A   1      34.662  23.111  23.735  1.00  0.00    -0.016 A 
ATOM     16  C   UNL A   1      32.970  23.758  25.178  1.00  0.00     0.254 C 
ATOM     17  C   UNL A   1      33.386  23.092  22.958  1.00  0.00     0.156 C 
ATOM     18  O   UNL A   1      32.409  24.122  26.197  1.00  0.00    -0.269 OA
BRANCH  10  19
ATOM     19  N   UNL A   1      37.733  23.416  26.553  1.00  0.00    -0.399 N 
ATOM     20  H   UNL A   1      37.742  24.152  27.207  1.00  0.00     0.156 HD
ATOM     21  H   UNL A   1      38.456  22.749  26.552  1.00  0.00     0.156 HD
ENDBRANCH  10  19
ENDBRANCH   8   9
ENDBRANCH   7   8
ENDBRANCH   4   7
ENDBRANCH   2   3
ENDBRANCH   1   2
BRANCH   1  22
ATOM     22  C   UNL A   1      33.648  28.376  25.766  1.00  0.00     0.023 C 
BRANCH  22  23
ATOM     23  C   UNL A   1      33.364  28.558  27.242  1.00  0.00     0.116 C 
BRANCH  23  24
ATOM     24  N   UNL A   1      33.452  29.957  27.680  1.00  0.00    -0.352 N 
ATOM     25  C   UNL A   1      34.494  30.676  28.228  1.00  0.00     0.251 C 
ATOM     26  H   UNL A   1      32.622  30.472  27.561  1.00  0.00     0.163 HD
ATOM     27  O   UNL A   1      34.298  31.799  28.684  1.00  0.00    -0.269 OA
BRANCH  25  28
ATOM     28  C   UNL A   1      35.836  30.066  28.311  1.00  0.00     0.039 A 
ATOM     29  C   UNL A   1      36.234  29.466  29.494  1.00  0.00     0.014 A 
ATOM     30  C   UNL A   1      36.737  30.161  27.247  1.00  0.00     0.014 A 
ATOM     31  C   UNL A   1      37.580  29.315  29.747  1.00  0.00     0.010 A 
ATOM     32  C   UNL A   1      38.067  29.762  27.432  1.00  0.00     0.010 A 
ATOM     33  C   UNL A   1      38.520  29.403  28.709  1.00  0.00    -0.014 A 
BRANCH  33  34
ATOM     34  C   UNL A   1      39.932  29.051  29.028  1.00  0.00     0.031 A 
ATOM     35  C   UNL A   1      40.774  29.900  29.941  1.00  0.00     0.074 A 
ATOM     36  C   UNL A   1      40.401  27.869  28.571  1.00  0.00     0.049 A 
ATOM     37  N   UNL A   1      41.978  29.658  30.395  1.00  0.00    -0.248 NA
ATOM     38  C   UNL A   1      40.219  31.187  30.392  1.00  0.00     0.031 C 
ATOM     39  C   UNL A   1      39.664  26.965  27.679  1.00  0.00     0.029 A 
ATOM     40  N   UNL A   1      41.552  27.176  28.849  1.00  0.00    -0.354 N 
ATOM     41  C   UNL A   1      42.331  30.766  31.157  1.00  0.00     0.074 A 
ATOM     42  C   UNL A   1      41.233  31.701  31.075  1.00  0.00     0.031 C 
ATOM     43  C   UNL A   1      40.296  25.790  27.617  1.00  0.00     0.029 A 
ATOM     44  C   UNL A   1      41.560  25.900  28.331  1.00  0.00     0.049 A 
ATOM     45  H   UNL A   1      42.299  27.554  29.368  1.00  0.00     0.167 HD
ATOM     46  C   UNL A   1      43.466  30.972  31.869  1.00  0.00     0.031 A 
ATOM     47  C   UNL A   1      42.481  24.920  28.400  1.00  0.00     0.031 A 
ATOM     48  C   UNL A   1      44.540  30.013  31.953  1.00  0.00     0.049 A 
ATOM     49  C   UNL A   1      43.738  25.187  29.167  1.00  0.00     0.074 A 
ATOM     50  C   UNL A   1      45.728  30.118  32.655  1.00  0.00     0.029 A 
ATOM     51  N   UNL A   1      44.557  28.773  31.328  1.00  0.00    -0.354 N 
ATOM     52  N   UNL A   1      44.051  26.243  29.881  1.00  0.00    -0.248 NA
ATOM     53  C   UNL A   1      44.771  24.148  29.130  1.00  0.00     0.031 C 
ATOM     54  C   UNL A   1      46.495  28.982  32.389  1.00  0.00     0.029 A 
ATOM     55  C   UNL A   1      45.751  28.123  31.596  1.00  0.00     0.049 A 
ATOM     56  H   UNL A   1      43.828  28.410  30.775  1.00  0.00     0.167 HD
ATOM     57  C   UNL A   1      45.326  26.001  30.373  1.00  0.00     0.074 A 
ATOM     58  C   UNL A   1      45.701  24.676  29.917  1.00  0.00     0.031 C 
ATOM     59  C   UNL A   1      46.119  26.811  31.116  1.00  0.00     0.031 A 
BRANCH  46  60
ATOM     60  C   UNL A   1      43.622  32.277  32.615  1.00  0.00    -0.014 A 
ATOM     61  C   UNL A   1      43.117  32.400  33.924  1.00  0.00     0.010 A 
ATOM     62  C   UNL A   1      44.161  33.416  31.990  1.00  0.00     0.010 A 
ATOM     63  C   UNL A   1      43.114  33.636  34.578  1.00  0.00     0.020 A 
ATOM     64  C   UNL A   1      44.194  34.648  32.653  1.00  0.00     0.020 A 
ATOM     65  C   UNL A   1      43.645  34.755  33.934  1.00  0.00     0.054 A 
BRANCH  65  66
ATOM     66  S   UNL A   1      43.599  36.358  34.783  1.00  0.00     0.124 S 
ATOM     67  O   UNL A   1      42.972  36.015  36.056  1.00  0.00    -0.237 OA
ATOM     68  O   UNL A   1      45.012  36.722  34.851  1.00  0.00    -0.237 OA
ATOM     69  O   UNL A   1      42.793  37.194  33.895  1.00  0.00    -0.744 OA
ENDBRANCH  65  66
ENDBRANCH  46  60
BRANCH  47  70
ATOM     70  C   UNL A   1      42.211  23.618  27.725  1.00  0.00    -0.014 A 
ATOM     71  C   UNL A   1      41.492  22.606  28.393  1.00  0.00     0.010 A 
ATOM     72  C   UNL A   1      42.774  23.333  26.470  1.00  0.00     0.010 A 
ATOM     73  C   UNL A   1      41.426  21.313  27.870  1.00  0.00     0.020 A 
ATOM     74  C   UNL A   1      42.668  22.050  25.918  1.00  0.00     0.020 A 
ATOM     75  C   UNL A   1      42.032  21.039  26.642  1.00  0.00     0.054 A 
BRANCH  75  76
ATOM     76  S   UNL A   1      42.007  19.334  26.027  1.00  0.00     0.124 S 
ATOM     77  O   UNL A   1      42.551  18.599  27.166  1.00  0.00    -0.237 OA
ATOM     78  O   UNL A   1      40.590  19.114  25.755  1.00  0.00    -0.237 OA
ATOM     79  O   UNL A   1      42.867  19.383  24.847  1.00  0.00    -0.744 OA
ENDBRANCH  75  76
ENDBRANCH  47  70
BRANCH  59  80
ATOM     80  C   UNL A   1      47.495  26.304  31.462  1.00  0.00    -0.014 A 
ATOM     81  C   UNL A   1      47.722  25.666  32.695  1.00  0.00     0.010 A 
ATOM     82  C   UNL A   1      48.585  26.549  30.607  1.00  0.00     0.010 A 
ATOM     83  C   UNL A   1      49.017  25.314  33.082  1.00  0.00     0.020 A 
ATOM     84  C   UNL A   1      49.875  26.159  30.972  1.00  0.00     0.020 A 
ATOM     85  C   UNL A   1      50.086  25.569  32.220  1.00  0.00     0.054 A 
BRANCH  85  86
ATOM     86  S   UNL A   1      51.760  25.120  32.749  1.00  0.00     0.124 S 
ATOM     87  O   UNL A   1      51.827  23.707  32.388  1.00  0.00    -0.237 OA
ATOM     88  O   UNL A   1      52.598  26.015  31.954  1.00  0.00    -0.237 OA
ATOM     89  O   UNL A   1      51.753  25.398  34.185  1.00  0.00    -0.744 OA
ENDBRANCH  85  86
ENDBRANCH  59  80
ENDBRANCH  33  34
ENDBRANCH  25  28
ENDBRANCH  23  24
ENDBRANCH  22  23
ENDBRANCH   1  22
TORSDOF 17
ENDMDL
MODEL 2
REMARK VINA RESULT:     -10.4      1.733      8.531
REMARK SMILES Nc1ccc2c(c1)C(=O)N(CCC(=O)NCCCCNC(=O)c1ccc(-c3c4nc(c(-c5ccc(S(=O)(=O)[O-])cc5)c5ccc([nH]5)c(-c5ccc(S(=O)(=O)[O-])cc5)c5nc(c(-c6ccc(S(=O)(=O)[O-])cc6)c6ccc3[nH]6)C=C5)C=C4)cc1)C2
REMARK SMILES IDX 17 1 16 2 15 3 13 4 14 5 12 7 11 8 10 9 2 10 3 11 7 12 4 13
REMARK SMILES IDX 6 14 5 15 8 16 83 17 9 18 1 19 18 22 19 23 20 24 21 25 22 27
REMARK SMILES IDX 23 28 24 29 82 30 25 31 81 32 26 33 27 34 28 35 75 36 29 37
REMARK SMILES IDX 80 38 74 39 76 40 30 41 79 42 73 43 72 44 31 46 61 47 42 48
REMARK SMILES IDX 60 49 43 50 46 51 59 52 77 53 44 54 45 55 58 57 78 58 47 59
REMARK SMILES IDX 32 60 33 61 41 62 34 63 40 64 35 65 36 66 37 67 38 68 39 69
REMARK SMILES IDX 62 70 63 71 71 72 64 73 70 74 65 75 66 76 67 77 68 78 69 79
REMARK SMILES IDX 48 80 49 81 57 82 50 83 56 84 51 85 52 86 53 87 54 88 55 89
REMARK H PARENT 15 6 1 20 1 21 20 26 76 45 46 56
REMARK Flexibility Score: inf
ROOT
ATOM      1  C   UNL A   1      33.598  28.382  24.560  1.00  0.00     0.023 C 
ENDROOT
BRANCH   1   2
ATOM      2  C   UNL A   1      33.191  28.762  23.145  1.00  0.00     0.116 C 
BRANCH   2   3
ATOM      3  N   UNL A   1      31.936  29.485  23.169  1.00  0.00    -0.356 N 
ATOM      4  C   UNL A   1      30.681  29.023  22.915  1.00  0.00     0.221 C 
ATOM      5  O   UNL A   1      29.772  29.841  22.770  1.00  0.00    -0.275 OA
ATOM      6  H   UNL A   1      32.000  30.440  23.401  1.00  0.00     0.163 HD
BRANCH   4   7
ATOM      7  C   UNL A   1      30.403  27.534  22.850  1.00  0.00     0.121 C 
BRANCH   7   8
ATOM      8  C   UNL A   1      30.192  26.900  24.226  1.00  0.00     0.130 C 
BRANCH   8   9
ATOM      9  N   UNL A   1      30.424  25.463  24.256  1.00  0.00    -0.334 N 
ATOM     10  C   UNL A   1      32.155  21.302  25.171  1.00  0.00     0.032 A 
ATOM     11  C   UNL A   1      32.425  21.374  23.789  1.00  0.00     0.026 A 
ATOM     12  C   UNL A   1      31.440  22.330  25.787  1.00  0.00     0.039 A 
ATOM     13  C   UNL A   1      31.908  22.405  22.991  1.00  0.00     0.008 A 
ATOM     14  C   UNL A   1      31.008  23.379  24.995  1.00  0.00     0.047 A 
ATOM     15  C   UNL A   1      31.186  23.408  23.611  1.00  0.00    -0.016 A 
ATOM     16  C   UNL A   1      30.503  24.698  25.408  1.00  0.00     0.254 C 
ATOM     17  C   UNL A   1      30.595  24.663  23.056  1.00  0.00     0.156 C 
ATOM     18  O   UNL A   1      30.301  25.044  26.559  1.00  0.00    -0.269 OA
BRANCH  10  19
ATOM     19  N   UNL A   1      32.648  20.244  25.916  1.00  0.00    -0.399 N 
ATOM     20  H   UNL A   1      33.589  19.970  25.819  1.00  0.00     0.156 HD
ATOM     21  H   UNL A   1      32.059  19.767  26.544  1.00  0.00     0.156 HD
ENDBRANCH  10  19
ENDBRANCH   8   9
ENDBRANCH   7   8
ENDBRANCH   4   7
ENDBRANCH   2   3
ENDBRANCH   1   2
BRANCH   1  22
ATOM     22  C   UNL A   1      33.109  29.300  25.659  1.00  0.00     0.023 C 
BRANCH  22  23
ATOM     23  C   UNL A   1      33.869  29.110  26.954  1.00  0.00     0.116 C 
BRANCH  23  24
ATOM     24  N   UNL A   1      33.951  30.332  27.763  1.00  0.00    -0.352 N 
ATOM     25  C   UNL A   1      34.943  30.811  28.592  1.00  0.00     0.251 C 
ATOM     26  H   UNL A   1      33.157  30.911  27.702  1.00  0.00     0.163 HD
ATOM     27  O   UNL A   1      34.730  31.783  29.313  1.00  0.00    -0.269 OA
BRANCH  25  28
ATOM     28  C   UNL A   1      36.246  30.119  28.646  1.00  0.00     0.039 A 
ATOM     29  C   UNL A   1      36.601  29.437  29.798  1.00  0.00     0.014 A 
ATOM     30  C   UNL A   1      37.155  30.213  27.589  1.00  0.00     0.014 A 
ATOM     31  C   UNL A   1      37.935  29.193  30.045  1.00  0.00     0.010 A 
ATOM     32  C   UNL A   1      38.458  29.726  27.756  1.00  0.00     0.010 A 
ATOM     33  C   UNL A   1      38.883  29.276  29.014  1.00  0.00    -0.014 A 
BRANCH  33  34
ATOM     34  C   UNL A   1      40.269  28.824  29.317  1.00  0.00     0.031 A 
ATOM     35  C   UNL A   1      40.794  27.497  28.838  1.00  0.00     0.074 A 
ATOM     36  C   UNL A   1      41.093  29.701  29.932  1.00  0.00     0.049 A 
ATOM     37  N   UNL A   1      42.011  27.023  28.931  1.00  0.00    -0.248 NA
ATOM     38  C   UNL A   1      39.847  26.574  28.191  1.00  0.00     0.031 C 
ATOM     39  C   UNL A   1      40.686  31.018  30.436  1.00  0.00     0.029 A 
ATOM     40  N   UNL A   1      42.445  29.673  30.164  1.00  0.00    -0.354 N 
ATOM     41  C   UNL A   1      41.969  25.746  28.383  1.00  0.00     0.074 A 
ATOM     42  C   UNL A   1      40.599  25.499  27.994  1.00  0.00     0.031 C 
ATOM     43  C   UNL A   1      41.772  31.725  30.761  1.00  0.00     0.029 A 
ATOM     44  C   UNL A   1      42.941  30.865  30.642  1.00  0.00     0.049 A 
ATOM     45  H   UNL A   1      43.005  28.878  30.005  1.00  0.00     0.167 HD
ATOM     46  C   UNL A   1      42.987  24.868  28.211  1.00  0.00     0.031 A 
ATOM     47  C   UNL A   1      44.193  31.238  30.968  1.00  0.00     0.031 A 
ATOM     48  C   UNL A   1      44.352  25.146  28.588  1.00  0.00     0.049 A 
ATOM     49  C   UNL A   1      45.293  30.238  30.798  1.00  0.00     0.074 A 
ATOM     50  C   UNL A   1      45.461  24.331  28.448  1.00  0.00     0.029 A 
ATOM     51  N   UNL A   1      44.797  26.327  29.167  1.00  0.00    -0.354 N 
ATOM     52  N   UNL A   1      45.230  29.035  30.278  1.00  0.00    -0.248 NA
ATOM     53  C   UNL A   1      46.625  30.630  31.268  1.00  0.00     0.031 C 
ATOM     54  C   UNL A   1      46.558  24.984  29.015  1.00  0.00     0.029 A 
ATOM     55  C   UNL A   1      46.157  26.245  29.427  1.00  0.00     0.049 A 
ATOM     56  H   UNL A   1      44.231  27.107  29.365  1.00  0.00     0.167 HD
ATOM     57  C   UNL A   1      46.516  28.518  30.366  1.00  0.00     0.074 A 
ATOM     58  C   UNL A   1      47.342  29.561  30.942  1.00  0.00     0.031 C 
ATOM     59  C   UNL A   1      46.962  27.286  30.021  1.00  0.00     0.031 A 
BRANCH  46  60
ATOM     60  C   UNL A   1      42.683  23.522  27.595  1.00  0.00    -0.014 A 
ATOM     61  C   UNL A   1      42.126  22.499  28.388  1.00  0.00     0.010 A 
ATOM     62  C   UNL A   1      43.049  23.226  26.269  1.00  0.00     0.010 A 
ATOM     63  C   UNL A   1      41.976  21.204  27.883  1.00  0.00     0.020 A 
ATOM     64  C   UNL A   1      42.866  21.940  25.748  1.00  0.00     0.020 A 
ATOM     65  C   UNL A   1      42.356  20.930  26.568  1.00  0.00     0.054 A 
BRANCH  65  66
ATOM     66  S   UNL A   1      42.186  19.236  25.942  1.00  0.00     0.124 S 
ATOM     67  O   UNL A   1      42.684  18.442  27.062  1.00  0.00    -0.237 OA
ATOM     68  O   UNL A   1      40.753  19.134  25.682  1.00  0.00    -0.237 OA
ATOM     69  O   UNL A   1      43.029  19.226  24.747  1.00  0.00    -0.744 OA
ENDBRANCH  65  66
ENDBRANCH  46  60
BRANCH  47  70
ATOM     70  C   UNL A   1      44.434  32.621  31.473  1.00  0.00    -0.014 A 
ATOM     71  C   UNL A   1      44.398  32.889  32.856  1.00  0.00     0.010 A 
ATOM     72  C   UNL A   1      44.574  33.695  30.578  1.00  0.00     0.010 A 
ATOM     73  C   UNL A   1      44.396  34.203  33.329  1.00  0.00     0.020 A 
ATOM     74  C   UNL A   1      44.622  35.012  31.051  1.00  0.00     0.020 A 
ATOM     75  C   UNL A   1      44.490  35.258  32.419  1.00  0.00     0.054 A 
BRANCH  75  76
ATOM     76  S   UNL A   1      44.397  36.955  33.051  1.00  0.00     0.124 S 
ATOM     77  O   UNL A   1      45.377  36.924  34.134  1.00  0.00    -0.237 OA
ATOM     78  O   UNL A   1      44.772  37.749  31.884  1.00  0.00    -0.237 OA
ATOM     79  O   UNL A   1      43.005  37.088  33.472  1.00  0.00    -0.744 OA
ENDBRANCH  75  76
ENDBRANCH  47  70
BRANCH  59  80
ATOM     80  C   UNL A   1      48.414  26.977  30.285  1.00  0.00    -0.014 A 
ATOM     81  C   UNL A   1      48.805  26.429  31.520  1.00  0.00     0.010 A 
ATOM     82  C   UNL A   1      49.402  27.323  29.346  1.00  0.00     0.010 A 
ATOM     83  C   UNL A   1      50.157  26.264  31.825  1.00  0.00     0.020 A 
ATOM     84  C   UNL A   1      50.754  27.120  29.631  1.00  0.00     0.020 A 
ATOM     85  C   UNL A   1      51.123  26.617  30.880  1.00  0.00     0.054 A 
BRANCH  85  86
ATOM     86  S   UNL A   1      52.874  26.412  31.303  1.00  0.00     0.124 S 
ATOM     87  O   UNL A   1      52.883  25.101  31.944  1.00  0.00    -0.237 OA
ATOM     88  O   UNL A   1      53.528  26.481  29.998  1.00  0.00    -0.237 OA
ATOM     89  O   UNL A   1      53.148  27.542  32.189  1.00  0.00    -0.744 OA
ENDBRANCH  85  86
ENDBRANCH  59  80
ENDBRANCH  33  34
ENDBRANCH  25  28
ENDBRANCH  23  24
ENDBRANCH  22  23
ENDBRANCH   1  22
TORSDOF 17
ENDMDL
MODEL 3
REMARK VINA RESULT:     -10.1      3.227     10.126
REMARK SMILES Nc1ccc2c(c1)C(=O)N(CCC(=O)NCCCCNC(=O)c1ccc(-c3c4nc(c(-c5ccc(S(=O)(=O)[O-])cc5)c5ccc([nH]5)c(-c5ccc(S(=O)(=O)[O-])cc5)c5nc(c(-c6ccc(S(=O)(=O)[O-])cc6)c6ccc3[nH]6)C=C5)C=C4)cc1)C2
REMARK SMILES IDX 17 1 16 2 15 3 13 4 14 5 12 7 11 8 10 9 2 10 3 11 7 12 4 13
REMARK SMILES IDX 6 14 5 15 8 16 83 17 9 18 1 19 18 22 19 23 20 24 21 25 22 27
REMARK SMILES IDX 23 28 24 29 82 30 25 31 81 32 26 33 27 34 28 35 75 36 29 37
REMARK SMILES IDX 80 38 74 39 76 40 30 41 79 42 73 43 72 44 31 46 61 47 42 48
REMARK SMILES IDX 60 49 43 50 46 51 59 52 77 53 44 54 45 55 58 57 78 58 47 59
REMARK SMILES IDX 32 60 33 61 41 62 34 63 40 64 35 65 36 66 37 67 38 68 39 69
REMARK SMILES IDX 62 70 63 71 71 72 64 73 70 74 65 75 66 76 67 77 68 78 69 79
REMARK SMILES IDX 48 80 49 81 57 82 50 83 56 84 51 85 52 86 53 87 54 88 55 89
REMARK H PARENT 15 6 1 20 1 21 20 26 76 45 46 56
REMARK Flexibility Score: inf
ROOT
ATOM      1  C   UNL A   1      33.958  34.861  28.803  1.00  0.00     0.023 C 
ENDROOT
BRANCH   1   2
ATOM      2  C   UNL A   1      34.874  34.778  30.015  1.00  0.00     0.116 C 
BRANCH   2   3
ATOM      3  N   UNL A   1      34.150  34.229  31.143  1.00  0.00    -0.356 N 
ATOM      4  C   UNL A   1      34.470  33.159  31.922  1.00  0.00     0.221 C 
ATOM      5  O   UNL A   1      33.615  32.716  32.691  1.00  0.00    -0.275 OA
ATOM      6  H   UNL A   1      33.313  34.693  31.378  1.00  0.00     0.163 HD
BRANCH   4   7
ATOM      7  C   UNL A   1      35.857  32.552  31.871  1.00  0.00     0.121 C 
BRANCH   7   8
ATOM      8  C   UNL A   1      36.300  31.947  33.205  1.00  0.00     0.130 C 
BRANCH   8   9
ATOM      9  N   UNL A   1      37.705  31.570  33.245  1.00  0.00    -0.334 N 
ATOM     10  C   UNL A   1      41.738  29.737  34.483  1.00  0.00     0.032 A 
ATOM     11  C   UNL A   1      42.041  31.105  34.633  1.00  0.00     0.026 A 
ATOM     12  C   UNL A   1      40.495  29.360  33.970  1.00  0.00     0.039 A 
ATOM     13  C   UNL A   1      41.166  32.106  34.187  1.00  0.00     0.008 A 
ATOM     14  C   UNL A   1      39.615  30.365  33.611  1.00  0.00     0.047 A 
ATOM     15  C   UNL A   1      39.946  31.720  33.665  1.00  0.00    -0.016 A 
ATOM     16  C   UNL A   1      38.174  30.268  33.327  1.00  0.00     0.254 C 
ATOM     17  C   UNL A   1      38.787  32.538  33.198  1.00  0.00     0.156 C 
ATOM     18  O   UNL A   1      37.535  29.232  33.278  1.00  0.00    -0.269 OA
BRANCH  10  19
ATOM     19  N   UNL A   1      42.647  28.779  34.897  1.00  0.00    -0.399 N 
ATOM     20  H   UNL A   1      43.566  29.043  35.134  1.00  0.00     0.156 HD
ATOM     21  H   UNL A   1      42.376  27.835  34.956  1.00  0.00     0.156 HD
ENDBRANCH  10  19
ENDBRANCH   8   9
ENDBRANCH   7   8
ENDBRANCH   4   7
ENDBRANCH   2   3
ENDBRANCH   1   2
BRANCH   1  22
ATOM     22  C   UNL A   1      33.439  33.542  28.274  1.00  0.00     0.023 C 
BRANCH  22  23
ATOM     23  C   UNL A   1      34.547  32.542  28.024  1.00  0.00     0.116 C 
BRANCH  23  24
ATOM     24  N   UNL A   1      34.052  31.200  27.692  1.00  0.00    -0.352 N 
ATOM     25  C   UNL A   1      34.687  29.976  27.662  1.00  0.00     0.251 C 
ATOM     26  H   UNL A   1      33.099  31.169  27.448  1.00  0.00     0.163 HD
ATOM     27  O   UNL A   1      34.120  28.996  27.187  1.00  0.00    -0.269 OA
BRANCH  25  28
ATOM     28  C   UNL A   1      36.073  29.862  28.159  1.00  0.00     0.039 A 
ATOM     29  C   UNL A   1      37.124  30.094  27.288  1.00  0.00     0.014 A 
ATOM     30  C   UNL A   1      36.337  29.441  29.466  1.00  0.00     0.014 A 
ATOM     31  C   UNL A   1      38.362  29.562  27.578  1.00  0.00     0.010 A 
ATOM     32  C   UNL A   1      37.652  29.139  29.841  1.00  0.00     0.010 A 
ATOM     33  C   UNL A   1      38.670  29.127  28.877  1.00  0.00    -0.014 A 
BRANCH  33  34
ATOM     34  C   UNL A   1      40.080  28.733  29.153  1.00  0.00     0.031 A 
ATOM     35  C   UNL A   1      40.640  27.415  28.692  1.00  0.00     0.074 A 
ATOM     36  C   UNL A   1      40.886  29.654  29.725  1.00  0.00     0.049 A 
ATOM     37  N   UNL A   1      41.876  26.988  28.763  1.00  0.00    -0.248 NA
ATOM     38  C   UNL A   1      39.711  26.443  28.092  1.00  0.00     0.031 C 
ATOM     39  C   UNL A   1      40.444  30.968  30.209  1.00  0.00     0.029 A 
ATOM     40  N   UNL A   1      42.244  29.680  29.922  1.00  0.00    -0.354 N 
ATOM     41  C   UNL A   1      41.867  25.697  28.247  1.00  0.00     0.074 A 
ATOM     42  C   UNL A   1      40.498  25.391  27.900  1.00  0.00     0.031 C 
ATOM     43  C   UNL A   1      41.511  31.721  30.488  1.00  0.00     0.029 A 
ATOM     44  C   UNL A   1      42.708  30.901  30.358  1.00  0.00     0.049 A 
ATOM     45  H   UNL A   1      42.828  28.903  29.767  1.00  0.00     0.167 HD
ATOM     46  C   UNL A   1      42.912  24.853  28.069  1.00  0.00     0.031 A 
ATOM     47  C   UNL A   1      43.954  31.327  30.642  1.00  0.00     0.031 A 
ATOM     48  C   UNL A   1      44.275  25.188  28.402  1.00  0.00     0.049 A 
ATOM     49  C   UNL A   1      45.085  30.363  30.466  1.00  0.00     0.074 A 
ATOM     50  C   UNL A   1      45.409  24.411  28.252  1.00  0.00     0.029 A 
ATOM     51  N   UNL A   1      44.691  26.399  28.942  1.00  0.00    -0.354 N 
ATOM     52  N   UNL A   1      45.053  29.146  29.976  1.00  0.00    -0.248 NA
ATOM     53  C   UNL A   1      46.413  30.815  30.891  1.00  0.00     0.031 C 
ATOM     54  C   UNL A   1      46.495  25.116  28.773  1.00  0.00     0.029 A 
ATOM     55  C   UNL A   1      46.059  26.372  29.166  1.00  0.00     0.049 A 
ATOM     56  H   UNL A   1      44.101  27.163  29.136  1.00  0.00     0.167 HD
ATOM     57  C   UNL A   1      46.358  28.679  30.042  1.00  0.00     0.074 A 
ATOM     58  C   UNL A   1      47.160  29.765  30.571  1.00  0.00     0.031 C 
ATOM     59  C   UNL A   1      46.841  27.456  29.714  1.00  0.00     0.031 A 
BRANCH  46  60
ATOM     60  C   UNL A   1      42.642  23.482  27.493  1.00  0.00    -0.014 A 
ATOM     61  C   UNL A   1      42.130  22.463  28.320  1.00  0.00     0.010 A 
ATOM     62  C   UNL A   1      42.997  23.162  26.169  1.00  0.00     0.010 A 
ATOM     63  C   UNL A   1      42.013  21.151  27.852  1.00  0.00     0.020 A 
ATOM     64  C   UNL A   1      42.847  21.858  25.684  1.00  0.00     0.020 A 
ATOM     65  C   UNL A   1      42.382  20.855  26.538  1.00  0.00     0.054 A 
BRANCH  65  66
ATOM     66  S   UNL A   1      42.257  19.139  25.960  1.00  0.00     0.124 S 
ATOM     67  O   UNL A   1      40.816  18.969  25.805  1.00  0.00    -0.237 OA
ATOM     68  O   UNL A   1      43.029  19.164  24.720  1.00  0.00    -0.237 OA
ATOM     69  O   UNL A   1      42.863  18.367  27.044  1.00  0.00    -0.744 OA
ENDBRANCH  65  66
ENDBRANCH  46  60
BRANCH  47  70
ATOM     70  C   UNL A   1      44.156  32.730  31.108  1.00  0.00    -0.014 A 
ATOM     71  C   UNL A   1      44.362  33.002  32.475  1.00  0.00     0.010 A 
ATOM     72  C   UNL A   1      44.020  33.806  30.215  1.00  0.00     0.010 A 
ATOM     73  C   UNL A   1      44.328  34.313  32.955  1.00  0.00     0.020 A 
ATOM     74  C   UNL A   1      44.034  35.125  30.686  1.00  0.00     0.020 A 
ATOM     75  C   UNL A   1      44.146  35.366  32.057  1.00  0.00     0.054 A 
BRANCH  75  76
ATOM     76  S   UNL A   1      44.017  37.051  32.715  1.00  0.00     0.124 S 
ATOM     77  O   UNL A   1      43.799  37.829  31.498  1.00  0.00    -0.237 OA
ATOM     78  O   UNL A   1      42.871  36.955  33.615  1.00  0.00    -0.237 OA
ATOM     79  O   UNL A   1      45.306  37.263  33.370  1.00  0.00    -0.744 OA
ENDBRANCH  75  76
ENDBRANCH  47  70
BRANCH  59  80
ATOM     80  C   UNL A   1      48.309  27.206  29.947  1.00  0.00    -0.014 A 
ATOM     81  C   UNL A   1      48.773  26.880  31.233  1.00  0.00     0.010 A 
ATOM     82  C   UNL A   1      49.240  27.393  28.909  1.00  0.00     0.010 A 
ATOM     83  C   UNL A   1      50.143  26.778  31.487  1.00  0.00     0.020 A 
ATOM     84  C   UNL A   1      50.608  27.250  29.149  1.00  0.00     0.020 A 
ATOM     85  C   UNL A   1      51.052  26.971  30.444  1.00  0.00     0.054 A 
BRANCH  85  86
ATOM     86  S   UNL A   1      52.825  26.853  30.798  1.00  0.00     0.124 S 
ATOM     87  O   UNL A   1      52.917  25.565  31.479  1.00  0.00    -0.237 OA
ATOM     88  O   UNL A   1      53.422  26.906  29.466  1.00  0.00    -0.237 OA
ATOM     89  O   UNL A   1      53.087  28.022  31.636  1.00  0.00    -0.744 OA
ENDBRANCH  85  86
ENDBRANCH  59  80
ENDBRANCH  33  34
ENDBRANCH  25  28
ENDBRANCH  23  24
ENDBRANCH  22  23
ENDBRANCH   1  22
TORSDOF 17
ENDMDL
