MODEL 1
REMARK VINA RESULT:     -12.3      0.000      0.000
REMARK SMILES CC(C)c1noc(C[N@@H+]2[C@@H](C(=O)NCCCCNC(=O)c3ccc(-c4c5nc(c(-c6ccc(S(=O)(=O)[O-])cc6)c6ccc([nH]6)c(-c6ccc(S(=O)(=O)[O-])cc6)c6nc(c(-c7ccc(S(=O)(=O)[O-])cc7)c7ccc4[nH]7)C=C6)C=C5)cc3)C[C@H]3CCCC[C@@H]32)n1
REMARK SMILES IDX 15 1 14 2 13 3 11 4 12 5 10 7 9 8 87 9 81 11 82 12 86 13
REMARK SMILES IDX 83 14 85 15 84 16 8 17 7 18 4 19 5 20 88 21 6 22 2 23 1 24
REMARK SMILES IDX 3 25 16 26 17 27 18 28 19 29 20 31 21 32 22 33 80 34 23 35
REMARK SMILES IDX 79 36 24 37 25 38 26 39 73 40 27 41 78 42 72 43 74 44 28 45
REMARK SMILES IDX 77 46 71 47 70 48 29 50 59 51 40 52 58 53 41 54 44 55 57 56
REMARK SMILES IDX 75 57 42 58 43 59 56 61 76 62 45 63 30 64 31 65 39 66 32 67
REMARK SMILES IDX 38 68 33 69 34 70 35 71 36 72 37 73 60 74 61 75 69 76 62 77
REMARK SMILES IDX 68 78 63 79 64 80 65 81 66 82 67 83 46 84 47 85 55 86 48 87
REMARK SMILES IDX 54 88 49 89 50 90 51 91 52 92 53 93
REMARK H PARENT 13 6 9 10 18 30 74 49 44 60
REMARK Flexibility Score: inf
ROOT
ATOM      1  C   UNL A   1      34.663  30.347  27.487  1.00  0.00     0.023 C 
ENDROOT
BRANCH   1   2
ATOM      2  C   UNL A   1      33.342  30.320  26.723  1.00  0.00     0.116 C 
BRANCH   2   3
ATOM      3  N   UNL A   1      32.364  29.473  27.379  1.00  0.00    -0.351 N 
ATOM      4  C   UNL A   1      31.893  28.245  26.992  1.00  0.00     0.278 C 
ATOM      5  O   UNL A   1      31.037  27.704  27.692  1.00  0.00    -0.268 OA
ATOM      6  H   UNL A   1      31.986  29.829  28.216  1.00  0.00     0.163 HD
BRANCH   4   7
ATOM      7  C   UNL A   1      32.514  27.604  25.735  1.00  0.00     0.275 C 
ATOM      8  N   UNL A   1      31.465  27.026  24.846  1.00  0.00    -0.314 N 
ATOM      9  C   UNL A   1      31.487  25.579  25.099  1.00  0.00     0.188 C 
ATOM     10  H   UNL A   1      30.526  27.363  25.063  1.00  0.00     0.349 HD
ATOM     11  C   UNL A   1      33.427  26.442  26.170  1.00  0.00     0.085 C 
ATOM     12  C   UNL A   1      32.961  25.269  25.332  1.00  0.00     0.054 C 
ATOM     13  C   UNL A   1      30.864  24.589  24.113  1.00  0.00     0.065 C 
ATOM     14  C   UNL A   1      33.139  23.882  25.924  1.00  0.00     0.010 C 
ATOM     15  C   UNL A   1      31.108  23.142  24.570  1.00  0.00     0.006 C 
ATOM     16  C   UNL A   1      32.568  22.855  24.942  1.00  0.00     0.001 C 
BRANCH   8  17
ATOM     17  C   UNL A   1      31.555  27.492  23.451  1.00  0.00     0.364 C 
BRANCH  17  18
ATOM     18  C   UNL A   1      30.719  28.672  23.072  1.00  0.00     0.281 A 
ATOM     19  C   UNL A   1      29.452  30.334  23.011  1.00  0.00     0.174 A 
ATOM     20  N   UNL A   1      29.223  29.740  21.832  1.00  0.00    -0.062 NA
ATOM     21  N   UNL A   1      30.406  29.731  23.785  1.00  0.00    -0.191 NA
ATOM     22  O   UNL A   1      30.078  28.632  21.864  1.00  0.00    -0.333 OA
BRANCH  19  23
ATOM     23  C   UNL A   1      28.700  31.534  23.478  1.00  0.00     0.055 C 
ATOM     24  C   UNL A   1      28.782  32.674  22.456  1.00  0.00     0.016 C 
ATOM     25  C   UNL A   1      27.241  31.182  23.764  1.00  0.00     0.016 C 
ENDBRANCH  19  23
ENDBRANCH  17  18
ENDBRANCH   8  17
ENDBRANCH   4   7
ENDBRANCH   2   3
ENDBRANCH   1   2
BRANCH   1  26
ATOM     26  C   UNL A   1      35.188  31.752  27.791  1.00  0.00     0.023 C 
BRANCH  26  27
ATOM     27  C   UNL A   1      36.321  31.813  28.810  1.00  0.00     0.116 C 
BRANCH  27  28
ATOM     28  N   UNL A   1      36.002  31.128  30.053  1.00  0.00    -0.352 N 
ATOM     29  C   UNL A   1      36.667  30.090  30.663  1.00  0.00     0.251 C 
ATOM     30  H   UNL A   1      35.200  31.451  30.524  1.00  0.00     0.163 HD
ATOM     31  O   UNL A   1      36.174  29.536  31.641  1.00  0.00    -0.269 OA
BRANCH  29  32
ATOM     32  C   UNL A   1      37.959  29.624  30.114  1.00  0.00     0.039 A 
ATOM     33  C   UNL A   1      38.136  29.600  28.729  1.00  0.00     0.014 A 
ATOM     34  C   UNL A   1      38.999  29.238  30.964  1.00  0.00     0.014 A 
ATOM     35  C   UNL A   1      39.381  29.259  28.197  1.00  0.00     0.010 A 
ATOM     36  C   UNL A   1      40.258  28.969  30.436  1.00  0.00     0.010 A 
ATOM     37  C   UNL A   1      40.465  28.980  29.047  1.00  0.00    -0.014 A 
BRANCH  37  38
ATOM     38  C   UNL A   1      41.824  28.719  28.507  1.00  0.00     0.031 A 
ATOM     39  C   UNL A   1      42.204  27.339  28.043  1.00  0.00     0.074 A 
ATOM     40  C   UNL A   1      42.742  29.706  28.510  1.00  0.00     0.049 A 
ATOM     41  N   UNL A   1      43.359  26.904  27.610  1.00  0.00    -0.248 NA
ATOM     42  C   UNL A   1      41.156  26.306  28.098  1.00  0.00     0.031 C 
ATOM     43  C   UNL A   1      42.513  31.074  28.980  1.00  0.00     0.029 A 
ATOM     44  N   UNL A   1      44.058  29.706  28.117  1.00  0.00    -0.354 N 
ATOM     45  C   UNL A   1      43.186  25.547  27.365  1.00  0.00     0.074 A 
ATOM     46  C   UNL A   1      41.827  25.222  27.737  1.00  0.00     0.031 C 
ATOM     47  C   UNL A   1      43.644  31.783  28.836  1.00  0.00     0.029 A 
ATOM     48  C   UNL A   1      44.689  30.914  28.303  1.00  0.00     0.049 A 
ATOM     49  H   UNL A   1      44.507  28.916  27.740  1.00  0.00     0.167 HD
ATOM     50  C   UNL A   1      44.074  24.656  26.862  1.00  0.00     0.031 A 
ATOM     51  C   UNL A   1      45.967  31.280  28.087  1.00  0.00     0.031 A 
ATOM     52  C   UNL A   1      45.423  24.987  26.484  1.00  0.00     0.049 A 
ATOM     53  C   UNL A   1      46.936  30.275  27.528  1.00  0.00     0.074 A 
ATOM     54  C   UNL A   1      46.373  24.172  25.893  1.00  0.00     0.029 A 
ATOM     55  N   UNL A   1      46.017  26.226  26.667  1.00  0.00    -0.354 N 
ATOM     56  N   UNL A   1      46.727  29.017  27.218  1.00  0.00    -0.248 NA
ATOM     57  C   UNL A   1      48.307  30.738  27.279  1.00  0.00     0.031 C 
ATOM     58  C   UNL A   1      47.560  24.902  25.775  1.00  0.00     0.029 A 
ATOM     59  C   UNL A   1      47.332  26.189  26.233  1.00  0.00     0.049 A 
ATOM     60  H   UNL A   1      45.569  27.016  27.049  1.00  0.00     0.167 HD
ATOM     61  C   UNL A   1      47.937  28.543  26.722  1.00  0.00     0.074 A 
ATOM     62  C   UNL A   1      48.865  29.656  26.755  1.00  0.00     0.031 C 
ATOM     63  C   UNL A   1      48.250  27.301  26.280  1.00  0.00     0.031 A 
BRANCH  50  64
ATOM     64  C   UNL A   1      43.616  23.229  26.709  1.00  0.00    -0.014 A 
ATOM     65  C   UNL A   1      42.811  22.612  27.684  1.00  0.00     0.010 A 
ATOM     66  C   UNL A   1      43.971  22.503  25.558  1.00  0.00     0.010 A 
ATOM     67  C   UNL A   1      42.412  21.281  27.534  1.00  0.00     0.020 A 
ATOM     68  C   UNL A   1      43.549  21.180  25.389  1.00  0.00     0.020 A 
ATOM     69  C   UNL A   1      42.788  20.572  26.390  1.00  0.00     0.054 A 
BRANCH  69  70
ATOM     70  S   UNL A   1      42.249  18.848  26.219  1.00  0.00     0.124 S 
ATOM     71  O   UNL A   1      42.474  18.329  27.565  1.00  0.00    -0.237 OA
ATOM     72  O   UNL A   1      40.850  18.987  25.826  1.00  0.00    -0.237 OA
ATOM     73  O   UNL A   1      43.133  18.310  25.188  1.00  0.00    -0.744 OA
ENDBRANCH  69  70
ENDBRANCH  50  64
BRANCH  51  74
ATOM     74  C   UNL A   1      46.399  32.669  28.402  1.00  0.00    -0.014 A 
ATOM     75  C   UNL A   1      46.907  32.992  29.673  1.00  0.00     0.010 A 
ATOM     76  C   UNL A   1      46.332  33.673  27.418  1.00  0.00     0.010 A 
ATOM     77  C   UNL A   1      47.334  34.292  29.955  1.00  0.00     0.020 A 
ATOM     78  C   UNL A   1      46.783  34.967  27.688  1.00  0.00     0.020 A 
ATOM     79  C   UNL A   1      47.275  35.271  28.958  1.00  0.00     0.054 A 
BRANCH  79  80
ATOM     80  S   UNL A   1      47.901  36.934  29.326  1.00  0.00     0.124 S 
ATOM     81  O   UNL A   1      46.807  37.780  28.861  1.00  0.00    -0.237 OA
ATOM     82  O   UNL A   1      48.094  36.885  30.774  1.00  0.00    -0.237 OA
ATOM     83  O   UNL A   1      49.133  37.016  28.544  1.00  0.00    -0.744 OA
ENDBRANCH  79  80
ENDBRANCH  51  74
BRANCH  63  84
ATOM     84  C   UNL A   1      49.651  27.073  25.779  1.00  0.00    -0.014 A 
ATOM     85  C   UNL A   1      50.571  26.303  26.512  1.00  0.00     0.010 A 
ATOM     86  C   UNL A   1      50.032  27.585  24.524  1.00  0.00     0.010 A 
ATOM     87  C   UNL A   1      51.854  26.070  26.011  1.00  0.00     0.020 A 
ATOM     88  C   UNL A   1      51.305  27.330  24.007  1.00  0.00     0.020 A 
ATOM     89  C   UNL A   1      52.213  26.583  24.760  1.00  0.00     0.054 A 
BRANCH  89  90
ATOM     90  S   UNL A   1      53.867  26.222  24.110  1.00  0.00     0.124 S 
ATOM     91  O   UNL A   1      54.206  24.985  24.808  1.00  0.00    -0.237 OA
ATOM     92  O   UNL A   1      53.625  26.088  22.675  1.00  0.00    -0.237 OA
ATOM     93  O   UNL A   1      54.654  27.391  24.495  1.00  0.00    -0.744 OA
ENDBRANCH  89  90
ENDBRANCH  63  84
ENDBRANCH  37  38
ENDBRANCH  29  32
ENDBRANCH  27  28
ENDBRANCH  26  27
ENDBRANCH   1  26
TORSDOF 17
ENDMDL
MODEL 2
REMARK VINA RESULT:     -12.3      0.930      8.165
REMARK SMILES CC(C)c1noc(C[N@@H+]2[C@@H](C(=O)NCCCCNC(=O)c3ccc(-c4c5nc(c(-c6ccc(S(=O)(=O)[O-])cc6)c6ccc([nH]6)c(-c6ccc(S(=O)(=O)[O-])cc6)c6nc(c(-c7ccc(S(=O)(=O)[O-])cc7)c7ccc4[nH]7)C=C6)C=C5)cc3)C[C@H]3CCCC[C@@H]32)n1
REMARK SMILES IDX 15 1 14 2 13 3 11 4 12 5 10 7 9 8 87 9 81 11 82 12 86 13
REMARK SMILES IDX 83 14 85 15 84 16 8 17 7 18 4 19 5 20 88 21 6 22 2 23 1 24
REMARK SMILES IDX 3 25 16 26 17 27 18 28 19 29 20 31 21 32 22 33 80 34 23 35
REMARK SMILES IDX 79 36 24 37 25 38 26 39 73 40 27 41 78 42 72 43 74 44 28 45
REMARK SMILES IDX 77 46 71 47 70 48 29 50 59 51 40 52 58 53 41 54 44 55 57 56
REMARK SMILES IDX 75 57 42 58 43 59 56 61 76 62 45 63 30 64 31 65 39 66 32 67
REMARK SMILES IDX 38 68 33 69 34 70 35 71 36 72 37 73 60 74 61 75 69 76 62 77
REMARK SMILES IDX 68 78 63 79 64 80 65 81 66 82 67 83 46 84 47 85 55 86 48 87
REMARK SMILES IDX 54 88 49 89 50 90 51 91 52 92 53 93
REMARK H PARENT 13 6 9 10 18 30 74 49 44 60
REMARK Flexibility Score: inf
ROOT
ATOM      1  C   UNL A   1      34.497  29.838  27.273  1.00  0.00     0.023 C 
ENDROOT
BRANCH   1   2
ATOM      2  C   UNL A   1      33.232  29.594  26.454  1.00  0.00     0.116 C 
BRANCH   2   3
ATOM      3  N   UNL A   1      32.483  28.457  26.956  1.00  0.00    -0.351 N 
ATOM      4  C   UNL A   1      32.143  27.298  26.308  1.00  0.00     0.278 C 
ATOM      5  O   UNL A   1      31.476  26.464  26.921  1.00  0.00    -0.268 OA
ATOM      6  H   UNL A   1      32.176  28.529  27.889  1.00  0.00     0.163 HD
BRANCH   4   7
ATOM      7  C   UNL A   1      32.671  27.098  24.874  1.00  0.00     0.275 C 
ATOM      8  N   UNL A   1      31.689  26.356  24.032  1.00  0.00    -0.314 N 
ATOM      9  C   UNL A   1      32.184  24.974  23.972  1.00  0.00     0.188 C 
ATOM     10  H   UNL A   1      30.753  26.331  24.437  1.00  0.00     0.349 HD
ATOM     11  C   UNL A   1      33.952  26.243  24.931  1.00  0.00     0.085 C 
ATOM     12  C   UNL A   1      33.700  25.128  23.938  1.00  0.00     0.054 C 
ATOM     13  C   UNL A   1      31.702  24.002  22.894  1.00  0.00     0.065 C 
ATOM     14  C   UNL A   1      34.388  23.800  24.198  1.00  0.00     0.010 C 
ATOM     15  C   UNL A   1      32.445  22.661  23.003  1.00  0.00     0.006 C 
ATOM     16  C   UNL A   1      33.967  22.809  23.109  1.00  0.00     0.001 C 
BRANCH   8  17
ATOM     17  C   UNL A   1      31.368  27.038  22.765  1.00  0.00     0.364 C 
BRANCH  17  18
ATOM     18  C   UNL A   1      30.060  27.757  22.691  1.00  0.00     0.281 A 
ATOM     19  C   UNL A   1      28.509  29.154  22.578  1.00  0.00     0.174 A 
ATOM     20  N   UNL A   1      27.977  28.176  23.322  1.00  0.00    -0.062 NA
ATOM     21  N   UNL A   1      29.778  28.911  22.128  1.00  0.00    -0.191 NA
ATOM     22  O   UNL A   1      29.009  27.233  23.391  1.00  0.00    -0.333 OA
BRANCH  19  23
ATOM     23  C   UNL A   1      27.802  30.436  22.293  1.00  0.00     0.055 C 
ATOM     24  C   UNL A   1      27.514  31.212  23.583  1.00  0.00     0.016 C 
ATOM     25  C   UNL A   1      28.612  31.298  21.326  1.00  0.00     0.016 C 
ENDBRANCH  19  23
ENDBRANCH  17  18
ENDBRANCH   8  17
ENDBRANCH   4   7
ENDBRANCH   2   3
ENDBRANCH   1   2
BRANCH   1  26
ATOM     26  C   UNL A   1      34.701  31.293  27.700  1.00  0.00     0.023 C 
BRANCH  26  27
ATOM     27  C   UNL A   1      35.883  31.534  28.633  1.00  0.00     0.116 C 
BRANCH  27  28
ATOM     28  N   UNL A   1      35.692  30.950  29.952  1.00  0.00    -0.352 N 
ATOM     29  C   UNL A   1      36.569  30.199  30.699  1.00  0.00     0.251 C 
ATOM     30  H   UNL A   1      34.815  31.115  30.367  1.00  0.00     0.163 HD
ATOM     31  O   UNL A   1      36.188  29.664  31.737  1.00  0.00    -0.269 OA
BRANCH  29  32
ATOM     32  C   UNL A   1      37.958  30.012  30.230  1.00  0.00     0.039 A 
ATOM     33  C   UNL A   1      38.989  29.968  31.172  1.00  0.00     0.014 A 
ATOM     34  C   UNL A   1      38.240  29.854  28.870  1.00  0.00     0.014 A 
ATOM     35  C   UNL A   1      40.294  29.692  30.756  1.00  0.00     0.010 A 
ATOM     36  C   UNL A   1      39.526  29.509  28.466  1.00  0.00     0.010 A 
ATOM     37  C   UNL A   1      40.567  29.421  29.405  1.00  0.00    -0.014 A 
BRANCH  37  38
ATOM     38  C   UNL A   1      41.925  29.021  28.956  1.00  0.00     0.031 A 
ATOM     39  C   UNL A   1      43.019  30.047  28.841  1.00  0.00     0.074 A 
ATOM     40  C   UNL A   1      42.152  27.749  28.573  1.00  0.00     0.049 A 
ATOM     41  N   UNL A   1      44.242  29.903  28.401  1.00  0.00    -0.248 NA
ATOM     42  C   UNL A   1      42.686  31.423  29.249  1.00  0.00     0.031 C 
ATOM     43  C   UNL A   1      41.162  26.670  28.589  1.00  0.00     0.029 A 
ATOM     44  N   UNL A   1      43.286  27.150  28.082  1.00  0.00    -0.354 N 
ATOM     45  C   UNL A   1      44.817  31.167  28.455  1.00  0.00     0.074 A 
ATOM     46  C   UNL A   1      43.795  32.075  28.930  1.00  0.00     0.031 C 
ATOM     47  C   UNL A   1      41.735  25.540  28.143  1.00  0.00     0.029 A 
ATOM     48  C   UNL A   1      43.118  25.821  27.770  1.00  0.00     0.049 A 
ATOM     49  H   UNL A   1      44.139  27.627  27.963  1.00  0.00     0.167 HD
ATOM     50  C   UNL A   1      46.084  31.537  28.150  1.00  0.00     0.031 A 
ATOM     51  C   UNL A   1      43.972  24.930  27.230  1.00  0.00     0.031 A 
ATOM     52  C   UNL A   1      47.100  30.629  27.686  1.00  0.00     0.049 A 
ATOM     53  C   UNL A   1      45.374  25.362  26.900  1.00  0.00     0.074 A 
ATOM     54  C   UNL A   1      48.433  30.893  27.425  1.00  0.00     0.029 A 
ATOM     55  N   UNL A   1      46.896  29.287  27.405  1.00  0.00    -0.354 N 
ATOM     56  N   UNL A   1      45.925  26.544  27.043  1.00  0.00    -0.248 NA
ATOM     57  C   UNL A   1      46.272  24.340  26.346  1.00  0.00     0.031 C 
ATOM     58  C   UNL A   1      49.020  29.725  26.929  1.00  0.00     0.029 A 
ATOM     59  C   UNL A   1      48.069  28.717  26.940  1.00  0.00     0.049 A 
ATOM     60  H   UNL A   1      46.042  28.809  27.519  1.00  0.00     0.167 HD
ATOM     61  C   UNL A   1      47.240  26.403  26.612  1.00  0.00     0.074 A 
ATOM     62  C   UNL A   1      47.405  25.017  26.223  1.00  0.00     0.031 C 
ATOM     63  C   UNL A   1      48.220  27.338  26.545  1.00  0.00     0.031 A 
BRANCH  50  64
ATOM     64  C   UNL A   1      46.436  32.994  28.292  1.00  0.00    -0.014 A 
ATOM     65  C   UNL A   1      46.940  33.510  29.500  1.00  0.00     0.010 A 
ATOM     66  C   UNL A   1      46.289  33.857  27.190  1.00  0.00     0.010 A 
ATOM     67  C   UNL A   1      47.243  34.870  29.618  1.00  0.00     0.020 A 
ATOM     68  C   UNL A   1      46.620  35.212  27.294  1.00  0.00     0.020 A 
ATOM     69  C   UNL A   1      47.075  35.713  28.515  1.00  0.00     0.054 A 
BRANCH  69  70
ATOM     70  S   UNL A   1      47.483  37.471  28.696  1.00  0.00     0.124 S 
ATOM     71  O   UNL A   1      46.335  38.113  28.060  1.00  0.00    -0.237 OA
ATOM     72  O   UNL A   1      47.569  37.633  30.145  1.00  0.00    -0.237 OA
ATOM     73  O   UNL A   1      48.750  37.608  27.980  1.00  0.00    -0.744 OA
ENDBRANCH  69  70
ENDBRANCH  50  64
BRANCH  51  74
ATOM     74  C   UNL A   1      43.516  23.537  26.971  1.00  0.00    -0.014 A 
ATOM     75  C   UNL A   1      43.231  22.665  28.036  1.00  0.00     0.010 A 
ATOM     76  C   UNL A   1      43.335  23.084  25.650  1.00  0.00     0.010 A 
ATOM     77  C   UNL A   1      42.779  21.366  27.786  1.00  0.00     0.020 A 
ATOM     78  C   UNL A   1      42.857  21.796  25.398  1.00  0.00     0.020 A 
ATOM     79  C   UNL A   1      42.590  20.941  26.468  1.00  0.00     0.054 A 
BRANCH  79  80
ATOM     80  S   UNL A   1      41.935  19.276  26.170  1.00  0.00     0.124 S 
ATOM     81  O   UNL A   1      40.515  19.540  25.962  1.00  0.00    -0.237 OA
ATOM     82  O   UNL A   1      42.682  18.851  24.988  1.00  0.00    -0.237 OA
ATOM     83  O   UNL A   1      42.265  18.554  27.397  1.00  0.00    -0.744 OA
ENDBRANCH  79  80
ENDBRANCH  51  74
BRANCH  63  84
ATOM     84  C   UNL A   1      49.569  26.895  26.047  1.00  0.00    -0.014 A 
ATOM     85  C   UNL A   1      49.946  27.077  24.704  1.00  0.00     0.010 A 
ATOM     86  C   UNL A   1      50.499  26.348  26.950  1.00  0.00     0.010 A 
ATOM     87  C   UNL A   1      51.217  26.696  24.269  1.00  0.00     0.020 A 
ATOM     88  C   UNL A   1      51.782  25.992  26.525  1.00  0.00     0.020 A 
ATOM     89  C   UNL A   1      52.129  26.158  25.183  1.00  0.00     0.054 A 
BRANCH  89  90
ATOM     90  S   UNL A   1      53.791  25.720  24.604  1.00  0.00     0.124 S 
ATOM     91  O   UNL A   1      53.799  26.273  23.252  1.00  0.00    -0.237 OA
ATOM     92  O   UNL A   1      54.655  26.399  25.566  1.00  0.00    -0.237 OA
ATOM     93  O   UNL A   1      53.812  24.261  24.680  1.00  0.00    -0.744 OA
ENDBRANCH  89  90
ENDBRANCH  63  84
ENDBRANCH  37  38
ENDBRANCH  29  32
ENDBRANCH  27  28
ENDBRANCH  26  27
ENDBRANCH   1  26
TORSDOF 17
ENDMDL
MODEL 3
REMARK VINA RESULT:     -12.1      3.130      9.215
REMARK SMILES CC(C)c1noc(C[N@@H+]2[C@@H](C(=O)NCCCCNC(=O)c3ccc(-c4c5nc(c(-c6ccc(S(=O)(=O)[O-])cc6)c6ccc([nH]6)c(-c6ccc(S(=O)(=O)[O-])cc6)c6nc(c(-c7ccc(S(=O)(=O)[O-])cc7)c7ccc4[nH]7)C=C6)C=C5)cc3)C[C@H]3CCCC[C@@H]32)n1
REMARK SMILES IDX 15 1 14 2 13 3 11 4 12 5 10 7 9 8 87 9 81 11 82 12 86 13
REMARK SMILES IDX 83 14 85 15 84 16 8 17 7 18 4 19 5 20 88 21 6 22 2 23 1 24
REMARK SMILES IDX 3 25 16 26 17 27 18 28 19 29 20 31 21 32 22 33 80 34 23 35
REMARK SMILES IDX 79 36 24 37 25 38 26 39 73 40 27 41 78 42 72 43 74 44 28 45
REMARK SMILES IDX 77 46 71 47 70 48 29 50 59 51 40 52 58 53 41 54 44 55 57 56
REMARK SMILES IDX 75 57 42 58 43 59 56 61 76 62 45 63 30 64 31 65 39 66 32 67
REMARK SMILES IDX 38 68 33 69 34 70 35 71 36 72 37 73 60 74 61 75 69 76 62 77
REMARK SMILES IDX 68 78 63 79 64 80 65 81 66 82 67 83 46 84 47 85 55 86 48 87
REMARK SMILES IDX 54 88 49 89 50 90 51 91 52 92 53 93
REMARK H PARENT 13 6 9 10 18 30 74 49 44 60
REMARK Flexibility Score: inf
ROOT
ATOM      1  C   UNL A   1      37.136  19.919  25.067  1.00  0.00     0.023 C 
ENDROOT
BRANCH   1   2
ATOM      2  C   UNL A   1      35.904  20.809  25.207  1.00  0.00     0.116 C 
BRANCH   2   3
ATOM      3  N   UNL A   1      36.092  22.086  24.544  1.00  0.00    -0.351 N 
ATOM      4  C   UNL A   1      35.295  23.202  24.587  1.00  0.00     0.278 C 
ATOM      5  O   UNL A   1      35.632  24.181  23.922  1.00  0.00    -0.268 OA
ATOM      6  H   UNL A   1      36.900  22.161  23.987  1.00  0.00     0.163 HD
BRANCH   4   7
ATOM      7  C   UNL A   1      34.062  23.166  25.511  1.00  0.00     0.275 C 
ATOM      8  N   UNL A   1      32.832  22.781  24.761  1.00  0.00    -0.314 N 
ATOM      9  C   UNL A   1      32.108  24.035  24.518  1.00  0.00     0.188 C 
ATOM     10  H   UNL A   1      33.032  22.359  23.854  1.00  0.00     0.349 HD
ATOM     11  C   UNL A   1      33.823  24.581  26.074  1.00  0.00     0.085 C 
ATOM     12  C   UNL A   1      32.363  24.857  25.776  1.00  0.00     0.054 C 
ATOM     13  C   UNL A   1      30.624  24.039  24.147  1.00  0.00     0.065 C 
ATOM     14  C   UNL A   1      31.961  26.307  25.571  1.00  0.00     0.010 C 
ATOM     15  C   UNL A   1      30.095  25.478  24.042  1.00  0.00     0.006 C 
ATOM     16  C   UNL A   1      30.466  26.357  25.243  1.00  0.00     0.001 C 
BRANCH   8  17
ATOM     17  C   UNL A   1      32.098  21.659  25.374  1.00  0.00     0.364 C 
BRANCH  17  18
ATOM     18  C   UNL A   1      32.179  20.334  24.686  1.00  0.00     0.281 A 
ATOM     19  C   UNL A   1      32.570  18.367  24.097  1.00  0.00     0.174 A 
ATOM     20  N   UNL A   1      32.480  19.016  22.929  1.00  0.00    -0.062 NA
ATOM     21  N   UNL A   1      32.342  19.138  25.205  1.00  0.00    -0.191 NA
ATOM     22  O   UNL A   1      32.208  20.332  23.318  1.00  0.00    -0.333 OA
BRANCH  19  23
ATOM     23  C   UNL A   1      32.936  16.925  24.201  1.00  0.00     0.055 C 
ATOM     24  C   UNL A   1      34.073  16.569  23.238  1.00  0.00     0.016 C 
ATOM     25  C   UNL A   1      33.322  16.565  25.635  1.00  0.00     0.016 C 
ENDBRANCH  19  23
ENDBRANCH  17  18
ENDBRANCH   8  17
ENDBRANCH   4   7
ENDBRANCH   2   3
ENDBRANCH   1   2
BRANCH   1  26
ATOM     26  C   UNL A   1      38.454  20.683  24.930  1.00  0.00     0.023 C 
BRANCH  26  27
ATOM     27  C   UNL A   1      39.373  20.611  26.146  1.00  0.00     0.116 C 
BRANCH  27  28
ATOM     28  N   UNL A   1      40.293  19.484  26.093  1.00  0.00    -0.352 N 
ATOM     29  C   UNL A   1      41.667  19.488  26.152  1.00  0.00     0.251 C 
ATOM     30  H   UNL A   1      39.875  18.598  26.005  1.00  0.00     0.163 HD
ATOM     31  O   UNL A   1      42.292  18.450  25.949  1.00  0.00    -0.269 OA
BRANCH  29  32
ATOM     32  C   UNL A   1      42.386  20.750  26.426  1.00  0.00     0.039 A 
ATOM     33  C   UNL A   1      42.802  21.538  25.350  1.00  0.00     0.014 A 
ATOM     34  C   UNL A   1      42.627  21.166  27.738  1.00  0.00     0.014 A 
ATOM     35  C   UNL A   1      43.393  22.780  25.592  1.00  0.00     0.010 A 
ATOM     36  C   UNL A   1      43.150  22.433  27.976  1.00  0.00     0.010 A 
ATOM     37  C   UNL A   1      43.535  23.256  26.906  1.00  0.00    -0.014 A 
BRANCH  37  38
ATOM     38  C   UNL A   1      44.062  24.617  27.183  1.00  0.00     0.031 A 
ATOM     39  C   UNL A   1      43.134  25.716  27.621  1.00  0.00     0.074 A 
ATOM     40  C   UNL A   1      45.364  24.885  26.959  1.00  0.00     0.049 A 
ATOM     41  N   UNL A   1      43.395  26.979  27.839  1.00  0.00    -0.248 NA
ATOM     42  C   UNL A   1      41.719  25.355  27.815  1.00  0.00     0.031 C 
ATOM     43  C   UNL A   1      46.358  23.920  26.485  1.00  0.00     0.029 A 
ATOM     44  N   UNL A   1      46.073  26.054  27.088  1.00  0.00    -0.354 N 
ATOM     45  C   UNL A   1      42.180  27.567  28.170  1.00  0.00     0.074 A 
ATOM     46  C   UNL A   1      41.173  26.532  28.083  1.00  0.00     0.031 C 
ATOM     47  C   UNL A   1      47.549  24.531  26.377  1.00  0.00     0.029 A 
ATOM     48  C   UNL A   1      47.397  25.939  26.732  1.00  0.00     0.049 A 
ATOM     49  H   UNL A   1      45.672  26.895  27.404  1.00  0.00     0.167 HD
ATOM     50  C   UNL A   1      41.928  28.850  28.528  1.00  0.00     0.031 A 
ATOM     51  C   UNL A   1      48.377  26.862  26.680  1.00  0.00     0.031 A 
ATOM     52  C   UNL A   1      42.934  29.874  28.622  1.00  0.00     0.049 A 
ATOM     53  C   UNL A   1      48.074  28.279  27.082  1.00  0.00     0.074 A 
ATOM     54  C   UNL A   1      42.790  31.182  29.050  1.00  0.00     0.029 A 
ATOM     55  N   UNL A   1      44.267  29.711  28.275  1.00  0.00    -0.354 N 
ATOM     56  N   UNL A   1      46.935  28.795  27.479  1.00  0.00    -0.248 NA
ATOM     57  C   UNL A   1      49.188  29.235  27.039  1.00  0.00     0.031 C 
ATOM     58  C   UNL A   1      44.022  31.827  28.904  1.00  0.00     0.029 A 
ATOM     59  C   UNL A   1      44.949  30.904  28.445  1.00  0.00     0.049 A 
ATOM     60  H   UNL A   1      44.668  28.871  27.954  1.00  0.00     0.167 HD
ATOM     61  C   UNL A   1      47.200  30.134  27.749  1.00  0.00     0.074 A 
ATOM     62  C   UNL A   1      48.611  30.340  27.489  1.00  0.00     0.031 C 
ATOM     63  C   UNL A   1      46.352  31.102  28.173  1.00  0.00     0.031 A 
BRANCH  50  64
ATOM     64  C   UNL A   1      40.498  29.219  28.826  1.00  0.00    -0.014 A 
ATOM     65  C   UNL A   1      39.556  29.387  27.795  1.00  0.00     0.010 A 
ATOM     66  C   UNL A   1      40.082  29.370  30.162  1.00  0.00     0.010 A 
ATOM     67  C   UNL A   1      38.239  29.749  28.091  1.00  0.00     0.020 A 
ATOM     68  C   UNL A   1      38.758  29.702  30.464  1.00  0.00     0.020 A 
ATOM     69  C   UNL A   1      37.850  29.910  29.424  1.00  0.00     0.054 A 
BRANCH  69  70
ATOM     70  S   UNL A   1      36.132  30.372  29.778  1.00  0.00     0.124 S 
ATOM     71  O   UNL A   1      36.168  31.821  29.596  1.00  0.00    -0.237 OA
ATOM     72  O   UNL A   1      35.385  29.632  28.765  1.00  0.00    -0.237 OA
ATOM     73  O   UNL A   1      35.928  29.921  31.152  1.00  0.00    -0.744 OA
ENDBRANCH  69  70
ENDBRANCH  50  64
BRANCH  51  74
ATOM     74  C   UNL A   1      49.739  26.466  26.228  1.00  0.00    -0.014 A 
ATOM     75  C   UNL A   1      50.177  26.760  24.925  1.00  0.00     0.010 A 
ATOM     76  C   UNL A   1      50.619  25.817  27.114  1.00  0.00     0.010 A 
ATOM     77  C   UNL A   1      51.466  26.407  24.515  1.00  0.00     0.020 A 
ATOM     78  C   UNL A   1      51.917  25.488  26.717  1.00  0.00     0.020 A 
ATOM     79  C   UNL A   1      52.330  25.779  25.415  1.00  0.00     0.054 A 
BRANCH  79  80
ATOM     80  S   UNL A   1      54.022  25.395  24.883  1.00  0.00     0.124 S 
ATOM     81  O   UNL A   1      54.821  26.118  25.867  1.00  0.00    -0.237 OA
ATOM     82  O   UNL A   1      54.060  23.937  24.982  1.00  0.00    -0.237 OA
ATOM     83  O   UNL A   1      54.079  25.920  23.521  1.00  0.00    -0.744 OA
ENDBRANCH  79  80
ENDBRANCH  51  74
BRANCH  63  84
ATOM     84  C   UNL A   1      46.923  32.475  28.402  1.00  0.00    -0.014 A 
ATOM     85  C   UNL A   1      47.511  32.825  29.631  1.00  0.00     0.010 A 
ATOM     86  C   UNL A   1      46.930  33.410  27.349  1.00  0.00     0.010 A 
ATOM     87  C   UNL A   1      48.071  34.091  29.811  1.00  0.00     0.020 A 
ATOM     88  C   UNL A   1      47.514  34.668  27.516  1.00  0.00     0.020 A 
ATOM     89  C   UNL A   1      48.072  35.005  28.751  1.00  0.00     0.054 A 
BRANCH  89  90
ATOM     90  S   UNL A   1      48.853  36.624  28.995  1.00  0.00     0.124 S 
ATOM     91  O   UNL A   1      47.941  37.513  28.280  1.00  0.00    -0.237 OA
ATOM     92  O   UNL A   1      48.855  36.763  30.449  1.00  0.00    -0.237 OA
ATOM     93  O   UNL A   1      50.173  36.466  28.389  1.00  0.00    -0.744 OA
ENDBRANCH  89  90
ENDBRANCH  63  84
ENDBRANCH  37  38
ENDBRANCH  29  32
ENDBRANCH  27  28
ENDBRANCH  26  27
ENDBRANCH   1  26
TORSDOF 17
ENDMDL
