MODEL 1
REMARK VINA RESULT:     -10.0      0.000      0.000
REMARK SMILES CCCC[C@H](C(=O)NCCCCNC(=O)c1ccc(-c2c3nc(c(-c4ccc(S(=O)(=O)[O-])cc4)c4ccc([nH]4)c(-c4ccc(S(=O)(=O)[O-])cc4)c4nc(c(-c5ccc(S(=O)(=O)[O-])cc5)c5ccc2[nH]5)C=C4)C=C3)cc1)[C@](C)(O)c1ccc(Cl)c(Cl)c1
REMARK SMILES IDX 10 1 9 2 8 3 6 4 7 5 5 7 4 8 3 9 2 10 1 11 76 12 77 13 78 14
REMARK SMILES IDX 79 16 80 17 86 18 81 19 84 20 82 21 85 22 83 23 11 24 12 25
REMARK SMILES IDX 13 26 14 27 15 29 16 30 17 31 75 32 18 33 74 34 19 35 20 36
REMARK SMILES IDX 21 37 68 38 22 39 73 40 67 41 69 42 23 43 72 44 66 45 65 46
REMARK SMILES IDX 24 48 54 49 35 50 53 51 36 52 39 53 52 54 70 55 37 56 38 57
REMARK SMILES IDX 51 59 71 60 40 61 25 62 26 63 34 64 27 65 33 66 28 67 29 68
REMARK SMILES IDX 30 69 31 70 32 71 55 72 56 73 64 74 57 75 63 76 58 77 59 78
REMARK SMILES IDX 60 79 61 80 62 81 41 82 42 83 50 84 43 85 49 86 44 87 45 88
REMARK SMILES IDX 46 89 47 90 48 91
REMARK H PARENT 8 6 78 15 13 28 69 47 39 58
REMARK Flexibility Score: inf
ROOT
ATOM      1  C   UNL A   1      34.854  22.091  25.650  1.00  0.00     0.023 C 
ENDROOT
BRANCH   1   2
ATOM      2  C   UNL A   1      34.519  22.840  26.944  1.00  0.00     0.116 C 
BRANCH   2   3
ATOM      3  N   UNL A   1      33.105  23.128  27.053  1.00  0.00    -0.356 N 
ATOM      4  C   UNL A   1      32.362  24.177  26.608  1.00  0.00     0.226 C 
ATOM      5  O   UNL A   1      31.175  24.169  26.950  1.00  0.00    -0.275 OA
ATOM      6  H   UNL A   1      32.588  22.443  27.535  1.00  0.00     0.163 HD
BRANCH   4   7
ATOM      7  C   UNL A   1      32.948  25.283  25.708  1.00  0.00     0.114 C 
BRANCH   7   8
ATOM      8  C   UNL A   1      32.650  24.921  24.217  1.00  0.00     0.017 C 
BRANCH   8   9
ATOM      9  C   UNL A   1      33.698  25.472  23.239  1.00  0.00     0.001 C 
BRANCH   9  10
ATOM     10  C   UNL A   1      33.255  25.559  21.777  1.00  0.00    -0.003 C 
ATOM     11  C   UNL A   1      31.819  26.033  21.608  1.00  0.00     0.004 C 
ENDBRANCH   9  10
ENDBRANCH   8   9
ENDBRANCH   7   8
BRANCH   7  12
ATOM     12  C   UNL A   1      32.526  26.762  26.051  1.00  0.00     0.098 C 
ATOM     13  C   UNL A   1      33.804  27.618  26.273  1.00  0.00     0.048 C 
BRANCH  12  14
ATOM     14  O   UNL A   1      31.900  26.804  27.341  1.00  0.00    -0.385 OA
ATOM     15  H   UNL A   1      30.938  26.727  27.237  1.00  0.00     0.211 HD
ENDBRANCH  12  14
BRANCH  12  16
ATOM     16  C   UNL A   1      31.510  27.413  25.102  1.00  0.00    -0.014 A 
ATOM     17  C   UNL A   1      31.860  28.536  24.327  1.00  0.00     0.008 A 
ATOM     18  C   UNL A   1      30.223  26.886  24.893  1.00  0.00     0.028 A 
ATOM     19  C   UNL A   1      30.960  29.141  23.443  1.00  0.00     0.022 A 
ATOM     20  C   UNL A   1      29.323  27.469  23.985  1.00  0.00     0.060 A 
ATOM     21  C   UNL A   1      29.686  28.610  23.269  1.00  0.00     0.059 A 
ATOM     22  Cl  UNL A   1      27.781  26.708  23.790  1.00  0.00    -0.083 Cl
ATOM     23  Cl  UNL A   1      28.623  29.390  22.156  1.00  0.00    -0.083 Cl
ENDBRANCH  12  16
ENDBRANCH   7  12
ENDBRANCH   4   7
ENDBRANCH   2   3
ENDBRANCH   1   2
BRANCH   1  24
ATOM     24  C   UNL A   1      35.804  22.811  24.697  1.00  0.00     0.023 C 
BRANCH  24  25
ATOM     25  C   UNL A   1      36.961  23.541  25.361  1.00  0.00     0.116 C 
BRANCH  25  26
ATOM     26  N   UNL A   1      38.117  22.687  25.596  1.00  0.00    -0.352 N 
ATOM     27  C   UNL A   1      39.294  22.988  26.239  1.00  0.00     0.251 C 
ATOM     28  H   UNL A   1      38.046  21.770  25.246  1.00  0.00     0.163 HD
ATOM     29  O   UNL A   1      40.217  22.179  26.258  1.00  0.00    -0.269 OA
BRANCH  27  30
ATOM     30  C   UNL A   1      39.447  24.316  26.867  1.00  0.00     0.039 A 
ATOM     31  C   UNL A   1      38.956  24.513  28.159  1.00  0.00     0.014 A 
ATOM     32  C   UNL A   1      40.146  25.330  26.209  1.00  0.00     0.014 A 
ATOM     33  C   UNL A   1      39.251  25.700  28.832  1.00  0.00     0.010 A 
ATOM     34  C   UNL A   1      40.498  26.481  26.904  1.00  0.00     0.010 A 
ATOM     35  C   UNL A   1      40.069  26.668  28.227  1.00  0.00    -0.014 A 
BRANCH  35  36
ATOM     36  C   UNL A   1      40.524  27.873  28.963  1.00  0.00     0.031 A 
ATOM     37  C   UNL A   1      41.867  27.879  29.636  1.00  0.00     0.074 A 
ATOM     38  C   UNL A   1      39.687  28.919  29.107  1.00  0.00     0.049 A 
ATOM     39  N   UNL A   1      42.386  28.780  30.428  1.00  0.00    -0.248 NA
ATOM     40  C   UNL A   1      42.726  26.706  29.407  1.00  0.00     0.031 C 
ATOM     41  C   UNL A   1      38.346  29.022  28.526  1.00  0.00     0.029 A 
ATOM     42  N   UNL A   1      39.838  30.094  29.800  1.00  0.00    -0.354 N 
ATOM     43  C   UNL A   1      43.624  28.275  30.810  1.00  0.00     0.074 A 
ATOM     44  C   UNL A   1      43.757  26.972  30.194  1.00  0.00     0.031 C 
ATOM     45  C   UNL A   1      37.808  30.204  28.868  1.00  0.00     0.029 A 
ATOM     46  C   UNL A   1      38.742  30.922  29.728  1.00  0.00     0.049 A 
ATOM     47  H   UNL A   1      40.654  30.322  30.301  1.00  0.00     0.167 HD
ATOM     48  C   UNL A   1      44.569  28.850  31.590  1.00  0.00     0.031 A 
ATOM     49  C   UNL A   1      38.510  32.118  30.301  1.00  0.00     0.031 A 
ATOM     50  C   UNL A   1      44.436  30.148  32.193  1.00  0.00     0.049 A 
ATOM     51  C   UNL A   1      39.560  32.723  31.190  1.00  0.00     0.074 A 
ATOM     52  C   UNL A   1      45.359  30.840  32.959  1.00  0.00     0.029 A 
ATOM     53  N   UNL A   1      43.310  30.951  32.100  1.00  0.00    -0.354 N 
ATOM     54  N   UNL A   1      40.743  32.250  31.505  1.00  0.00    -0.248 NA
ATOM     55  C   UNL A   1      39.244  34.020  31.803  1.00  0.00     0.031 C 
ATOM     56  C   UNL A   1      44.773  32.045  33.361  1.00  0.00     0.029 A 
ATOM     57  C   UNL A   1      43.503  32.122  32.813  1.00  0.00     0.049 A 
ATOM     58  H   UNL A   1      42.493  30.720  31.603  1.00  0.00     0.167 HD
ATOM     59  C   UNL A   1      41.319  33.200  32.339  1.00  0.00     0.074 A 
ATOM     60  C   UNL A   1      40.360  34.278  32.473  1.00  0.00     0.031 C 
ATOM     61  C   UNL A   1      42.534  33.180  32.939  1.00  0.00     0.031 A 
BRANCH  48  62
ATOM     62  C   UNL A   1      45.825  28.060  31.837  1.00  0.00    -0.014 A 
ATOM     63  C   UNL A   1      46.925  28.164  30.966  1.00  0.00     0.010 A 
ATOM     64  C   UNL A   1      45.907  27.203  32.948  1.00  0.00     0.010 A 
ATOM     65  C   UNL A   1      48.065  27.382  31.172  1.00  0.00     0.020 A 
ATOM     66  C   UNL A   1      47.056  26.438  33.171  1.00  0.00     0.020 A 
ATOM     67  C   UNL A   1      48.118  26.516  32.266  1.00  0.00     0.054 A 
BRANCH  67  68
ATOM     68  S   UNL A   1      49.602  25.502  32.506  1.00  0.00     0.124 S 
ATOM     69  O   UNL A   1      50.542  26.473  33.061  1.00  0.00    -0.237 OA
ATOM     70  O   UNL A   1      49.144  24.472  33.435  1.00  0.00    -0.237 OA
ATOM     71  O   UNL A   1      49.918  25.026  31.162  1.00  0.00    -0.744 OA
ENDBRANCH  67  68
ENDBRANCH  48  62
BRANCH  49  72
ATOM     72  C   UNL A   1      37.230  32.827  30.039  1.00  0.00    -0.014 A 
ATOM     73  C   UNL A   1      37.124  33.707  28.948  1.00  0.00     0.010 A 
ATOM     74  C   UNL A   1      36.107  32.606  30.855  1.00  0.00     0.010 A 
ATOM     75  C   UNL A   1      35.917  34.358  28.680  1.00  0.00     0.020 A 
ATOM     76  C   UNL A   1      34.892  33.240  30.578  1.00  0.00     0.020 A 
ATOM     77  C   UNL A   1      34.807  34.118  29.495  1.00  0.00     0.054 A 
BRANCH  77  78
ATOM     78  S   UNL A   1      33.231  34.921  29.088  1.00  0.00     0.124 S 
ATOM     79  O   UNL A   1      32.681  34.017  28.084  1.00  0.00    -0.237 OA
ATOM     80  O   UNL A   1      32.539  34.933  30.375  1.00  0.00    -0.237 OA
ATOM     81  O   UNL A   1      33.636  36.236  28.597  1.00  0.00    -0.744 OA
ENDBRANCH  77  78
ENDBRANCH  49  72
BRANCH  61  82
ATOM     82  C   UNL A   1      42.906  34.367  33.785  1.00  0.00    -0.014 A 
ATOM     83  C   UNL A   1      42.716  34.348  35.176  1.00  0.00     0.010 A 
ATOM     84  C   UNL A   1      43.520  35.481  33.185  1.00  0.00     0.010 A 
ATOM     85  C   UNL A   1      43.122  35.434  35.957  1.00  0.00     0.020 A 
ATOM     86  C   UNL A   1      43.944  36.560  33.965  1.00  0.00     0.020 A 
ATOM     87  C   UNL A   1      43.736  36.532  35.346  1.00  0.00     0.054 A 
BRANCH  87  88
ATOM     88  S   UNL A   1      44.318  37.899  36.387  1.00  0.00     0.124 S 
ATOM     89  O   UNL A   1      43.426  37.807  37.538  1.00  0.00    -0.237 OA
ATOM     90  O   UNL A   1      45.711  37.541  36.641  1.00  0.00    -0.237 OA
ATOM     91  O   UNL A   1      44.130  39.078  35.544  1.00  0.00    -0.744 OA
ENDBRANCH  87  88
ENDBRANCH  61  82
ENDBRANCH  35  36
ENDBRANCH  27  30
ENDBRANCH  25  26
ENDBRANCH  24  25
ENDBRANCH   1  24
TORSDOF 20
ENDMDL
MODEL 2
REMARK VINA RESULT:      -9.5      2.883      3.955
REMARK SMILES CCCC[C@H](C(=O)NCCCCNC(=O)c1ccc(-c2c3nc(c(-c4ccc(S(=O)(=O)[O-])cc4)c4ccc([nH]4)c(-c4ccc(S(=O)(=O)[O-])cc4)c4nc(c(-c5ccc(S(=O)(=O)[O-])cc5)c5ccc2[nH]5)C=C4)C=C3)cc1)[C@](C)(O)c1ccc(Cl)c(Cl)c1
REMARK SMILES IDX 10 1 9 2 8 3 6 4 7 5 5 7 4 8 3 9 2 10 1 11 76 12 77 13 78 14
REMARK SMILES IDX 79 16 80 17 86 18 81 19 84 20 82 21 85 22 83 23 11 24 12 25
REMARK SMILES IDX 13 26 14 27 15 29 16 30 17 31 75 32 18 33 74 34 19 35 20 36
REMARK SMILES IDX 21 37 68 38 22 39 73 40 67 41 69 42 23 43 72 44 66 45 65 46
REMARK SMILES IDX 24 48 54 49 35 50 53 51 36 52 39 53 52 54 70 55 37 56 38 57
REMARK SMILES IDX 51 59 71 60 40 61 25 62 26 63 34 64 27 65 33 66 28 67 29 68
REMARK SMILES IDX 30 69 31 70 32 71 55 72 56 73 64 74 57 75 63 76 58 77 59 78
REMARK SMILES IDX 60 79 61 80 62 81 41 82 42 83 50 84 43 85 49 86 44 87 45 88
REMARK SMILES IDX 46 89 47 90 48 91
REMARK H PARENT 8 6 78 15 13 28 69 47 39 58
REMARK Flexibility Score: inf
ROOT
ATOM      1  C   UNL A   1      35.153  23.827  23.987  1.00  0.00     0.023 C 
ENDROOT
BRANCH   1   2
ATOM      2  C   UNL A   1      34.682  24.910  24.963  1.00  0.00     0.116 C 
BRANCH   2   3
ATOM      3  N   UNL A   1      34.036  26.011  24.281  1.00  0.00    -0.356 N 
ATOM      4  C   UNL A   1      32.805  26.568  24.433  1.00  0.00     0.226 C 
ATOM      5  O   UNL A   1      32.518  27.452  23.619  1.00  0.00    -0.275 OA
ATOM      6  H   UNL A   1      34.587  26.433  23.581  1.00  0.00     0.163 HD
BRANCH   4   7
ATOM      7  C   UNL A   1      31.845  26.154  25.566  1.00  0.00     0.114 C 
BRANCH   7   8
ATOM      8  C   UNL A   1      31.105  27.431  26.082  1.00  0.00     0.017 C 
BRANCH   8   9
ATOM      9  C   UNL A   1      31.709  27.999  27.374  1.00  0.00     0.001 C 
BRANCH   9  10
ATOM     10  C   UNL A   1      32.366  29.376  27.246  1.00  0.00    -0.003 C 
ATOM     11  C   UNL A   1      31.980  30.113  25.972  1.00  0.00     0.004 C 
ENDBRANCH   9  10
ENDBRANCH   8   9
ENDBRANCH   7   8
BRANCH   7  12
ATOM     12  C   UNL A   1      30.841  24.983  25.240  1.00  0.00     0.098 C 
ATOM     13  C   UNL A   1      29.869  25.444  24.118  1.00  0.00     0.048 C 
BRANCH  12  14
ATOM     14  O   UNL A   1      29.954  24.778  26.349  1.00  0.00    -0.385 OA
ATOM     15  H   UNL A   1      30.417  24.291  27.048  1.00  0.00     0.211 HD
ENDBRANCH  12  14
BRANCH  12  16
ATOM     16  C   UNL A   1      31.467  23.607  24.980  1.00  0.00    -0.014 A 
ATOM     17  C   UNL A   1      31.971  22.829  26.040  1.00  0.00     0.008 A 
ATOM     18  C   UNL A   1      31.499  23.018  23.703  1.00  0.00     0.028 A 
ATOM     19  C   UNL A   1      32.535  21.564  25.835  1.00  0.00     0.022 A 
ATOM     20  C   UNL A   1      32.035  21.736  23.492  1.00  0.00     0.060 A 
ATOM     21  C   UNL A   1      32.569  21.013  24.559  1.00  0.00     0.059 A 
ATOM     22  Cl  UNL A   1      31.985  21.106  21.882  1.00  0.00    -0.083 Cl
ATOM     23  Cl  UNL A   1      33.264  19.445  24.367  1.00  0.00    -0.083 Cl
ENDBRANCH  12  16
ENDBRANCH   7  12
ENDBRANCH   4   7
ENDBRANCH   2   3
ENDBRANCH   1   2
BRANCH   1  24
ATOM     24  C   UNL A   1      36.072  22.761  24.578  1.00  0.00     0.023 C 
BRANCH  24  25
ATOM     25  C   UNL A   1      36.879  23.198  25.790  1.00  0.00     0.116 C 
BRANCH  25  26
ATOM     26  N   UNL A   1      37.995  22.311  26.085  1.00  0.00    -0.352 N 
ATOM     27  C   UNL A   1      39.243  22.626  26.568  1.00  0.00     0.251 C 
ATOM     28  H   UNL A   1      37.834  21.354  25.916  1.00  0.00     0.163 HD
ATOM     29  O   UNL A   1      40.109  21.762  26.664  1.00  0.00    -0.269 OA
BRANCH  27  30
ATOM     30  C   UNL A   1      39.537  24.027  26.929  1.00  0.00     0.039 A 
ATOM     31  C   UNL A   1      39.393  24.428  28.260  1.00  0.00     0.014 A 
ATOM     32  C   UNL A   1      40.029  24.914  25.969  1.00  0.00     0.014 A 
ATOM     33  C   UNL A   1      39.838  25.692  28.648  1.00  0.00     0.010 A 
ATOM     34  C   UNL A   1      40.535  26.145  26.369  1.00  0.00     0.010 A 
ATOM     35  C   UNL A   1      40.460  26.537  27.715  1.00  0.00    -0.014 A 
BRANCH  35  36
ATOM     36  C   UNL A   1      41.075  27.825  28.120  1.00  0.00     0.031 A 
ATOM     37  C   UNL A   1      42.565  27.999  28.052  1.00  0.00     0.074 A 
ATOM     38  C   UNL A   1      40.301  28.798  28.638  1.00  0.00     0.049 A 
ATOM     39  N   UNL A   1      43.298  28.994  28.479  1.00  0.00    -0.248 NA
ATOM     40  C   UNL A   1      43.333  26.897  27.450  1.00  0.00     0.031 C 
ATOM     41  C   UNL A   1      38.844  28.738  28.784  1.00  0.00     0.029 A 
ATOM     42  N   UNL A   1      40.634  30.025  29.154  1.00  0.00    -0.354 N 
ATOM     43  C   UNL A   1      44.614  28.631  28.216  1.00  0.00     0.074 A 
ATOM     44  C   UNL A   1      44.579  27.308  27.631  1.00  0.00     0.031 C 
ATOM     45  C   UNL A   1      38.409  29.887  29.328  1.00  0.00     0.029 A 
ATOM     46  C   UNL A   1      39.555  30.742  29.614  1.00  0.00     0.049 A 
ATOM     47  H   UNL A   1      41.559  30.360  29.191  1.00  0.00     0.167 HD
ATOM     48  C   UNL A   1      45.746  29.341  28.429  1.00  0.00     0.031 A 
ATOM     49  C   UNL A   1      39.496  31.948  30.211  1.00  0.00     0.031 A 
ATOM     50  C   UNL A   1      45.777  30.659  29.002  1.00  0.00     0.049 A 
ATOM     51  C   UNL A   1      40.769  32.704  30.467  1.00  0.00     0.074 A 
ATOM     52  C   UNL A   1      46.871  31.482  29.212  1.00  0.00     0.029 A 
ATOM     53  N   UNL A   1      44.664  31.347  29.460  1.00  0.00    -0.354 N 
ATOM     54  N   UNL A   1      42.001  32.363  30.172  1.00  0.00    -0.248 NA
ATOM     55  C   UNL A   1      40.644  34.005  31.139  1.00  0.00     0.031 C 
ATOM     56  C   UNL A   1      46.421  32.653  29.832  1.00  0.00     0.029 A 
ATOM     57  C   UNL A   1      45.044  32.576  29.971  1.00  0.00     0.049 A 
ATOM     58  H   UNL A   1      43.740  31.010  29.426  1.00  0.00     0.167 HD
ATOM     59  C   UNL A   1      42.798  33.415  30.607  1.00  0.00     0.074 A 
ATOM     60  C   UNL A   1      41.908  34.408  31.177  1.00  0.00     0.031 C 
ATOM     61  C   UNL A   1      44.145  33.547  30.540  1.00  0.00     0.031 A 
BRANCH  48  62
ATOM     62  C   UNL A   1      47.045  28.688  28.043  1.00  0.00    -0.014 A 
ATOM     63  C   UNL A   1      47.599  28.881  26.764  1.00  0.00     0.010 A 
ATOM     64  C   UNL A   1      47.720  27.870  28.966  1.00  0.00     0.010 A 
ATOM     65  C   UNL A   1      48.774  28.224  26.396  1.00  0.00     0.020 A 
ATOM     66  C   UNL A   1      48.911  27.230  28.610  1.00  0.00     0.020 A 
ATOM     67  C   UNL A   1      49.417  27.393  27.318  1.00  0.00     0.054 A 
BRANCH  67  68
ATOM     68  S   UNL A   1      50.935  26.539  26.814  1.00  0.00     0.124 S 
ATOM     69  O   UNL A   1      51.196  25.685  27.971  1.00  0.00    -0.237 OA
ATOM     70  O   UNL A   1      50.526  25.839  25.599  1.00  0.00    -0.237 OA
ATOM     71  O   UNL A   1      51.892  27.623  26.611  1.00  0.00    -0.744 OA
ENDBRANCH  67  68
ENDBRANCH  48  62
BRANCH  49  72
ATOM     72  C   UNL A   1      38.178  32.518  30.596  1.00  0.00    -0.014 A 
ATOM     73  C   UNL A   1      37.689  32.344  31.902  1.00  0.00     0.010 A 
ATOM     74  C   UNL A   1      37.421  33.262  29.673  1.00  0.00     0.010 A 
ATOM     75  C   UNL A   1      36.463  32.898  32.279  1.00  0.00     0.020 A 
ATOM     76  C   UNL A   1      36.204  33.836  30.052  1.00  0.00     0.020 A 
ATOM     77  C   UNL A   1      35.729  33.643  31.352  1.00  0.00     0.054 A 
BRANCH  77  78
ATOM     78  S   UNL A   1      34.174  34.413  31.882  1.00  0.00     0.124 S 
ATOM     79  O   UNL A   1      34.643  35.639  32.519  1.00  0.00    -0.237 OA
ATOM     80  O   UNL A   1      33.461  34.590  30.619  1.00  0.00    -0.237 OA
ATOM     81  O   UNL A   1      33.591  33.420  32.781  1.00  0.00    -0.744 OA
ENDBRANCH  77  78
ENDBRANCH  49  72
BRANCH  61  82
ATOM     82  C   UNL A   1      44.743  34.816  31.081  1.00  0.00    -0.014 A 
ATOM     83  C   UNL A   1      45.215  34.885  32.401  1.00  0.00     0.010 A 
ATOM     84  C   UNL A   1      44.898  35.927  30.232  1.00  0.00     0.010 A 
ATOM     85  C   UNL A   1      45.824  36.052  32.872  1.00  0.00     0.020 A 
ATOM     86  C   UNL A   1      45.523  37.088  30.694  1.00  0.00     0.020 A 
ATOM     87  C   UNL A   1      45.976  37.145  32.014  1.00  0.00     0.054 A 
BRANCH  87  88
ATOM     88  S   UNL A   1      46.831  38.624  32.625  1.00  0.00     0.124 S 
ATOM     89  O   UNL A   1      46.724  38.462  34.071  1.00  0.00    -0.237 OA
ATOM     90  O   UNL A   1      48.175  38.471  32.073  1.00  0.00    -0.237 OA
ATOM     91  O   UNL A   1      46.056  39.728  32.061  1.00  0.00    -0.744 OA
ENDBRANCH  87  88
ENDBRANCH  61  82
ENDBRANCH  35  36
ENDBRANCH  27  30
ENDBRANCH  25  26
ENDBRANCH  24  25
ENDBRANCH   1  24
TORSDOF 20
ENDMDL
MODEL 3
REMARK VINA RESULT:      -9.5      4.883      9.996
REMARK SMILES CCCC[C@H](C(=O)NCCCCNC(=O)c1ccc(-c2c3nc(c(-c4ccc(S(=O)(=O)[O-])cc4)c4ccc([nH]4)c(-c4ccc(S(=O)(=O)[O-])cc4)c4nc(c(-c5ccc(S(=O)(=O)[O-])cc5)c5ccc2[nH]5)C=C4)C=C3)cc1)[C@](C)(O)c1ccc(Cl)c(Cl)c1
REMARK SMILES IDX 10 1 9 2 8 3 6 4 7 5 5 7 4 8 3 9 2 10 1 11 76 12 77 13 78 14
REMARK SMILES IDX 79 16 80 17 86 18 81 19 84 20 82 21 85 22 83 23 11 24 12 25
REMARK SMILES IDX 13 26 14 27 15 29 16 30 17 31 75 32 18 33 74 34 19 35 20 36
REMARK SMILES IDX 21 37 68 38 22 39 73 40 67 41 69 42 23 43 72 44 66 45 65 46
REMARK SMILES IDX 24 48 54 49 35 50 53 51 36 52 39 53 52 54 70 55 37 56 38 57
REMARK SMILES IDX 51 59 71 60 40 61 25 62 26 63 34 64 27 65 33 66 28 67 29 68
REMARK SMILES IDX 30 69 31 70 32 71 55 72 56 73 64 74 57 75 63 76 58 77 59 78
REMARK SMILES IDX 60 79 61 80 62 81 41 82 42 83 50 84 43 85 49 86 44 87 45 88
REMARK SMILES IDX 46 89 47 90 48 91
REMARK H PARENT 8 6 78 15 13 28 69 47 39 58
REMARK Flexibility Score: inf
ROOT
ATOM      1  C   UNL A   1      37.404  22.632  24.830  1.00  0.00     0.023 C 
ENDROOT
BRANCH   1   2
ATOM      2  C   UNL A   1      36.870  23.617  25.873  1.00  0.00     0.116 C 
BRANCH   2   3
ATOM      3  N   UNL A   1      35.929  22.993  26.777  1.00  0.00    -0.356 N 
ATOM      4  C   UNL A   1      34.570  23.033  26.835  1.00  0.00     0.226 C 
ATOM      5  O   UNL A   1      34.063  22.454  27.801  1.00  0.00    -0.275 OA
ATOM      6  H   UNL A   1      36.347  22.439  27.477  1.00  0.00     0.163 HD
BRANCH   4   7
ATOM      7  C   UNL A   1      33.718  23.721  25.751  1.00  0.00     0.114 C 
BRANCH   7   8
ATOM      8  C   UNL A   1      34.396  25.077  25.371  1.00  0.00     0.017 C 
BRANCH   8   9
ATOM      9  C   UNL A   1      33.547  26.302  25.740  1.00  0.00     0.001 C 
BRANCH   9  10
ATOM     10  C   UNL A   1      32.164  25.997  26.319  1.00  0.00    -0.003 C 
ATOM     11  C   UNL A   1      31.028  26.658  25.554  1.00  0.00     0.004 C 
ENDBRANCH   9  10
ENDBRANCH   8   9
ENDBRANCH   7   8
BRANCH   7  12
ATOM     12  C   UNL A   1      33.374  22.857  24.478  1.00  0.00     0.098 C 
ATOM     13  C   UNL A   1      34.250  23.336  23.287  1.00  0.00     0.048 C 
BRANCH  12  14
ATOM     14  O   UNL A   1      32.047  23.163  24.025  1.00  0.00    -0.385 OA
ATOM     15  H   UNL A   1      31.512  23.469  24.773  1.00  0.00     0.211 HD
ENDBRANCH  12  14
BRANCH  12  16
ATOM     16  C   UNL A   1      33.381  21.335  24.670  1.00  0.00    -0.014 A 
ATOM     17  C   UNL A   1      32.178  20.620  24.830  1.00  0.00     0.008 A 
ATOM     18  C   UNL A   1      34.560  20.570  24.615  1.00  0.00     0.028 A 
ATOM     19  C   UNL A   1      32.153  19.230  24.993  1.00  0.00     0.022 A 
ATOM     20  C   UNL A   1      34.541  19.171  24.747  1.00  0.00     0.060 A 
ATOM     21  C   UNL A   1      33.336  18.500  24.952  1.00  0.00     0.059 A 
ATOM     22  Cl  UNL A   1      36.053  18.339  24.626  1.00  0.00    -0.083 Cl
ATOM     23  Cl  UNL A   1      33.243  16.788  25.145  1.00  0.00    -0.083 Cl
ENDBRANCH  12  16
ENDBRANCH   7  12
ENDBRANCH   4   7
ENDBRANCH   2   3
ENDBRANCH   1   2
BRANCH   1  24
ATOM     24  C   UNL A   1      37.925  21.306  25.380  1.00  0.00     0.023 C 
BRANCH  24  25
ATOM     25  C   UNL A   1      39.249  21.386  26.121  1.00  0.00     0.116 C 
BRANCH  25  26
ATOM     26  N   UNL A   1      40.001  20.140  26.087  1.00  0.00    -0.352 N 
ATOM     27  C   UNL A   1      41.358  19.948  26.193  1.00  0.00     0.251 C 
ATOM     28  H   UNL A   1      39.464  19.322  25.973  1.00  0.00     0.163 HD
ATOM     29  O   UNL A   1      41.842  18.831  26.038  1.00  0.00    -0.269 OA
BRANCH  27  30
ATOM     30  C   UNL A   1      42.227  21.114  26.452  1.00  0.00     0.039 A 
ATOM     31  C   UNL A   1      42.637  21.904  25.375  1.00  0.00     0.014 A 
ATOM     32  C   UNL A   1      42.563  21.465  27.761  1.00  0.00     0.014 A 
ATOM     33  C   UNL A   1      43.304  23.106  25.621  1.00  0.00     0.010 A 
ATOM     34  C   UNL A   1      43.165  22.693  28.008  1.00  0.00     0.010 A 
ATOM     35  C   UNL A   1      43.524  23.532  26.941  1.00  0.00    -0.014 A 
BRANCH  35  36
ATOM     36  C   UNL A   1      44.097  24.867  27.243  1.00  0.00     0.031 A 
ATOM     37  C   UNL A   1      43.206  25.973  27.730  1.00  0.00     0.074 A 
ATOM     38  C   UNL A   1      45.397  25.106  26.983  1.00  0.00     0.049 A 
ATOM     39  N   UNL A   1      43.491  27.234  27.924  1.00  0.00    -0.248 NA
ATOM     40  C   UNL A   1      41.806  25.619  28.011  1.00  0.00     0.031 C 
ATOM     41  C   UNL A   1      46.359  24.122  26.480  1.00  0.00     0.029 A 
ATOM     42  N   UNL A   1      46.132  26.260  27.094  1.00  0.00    -0.354 N 
ATOM     43  C   UNL A   1      42.303  27.829  28.330  1.00  0.00     0.074 A 
ATOM     44  C   UNL A   1      41.286  26.799  28.314  1.00  0.00     0.031 C 
ATOM     45  C   UNL A   1      47.561  24.708  26.349  1.00  0.00     0.029 A 
ATOM     46  C   UNL A   1      47.445  26.116  26.712  1.00  0.00     0.049 A 
ATOM     47  H   UNL A   1      45.755  27.109  27.417  1.00  0.00     0.167 HD
ATOM     48  C   UNL A   1      42.080  29.113  28.696  1.00  0.00     0.031 A 
ATOM     49  C   UNL A   1      48.441  27.020  26.647  1.00  0.00     0.031 A 
ATOM     50  C   UNL A   1      43.094  30.132  28.720  1.00  0.00     0.049 A 
ATOM     51  C   UNL A   1      48.164  28.447  27.028  1.00  0.00     0.074 A 
ATOM     52  C   UNL A   1      42.979  31.451  29.124  1.00  0.00     0.029 A 
ATOM     53  N   UNL A   1      44.409  29.948  28.320  1.00  0.00    -0.354 N 
ATOM     54  N   UNL A   1      47.044  28.983  27.451  1.00  0.00    -0.248 NA
ATOM     55  C   UNL A   1      49.284  29.392  26.920  1.00  0.00     0.031 C 
ATOM     56  C   UNL A   1      44.218  32.074  28.932  1.00  0.00     0.029 A 
ATOM     57  C   UNL A   1      45.112  31.133  28.446  1.00  0.00     0.049 A 
ATOM     58  H   UNL A   1      44.785  29.099  27.993  1.00  0.00     0.167 HD
ATOM     59  C   UNL A   1      47.327  30.324  27.676  1.00  0.00     0.074 A 
ATOM     60  C   UNL A   1      48.727  30.517  27.351  1.00  0.00     0.031 C 
ATOM     61  C   UNL A   1      46.502  31.307  28.112  1.00  0.00     0.031 A 
BRANCH  48  62
ATOM     62  C   UNL A   1      40.676  29.478  29.092  1.00  0.00    -0.014 A 
ATOM     63  C   UNL A   1      39.681  29.680  28.118  1.00  0.00     0.010 A 
ATOM     64  C   UNL A   1      40.345  29.624  30.450  1.00  0.00     0.010 A 
ATOM     65  C   UNL A   1      38.395  30.075  28.492  1.00  0.00     0.020 A 
ATOM     66  C   UNL A   1      39.052  29.996  30.830  1.00  0.00     0.020 A 
ATOM     67  C   UNL A   1      38.092  30.242  29.846  1.00  0.00     0.054 A 
BRANCH  67  68
ATOM     68  S   UNL A   1      36.420  30.768  30.308  1.00  0.00     0.124 S 
ATOM     69  O   UNL A   1      36.647  32.148  30.732  1.00  0.00    -0.237 OA
ATOM     70  O   UNL A   1      35.674  30.611  29.063  1.00  0.00    -0.237 OA
ATOM     71  O   UNL A   1      36.047  29.843  31.374  1.00  0.00    -0.744 OA
ENDBRANCH  67  68
ENDBRANCH  48  62
BRANCH  49  72
ATOM     72  C   UNL A   1      49.799  26.595  26.216  1.00  0.00    -0.014 A 
ATOM     73  C   UNL A   1      50.209  26.790  24.886  1.00  0.00     0.010 A 
ATOM     74  C   UNL A   1      50.697  26.022  27.134  1.00  0.00     0.010 A 
ATOM     75  C   UNL A   1      51.492  26.416  24.478  1.00  0.00     0.020 A 
ATOM     76  C   UNL A   1      51.989  25.666  26.735  1.00  0.00     0.020 A 
ATOM     77  C   UNL A   1      52.375  25.859  25.407  1.00  0.00     0.054 A 
BRANCH  77  78
ATOM     78  S   UNL A   1      54.060  25.444  24.874  1.00  0.00     0.124 S 
ATOM     79  O   UNL A   1      54.070  23.992  25.004  1.00  0.00    -0.237 OA
ATOM     80  O   UNL A   1      54.095  25.957  23.506  1.00  0.00    -0.237 OA
ATOM     81  O   UNL A   1      54.904  26.168  25.822  1.00  0.00    -0.744 OA
ENDBRANCH  77  78
ENDBRANCH  49  72
BRANCH  61  82
ATOM     82  C   UNL A   1      47.093  32.679  28.281  1.00  0.00    -0.014 A 
ATOM     83  C   UNL A   1      47.694  33.061  29.492  1.00  0.00     0.010 A 
ATOM     84  C   UNL A   1      47.109  33.568  27.191  1.00  0.00     0.010 A 
ATOM     85  C   UNL A   1      48.293  34.318  29.615  1.00  0.00     0.020 A 
ATOM     86  C   UNL A   1      47.724  34.817  27.305  1.00  0.00     0.020 A 
ATOM     87  C   UNL A   1      48.306  35.187  28.520  1.00  0.00     0.054 A 
BRANCH  87  88
ATOM     88  S   UNL A   1      49.150  36.785  28.681  1.00  0.00     0.124 S 
ATOM     89  O   UNL A   1      48.056  37.728  28.474  1.00  0.00    -0.237 OA
ATOM     90  O   UNL A   1      49.686  36.731  30.039  1.00  0.00    -0.237 OA
ATOM     91  O   UNL A   1      50.155  36.752  27.621  1.00  0.00    -0.744 OA
ENDBRANCH  87  88
ENDBRANCH  61  82
ENDBRANCH  35  36
ENDBRANCH  27  30
ENDBRANCH  25  26
ENDBRANCH  24  25
ENDBRANCH   1  24
TORSDOF 20
ENDMDL
