MODEL 1
REMARK VINA RESULT:     -10.7      0.000      0.000
REMARK SMILES CC(C)[C@H]1CC[C@@H](C)C/C1=C(\F)C(=O)NCCCCNC(=O)c1ccc(-c2c3nc(c(-c4ccc(S(=O)(=O)[O-])cc4)c4ccc([nH]4)c(-c4ccc(S(=O)(=O)[O-])cc4)c4nc(c(-c5ccc(S(=O)(=O)[O-])cc5)c5ccc2[nH]5)C=C4)C=C3)cc1
REMARK SMILES IDX 18 1 17 2 16 3 15 4 13 5 14 6 11 8 4 9 5 10 10 11 6 12 9 13
REMARK SMILES IDX 7 14 12 15 8 16 2 17 1 18 3 19 19 20 20 21 21 22 22 24 23 25
REMARK SMILES IDX 24 26 82 27 25 28 81 29 26 30 27 31 28 32 75 33 29 34 80 35
REMARK SMILES IDX 74 36 76 37 30 38 79 39 73 40 72 41 31 43 61 44 42 45 60 46
REMARK SMILES IDX 43 47 46 48 59 49 77 50 44 51 45 52 58 54 78 55 47 56 32 57
REMARK SMILES IDX 33 58 41 59 34 60 40 61 35 62 36 63 37 64 38 65 39 66 62 67
REMARK SMILES IDX 63 68 71 69 64 70 70 71 65 72 66 73 67 74 68 75 69 76 48 77
REMARK SMILES IDX 49 78 57 79 50 80 56 81 51 82 52 83 53 84 54 85 55 86
REMARK H PARENT 15 7 20 23 76 42 46 53
REMARK Flexibility Score: inf
ROOT
ATOM      1  C   UNL A   1      33.160  27.775  25.543  1.00  0.00     0.023 C 
ENDROOT
BRANCH   1   2
ATOM      2  C   UNL A   1      33.985  28.142  24.305  1.00  0.00     0.023 C 
BRANCH   2   3
ATOM      3  C   UNL A   1      33.182  28.436  23.038  1.00  0.00     0.116 C 
BRANCH   3   4
ATOM      4  N   UNL A   1      33.403  27.425  22.021  1.00  0.00    -0.350 N 
ATOM      5  C   UNL A   1      32.986  26.143  21.843  1.00  0.00     0.279 C 
ATOM      6  O   UNL A   1      33.493  25.576  20.880  1.00  0.00    -0.267 OA
ATOM      7  H   UNL A   1      33.991  27.738  21.295  1.00  0.00     0.163 HD
BRANCH   5   8
ATOM      8  C   UNL A   1      31.944  25.523  22.733  1.00  0.00     0.187 C 
ATOM      9  C   UNL A   1      33.171  24.056  24.610  1.00  0.00     0.021 C 
ATOM     10  C   UNL A   1      33.010  24.413  26.112  1.00  0.00     0.009 C 
ATOM     11  C   UNL A   1      32.006  24.696  23.807  1.00  0.00    -0.025 C 
ATOM     12  C   UNL A   1      31.638  24.043  26.678  1.00  0.00     0.004 C 
ATOM     13  C   UNL A   1      30.655  24.252  24.388  1.00  0.00     0.038 C 
ATOM     14  C   UNL A   1      30.487  24.631  25.866  1.00  0.00    -0.010 C 
ATOM     15  F   UNL A   1      30.693  25.827  22.309  1.00  0.00    -0.201 F 
ATOM     16  C   UNL A   1      30.366  26.144  26.072  1.00  0.00     0.008 C 
BRANCH   9  17
ATOM     17  C   UNL A   1      34.636  24.258  24.128  1.00  0.00    -0.010 C 
ATOM     18  C   UNL A   1      35.703  24.290  25.234  1.00  0.00     0.008 C 
ATOM     19  C   UNL A   1      35.032  23.135  23.153  1.00  0.00     0.008 C 
ENDBRANCH   9  17
ENDBRANCH   5   8
ENDBRANCH   3   4
ENDBRANCH   2   3
ENDBRANCH   1   2
BRANCH   1  20
ATOM     20  C   UNL A   1      33.785  28.118  26.893  1.00  0.00     0.116 C 
BRANCH  20  21
ATOM     21  N   UNL A   1      33.569  29.500  27.281  1.00  0.00    -0.352 N 
ATOM     22  C   UNL A   1      34.419  30.381  27.900  1.00  0.00     0.251 C 
ATOM     23  H   UNL A   1      32.677  29.859  27.066  1.00  0.00     0.163 HD
ATOM     24  O   UNL A   1      33.991  31.478  28.250  1.00  0.00    -0.269 OA
BRANCH  22  25
ATOM     25  C   UNL A   1      35.830  30.017  28.173  1.00  0.00     0.039 A 
ATOM     26  C   UNL A   1      36.159  29.568  29.455  1.00  0.00     0.014 A 
ATOM     27  C   UNL A   1      36.831  30.151  27.206  1.00  0.00     0.014 A 
ATOM     28  C   UNL A   1      37.480  29.225  29.757  1.00  0.00     0.010 A 
ATOM     29  C   UNL A   1      38.134  29.740  27.486  1.00  0.00     0.010 A 
ATOM     30  C   UNL A   1      38.478  29.292  28.771  1.00  0.00    -0.014 A 
BRANCH  30  31
ATOM     31  C   UNL A   1      39.881  28.919  29.089  1.00  0.00     0.031 A 
ATOM     32  C   UNL A   1      40.789  29.897  29.790  1.00  0.00     0.074 A 
ATOM     33  C   UNL A   1      40.348  27.707  28.732  1.00  0.00     0.049 A 
ATOM     34  N   UNL A   1      42.031  29.739  30.176  1.00  0.00    -0.248 NA
ATOM     35  C   UNL A   1      40.240  31.233  30.072  1.00  0.00     0.031 C 
ATOM     36  C   UNL A   1      39.588  26.687  28.006  1.00  0.00     0.029 A 
ATOM     37  N   UNL A   1      41.574  27.122  28.937  1.00  0.00    -0.354 N 
ATOM     38  C   UNL A   1      42.413  30.955  30.731  1.00  0.00     0.074 A 
ATOM     39  C   UNL A   1      41.291  31.856  30.584  1.00  0.00     0.031 C 
ATOM     40  C   UNL A   1      40.353  25.592  27.857  1.00  0.00     0.029 A 
ATOM     41  C   UNL A   1      41.662  25.840  28.449  1.00  0.00     0.049 A 
ATOM     42  H   UNL A   1      42.319  27.580  29.392  1.00  0.00     0.167 HD
ATOM     43  C   UNL A   1      43.582  31.288  31.329  1.00  0.00     0.031 A 
ATOM     44  C   UNL A   1      42.680  24.958  28.483  1.00  0.00     0.031 A 
ATOM     45  C   UNL A   1      44.695  30.387  31.485  1.00  0.00     0.049 A 
ATOM     46  C   UNL A   1      43.961  25.340  29.174  1.00  0.00     0.074 A 
ATOM     47  C   UNL A   1      45.901  30.610  32.127  1.00  0.00     0.029 A 
ATOM     48  N   UNL A   1      44.737  29.091  30.993  1.00  0.00    -0.354 N 
ATOM     49  N   UNL A   1      44.276  26.471  29.758  1.00  0.00    -0.248 NA
ATOM     50  C   UNL A   1      45.011  24.316  29.231  1.00  0.00     0.031 C 
ATOM     51  C   UNL A   1      46.692  29.464  31.982  1.00  0.00     0.029 A 
ATOM     52  C   UNL A   1      45.955  28.507  31.302  1.00  0.00     0.049 A 
ATOM     53  H   UNL A   1      44.009  28.651  30.499  1.00  0.00     0.167 HD
ATOM     54  C   UNL A   1      45.554  26.285  30.277  1.00  0.00     0.074 A 
ATOM     55  C   UNL A   1      45.942  24.927  29.952  1.00  0.00     0.031 C 
ATOM     56  C   UNL A   1      46.332  27.157  30.964  1.00  0.00     0.031 A 
BRANCH  43  57
ATOM     57  C   UNL A   1      43.718  32.696  31.854  1.00  0.00    -0.014 A 
ATOM     58  C   UNL A   1      43.283  33.035  33.148  1.00  0.00     0.010 A 
ATOM     59  C   UNL A   1      44.311  33.687  31.051  1.00  0.00     0.010 A 
ATOM     60  C   UNL A   1      43.390  34.350  33.610  1.00  0.00     0.020 A 
ATOM     61  C   UNL A   1      44.448  34.998  31.521  1.00  0.00     0.020 A 
ATOM     62  C   UNL A   1      43.968  35.324  32.791  1.00  0.00     0.054 A 
BRANCH  62  63
ATOM     63  S   UNL A   1      44.105  37.020  33.419  1.00  0.00     0.124 S 
ATOM     64  O   UNL A   1      43.081  37.038  34.462  1.00  0.00    -0.237 OA
ATOM     65  O   UNL A   1      45.485  37.076  33.895  1.00  0.00    -0.237 OA
ATOM     66  O   UNL A   1      43.817  37.847  32.251  1.00  0.00    -0.744 OA
ENDBRANCH  62  63
ENDBRANCH  43  57
BRANCH  44  67
ATOM     67  C   UNL A   1      42.512  23.612  27.870  1.00  0.00    -0.014 A 
ATOM     68  C   UNL A   1      43.083  23.320  26.618  1.00  0.00     0.010 A 
ATOM     69  C   UNL A   1      41.798  22.607  28.547  1.00  0.00     0.010 A 
ATOM     70  C   UNL A   1      42.928  22.054  26.046  1.00  0.00     0.020 A 
ATOM     71  C   UNL A   1      41.664  21.331  27.991  1.00  0.00     0.020 A 
ATOM     72  C   UNL A   1      42.221  21.066  26.739  1.00  0.00     0.054 A 
BRANCH  72  73
ATOM     73  S   UNL A   1      42.084  19.411  26.006  1.00  0.00     0.124 S 
ATOM     74  O   UNL A   1      42.895  19.545  24.800  1.00  0.00    -0.237 OA
ATOM     75  O   UNL A   1      42.640  18.555  27.051  1.00  0.00    -0.237 OA
ATOM     76  O   UNL A   1      40.649  19.256  25.783  1.00  0.00    -0.744 OA
ENDBRANCH  72  73
ENDBRANCH  44  67
BRANCH  56  77
ATOM     77  C   UNL A   1      47.670  26.656  31.440  1.00  0.00    -0.014 A 
ATOM     78  C   UNL A   1      48.839  26.853  30.684  1.00  0.00     0.010 A 
ATOM     79  C   UNL A   1      47.759  25.993  32.679  1.00  0.00     0.010 A 
ATOM     80  C   UNL A   1      50.064  26.349  31.132  1.00  0.00     0.020 A 
ATOM     81  C   UNL A   1      48.987  25.514  33.144  1.00  0.00     0.020 A 
ATOM     82  C   UNL A   1      50.127  25.677  32.357  1.00  0.00     0.054 A 
BRANCH  82  83
ATOM     83  S   UNL A   1      51.728  25.036  32.922  1.00  0.00     0.124 S 
ATOM     84  O   UNL A   1      52.067  25.970  33.992  1.00  0.00    -0.237 OA
ATOM     85  O   UNL A   1      51.400  23.680  33.350  1.00  0.00    -0.237 OA
ATOM     86  O   UNL A   1      52.572  25.119  31.732  1.00  0.00    -0.744 OA
ENDBRANCH  82  83
ENDBRANCH  56  77
ENDBRANCH  30  31
ENDBRANCH  22  25
ENDBRANCH  20  21
ENDBRANCH   1  20
TORSDOF 15
ENDMDL
MODEL 2
REMARK VINA RESULT:     -10.5      2.643      9.223
REMARK SMILES CC(C)[C@H]1CC[C@@H](C)C/C1=C(\F)C(=O)NCCCCNC(=O)c1ccc(-c2c3nc(c(-c4ccc(S(=O)(=O)[O-])cc4)c4ccc([nH]4)c(-c4ccc(S(=O)(=O)[O-])cc4)c4nc(c(-c5ccc(S(=O)(=O)[O-])cc5)c5ccc2[nH]5)C=C4)C=C3)cc1
REMARK SMILES IDX 18 1 17 2 16 3 15 4 13 5 14 6 11 8 4 9 5 10 10 11 6 12 9 13
REMARK SMILES IDX 7 14 12 15 8 16 2 17 1 18 3 19 19 20 20 21 21 22 22 24 23 25
REMARK SMILES IDX 24 26 82 27 25 28 81 29 26 30 27 31 28 32 75 33 29 34 80 35
REMARK SMILES IDX 74 36 76 37 30 38 79 39 73 40 72 41 31 43 61 44 42 45 60 46
REMARK SMILES IDX 43 47 46 48 59 49 77 50 44 51 45 52 58 54 78 55 47 56 32 57
REMARK SMILES IDX 33 58 41 59 34 60 40 61 35 62 36 63 37 64 38 65 39 66 62 67
REMARK SMILES IDX 63 68 71 69 64 70 70 71 65 72 66 73 67 74 68 75 69 76 48 77
REMARK SMILES IDX 49 78 57 79 50 80 56 81 51 82 52 83 53 84 54 85 55 86
REMARK H PARENT 15 7 20 23 76 42 46 53
REMARK Flexibility Score: inf
ROOT
ATOM      1  C   UNL A   1      35.121  22.894  25.766  1.00  0.00     0.023 C 
ENDROOT
BRANCH   1   2
ATOM      2  C   UNL A   1      34.285  23.417  24.593  1.00  0.00     0.023 C 
BRANCH   2   3
ATOM      3  C   UNL A   1      33.981  24.914  24.612  1.00  0.00     0.116 C 
BRANCH   3   4
ATOM      4  N   UNL A   1      33.790  25.436  23.273  1.00  0.00    -0.350 N 
ATOM      5  C   UNL A   1      33.470  26.655  22.760  1.00  0.00     0.279 C 
ATOM      6  O   UNL A   1      33.298  26.662  21.545  1.00  0.00    -0.267 OA
ATOM      7  H   UNL A   1      33.920  24.753  22.576  1.00  0.00     0.163 HD
BRANCH   5   8
ATOM      8  C   UNL A   1      33.401  27.882  23.627  1.00  0.00     0.187 C 
ATOM      9  C   UNL A   1      31.245  27.705  25.208  1.00  0.00     0.021 C 
ATOM     10  C   UNL A   1      31.406  27.668  26.751  1.00  0.00     0.009 C 
ATOM     11  C   UNL A   1      32.529  28.307  24.576  1.00  0.00    -0.025 C 
ATOM     12  C   UNL A   1      31.772  29.026  27.353  1.00  0.00     0.004 C 
ATOM     13  C   UNL A   1      32.820  29.688  25.182  1.00  0.00     0.038 C 
ATOM     14  C   UNL A   1      33.007  29.645  26.704  1.00  0.00    -0.010 C 
ATOM     15  F   UNL A   1      34.401  28.748  23.332  1.00  0.00    -0.201 F 
ATOM     16  C   UNL A   1      34.288  28.913  27.117  1.00  0.00     0.008 C 
BRANCH   9  17
ATOM     17  C   UNL A   1      30.677  26.363  24.660  1.00  0.00    -0.010 C 
ATOM     18  C   UNL A   1      30.412  25.274  25.710  1.00  0.00     0.008 C 
ATOM     19  C   UNL A   1      29.348  26.613  23.925  1.00  0.00     0.008 C 
ENDBRANCH   9  17
ENDBRANCH   5   8
ENDBRANCH   3   4
ENDBRANCH   2   3
ENDBRANCH   1   2
BRANCH   1  20
ATOM     20  C   UNL A   1      36.450  23.604  26.012  1.00  0.00     0.116 C 
BRANCH  20  21
ATOM     21  N   UNL A   1      37.593  22.716  25.907  1.00  0.00    -0.352 N 
ATOM     22  C   UNL A   1      38.904  22.926  26.255  1.00  0.00     0.251 C 
ATOM     23  H   UNL A   1      37.398  21.827  25.529  1.00  0.00     0.163 HD
ATOM     24  O   UNL A   1      39.742  22.075  25.967  1.00  0.00    -0.269 OA
BRANCH  22  25
ATOM     25  C   UNL A   1      39.320  24.170  26.944  1.00  0.00     0.039 A 
ATOM     26  C   UNL A   1      40.041  25.119  26.214  1.00  0.00     0.014 A 
ATOM     27  C   UNL A   1      39.051  24.394  28.298  1.00  0.00     0.014 A 
ATOM     28  C   UNL A   1      40.462  26.302  26.830  1.00  0.00     0.010 A 
ATOM     29  C   UNL A   1      39.408  25.604  28.891  1.00  0.00     0.010 A 
ATOM     30  C   UNL A   1      40.135  26.564  28.170  1.00  0.00    -0.014 A 
BRANCH  30  31
ATOM     31  C   UNL A   1      40.576  27.824  28.823  1.00  0.00     0.031 A 
ATOM     32  C   UNL A   1      41.977  27.953  29.364  1.00  0.00     0.074 A 
ATOM     33  C   UNL A   1      39.711  28.850  28.947  1.00  0.00     0.049 A 
ATOM     34  N   UNL A   1      42.548  28.983  29.937  1.00  0.00    -0.248 NA
ATOM     35  C   UNL A   1      42.840  26.764  29.272  1.00  0.00     0.031 C 
ATOM     36  C   UNL A   1      38.313  28.837  28.511  1.00  0.00     0.029 A 
ATOM     37  N   UNL A   1      39.882  30.107  29.472  1.00  0.00    -0.354 N 
ATOM     38  C   UNL A   1      43.827  28.563  30.285  1.00  0.00     0.074 A 
ATOM     39  C   UNL A   1      43.929  27.170  29.907  1.00  0.00     0.031 C 
ATOM     40  C   UNL A   1      37.765  30.039  28.755  1.00  0.00     0.029 A 
ATOM     41  C   UNL A   1      38.760  30.897  29.389  1.00  0.00     0.049 A 
ATOM     42  H   UNL A   1      40.729  30.414  29.870  1.00  0.00     0.167 HD
ATOM     43  C   UNL A   1      44.834  29.274  30.846  1.00  0.00     0.031 A 
ATOM     44  C   UNL A   1      38.556  32.173  29.771  1.00  0.00     0.031 A 
ATOM     45  C   UNL A   1      44.735  30.663  31.212  1.00  0.00     0.049 A 
ATOM     46  C   UNL A   1      39.694  32.951  30.370  1.00  0.00     0.074 A 
ATOM     47  C   UNL A   1      45.716  31.489  31.734  1.00  0.00     0.029 A 
ATOM     48  N   UNL A   1      43.586  31.432  31.094  1.00  0.00    -0.354 N 
ATOM     49  N   UNL A   1      40.920  32.557  30.623  1.00  0.00    -0.248 NA
ATOM     50  C   UNL A   1      39.428  34.355  30.711  1.00  0.00     0.031 C 
ATOM     51  C   UNL A   1      45.147  32.744  31.976  1.00  0.00     0.029 A 
ATOM     52  C   UNL A   1      43.829  32.718  31.549  1.00  0.00     0.049 A 
ATOM     53  H   UNL A   1      42.727  31.111  30.738  1.00  0.00     0.167 HD
ATOM     54  C   UNL A   1      41.580  33.673  31.128  1.00  0.00     0.074 A 
ATOM     55  C   UNL A   1      40.621  34.760  31.127  1.00  0.00     0.031 C 
ATOM     56  C   UNL A   1      42.863  33.788  31.551  1.00  0.00     0.031 A 
BRANCH  43  57
ATOM     57  C   UNL A   1      46.133  28.552  31.108  1.00  0.00    -0.014 A 
ATOM     58  C   UNL A   1      47.211  28.647  30.209  1.00  0.00     0.010 A 
ATOM     59  C   UNL A   1      46.285  27.789  32.280  1.00  0.00     0.010 A 
ATOM     60  C   UNL A   1      48.399  27.950  30.451  1.00  0.00     0.020 A 
ATOM     61  C   UNL A   1      47.483  27.115  32.540  1.00  0.00     0.020 A 
ATOM     62  C   UNL A   1      48.525  27.185  31.613  1.00  0.00     0.054 A 
BRANCH  62  63
ATOM     63  S   UNL A   1      50.081  26.300  31.908  1.00  0.00     0.124 S 
ATOM     64  O   UNL A   1      50.910  26.772  30.801  1.00  0.00    -0.237 OA
ATOM     65  O   UNL A   1      50.474  26.774  33.233  1.00  0.00    -0.237 OA
ATOM     66  O   UNL A   1      49.698  24.892  31.842  1.00  0.00    -0.744 OA
ENDBRANCH  62  63
ENDBRANCH  43  57
BRANCH  44  67
ATOM     67  C   UNL A   1      37.222  32.802  29.564  1.00  0.00    -0.014 A 
ATOM     68  C   UNL A   1      36.287  32.857  30.613  1.00  0.00     0.010 A 
ATOM     69  C   UNL A   1      36.889  33.369  28.320  1.00  0.00     0.010 A 
ATOM     70  C   UNL A   1      35.037  33.453  30.417  1.00  0.00     0.020 A 
ATOM     71  C   UNL A   1      35.652  33.990  28.129  1.00  0.00     0.020 A 
ATOM     72  C   UNL A   1      34.729  34.018  29.176  1.00  0.00     0.054 A 
BRANCH  72  73
ATOM     73  S   UNL A   1      33.125  34.840  28.963  1.00  0.00     0.124 S 
ATOM     74  O   UNL A   1      32.580  34.798  30.316  1.00  0.00    -0.237 OA
ATOM     75  O   UNL A   1      33.509  36.163  28.476  1.00  0.00    -0.237 OA
ATOM     76  O   UNL A   1      32.439  34.000  27.984  1.00  0.00    -0.744 OA
ENDBRANCH  72  73
ENDBRANCH  44  67
BRANCH  56  77
ATOM     77  C   UNL A   1      43.314  35.148  32.014  1.00  0.00    -0.014 A 
ATOM     78  C   UNL A   1      43.167  35.553  33.352  1.00  0.00     0.010 A 
ATOM     79  C   UNL A   1      43.915  36.027  31.094  1.00  0.00     0.010 A 
ATOM     80  C   UNL A   1      43.563  36.833  33.751  1.00  0.00     0.020 A 
ATOM     81  C   UNL A   1      44.341  37.297  31.495  1.00  0.00     0.020 A 
ATOM     82  C   UNL A   1      44.141  37.699  32.817  1.00  0.00     0.054 A 
BRANCH  82  83
ATOM     83  S   UNL A   1      44.654  39.353  33.357  1.00  0.00     0.124 S 
ATOM     84  O   UNL A   1      43.480  39.808  34.097  1.00  0.00    -0.237 OA
ATOM     85  O   UNL A   1      45.839  39.076  34.164  1.00  0.00    -0.237 OA
ATOM     86  O   UNL A   1      44.914  40.060  32.105  1.00  0.00    -0.744 OA
ENDBRANCH  82  83
ENDBRANCH  56  77
ENDBRANCH  30  31
ENDBRANCH  22  25
ENDBRANCH  20  21
ENDBRANCH   1  20
TORSDOF 15
ENDMDL
MODEL 3
REMARK VINA RESULT:     -10.4      2.648      3.315
REMARK SMILES CC(C)[C@H]1CC[C@@H](C)C/C1=C(\F)C(=O)NCCCCNC(=O)c1ccc(-c2c3nc(c(-c4ccc(S(=O)(=O)[O-])cc4)c4ccc([nH]4)c(-c4ccc(S(=O)(=O)[O-])cc4)c4nc(c(-c5ccc(S(=O)(=O)[O-])cc5)c5ccc2[nH]5)C=C4)C=C3)cc1
REMARK SMILES IDX 18 1 17 2 16 3 15 4 13 5 14 6 11 8 4 9 5 10 10 11 6 12 9 13
REMARK SMILES IDX 7 14 12 15 8 16 2 17 1 18 3 19 19 20 20 21 21 22 22 24 23 25
REMARK SMILES IDX 24 26 82 27 25 28 81 29 26 30 27 31 28 32 75 33 29 34 80 35
REMARK SMILES IDX 74 36 76 37 30 38 79 39 73 40 72 41 31 43 61 44 42 45 60 46
REMARK SMILES IDX 43 47 46 48 59 49 77 50 44 51 45 52 58 54 78 55 47 56 32 57
REMARK SMILES IDX 33 58 41 59 34 60 40 61 35 62 36 63 37 64 38 65 39 66 62 67
REMARK SMILES IDX 63 68 71 69 64 70 70 71 65 72 66 73 67 74 68 75 69 76 48 77
REMARK SMILES IDX 49 78 57 79 50 80 56 81 51 82 52 83 53 84 54 85 55 86
REMARK H PARENT 15 7 20 23 76 42 46 53
REMARK Flexibility Score: inf
ROOT
ATOM      1  C   UNL A   1      32.951  28.000  26.788  1.00  0.00     0.023 C 
ENDROOT
BRANCH   1   2
ATOM      2  C   UNL A   1      32.670  26.814  25.859  1.00  0.00     0.023 C 
BRANCH   2   3
ATOM      3  C   UNL A   1      33.901  26.148  25.245  1.00  0.00     0.116 C 
BRANCH   3   4
ATOM      4  N   UNL A   1      33.896  26.251  23.799  1.00  0.00    -0.350 N 
ATOM      5  C   UNL A   1      33.537  25.420  22.783  1.00  0.00     0.279 C 
ATOM      6  O   UNL A   1      33.790  25.853  21.664  1.00  0.00    -0.267 OA
ATOM      7  H   UNL A   1      34.230  27.121  23.478  1.00  0.00     0.163 HD
BRANCH   5   8
ATOM      8  C   UNL A   1      32.837  24.115  23.043  1.00  0.00     0.187 C 
ATOM      9  C   UNL A   1      34.563  22.423  24.202  1.00  0.00     0.021 C 
ATOM     10  C   UNL A   1      34.284  21.874  25.626  1.00  0.00     0.009 C 
ATOM     11  C   UNL A   1      33.233  22.935  23.584  1.00  0.00    -0.025 C 
ATOM     12  C   UNL A   1      33.179  20.817  25.662  1.00  0.00     0.004 C 
ATOM     13  C   UNL A   1      32.177  21.820  23.602  1.00  0.00     0.038 C 
ATOM     14  C   UNL A   1      31.883  21.298  25.015  1.00  0.00    -0.010 C 
ATOM     15  F   UNL A   1      31.566  24.138  22.575  1.00  0.00    -0.201 F 
ATOM     16  C   UNL A   1      31.169  22.336  25.886  1.00  0.00     0.008 C 
BRANCH   9  17
ATOM     17  C   UNL A   1      35.822  23.337  24.177  1.00  0.00    -0.010 C 
ATOM     18  C   UNL A   1      36.595  23.442  25.501  1.00  0.00     0.008 C 
ATOM     19  C   UNL A   1      36.816  22.840  23.113  1.00  0.00     0.008 C 
ENDBRANCH   9  17
ENDBRANCH   5   8
ENDBRANCH   3   4
ENDBRANCH   2   3
ENDBRANCH   1   2
BRANCH   1  20
ATOM     20  C   UNL A   1      33.961  29.026  26.281  1.00  0.00     0.116 C 
BRANCH  20  21
ATOM     21  N   UNL A   1      33.623  30.386  26.657  1.00  0.00    -0.352 N 
ATOM     22  C   UNL A   1      34.244  31.234  27.539  1.00  0.00     0.251 C 
ATOM     23  H   UNL A   1      32.826  30.756  26.211  1.00  0.00     0.163 HD
ATOM     24  O   UNL A   1      33.717  32.311  27.804  1.00  0.00    -0.269 OA
BRANCH  22  25
ATOM     25  C   UNL A   1      35.519  30.855  28.191  1.00  0.00     0.039 A 
ATOM     26  C   UNL A   1      35.523  29.745  29.040  1.00  0.00     0.014 A 
ATOM     27  C   UNL A   1      36.691  31.597  28.015  1.00  0.00     0.014 A 
ATOM     28  C   UNL A   1      36.703  29.360  29.683  1.00  0.00     0.010 A 
ATOM     29  C   UNL A   1      37.884  31.171  28.600  1.00  0.00     0.010 A 
ATOM     30  C   UNL A   1      37.900  30.060  29.457  1.00  0.00    -0.014 A 
BRANCH  30  31
ATOM     31  C   UNL A   1      39.156  29.646  30.134  1.00  0.00     0.031 A 
ATOM     32  C   UNL A   1      39.597  30.329  31.404  1.00  0.00     0.074 A 
ATOM     33  C   UNL A   1      39.913  28.669  29.600  1.00  0.00     0.049 A 
ATOM     34  N   UNL A   1      40.645  30.084  32.150  1.00  0.00    -0.248 NA
ATOM     35  C   UNL A   1      38.768  31.446  31.884  1.00  0.00     0.031 C 
ATOM     36  C   UNL A   1      39.625  27.962  28.350  1.00  0.00     0.029 A 
ATOM     37  N   UNL A   1      41.079  28.094  30.043  1.00  0.00    -0.354 N 
ATOM     38  C   UNL A   1      40.608  31.022  33.175  1.00  0.00     0.074 A 
ATOM     39  C   UNL A   1      39.465  31.874  32.926  1.00  0.00     0.031 C 
ATOM     40  C   UNL A   1      40.568  27.028  28.145  1.00  0.00     0.029 A 
ATOM     41  C   UNL A   1      41.541  27.086  29.230  1.00  0.00     0.049 A 
ATOM     42  H   UNL A   1      41.540  28.378  30.866  1.00  0.00     0.167 HD
ATOM     43  C   UNL A   1      41.435  31.153  34.241  1.00  0.00     0.031 A 
ATOM     44  C   UNL A   1      42.623  26.291  29.349  1.00  0.00     0.031 A 
ATOM     45  C   UNL A   1      42.566  30.299  34.495  1.00  0.00     0.049 A 
ATOM     46  C   UNL A   1      43.513  26.437  30.552  1.00  0.00     0.074 A 
ATOM     47  C   UNL A   1      43.431  30.312  35.575  1.00  0.00     0.029 A 
ATOM     48  N   UNL A   1      42.989  29.277  33.656  1.00  0.00    -0.354 N 
ATOM     49  N   UNL A   1      43.418  27.283  31.550  1.00  0.00    -0.248 NA
ATOM     50  C   UNL A   1      44.641  25.502  30.656  1.00  0.00     0.031 C 
ATOM     51  C   UNL A   1      44.406  29.330  35.367  1.00  0.00     0.029 A 
ATOM     52  C   UNL A   1      44.113  28.665  34.187  1.00  0.00     0.049 A 
ATOM     53  H   UNL A   1      42.555  29.025  32.811  1.00  0.00     0.167 HD
ATOM     54  C   UNL A   1      44.460  26.965  32.416  1.00  0.00     0.074 A 
ATOM     55  C   UNL A   1      45.158  25.838  31.831  1.00  0.00     0.031 C 
ATOM     56  C   UNL A   1      44.804  27.550  33.590  1.00  0.00     0.031 A 
BRANCH  43  57
ATOM     57  C   UNL A   1      41.147  32.272  35.211  1.00  0.00    -0.014 A 
ATOM     58  C   UNL A   1      41.774  33.525  35.083  1.00  0.00     0.010 A 
ATOM     59  C   UNL A   1      40.220  32.075  36.250  1.00  0.00     0.010 A 
ATOM     60  C   UNL A   1      41.518  34.544  36.005  1.00  0.00     0.020 A 
ATOM     61  C   UNL A   1      39.938  33.102  37.158  1.00  0.00     0.020 A 
ATOM     62  C   UNL A   1      40.605  34.324  37.040  1.00  0.00     0.054 A 
BRANCH  62  63
ATOM     63  S   UNL A   1      40.283  35.665  38.217  1.00  0.00     0.124 S 
ATOM     64  O   UNL A   1      39.818  36.734  37.335  1.00  0.00    -0.237 OA
ATOM     65  O   UNL A   1      39.266  35.088  39.092  1.00  0.00    -0.237 OA
ATOM     66  O   UNL A   1      41.581  35.897  38.844  1.00  0.00    -0.744 OA
ENDBRANCH  62  63
ENDBRANCH  43  57
BRANCH  44  67
ATOM     67  C   UNL A   1      42.900  25.261  28.310  1.00  0.00    -0.014 A 
ATOM     68  C   UNL A   1      43.744  25.550  27.223  1.00  0.00     0.010 A 
ATOM     69  C   UNL A   1      42.336  23.976  28.416  1.00  0.00     0.010 A 
ATOM     70  C   UNL A   1      44.007  24.580  26.252  1.00  0.00     0.020 A 
ATOM     71  C   UNL A   1      42.619  22.995  27.461  1.00  0.00     0.020 A 
ATOM     72  C   UNL A   1      43.444  23.306  26.379  1.00  0.00     0.054 A 
BRANCH  72  73
ATOM     73  S   UNL A   1      43.848  22.044  25.140  1.00  0.00     0.124 S 
ATOM     74  O   UNL A   1      43.601  22.755  23.890  1.00  0.00    -0.237 OA
ATOM     75  O   UNL A   1      45.248  21.747  25.434  1.00  0.00    -0.237 OA
ATOM     76  O   UNL A   1      42.914  20.961  25.440  1.00  0.00    -0.744 OA
ENDBRANCH  72  73
ENDBRANCH  44  67
BRANCH  56  77
ATOM     77  C   UNL A   1      45.969  26.956  34.337  1.00  0.00    -0.014 A 
ATOM     78  C   UNL A   1      45.790  25.922  35.273  1.00  0.00     0.010 A 
ATOM     79  C   UNL A   1      47.269  27.432  34.082  1.00  0.00     0.010 A 
ATOM     80  C   UNL A   1      46.883  25.410  35.978  1.00  0.00     0.020 A 
ATOM     81  C   UNL A   1      48.368  26.902  34.764  1.00  0.00     0.020 A 
ATOM     82  C   UNL A   1      48.164  25.910  35.723  1.00  0.00     0.054 A 
BRANCH  82  83
ATOM     83  S   UNL A   1      49.569  25.227  36.647  1.00  0.00     0.124 S 
ATOM     84  O   UNL A   1      50.697  25.940  36.053  1.00  0.00    -0.237 OA
ATOM     85  O   UNL A   1      49.253  25.585  38.027  1.00  0.00    -0.237 OA
ATOM     86  O   UNL A   1      49.512  23.796  36.353  1.00  0.00    -0.744 OA
ENDBRANCH  82  83
ENDBRANCH  56  77
ENDBRANCH  30  31
ENDBRANCH  22  25
ENDBRANCH  20  21
ENDBRANCH   1  20
TORSDOF 15
ENDMDL
