MODEL 1
REMARK VINA RESULT:     -11.0      0.000      0.000
REMARK SMILES O=C(NCCCCNC(=O)[C@@H](Cc1ccncc1)c1ccc(Cl)cc1)c1ccc(-c2c3nc(c(-c4ccc(S(=O)(=O)[O-])cc4)c4ccc([nH]4)c(-c4ccc(S(=O)(=O)[O-])cc4)c4nc(c(-c5ccc(S(=O)(=O)[O-])cc5)c5ccc2[nH]5)C=C4)C=C3)cc1
REMARK SMILES IDX 5 1 4 2 3 3 1 4 2 5 26 7 27 8 85 9 28 10 84 11 29 12 30 13
REMARK SMILES IDX 31 14 78 15 32 16 83 17 77 18 79 19 33 20 82 21 76 22 75 23
REMARK SMILES IDX 34 25 64 26 45 27 63 28 46 29 49 30 62 31 80 32 47 33 48 34
REMARK SMILES IDX 61 36 81 37 50 38 35 39 36 40 44 41 37 42 43 43 38 44 39 45
REMARK SMILES IDX 40 46 41 47 42 48 65 49 66 50 74 51 67 52 73 53 68 54 69 55
REMARK SMILES IDX 70 56 71 57 72 58 51 59 52 60 60 61 53 62 59 63 54 64 55 65
REMARK SMILES IDX 56 66 57 67 58 68 6 69 7 70 8 71 9 72 10 74 11 75 12 76
REMARK SMILES IDX 13 77 14 78 18 79 15 80 17 81 16 82 19 83 20 84 25 85 21 86
REMARK SMILES IDX 24 87 22 88 23 89
REMARK H PARENT 3 6 79 24 49 35 8 73
REMARK Flexibility Score: inf
ROOT
ATOM      1  C   UNL A   1      31.997  28.313  27.494  1.00  0.00     0.023 C 
ENDROOT
BRANCH   1   2
ATOM      2  C   UNL A   1      33.409  28.885  27.492  1.00  0.00     0.116 C 
BRANCH   2   3
ATOM      3  N   UNL A   1      33.525  30.261  27.973  1.00  0.00    -0.352 N 
ATOM      4  O   UNL A   1      34.623  32.072  28.799  1.00  0.00    -0.269 OA
ATOM      5  C   UNL A   1      34.662  30.908  28.415  1.00  0.00     0.251 C 
ATOM      6  H   UNL A   1      32.694  30.787  27.984  1.00  0.00     0.163 HD
BRANCH   5   7
ATOM      7  C   UNL A   1      35.920  30.138  28.466  1.00  0.00     0.039 A 
ATOM      8  C   UNL A   1      36.332  29.594  29.680  1.00  0.00     0.014 A 
ATOM      9  C   UNL A   1      36.765  30.133  27.354  1.00  0.00     0.014 A 
ATOM     10  C   UNL A   1      37.670  29.277  29.846  1.00  0.00     0.010 A 
ATOM     11  C   UNL A   1      38.082  29.684  27.497  1.00  0.00     0.010 A 
ATOM     12  C   UNL A   1      38.567  29.320  28.762  1.00  0.00    -0.014 A 
BRANCH  12  13
ATOM     13  C   UNL A   1      39.994  28.981  29.009  1.00  0.00     0.031 A 
ATOM     14  C   UNL A   1      40.585  27.659  28.581  1.00  0.00     0.074 A 
ATOM     15  C   UNL A   1      40.791  29.935  29.532  1.00  0.00     0.049 A 
ATOM     16  N   UNL A   1      41.827  27.251  28.670  1.00  0.00    -0.248 NA
ATOM     17  C   UNL A   1      39.675  26.664  27.991  1.00  0.00     0.031 C 
ATOM     18  C   UNL A   1      40.337  31.251  29.992  1.00  0.00     0.029 A 
ATOM     19  N   UNL A   1      42.150  29.976  29.707  1.00  0.00    -0.354 N 
ATOM     20  C   UNL A   1      41.841  25.946  28.191  1.00  0.00     0.074 A 
ATOM     21  C   UNL A   1      40.481  25.624  27.813  1.00  0.00     0.031 C 
ATOM     22  C   UNL A   1      41.401  32.006  30.291  1.00  0.00     0.029 A 
ATOM     23  C   UNL A   1      42.606  31.202  30.133  1.00  0.00     0.049 A 
ATOM     24  H   UNL A   1      42.740  29.205  29.544  1.00  0.00     0.167 HD
ATOM     25  C   UNL A   1      42.889  25.093  28.080  1.00  0.00     0.031 A 
ATOM     26  C   UNL A   1      43.855  31.637  30.378  1.00  0.00     0.031 A 
ATOM     27  C   UNL A   1      44.246  25.426  28.432  1.00  0.00     0.049 A 
ATOM     28  C   UNL A   1      45.001  30.692  30.198  1.00  0.00     0.074 A 
ATOM     29  C   UNL A   1      45.375  24.626  28.373  1.00  0.00     0.029 A 
ATOM     30  N   UNL A   1      44.662  26.666  28.889  1.00  0.00    -0.354 N 
ATOM     31  N   UNL A   1      44.978  29.446  29.788  1.00  0.00    -0.248 NA
ATOM     32  C   UNL A   1      46.336  31.202  30.529  1.00  0.00     0.031 C 
ATOM     33  C   UNL A   1      46.469  25.377  28.819  1.00  0.00     0.029 A 
ATOM     34  C   UNL A   1      46.029  26.655  29.117  1.00  0.00     0.049 A 
ATOM     35  H   UNL A   1      44.073  27.442  29.032  1.00  0.00     0.167 HD
ATOM     36  C   UNL A   1      46.296  29.014  29.835  1.00  0.00     0.074 A 
ATOM     37  C   UNL A   1      47.094  30.146  30.264  1.00  0.00     0.031 C 
ATOM     38  C   UNL A   1      46.798  27.785  29.566  1.00  0.00     0.031 A 
BRANCH  25  39
ATOM     39  C   UNL A   1      42.612  23.700  27.577  1.00  0.00    -0.014 A 
ATOM     40  C   UNL A   1      42.788  23.363  26.224  1.00  0.00     0.010 A 
ATOM     41  C   UNL A   1      42.229  22.696  28.488  1.00  0.00     0.010 A 
ATOM     42  C   UNL A   1      42.560  22.053  25.785  1.00  0.00     0.020 A 
ATOM     43  C   UNL A   1      42.020  21.382  28.056  1.00  0.00     0.020 A 
ATOM     44  C   UNL A   1      42.174  21.073  26.703  1.00  0.00     0.054 A 
BRANCH  44  45
ATOM     45  S   UNL A   1      41.918  19.374  26.115  1.00  0.00     0.124 S 
ATOM     46  O   UNL A   1      42.846  19.304  24.989  1.00  0.00    -0.237 OA
ATOM     47  O   UNL A   1      42.280  18.570  27.279  1.00  0.00    -0.237 OA
ATOM     48  O   UNL A   1      40.502  19.343  25.757  1.00  0.00    -0.744 OA
ENDBRANCH  44  45
ENDBRANCH  25  39
BRANCH  26  49
ATOM     49  C   UNL A   1      44.061  33.030  30.853  1.00  0.00    -0.014 A 
ATOM     50  C   UNL A   1      44.122  33.319  32.226  1.00  0.00     0.010 A 
ATOM     51  C   UNL A   1      44.259  34.066  29.922  1.00  0.00     0.010 A 
ATOM     52  C   UNL A   1      44.377  34.623  32.661  1.00  0.00     0.020 A 
ATOM     53  C   UNL A   1      44.542  35.363  30.352  1.00  0.00     0.020 A 
ATOM     54  C   UNL A   1      44.590  35.636  31.720  1.00  0.00     0.054 A 
BRANCH  54  55
ATOM     55  S   UNL A   1      45.008  37.307  32.289  1.00  0.00     0.124 S 
ATOM     56  O   UNL A   1      44.646  37.243  33.700  1.00  0.00    -0.237 OA
ATOM     57  O   UNL A   1      46.438  37.396  32.006  1.00  0.00    -0.237 OA
ATOM     58  O   UNL A   1      44.164  38.164  31.459  1.00  0.00    -0.744 OA
ENDBRANCH  54  55
ENDBRANCH  26  49
BRANCH  38  59
ATOM     59  C   UNL A   1      48.279  27.612  29.748  1.00  0.00    -0.014 A 
ATOM     60  C   UNL A   1      49.155  27.759  28.658  1.00  0.00     0.010 A 
ATOM     61  C   UNL A   1      48.798  27.296  31.015  1.00  0.00     0.010 A 
ATOM     62  C   UNL A   1      50.525  27.544  28.822  1.00  0.00     0.020 A 
ATOM     63  C   UNL A   1      50.170  27.101  31.186  1.00  0.00     0.020 A 
ATOM     64  C   UNL A   1      51.022  27.206  30.083  1.00  0.00     0.054 A 
BRANCH  64  65
ATOM     65  S   UNL A   1      52.804  26.930  30.280  1.00  0.00     0.124 S 
ATOM     66  O   UNL A   1      53.207  28.104  31.049  1.00  0.00    -0.237 OA
ATOM     67  O   UNL A   1      52.859  25.659  30.998  1.00  0.00    -0.237 OA
ATOM     68  O   UNL A   1      53.298  26.884  28.906  1.00  0.00    -0.744 OA
ENDBRANCH  64  65
ENDBRANCH  38  59
ENDBRANCH  12  13
ENDBRANCH   5   7
ENDBRANCH   2   3
ENDBRANCH   1   2
BRANCH   1  69
ATOM     69  C   UNL A   1      31.652  27.462  26.285  1.00  0.00     0.023 C 
BRANCH  69  70
ATOM     70  C   UNL A   1      32.269  26.070  26.272  1.00  0.00     0.116 C 
BRANCH  70  71
ATOM     71  N   UNL A   1      31.406  25.087  26.878  1.00  0.00    -0.356 N 
ATOM     72  C   UNL A   1      31.046  23.849  26.460  1.00  0.00     0.227 C 
ATOM     73  H   UNL A   1      31.013  25.360  27.739  1.00  0.00     0.163 HD
ATOM     74  O   UNL A   1      30.339  23.195  27.239  1.00  0.00    -0.274 OA
BRANCH  72  75
ATOM     75  C   UNL A   1      31.446  23.237  25.108  1.00  0.00     0.113 C 
BRANCH  75  76
ATOM     76  C   UNL A   1      30.652  23.703  23.858  1.00  0.00     0.054 C 
BRANCH  76  77
ATOM     77  C   UNL A   1      30.512  25.148  23.455  1.00  0.00    -0.044 A 
ATOM     78  C   UNL A   1      29.439  25.932  23.883  1.00  0.00     0.024 A 
ATOM     79  C   UNL A   1      31.517  25.775  22.709  1.00  0.00     0.024 A 
ATOM     80  C   UNL A   1      29.369  27.258  23.478  1.00  0.00     0.111 A 
ATOM     81  C   UNL A   1      31.371  27.113  22.368  1.00  0.00     0.111 A 
ATOM     82  N   UNL A   1      30.307  27.861  22.720  1.00  0.00    -0.265 NA
ENDBRANCH  76  77
ENDBRANCH  75  76
BRANCH  75  83
ATOM     83  C   UNL A   1      32.915  22.824  24.985  1.00  0.00    -0.035 A 
ATOM     84  C   UNL A   1      33.473  22.024  26.005  1.00  0.00     0.006 A 
ATOM     85  C   UNL A   1      33.760  23.199  23.934  1.00  0.00     0.006 A 
ATOM     86  C   UNL A   1      34.803  21.592  25.955  1.00  0.00     0.021 A 
ATOM     87  C   UNL A   1      35.093  22.769  23.879  1.00  0.00     0.021 A 
ATOM     88  C   UNL A   1      35.607  21.961  24.885  1.00  0.00     0.041 A 
ATOM     89  Cl  UNL A   1      37.235  21.416  24.804  1.00  0.00    -0.084 Cl
ENDBRANCH  75  83
ENDBRANCH  72  75
ENDBRANCH  70  71
ENDBRANCH  69  70
ENDBRANCH   1  69
TORSDOF 17
ENDMDL
MODEL 2
REMARK VINA RESULT:     -10.9      5.140      9.982
REMARK SMILES O=C(NCCCCNC(=O)[C@@H](Cc1ccncc1)c1ccc(Cl)cc1)c1ccc(-c2c3nc(c(-c4ccc(S(=O)(=O)[O-])cc4)c4ccc([nH]4)c(-c4ccc(S(=O)(=O)[O-])cc4)c4nc(c(-c5ccc(S(=O)(=O)[O-])cc5)c5ccc2[nH]5)C=C4)C=C3)cc1
REMARK SMILES IDX 5 1 4 2 3 3 1 4 2 5 26 7 27 8 85 9 28 10 84 11 29 12 30 13
REMARK SMILES IDX 31 14 78 15 32 16 83 17 77 18 79 19 33 20 82 21 76 22 75 23
REMARK SMILES IDX 34 25 64 26 45 27 63 28 46 29 49 30 62 31 80 32 47 33 48 34
REMARK SMILES IDX 61 36 81 37 50 38 35 39 36 40 44 41 37 42 43 43 38 44 39 45
REMARK SMILES IDX 40 46 41 47 42 48 65 49 66 50 74 51 67 52 73 53 68 54 69 55
REMARK SMILES IDX 70 56 71 57 72 58 51 59 52 60 60 61 53 62 59 63 54 64 55 65
REMARK SMILES IDX 56 66 57 67 58 68 6 69 7 70 8 71 9 72 10 74 11 75 12 76
REMARK SMILES IDX 13 77 14 78 18 79 15 80 17 81 16 82 19 83 20 84 25 85 21 86
REMARK SMILES IDX 24 87 22 88 23 89
REMARK H PARENT 3 6 79 24 49 35 8 73
REMARK Flexibility Score: inf
ROOT
ATOM      1  C   UNL A   1      39.084  22.423  26.506  1.00  0.00     0.023 C 
ENDROOT
BRANCH   1   2
ATOM      2  C   UNL A   1      40.040  23.482  27.038  1.00  0.00     0.116 C 
BRANCH   2   3
ATOM      3  N   UNL A   1      40.933  24.073  26.043  1.00  0.00    -0.352 N 
ATOM      4  O   UNL A   1      42.100  25.758  25.059  1.00  0.00    -0.269 OA
ATOM      5  C   UNL A   1      41.347  25.388  25.952  1.00  0.00     0.251 C 
ATOM      6  H   UNL A   1      41.280  23.461  25.355  1.00  0.00     0.163 HD
BRANCH   5   7
ATOM      7  C   UNL A   1      40.807  26.350  26.931  1.00  0.00     0.039 A 
ATOM      8  C   UNL A   1      41.323  27.643  26.965  1.00  0.00     0.014 A 
ATOM      9  C   UNL A   1      39.935  25.900  27.926  1.00  0.00     0.014 A 
ATOM     10  C   UNL A   1      41.166  28.392  28.121  1.00  0.00     0.010 A 
ATOM     11  C   UNL A   1      39.674  26.718  29.030  1.00  0.00     0.010 A 
ATOM     12  C   UNL A   1      40.344  27.942  29.172  1.00  0.00    -0.014 A 
BRANCH  12  13
ATOM     13  C   UNL A   1      40.230  28.786  30.392  1.00  0.00     0.031 A 
ATOM     14  C   UNL A   1      41.240  28.710  31.510  1.00  0.00     0.074 A 
ATOM     15  C   UNL A   1      39.252  29.714  30.431  1.00  0.00     0.049 A 
ATOM     16  N   UNL A   1      41.307  29.431  32.603  1.00  0.00    -0.248 NA
ATOM     17  C   UNL A   1      42.303  27.697  31.404  1.00  0.00     0.031 C 
ATOM     18  C   UNL A   1      38.210  29.881  29.413  1.00  0.00     0.029 A 
ATOM     19  N   UNL A   1      39.009  30.728  31.320  1.00  0.00    -0.354 N 
ATOM     20  C   UNL A   1      42.383  28.935  33.329  1.00  0.00     0.074 A 
ATOM     21  C   UNL A   1      42.943  27.846  32.558  1.00  0.00     0.031 C 
ATOM     22  C   UNL A   1      37.512  30.993  29.674  1.00  0.00     0.029 A 
ATOM     23  C   UNL A   1      37.995  31.568  30.923  1.00  0.00     0.049 A 
ATOM     24  H   UNL A   1      39.511  30.844  32.158  1.00  0.00     0.167 HD
ATOM     25  C   UNL A   1      42.859  29.345  34.531  1.00  0.00     0.031 A 
ATOM     26  C   UNL A   1      37.497  32.677  31.498  1.00  0.00     0.031 A 
ATOM     27  C   UNL A   1      42.315  30.447  35.284  1.00  0.00     0.049 A 
ATOM     28  C   UNL A   1      38.073  33.140  32.800  1.00  0.00     0.074 A 
ATOM     29  C   UNL A   1      42.714  30.929  36.520  1.00  0.00     0.029 A 
ATOM     30  N   UNL A   1      41.268  31.252  34.864  1.00  0.00    -0.354 N 
ATOM     31  N   UNL A   1      39.062  32.621  33.488  1.00  0.00    -0.248 NA
ATOM     32  C   UNL A   1      37.459  34.324  33.410  1.00  0.00     0.031 C 
ATOM     33  C   UNL A   1      41.891  32.011  36.856  1.00  0.00     0.029 A 
ATOM     34  C   UNL A   1      41.006  32.226  35.813  1.00  0.00     0.049 A 
ATOM     35  H   UNL A   1      40.780  31.146  34.015  1.00  0.00     0.167 HD
ATOM     36  C   UNL A   1      39.172  33.404  34.629  1.00  0.00     0.074 A 
ATOM     37  C   UNL A   1      38.184  34.458  34.512  1.00  0.00     0.031 C 
ATOM     38  C   UNL A   1      40.004  33.251  35.688  1.00  0.00     0.031 A 
BRANCH  25  39
ATOM     39  C   UNL A   1      44.015  28.585  35.127  1.00  0.00    -0.014 A 
ATOM     40  C   UNL A   1      43.808  27.449  35.927  1.00  0.00     0.010 A 
ATOM     41  C   UNL A   1      45.334  28.980  34.828  1.00  0.00     0.010 A 
ATOM     42  C   UNL A   1      44.897  26.736  36.441  1.00  0.00     0.020 A 
ATOM     43  C   UNL A   1      46.425  28.258  35.323  1.00  0.00     0.020 A 
ATOM     44  C   UNL A   1      46.198  27.147  36.138  1.00  0.00     0.054 A 
BRANCH  44  45
ATOM     45  S   UNL A   1      47.594  26.186  36.788  1.00  0.00     0.124 S 
ATOM     46  O   UNL A   1      47.526  26.487  38.217  1.00  0.00    -0.237 OA
ATOM     47  O   UNL A   1      47.245  24.817  36.419  1.00  0.00    -0.237 OA
ATOM     48  O   UNL A   1      48.751  26.740  36.090  1.00  0.00    -0.744 OA
ENDBRANCH  44  45
ENDBRANCH  25  39
BRANCH  26  49
ATOM     49  C   UNL A   1      36.367  33.391  30.849  1.00  0.00    -0.014 A 
ATOM     50  C   UNL A   1      35.125  33.507  31.493  1.00  0.00     0.010 A 
ATOM     51  C   UNL A   1      36.557  34.012  29.600  1.00  0.00     0.010 A 
ATOM     52  C   UNL A   1      34.088  34.233  30.898  1.00  0.00     0.020 A 
ATOM     53  C   UNL A   1      35.534  34.762  29.018  1.00  0.00     0.020 A 
ATOM     54  C   UNL A   1      34.302  34.860  29.666  1.00  0.00     0.054 A 
BRANCH  54  55
ATOM     55  S   UNL A   1      32.983  35.874  28.942  1.00  0.00     0.124 S 
ATOM     56  O   UNL A   1      32.342  34.930  28.034  1.00  0.00    -0.237 OA
ATOM     57  O   UNL A   1      32.197  36.263  30.110  1.00  0.00    -0.237 OA
ATOM     58  O   UNL A   1      33.714  36.967  28.303  1.00  0.00    -0.744 OA
ENDBRANCH  54  55
ENDBRANCH  26  49
BRANCH  38  59
ATOM     59  C   UNL A   1      39.857  34.247  36.803  1.00  0.00    -0.014 A 
ATOM     60  C   UNL A   1      39.026  33.970  37.903  1.00  0.00     0.010 A 
ATOM     61  C   UNL A   1      40.548  35.468  36.747  1.00  0.00     0.010 A 
ATOM     62  C   UNL A   1      38.852  34.922  38.910  1.00  0.00     0.020 A 
ATOM     63  C   UNL A   1      40.392  36.414  37.762  1.00  0.00     0.020 A 
ATOM     64  C   UNL A   1      39.528  36.142  38.827  1.00  0.00     0.054 A 
BRANCH  64  65
ATOM     65  S   UNL A   1      39.291  37.368  40.143  1.00  0.00     0.124 S 
ATOM     66  O   UNL A   1      38.479  38.378  39.471  1.00  0.00    -0.237 OA
ATOM     67  O   UNL A   1      38.608  36.602  41.182  1.00  0.00    -0.237 OA
ATOM     68  O   UNL A   1      40.652  37.782  40.476  1.00  0.00    -0.744 OA
ENDBRANCH  64  65
ENDBRANCH  38  59
ENDBRANCH  12  13
ENDBRANCH   5   7
ENDBRANCH   2   3
ENDBRANCH   1   2
BRANCH   1  69
ATOM     69  C   UNL A   1      37.870  22.967  25.777  1.00  0.00     0.023 C 
BRANCH  69  70
ATOM     70  C   UNL A   1      36.787  21.944  25.463  1.00  0.00     0.116 C 
BRANCH  70  71
ATOM     71  N   UNL A   1      35.797  21.863  26.507  1.00  0.00    -0.356 N 
ATOM     72  C   UNL A   1      34.489  21.508  26.461  1.00  0.00     0.227 C 
ATOM     73  H   UNL A   1      36.124  22.104  27.404  1.00  0.00     0.163 HD
ATOM     74  O   UNL A   1      33.898  21.459  27.548  1.00  0.00    -0.274 OA
BRANCH  72  75
ATOM     75  C   UNL A   1      33.721  21.185  25.169  1.00  0.00     0.113 C 
BRANCH  75  76
ATOM     76  C   UNL A   1      32.677  20.038  25.235  1.00  0.00     0.054 C 
BRANCH  76  77
ATOM     77  C   UNL A   1      32.997  18.604  24.906  1.00  0.00    -0.044 A 
ATOM     78  C   UNL A   1      32.768  17.569  25.815  1.00  0.00     0.024 A 
ATOM     79  C   UNL A   1      33.449  18.254  23.627  1.00  0.00     0.024 A 
ATOM     80  C   UNL A   1      33.081  16.267  25.450  1.00  0.00     0.111 A 
ATOM     81  C   UNL A   1      33.717  16.921  23.345  1.00  0.00     0.111 A 
ATOM     82  N   UNL A   1      33.562  15.924  24.238  1.00  0.00    -0.265 NA
ENDBRANCH  76  77
ENDBRANCH  75  76
BRANCH  75  83
ATOM     83  C   UNL A   1      33.519  22.365  24.215  1.00  0.00    -0.035 A 
ATOM     84  C   UNL A   1      33.069  22.098  22.904  1.00  0.00     0.006 A 
ATOM     85  C   UNL A   1      33.766  23.703  24.544  1.00  0.00     0.006 A 
ATOM     86  C   UNL A   1      32.844  23.124  21.981  1.00  0.00     0.021 A 
ATOM     87  C   UNL A   1      33.541  24.736  23.623  1.00  0.00     0.021 A 
ATOM     88  C   UNL A   1      33.075  24.443  22.348  1.00  0.00     0.041 A 
ATOM     89  Cl  UNL A   1      32.779  25.713  21.227  1.00  0.00    -0.084 Cl
ENDBRANCH  75  83
ENDBRANCH  72  75
ENDBRANCH  70  71
ENDBRANCH  69  70
ENDBRANCH   1  69
TORSDOF 17
ENDMDL
MODEL 3
REMARK VINA RESULT:     -10.9      1.832      8.642
REMARK SMILES O=C(NCCCCNC(=O)[C@@H](Cc1ccncc1)c1ccc(Cl)cc1)c1ccc(-c2c3nc(c(-c4ccc(S(=O)(=O)[O-])cc4)c4ccc([nH]4)c(-c4ccc(S(=O)(=O)[O-])cc4)c4nc(c(-c5ccc(S(=O)(=O)[O-])cc5)c5ccc2[nH]5)C=C4)C=C3)cc1
REMARK SMILES IDX 5 1 4 2 3 3 1 4 2 5 26 7 27 8 85 9 28 10 84 11 29 12 30 13
REMARK SMILES IDX 31 14 78 15 32 16 83 17 77 18 79 19 33 20 82 21 76 22 75 23
REMARK SMILES IDX 34 25 64 26 45 27 63 28 46 29 49 30 62 31 80 32 47 33 48 34
REMARK SMILES IDX 61 36 81 37 50 38 35 39 36 40 44 41 37 42 43 43 38 44 39 45
REMARK SMILES IDX 40 46 41 47 42 48 65 49 66 50 74 51 67 52 73 53 68 54 69 55
REMARK SMILES IDX 70 56 71 57 72 58 51 59 52 60 60 61 53 62 59 63 54 64 55 65
REMARK SMILES IDX 56 66 57 67 58 68 6 69 7 70 8 71 9 72 10 74 11 75 12 76
REMARK SMILES IDX 13 77 14 78 18 79 15 80 17 81 16 82 19 83 20 84 25 85 21 86
REMARK SMILES IDX 24 87 22 88 23 89
REMARK H PARENT 3 6 79 24 49 35 8 73
REMARK Flexibility Score: inf
ROOT
ATOM      1  C   UNL A   1      32.833  29.374  24.839  1.00  0.00     0.023 C 
ENDROOT
BRANCH   1   2
ATOM      2  C   UNL A   1      33.602  29.224  26.145  1.00  0.00     0.116 C 
BRANCH   2   3
ATOM      3  N   UNL A   1      33.479  30.346  27.074  1.00  0.00    -0.352 N 
ATOM      4  O   UNL A   1      34.186  31.758  28.710  1.00  0.00    -0.269 OA
ATOM      5  C   UNL A   1      34.418  30.802  27.978  1.00  0.00     0.251 C 
ATOM      6  H   UNL A   1      32.624  30.833  27.054  1.00  0.00     0.163 HD
BRANCH   5   7
ATOM      7  C   UNL A   1      35.693  30.067  28.080  1.00  0.00     0.039 A 
ATOM      8  C   UNL A   1      36.056  29.504  29.300  1.00  0.00     0.014 A 
ATOM      9  C   UNL A   1      36.597  30.112  27.015  1.00  0.00     0.014 A 
ATOM     10  C   UNL A   1      37.392  29.220  29.532  1.00  0.00     0.010 A 
ATOM     11  C   UNL A   1      37.917  29.697  27.219  1.00  0.00     0.010 A 
ATOM     12  C   UNL A   1      38.344  29.315  28.499  1.00  0.00    -0.014 A 
BRANCH  12  13
ATOM     13  C   UNL A   1      39.765  29.010  28.816  1.00  0.00     0.031 A 
ATOM     14  C   UNL A   1      40.614  29.942  29.646  1.00  0.00     0.074 A 
ATOM     15  C   UNL A   1      40.257  27.813  28.436  1.00  0.00     0.049 A 
ATOM     16  N   UNL A   1      41.846  29.777  30.059  1.00  0.00    -0.248 NA
ATOM     17  C   UNL A   1      40.018  31.224  30.058  1.00  0.00     0.031 C 
ATOM     18  C   UNL A   1      39.536  26.827  27.623  1.00  0.00     0.029 A 
ATOM     19  N   UNL A   1      41.443  27.193  28.730  1.00  0.00    -0.354 N 
ATOM     20  C   UNL A   1      42.187  30.942  30.738  1.00  0.00     0.074 A 
ATOM     21  C   UNL A   1      41.032  31.812  30.681  1.00  0.00     0.031 C 
ATOM     22  C   UNL A   1      40.244  25.692  27.577  1.00  0.00     0.029 A 
ATOM     23  C   UNL A   1      41.506  25.896  28.276  1.00  0.00     0.049 A 
ATOM     24  H   UNL A   1      42.176  27.632  29.217  1.00  0.00     0.167 HD
ATOM     25  C   UNL A   1      43.355  31.259  31.348  1.00  0.00     0.031 A 
ATOM     26  C   UNL A   1      42.472  24.969  28.397  1.00  0.00     0.031 A 
ATOM     27  C   UNL A   1      44.494  30.379  31.426  1.00  0.00     0.049 A 
ATOM     28  C   UNL A   1      43.733  25.326  29.121  1.00  0.00     0.074 A 
ATOM     29  C   UNL A   1      45.729  30.614  32.006  1.00  0.00     0.029 A 
ATOM     30  N   UNL A   1      44.529  29.086  30.927  1.00  0.00    -0.354 N 
ATOM     31  N   UNL A   1      44.046  26.455  29.713  1.00  0.00    -0.248 NA
ATOM     32  C   UNL A   1      44.775  24.295  29.180  1.00  0.00     0.031 C 
ATOM     33  C   UNL A   1      46.520  29.471  31.835  1.00  0.00     0.029 A 
ATOM     34  C   UNL A   1      45.764  28.511  31.184  1.00  0.00     0.049 A 
ATOM     35  H   UNL A   1      43.787  28.642  30.456  1.00  0.00     0.167 HD
ATOM     36  C   UNL A   1      45.335  26.277  30.194  1.00  0.00     0.074 A 
ATOM     37  C   UNL A   1      45.722  24.918  29.869  1.00  0.00     0.031 C 
ATOM     38  C   UNL A   1      46.135  27.167  30.831  1.00  0.00     0.031 A 
BRANCH  25  39
ATOM     39  C   UNL A   1      43.478  32.628  31.964  1.00  0.00    -0.014 A 
ATOM     40  C   UNL A   1      43.196  32.845  33.324  1.00  0.00     0.010 A 
ATOM     41  C   UNL A   1      43.945  33.703  31.183  1.00  0.00     0.010 A 
ATOM     42  C   UNL A   1      43.352  34.118  33.885  1.00  0.00     0.020 A 
ATOM     43  C   UNL A   1      44.121  34.971  31.744  1.00  0.00     0.020 A 
ATOM     44  C   UNL A   1      43.810  35.173  33.090  1.00  0.00     0.054 A 
BRANCH  44  45
ATOM     45  S   UNL A   1      44.036  36.807  33.850  1.00  0.00     0.124 S 
ATOM     46  O   UNL A   1      45.123  36.551  34.792  1.00  0.00    -0.237 OA
ATOM     47  O   UNL A   1      44.381  37.650  32.708  1.00  0.00    -0.237 OA
ATOM     48  O   UNL A   1      42.738  37.088  34.458  1.00  0.00    -0.744 OA
ENDBRANCH  44  45
ENDBRANCH  25  39
BRANCH  26  49
ATOM     49  C   UNL A   1      42.280  23.630  27.782  1.00  0.00    -0.014 A 
ATOM     50  C   UNL A   1      42.678  23.384  26.458  1.00  0.00     0.010 A 
ATOM     51  C   UNL A   1      41.751  22.576  28.550  1.00  0.00     0.010 A 
ATOM     52  C   UNL A   1      42.547  22.104  25.910  1.00  0.00     0.020 A 
ATOM     53  C   UNL A   1      41.646  21.292  28.015  1.00  0.00     0.020 A 
ATOM     54  C   UNL A   1      42.036  21.065  26.694  1.00  0.00     0.054 A 
BRANCH  54  55
ATOM     55  S   UNL A   1      41.953  19.389  26.007  1.00  0.00     0.124 S 
ATOM     56  O   UNL A   1      42.515  18.590  27.090  1.00  0.00    -0.237 OA
ATOM     57  O   UNL A   1      40.523  19.210  25.764  1.00  0.00    -0.237 OA
ATOM     58  O   UNL A   1      42.772  19.480  24.800  1.00  0.00    -0.744 OA
ENDBRANCH  54  55
ENDBRANCH  26  49
BRANCH  38  59
ATOM     59  C   UNL A   1      47.511  26.687  31.197  1.00  0.00    -0.014 A 
ATOM     60  C   UNL A   1      47.744  26.066  32.438  1.00  0.00     0.010 A 
ATOM     61  C   UNL A   1      48.577  26.864  30.301  1.00  0.00     0.010 A 
ATOM     62  C   UNL A   1      49.034  25.671  32.795  1.00  0.00     0.020 A 
ATOM     63  C   UNL A   1      49.866  26.452  30.647  1.00  0.00     0.020 A 
ATOM     64  C   UNL A   1      50.089  25.877  31.901  1.00  0.00     0.054 A 
BRANCH  64  65
ATOM     65  S   UNL A   1      51.760  25.358  32.380  1.00  0.00     0.124 S 
ATOM     66  O   UNL A   1      51.896  25.964  33.702  1.00  0.00    -0.237 OA
ATOM     67  O   UNL A   1      51.664  23.900  32.364  1.00  0.00    -0.237 OA
ATOM     68  O   UNL A   1      52.609  25.931  31.339  1.00  0.00    -0.744 OA
ENDBRANCH  64  65
ENDBRANCH  38  59
ENDBRANCH  12  13
ENDBRANCH   5   7
ENDBRANCH   2   3
ENDBRANCH   1   2
BRANCH   1  69
ATOM     69  C   UNL A   1      32.507  28.068  24.138  1.00  0.00     0.023 C 
BRANCH  69  70
ATOM     70  C   UNL A   1      33.689  27.135  23.918  1.00  0.00     0.116 C 
BRANCH  70  71
ATOM     71  N   UNL A   1      33.587  26.411  22.676  1.00  0.00    -0.356 N 
ATOM     72  C   UNL A   1      33.405  25.090  22.435  1.00  0.00     0.227 C 
ATOM     73  H   UNL A   1      33.661  26.969  21.868  1.00  0.00     0.163 HD
ATOM     74  O   UNL A   1      33.280  24.764  21.246  1.00  0.00    -0.274 OA
BRANCH  72  75
ATOM     75  C   UNL A   1      33.359  24.005  23.523  1.00  0.00     0.113 C 
BRANCH  75  76
ATOM     76  C   UNL A   1      32.194  22.982  23.453  1.00  0.00     0.054 C 
BRANCH  76  77
ATOM     77  C   UNL A   1      32.356  21.516  23.759  1.00  0.00    -0.044 A 
ATOM     78  C   UNL A   1      32.541  21.050  25.062  1.00  0.00     0.024 A 
ATOM     79  C   UNL A   1      32.228  20.562  22.742  1.00  0.00     0.024 A 
ATOM     80  C   UNL A   1      32.681  19.687  25.279  1.00  0.00     0.111 A 
ATOM     81  C   UNL A   1      32.362  19.216  23.056  1.00  0.00     0.111 A 
ATOM     82  N   UNL A   1      32.607  18.761  24.301  1.00  0.00    -0.265 NA
ENDBRANCH  76  77
ENDBRANCH  75  76
BRANCH  75  83
ATOM     83  C   UNL A   1      34.718  23.596  24.097  1.00  0.00    -0.035 A 
ATOM     84  C   UNL A   1      35.004  23.923  25.440  1.00  0.00     0.006 A 
ATOM     85  C   UNL A   1      35.716  22.929  23.377  1.00  0.00     0.006 A 
ATOM     86  C   UNL A   1      36.216  23.568  26.041  1.00  0.00     0.021 A 
ATOM     87  C   UNL A   1      36.932  22.570  23.975  1.00  0.00     0.021 A 
ATOM     88  C   UNL A   1      37.174  22.884  25.305  1.00  0.00     0.041 A 
ATOM     89  Cl  UNL A   1      38.658  22.424  26.043  1.00  0.00    -0.084 Cl
ENDBRANCH  75  83
ENDBRANCH  72  75
ENDBRANCH  70  71
ENDBRANCH  69  70
ENDBRANCH   1  69
TORSDOF 17
ENDMDL
