MODEL 1
REMARK VINA RESULT:     -11.2      0.000      0.000
REMARK SMILES Cc1ccc(NC(=O)C[C@@H](C(=O)NCCCCNC(=O)c2ccc(-c3c4nc(c(-c5ccc(S(=O)(=O)[O-])cc5)c5ccc([nH]5)c(-c5ccc(S(=O)(=O)[O-])cc5)c5nc(c(-c6ccc(S(=O)(=O)[O-])cc6)c6ccc3[nH]6)C=C5)C=C4)cc2)[C@@H](C)c2ccccc2)cc1Br
REMARK SMILES IDX 15 1 14 2 13 3 11 4 12 5 10 7 9 8 7 9 6 10 8 12 5 13 1 14
REMARK SMILES IDX 2 15 3 16 90 17 4 18 89 19 91 20 81 21 82 22 83 23 84 24
REMARK SMILES IDX 88 25 85 26 87 27 86 28 16 29 17 30 18 31 19 32 20 34 21 35
REMARK SMILES IDX 22 36 80 37 23 38 79 39 24 40 25 41 26 42 73 43 27 44 78 45
REMARK SMILES IDX 72 46 74 47 28 48 77 49 71 50 70 51 29 53 59 54 40 55 58 56
REMARK SMILES IDX 41 57 44 58 57 59 75 60 42 61 43 62 56 64 76 65 45 66 30 67
REMARK SMILES IDX 31 68 39 69 32 70 38 71 33 72 34 73 35 74 36 75 37 76 60 77
REMARK SMILES IDX 61 78 69 79 62 80 68 81 63 82 64 83 65 84 66 85 67 86 46 87
REMARK SMILES IDX 47 88 55 89 48 90 54 91 49 92 50 93 51 94 52 95 53 96
REMARK H PARENT 13 6 6 11 18 33 74 52 44 63
REMARK Flexibility Score: inf
ROOT
ATOM      1  C   UNL A   1      35.608  21.872  26.416  1.00  0.00     0.023 C 
ENDROOT
BRANCH   1   2
ATOM      2  C   UNL A   1      35.322  20.962  25.213  1.00  0.00     0.116 C 
BRANCH   2   3
ATOM      3  N   UNL A   1      33.978  20.416  25.228  1.00  0.00    -0.356 N 
ATOM      4  C   UNL A   1      32.747  20.957  25.042  1.00  0.00     0.224 C 
ATOM      5  O   UNL A   1      31.815  20.157  25.124  1.00  0.00    -0.275 OA
ATOM      6  H   UNL A   1      33.954  19.450  25.412  1.00  0.00     0.163 HD
BRANCH   4   7
ATOM      7  C   UNL A   1      32.543  22.445  24.756  1.00  0.00     0.095 C 
BRANCH   7   8
ATOM      8  C   UNL A   1      31.065  22.923  24.832  1.00  0.00     0.114 C 
BRANCH   8   9
ATOM      9  C   UNL A   1      30.381  23.337  26.114  1.00  0.00     0.225 C 
ATOM     10  N   UNL A   1      30.260  24.625  26.535  1.00  0.00    -0.326 N 
ATOM     11  H   UNL A   1      29.794  24.721  27.396  1.00  0.00     0.169 HD
ATOM     12  O   UNL A   1      29.897  22.453  26.832  1.00  0.00    -0.275 OA
BRANCH  10  13
ATOM     13  C   UNL A   1      30.674  25.841  25.974  1.00  0.00     0.042 A 
ATOM     14  C   UNL A   1      31.561  29.937  24.971  1.00  0.00     0.045 C 
ATOM     15  C   UNL A   1      31.330  28.477  25.230  1.00  0.00    -0.037 A 
ATOM     16  C   UNL A   1      31.932  27.878  26.345  1.00  0.00     0.007 A 
ATOM     17  C   UNL A   1      30.496  27.689  24.424  1.00  0.00     0.022 A 
ATOM     18  C   UNL A   1      31.633  26.561  26.691  1.00  0.00     0.026 A 
ATOM     19  C   UNL A   1      30.163  26.379  24.798  1.00  0.00     0.042 A 
ATOM     20  Br  UNL A   1      29.752  28.350  22.804  1.00  0.00    -0.050 Br
ENDBRANCH  10  13
ENDBRANCH   8   9
ENDBRANCH   7   8
BRANCH   7  21
ATOM     21  C   UNL A   1      33.117  22.938  23.361  1.00  0.00     0.029 C 
ATOM     22  C   UNL A   1      32.455  22.150  22.201  1.00  0.00     0.013 C 
BRANCH  21  23
ATOM     23  C   UNL A   1      33.117  24.434  23.030  1.00  0.00    -0.044 A 
ATOM     24  C   UNL A   1      32.602  24.962  21.837  1.00  0.00     0.004 A 
ATOM     25  C   UNL A   1      33.791  25.321  23.889  1.00  0.00     0.004 A 
ATOM     26  C   UNL A   1      32.782  26.314  21.511  1.00  0.00     0.000 A 
ATOM     27  C   UNL A   1      33.940  26.675  23.585  1.00  0.00     0.000 A 
ATOM     28  C   UNL A   1      33.447  27.170  22.386  1.00  0.00     0.000 A 
ENDBRANCH  21  23
ENDBRANCH   7  21
ENDBRANCH   4   7
ENDBRANCH   2   3
ENDBRANCH   1   2
BRANCH   1  29
ATOM     29  C   UNL A   1      35.628  23.376  26.134  1.00  0.00     0.023 C 
BRANCH  29  30
ATOM     30  C   UNL A   1      36.930  23.879  25.537  1.00  0.00     0.116 C 
BRANCH  30  31
ATOM     31  N   UNL A   1      38.000  22.905  25.698  1.00  0.00    -0.352 N 
ATOM     32  C   UNL A   1      39.285  23.078  26.144  1.00  0.00     0.251 C 
ATOM     33  H   UNL A   1      37.763  21.983  25.449  1.00  0.00     0.163 HD
ATOM     34  O   UNL A   1      40.118  22.191  25.945  1.00  0.00    -0.269 OA
BRANCH  32  35
ATOM     35  C   UNL A   1      39.677  24.315  26.852  1.00  0.00     0.039 A 
ATOM     36  C   UNL A   1      40.395  25.301  26.168  1.00  0.00     0.014 A 
ATOM     37  C   UNL A   1      39.373  24.490  28.204  1.00  0.00     0.014 A 
ATOM     38  C   UNL A   1      40.765  26.476  26.827  1.00  0.00     0.010 A 
ATOM     39  C   UNL A   1      39.648  25.700  28.828  1.00  0.00     0.010 A 
ATOM     40  C   UNL A   1      40.372  26.696  28.157  1.00  0.00    -0.014 A 
BRANCH  40  41
ATOM     41  C   UNL A   1      40.750  27.931  28.892  1.00  0.00     0.031 A 
ATOM     42  C   UNL A   1      42.099  28.015  29.562  1.00  0.00     0.074 A 
ATOM     43  C   UNL A   1      39.864  28.939  29.019  1.00  0.00     0.049 A 
ATOM     44  N   UNL A   1      42.581  28.954  30.336  1.00  0.00    -0.248 NA
ATOM     45  C   UNL A   1      43.010  26.873  29.371  1.00  0.00     0.031 C 
ATOM     46  C   UNL A   1      38.511  28.958  28.456  1.00  0.00     0.029 A 
ATOM     47  N   UNL A   1      39.968  30.142  29.670  1.00  0.00    -0.354 N 
ATOM     48  C   UNL A   1      43.829  28.499  30.748  1.00  0.00     0.074 A 
ATOM     49  C   UNL A   1      44.007  27.180  30.187  1.00  0.00     0.031 C 
ATOM     50  C   UNL A   1      37.924  30.127  28.760  1.00  0.00     0.029 A 
ATOM     51  C   UNL A   1      38.840  30.924  29.571  1.00  0.00     0.049 A 
ATOM     52  H   UNL A   1      40.774  30.420  30.161  1.00  0.00     0.167 HD
ATOM     53  C   UNL A   1      44.757  29.134  31.504  1.00  0.00     0.031 A 
ATOM     54  C   UNL A   1      38.573  32.142  30.079  1.00  0.00     0.031 A 
ATOM     55  C   UNL A   1      44.590  30.464  32.023  1.00  0.00     0.049 A 
ATOM     56  C   UNL A   1      39.630  32.842  30.889  1.00  0.00     0.074 A 
ATOM     57  C   UNL A   1      45.493  31.227  32.741  1.00  0.00     0.029 A 
ATOM     58  N   UNL A   1      43.448  31.234  31.867  1.00  0.00    -0.354 N 
ATOM     59  N   UNL A   1      40.828  32.418  31.220  1.00  0.00    -0.248 NA
ATOM     60  C   UNL A   1      39.308  34.188  31.380  1.00  0.00     0.031 C 
ATOM     61  C   UNL A   1      44.881  32.445  33.055  1.00  0.00     0.029 A 
ATOM     62  C   UNL A   1      43.617  32.460  32.485  1.00  0.00     0.049 A 
ATOM     63  H   UNL A   1      42.637  30.950  31.386  1.00  0.00     0.167 HD
ATOM     64  C   UNL A   1      41.411  33.457  31.936  1.00  0.00     0.074 A 
ATOM     65  C   UNL A   1      40.442  34.534  31.977  1.00  0.00     0.031 C 
ATOM     66  C   UNL A   1      42.640  33.518  32.507  1.00  0.00     0.031 A 
BRANCH  53  67
ATOM     67  C   UNL A   1      46.035  28.394  31.806  1.00  0.00    -0.014 A 
ATOM     68  C   UNL A   1      47.151  28.495  30.956  1.00  0.00     0.010 A 
ATOM     69  C   UNL A   1      46.131  27.608  32.968  1.00  0.00     0.010 A 
ATOM     70  C   UNL A   1      48.322  27.787  31.236  1.00  0.00     0.020 A 
ATOM     71  C   UNL A   1      47.312  26.922  33.269  1.00  0.00     0.020 A 
ATOM     72  C   UNL A   1      48.393  27.000  32.390  1.00  0.00     0.054 A 
BRANCH  72  73
ATOM     73  S   UNL A   1      49.932  26.106  32.739  1.00  0.00     0.124 S 
ATOM     74  O   UNL A   1      49.512  24.715  32.589  1.00  0.00    -0.237 OA
ATOM     75  O   UNL A   1      50.835  26.603  31.703  1.00  0.00    -0.237 OA
ATOM     76  O   UNL A   1      50.268  26.512  34.101  1.00  0.00    -0.744 OA
ENDBRANCH  72  73
ENDBRANCH  53  67
BRANCH  54  77
ATOM     77  C   UNL A   1      37.260  32.790  29.809  1.00  0.00    -0.014 A 
ATOM     78  C   UNL A   1      36.200  32.656  30.722  1.00  0.00     0.010 A 
ATOM     79  C   UNL A   1      37.069  33.560  28.647  1.00  0.00     0.010 A 
ATOM     80  C   UNL A   1      34.966  33.264  30.471  1.00  0.00     0.020 A 
ATOM     81  C   UNL A   1      35.845  34.192  28.406  1.00  0.00     0.020 A 
ATOM     82  C   UNL A   1      34.797  34.030  29.314  1.00  0.00     0.054 A 
BRANCH  82  83
ATOM     83  S   UNL A   1      33.205  34.853  29.034  1.00  0.00     0.124 S 
ATOM     84  O   UNL A   1      33.622  36.172  28.569  1.00  0.00    -0.237 OA
ATOM     85  O   UNL A   1      32.578  33.997  28.030  1.00  0.00    -0.237 OA
ATOM     86  O   UNL A   1      32.570  34.824  30.349  1.00  0.00    -0.744 OA
ENDBRANCH  82  83
ENDBRANCH  54  77
BRANCH  66  87
ATOM     87  C   UNL A   1      43.023  34.802  33.190  1.00  0.00    -0.014 A 
ATOM     88  C   UNL A   1      42.940  34.936  34.587  1.00  0.00     0.010 A 
ATOM     89  C   UNL A   1      43.537  35.865  32.425  1.00  0.00     0.010 A 
ATOM     90  C   UNL A   1      43.339  36.123  35.204  1.00  0.00     0.020 A 
ATOM     91  C   UNL A   1      43.963  37.043  33.042  1.00  0.00     0.020 A 
ATOM     92  C   UNL A   1      43.850  37.169  34.427  1.00  0.00     0.054 A 
BRANCH  92  93
ATOM     93  S   UNL A   1      44.409  38.681  35.259  1.00  0.00     0.124 S 
ATOM     94  O   UNL A   1      43.911  38.482  36.617  1.00  0.00    -0.237 OA
ATOM     95  O   UNL A   1      45.859  38.615  35.104  1.00  0.00    -0.237 OA
ATOM     96  O   UNL A   1      43.756  39.750  34.506  1.00  0.00    -0.744 OA
ENDBRANCH  92  93
ENDBRANCH  66  87
ENDBRANCH  40  41
ENDBRANCH  32  35
ENDBRANCH  30  31
ENDBRANCH  29  30
ENDBRANCH   1  29
TORSDOF 19
ENDMDL
MODEL 2
REMARK VINA RESULT:     -10.9      3.922      9.010
REMARK SMILES Cc1ccc(NC(=O)C[C@@H](C(=O)NCCCCNC(=O)c2ccc(-c3c4nc(c(-c5ccc(S(=O)(=O)[O-])cc5)c5ccc([nH]5)c(-c5ccc(S(=O)(=O)[O-])cc5)c5nc(c(-c6ccc(S(=O)(=O)[O-])cc6)c6ccc3[nH]6)C=C5)C=C4)cc2)[C@@H](C)c2ccccc2)cc1Br
REMARK SMILES IDX 15 1 14 2 13 3 11 4 12 5 10 7 9 8 7 9 6 10 8 12 5 13 1 14
REMARK SMILES IDX 2 15 3 16 90 17 4 18 89 19 91 20 81 21 82 22 83 23 84 24
REMARK SMILES IDX 88 25 85 26 87 27 86 28 16 29 17 30 18 31 19 32 20 34 21 35
REMARK SMILES IDX 22 36 80 37 23 38 79 39 24 40 25 41 26 42 73 43 27 44 78 45
REMARK SMILES IDX 72 46 74 47 28 48 77 49 71 50 70 51 29 53 59 54 40 55 58 56
REMARK SMILES IDX 41 57 44 58 57 59 75 60 42 61 43 62 56 64 76 65 45 66 30 67
REMARK SMILES IDX 31 68 39 69 32 70 38 71 33 72 34 73 35 74 36 75 37 76 60 77
REMARK SMILES IDX 61 78 69 79 62 80 68 81 63 82 64 83 65 84 66 85 67 86 46 87
REMARK SMILES IDX 47 88 55 89 48 90 54 91 49 92 50 93 51 94 52 95 53 96
REMARK H PARENT 13 6 6 11 18 33 74 52 44 63
REMARK Flexibility Score: inf
ROOT
ATOM      1  C   UNL A   1      36.763  21.262  24.745  1.00  0.00     0.023 C 
ENDROOT
BRANCH   1   2
ATOM      2  C   UNL A   1      35.802  21.506  25.918  1.00  0.00     0.116 C 
BRANCH   2   3
ATOM      3  N   UNL A   1      34.539  20.809  25.764  1.00  0.00    -0.356 N 
ATOM      4  C   UNL A   1      33.292  21.203  25.401  1.00  0.00     0.224 C 
ATOM      5  O   UNL A   1      32.455  20.301  25.374  1.00  0.00    -0.275 OA
ATOM      6  H   UNL A   1      34.600  19.848  25.965  1.00  0.00     0.163 HD
BRANCH   4   7
ATOM      7  C   UNL A   1      32.962  22.655  25.055  1.00  0.00     0.095 C 
BRANCH   7   8
ATOM      8  C   UNL A   1      31.471  23.047  25.260  1.00  0.00     0.114 C 
BRANCH   8   9
ATOM      9  C   UNL A   1      30.910  23.561  26.565  1.00  0.00     0.225 C 
ATOM     10  N   UNL A   1      30.449  24.827  26.754  1.00  0.00    -0.326 N 
ATOM     11  H   UNL A   1      30.124  25.001  27.667  1.00  0.00     0.169 HD
ATOM     12  O   UNL A   1      30.862  22.785  27.528  1.00  0.00    -0.275 OA
BRANCH  10  13
ATOM     13  C   UNL A   1      30.349  25.930  25.896  1.00  0.00     0.042 A 
ATOM     14  C   UNL A   1      30.438  28.783  22.667  1.00  0.00     0.045 C 
ATOM     15  C   UNL A   1      30.331  27.866  23.852  1.00  0.00    -0.037 A 
ATOM     16  C   UNL A   1      29.531  26.721  23.757  1.00  0.00     0.007 A 
ATOM     17  C   UNL A   1      31.037  28.086  25.043  1.00  0.00     0.022 A 
ATOM     18  C   UNL A   1      29.513  25.780  24.786  1.00  0.00     0.026 A 
ATOM     19  C   UNL A   1      31.052  27.119  26.058  1.00  0.00     0.042 A 
ATOM     20  Br  UNL A   1      32.027  29.682  25.342  1.00  0.00    -0.050 Br
ENDBRANCH  10  13
ENDBRANCH   8   9
ENDBRANCH   7   8
BRANCH   7  21
ATOM     21  C   UNL A   1      33.357  23.094  23.582  1.00  0.00     0.029 C 
ATOM     22  C   UNL A   1      32.549  22.273  22.544  1.00  0.00     0.013 C 
BRANCH  21  23
ATOM     23  C   UNL A   1      33.323  24.577  23.201  1.00  0.00    -0.044 A 
ATOM     24  C   UNL A   1      32.864  25.047  21.961  1.00  0.00     0.004 A 
ATOM     25  C   UNL A   1      33.911  25.516  24.068  1.00  0.00     0.004 A 
ATOM     26  C   UNL A   1      33.015  26.394  21.601  1.00  0.00     0.000 A 
ATOM     27  C   UNL A   1      34.030  26.864  23.727  1.00  0.00     0.000 A 
ATOM     28  C   UNL A   1      33.594  27.302  22.485  1.00  0.00     0.000 A 
ENDBRANCH  21  23
ENDBRANCH   7  21
ENDBRANCH   4   7
ENDBRANCH   2   3
ENDBRANCH   1   2
BRANCH   1  29
ATOM     29  C   UNL A   1      37.845  20.204  24.970  1.00  0.00     0.023 C 
BRANCH  29  30
ATOM     30  C   UNL A   1      38.939  20.627  25.934  1.00  0.00     0.116 C 
BRANCH  30  31
ATOM     31  N   UNL A   1      39.953  19.593  26.073  1.00  0.00    -0.352 N 
ATOM     32  C   UNL A   1      41.317  19.707  26.157  1.00  0.00     0.251 C 
ATOM     33  H   UNL A   1      39.607  18.672  26.112  1.00  0.00     0.163 HD
ATOM     34  O   UNL A   1      42.018  18.707  25.990  1.00  0.00    -0.269 OA
BRANCH  32  35
ATOM     35  C   UNL A   1      41.948  21.013  26.442  1.00  0.00     0.039 A 
ATOM     36  C   UNL A   1      42.284  21.859  25.380  1.00  0.00     0.014 A 
ATOM     37  C   UNL A   1      42.248  21.390  27.752  1.00  0.00     0.014 A 
ATOM     38  C   UNL A   1      42.876  23.099  25.639  1.00  0.00     0.010 A 
ATOM     39  C   UNL A   1      42.738  22.664  28.014  1.00  0.00     0.010 A 
ATOM     40  C   UNL A   1      43.084  23.523  26.962  1.00  0.00    -0.014 A 
BRANCH  40  41
ATOM     41  C   UNL A   1      43.714  24.831  27.276  1.00  0.00     0.031 A 
ATOM     42  C   UNL A   1      42.860  25.962  27.795  1.00  0.00     0.074 A 
ATOM     43  C   UNL A   1      45.023  25.027  27.027  1.00  0.00     0.049 A 
ATOM     44  N   UNL A   1      43.190  27.206  28.030  1.00  0.00    -0.248 NA
ATOM     45  C   UNL A   1      41.439  25.665  28.044  1.00  0.00     0.031 C 
ATOM     46  C   UNL A   1      45.944  24.026  26.482  1.00  0.00     0.029 A 
ATOM     47  N   UNL A   1      45.807  26.140  27.196  1.00  0.00    -0.354 N 
ATOM     48  C   UNL A   1      42.015  27.842  28.417  1.00  0.00     0.074 A 
ATOM     49  C   UNL A   1      40.955  26.863  28.332  1.00  0.00     0.031 C 
ATOM     50  C   UNL A   1      47.173  24.562  26.391  1.00  0.00     0.029 A 
ATOM     51  C   UNL A   1      47.121  25.952  26.832  1.00  0.00     0.049 A 
ATOM     52  H   UNL A   1      45.463  26.993  27.546  1.00  0.00     0.167 HD
ATOM     53  C   UNL A   1      41.837  29.119  28.832  1.00  0.00     0.031 A 
ATOM     54  C   UNL A   1      48.164  26.804  26.849  1.00  0.00     0.031 A 
ATOM     55  C   UNL A   1      42.904  30.074  28.957  1.00  0.00     0.049 A 
ATOM     56  C   UNL A   1      47.950  28.208  27.345  1.00  0.00     0.074 A 
ATOM     57  C   UNL A   1      42.846  31.371  29.432  1.00  0.00     0.029 A 
ATOM     58  N   UNL A   1      44.225  29.830  28.613  1.00  0.00    -0.354 N 
ATOM     59  N   UNL A   1      46.841  28.774  27.761  1.00  0.00    -0.248 NA
ATOM     60  C   UNL A   1      49.128  29.084  27.389  1.00  0.00     0.031 C 
ATOM     61  C   UNL A   1      44.127  31.926  29.339  1.00  0.00     0.029 A 
ATOM     62  C   UNL A   1      44.991  30.956  28.856  1.00  0.00     0.049 A 
ATOM     63  H   UNL A   1      44.567  28.980  28.251  1.00  0.00     0.167 HD
ATOM     64  C   UNL A   1      47.194  30.064  28.141  1.00  0.00     0.074 A 
ATOM     65  C   UNL A   1      48.621  30.189  27.920  1.00  0.00     0.031 C 
ATOM     66  C   UNL A   1      46.410  31.055  28.633  1.00  0.00     0.031 A 
BRANCH  53  67
ATOM     67  C   UNL A   1      40.437  29.547  29.189  1.00  0.00    -0.014 A 
ATOM     68  C   UNL A   1      39.495  29.861  28.192  1.00  0.00     0.010 A 
ATOM     69  C   UNL A   1      40.048  29.614  30.539  1.00  0.00     0.010 A 
ATOM     70  C   UNL A   1      38.208  30.278  28.537  1.00  0.00     0.020 A 
ATOM     71  C   UNL A   1      38.750  30.002  30.889  1.00  0.00     0.020 A 
ATOM     72  C   UNL A   1      37.845  30.350  29.885  1.00  0.00     0.054 A 
BRANCH  72  73
ATOM     73  S   UNL A   1      36.161  30.877  30.305  1.00  0.00     0.124 S 
ATOM     74  O   UNL A   1      35.918  30.146  31.547  1.00  0.00    -0.237 OA
ATOM     75  O   UNL A   1      36.304  32.325  30.448  1.00  0.00    -0.237 OA
ATOM     76  O   UNL A   1      35.366  30.443  29.160  1.00  0.00    -0.744 OA
ENDBRANCH  72  73
ENDBRANCH  53  67
BRANCH  54  77
ATOM     77  C   UNL A   1      49.509  26.342  26.412  1.00  0.00    -0.014 A 
ATOM     78  C   UNL A   1      49.988  26.659  25.129  1.00  0.00     0.010 A 
ATOM     79  C   UNL A   1      50.327  25.598  27.282  1.00  0.00     0.010 A 
ATOM     80  C   UNL A   1      51.253  26.227  24.716  1.00  0.00     0.020 A 
ATOM     81  C   UNL A   1      51.603  25.188  26.883  1.00  0.00     0.020 A 
ATOM     82  C   UNL A   1      52.053  25.495  25.597  1.00  0.00     0.054 A 
BRANCH  82  83
ATOM     83  S   UNL A   1      53.710  24.989  25.059  1.00  0.00     0.124 S 
ATOM     84  O   UNL A   1      54.560  25.613  26.068  1.00  0.00    -0.237 OA
ATOM     85  O   UNL A   1      53.629  23.531  25.113  1.00  0.00    -0.237 OA
ATOM     86  O   UNL A   1      53.818  25.549  23.714  1.00  0.00    -0.744 OA
ENDBRANCH  82  83
ENDBRANCH  54  77
BRANCH  66  87
ATOM     87  C   UNL A   1      47.081  32.349  29.001  1.00  0.00    -0.014 A 
ATOM     88  C   UNL A   1      47.618  32.552  30.285  1.00  0.00     0.010 A 
ATOM     89  C   UNL A   1      47.234  33.351  28.025  1.00  0.00     0.010 A 
ATOM     90  C   UNL A   1      48.273  33.746  30.593  1.00  0.00     0.020 A 
ATOM     91  C   UNL A   1      47.913  34.535  28.322  1.00  0.00     0.020 A 
ATOM     92  C   UNL A   1      48.417  34.730  29.609  1.00  0.00     0.054 A 
BRANCH  92  93
ATOM     93  S   UNL A   1      49.316  36.250  30.021  1.00  0.00     0.124 S 
ATOM     94  O   UNL A   1      48.447  37.279  29.457  1.00  0.00    -0.237 OA
ATOM     95  O   UNL A   1      49.374  36.205  31.479  1.00  0.00    -0.237 OA
ATOM     96  O   UNL A   1      50.602  36.083  29.347  1.00  0.00    -0.744 OA
ENDBRANCH  92  93
ENDBRANCH  66  87
ENDBRANCH  40  41
ENDBRANCH  32  35
ENDBRANCH  30  31
ENDBRANCH  29  30
ENDBRANCH   1  29
TORSDOF 19
ENDMDL
MODEL 3
REMARK VINA RESULT:     -10.7      2.235      2.730
REMARK SMILES Cc1ccc(NC(=O)C[C@@H](C(=O)NCCCCNC(=O)c2ccc(-c3c4nc(c(-c5ccc(S(=O)(=O)[O-])cc5)c5ccc([nH]5)c(-c5ccc(S(=O)(=O)[O-])cc5)c5nc(c(-c6ccc(S(=O)(=O)[O-])cc6)c6ccc3[nH]6)C=C5)C=C4)cc2)[C@@H](C)c2ccccc2)cc1Br
REMARK SMILES IDX 15 1 14 2 13 3 11 4 12 5 10 7 9 8 7 9 6 10 8 12 5 13 1 14
REMARK SMILES IDX 2 15 3 16 90 17 4 18 89 19 91 20 81 21 82 22 83 23 84 24
REMARK SMILES IDX 88 25 85 26 87 27 86 28 16 29 17 30 18 31 19 32 20 34 21 35
REMARK SMILES IDX 22 36 80 37 23 38 79 39 24 40 25 41 26 42 73 43 27 44 78 45
REMARK SMILES IDX 72 46 74 47 28 48 77 49 71 50 70 51 29 53 59 54 40 55 58 56
REMARK SMILES IDX 41 57 44 58 57 59 75 60 42 61 43 62 56 64 76 65 45 66 30 67
REMARK SMILES IDX 31 68 39 69 32 70 38 71 33 72 34 73 35 74 36 75 37 76 60 77
REMARK SMILES IDX 61 78 69 79 62 80 68 81 63 82 64 83 65 84 66 85 67 86 46 87
REMARK SMILES IDX 47 88 55 89 48 90 54 91 49 92 50 93 51 94 52 95 53 96
REMARK H PARENT 13 6 6 11 18 33 74 52 44 63
REMARK Flexibility Score: inf
ROOT
ATOM      1  C   UNL A   1      35.588  21.677  26.278  1.00  0.00     0.023 C 
ENDROOT
BRANCH   1   2
ATOM      2  C   UNL A   1      35.300  20.786  25.061  1.00  0.00     0.116 C 
BRANCH   2   3
ATOM      3  N   UNL A   1      33.959  20.233  25.075  1.00  0.00    -0.356 N 
ATOM      4  C   UNL A   1      32.723  20.774  24.928  1.00  0.00     0.224 C 
ATOM      5  O   UNL A   1      31.797  19.967  24.993  1.00  0.00    -0.275 OA
ATOM      6  H   UNL A   1      33.942  19.260  25.222  1.00  0.00     0.163 HD
BRANCH   4   7
ATOM      7  C   UNL A   1      32.508  22.271  24.702  1.00  0.00     0.095 C 
BRANCH   7   8
ATOM      8  C   UNL A   1      31.021  22.724  24.735  1.00  0.00     0.114 C 
BRANCH   8   9
ATOM      9  C   UNL A   1      30.286  23.104  25.999  1.00  0.00     0.225 C 
ATOM     10  N   UNL A   1      30.141  24.381  26.445  1.00  0.00    -0.326 N 
ATOM     11  H   UNL A   1      29.642  24.454  27.291  1.00  0.00     0.169 HD
ATOM     12  O   UNL A   1      29.781  22.200  26.678  1.00  0.00    -0.275 OA
BRANCH  10  13
ATOM     13  C   UNL A   1      30.567  25.612  25.930  1.00  0.00     0.042 A 
ATOM     14  C   UNL A   1      31.500  29.733  25.079  1.00  0.00     0.045 C 
ATOM     15  C   UNL A   1      31.252  28.266  25.284  1.00  0.00    -0.037 A 
ATOM     16  C   UNL A   1      31.852  27.618  26.371  1.00  0.00     0.007 A 
ATOM     17  C   UNL A   1      30.405  27.520  24.453  1.00  0.00     0.022 A 
ATOM     18  C   UNL A   1      31.539  26.292  26.669  1.00  0.00     0.026 A 
ATOM     19  C   UNL A   1      30.057  26.201  24.778  1.00  0.00     0.042 A 
ATOM     20  Br  UNL A   1      29.662  28.252  22.862  1.00  0.00    -0.050 Br
ENDBRANCH  10  13
ENDBRANCH   8   9
ENDBRANCH   7   8
BRANCH   7  21
ATOM     21  C   UNL A   1      33.133  22.837  23.358  1.00  0.00     0.029 C 
ATOM     22  C   UNL A   1      32.539  22.091  22.135  1.00  0.00     0.013 C 
BRANCH  21  23
ATOM     23  C   UNL A   1      33.119  24.345  23.094  1.00  0.00    -0.044 A 
ATOM     24  C   UNL A   1      32.558  24.925  21.946  1.00  0.00     0.004 A 
ATOM     25  C   UNL A   1      33.824  25.196  23.965  1.00  0.00     0.004 A 
ATOM     26  C   UNL A   1      32.724  26.291  21.674  1.00  0.00     0.000 A 
ATOM     27  C   UNL A   1      33.960  26.562  23.716  1.00  0.00     0.000 A 
ATOM     28  C   UNL A   1      33.421  27.109  22.560  1.00  0.00     0.000 A 
ENDBRANCH  21  23
ENDBRANCH   7  21
ENDBRANCH   4   7
ENDBRANCH   2   3
ENDBRANCH   1   2
BRANCH   1  29
ATOM     29  C   UNL A   1      35.930  23.138  25.978  1.00  0.00     0.023 C 
BRANCH  29  30
ATOM     30  C   UNL A   1      37.361  23.360  25.519  1.00  0.00     0.116 C 
BRANCH  30  31
ATOM     31  N   UNL A   1      38.241  22.304  25.994  1.00  0.00    -0.352 N 
ATOM     32  C   UNL A   1      39.520  22.380  26.482  1.00  0.00     0.251 C 
ATOM     33  H   UNL A   1      37.859  21.397  25.960  1.00  0.00     0.163 HD
ATOM     34  O   UNL A   1      40.196  21.352  26.571  1.00  0.00    -0.269 OA
BRANCH  32  35
ATOM     35  C   UNL A   1      40.093  23.678  26.896  1.00  0.00     0.039 A 
ATOM     36  C   UNL A   1      40.137  24.733  25.980  1.00  0.00     0.014 A 
ATOM     37  C   UNL A   1      40.626  23.847  28.176  1.00  0.00     0.014 A 
ATOM     38  C   UNL A   1      40.672  25.966  26.363  1.00  0.00     0.010 A 
ATOM     39  C   UNL A   1      41.059  25.101  28.589  1.00  0.00     0.010 A 
ATOM     40  C   UNL A   1      41.114  26.168  27.681  1.00  0.00    -0.014 A 
BRANCH  40  41
ATOM     41  C   UNL A   1      41.691  27.463  28.124  1.00  0.00     0.031 A 
ATOM     42  C   UNL A   1      43.186  27.665  28.084  1.00  0.00     0.074 A 
ATOM     43  C   UNL A   1      40.890  28.423  28.627  1.00  0.00     0.049 A 
ATOM     44  N   UNL A   1      43.896  28.673  28.520  1.00  0.00    -0.248 NA
ATOM     45  C   UNL A   1      43.991  26.569  27.515  1.00  0.00     0.031 C 
ATOM     46  C   UNL A   1      39.434  28.329  28.763  1.00  0.00     0.029 A 
ATOM     47  N   UNL A   1      41.189  29.665  29.126  1.00  0.00    -0.354 N 
ATOM     48  C   UNL A   1      45.225  28.317  28.311  1.00  0.00     0.074 A 
ATOM     49  C   UNL A   1      45.225  26.980  27.763  1.00  0.00     0.031 C 
ATOM     50  C   UNL A   1      38.965  29.478  29.278  1.00  0.00     0.029 A 
ATOM     51  C   UNL A   1      40.087  30.372  29.548  1.00  0.00     0.049 A 
ATOM     52  H   UNL A   1      42.106  30.018  29.176  1.00  0.00     0.167 HD
ATOM     53  C   UNL A   1      46.344  29.047  28.531  1.00  0.00     0.031 A 
ATOM     54  C   UNL A   1      39.991  31.600  30.092  1.00  0.00     0.031 A 
ATOM     55  C   UNL A   1      46.334  30.393  29.035  1.00  0.00     0.049 A 
ATOM     56  C   UNL A   1      41.245  32.406  30.297  1.00  0.00     0.074 A 
ATOM     57  C   UNL A   1      47.404  31.248  29.230  1.00  0.00     0.029 A 
ATOM     58  N   UNL A   1      45.193  31.085  29.414  1.00  0.00    -0.354 N 
ATOM     59  N   UNL A   1      42.489  32.073  30.040  1.00  0.00    -0.248 NA
ATOM     60  C   UNL A   1      41.083  33.757  30.850  1.00  0.00     0.031 C 
ATOM     61  C   UNL A   1      46.914  32.444  29.764  1.00  0.00     0.029 A 
ATOM     62  C   UNL A   1      45.533  32.352  29.852  1.00  0.00     0.049 A 
ATOM     63  H   UNL A   1      44.277  30.726  29.375  1.00  0.00     0.167 HD
ATOM     64  C   UNL A   1      43.254  33.185  30.375  1.00  0.00     0.074 A 
ATOM     65  C   UNL A   1      42.333  34.203  30.839  1.00  0.00     0.031 C 
ATOM     66  C   UNL A   1      44.598  33.350  30.303  1.00  0.00     0.031 A 
BRANCH  53  67
ATOM     67  C   UNL A   1      47.670  28.403  28.217  1.00  0.00    -0.014 A 
ATOM     68  C   UNL A   1      48.266  28.544  26.950  1.00  0.00     0.010 A 
ATOM     69  C   UNL A   1      48.344  27.668  29.209  1.00  0.00     0.010 A 
ATOM     70  C   UNL A   1      49.484  27.923  26.666  1.00  0.00     0.020 A 
ATOM     71  C   UNL A   1      49.579  27.071  28.938  1.00  0.00     0.020 A 
ATOM     72  C   UNL A   1      50.131  27.186  27.662  1.00  0.00     0.054 A 
BRANCH  72  73
ATOM     73  S   UNL A   1      51.722  26.405  27.271  1.00  0.00     0.124 S 
ATOM     74  O   UNL A   1      52.184  27.214  26.145  1.00  0.00    -0.237 OA
ATOM     75  O   UNL A   1      52.474  26.572  28.512  1.00  0.00    -0.237 OA
ATOM     76  O   UNL A   1      51.362  25.029  26.944  1.00  0.00    -0.744 OA
ENDBRANCH  72  73
ENDBRANCH  53  67
BRANCH  54  77
ATOM     77  C   UNL A   1      38.657  32.153  30.453  1.00  0.00    -0.014 A 
ATOM     78  C   UNL A   1      38.065  31.835  31.687  1.00  0.00     0.010 A 
ATOM     79  C   UNL A   1      37.979  33.015  29.572  1.00  0.00     0.010 A 
ATOM     80  C   UNL A   1      36.812  32.354  32.029  1.00  0.00     0.020 A 
ATOM     81  C   UNL A   1      36.739  33.558  29.921  1.00  0.00     0.020 A 
ATOM     82  C   UNL A   1      36.157  33.214  31.142  1.00  0.00     0.054 A 
BRANCH  82  83
ATOM     83  S   UNL A   1      34.556  33.917  31.627  1.00  0.00     0.124 S 
ATOM     84  O   UNL A   1      33.865  34.010  30.345  1.00  0.00    -0.237 OA
ATOM     85  O   UNL A   1      34.038  32.914  32.555  1.00  0.00    -0.237 OA
ATOM     86  O   UNL A   1      34.916  35.193  32.240  1.00  0.00    -0.744 OA
ENDBRANCH  82  83
ENDBRANCH  54  77
BRANCH  66  87
ATOM     87  C   UNL A   1      45.152  34.691  30.698  1.00  0.00    -0.014 A 
ATOM     88  C   UNL A   1      45.613  34.933  32.003  1.00  0.00     0.010 A 
ATOM     89  C   UNL A   1      45.273  35.701  29.726  1.00  0.00     0.010 A 
ATOM     90  C   UNL A   1      46.161  36.174  32.337  1.00  0.00     0.020 A 
ATOM     91  C   UNL A   1      45.847  36.934  30.049  1.00  0.00     0.020 A 
ATOM     92  C   UNL A   1      46.275  37.166  31.357  1.00  0.00     0.054 A 
BRANCH  92  93
ATOM     93  S   UNL A   1      47.038  38.750  31.804  1.00  0.00     0.124 S 
ATOM     94  O   UNL A   1      45.891  39.652  31.796  1.00  0.00    -0.237 OA
ATOM     95  O   UNL A   1      47.611  38.471  33.118  1.00  0.00    -0.237 OA
ATOM     96  O   UNL A   1      48.015  38.974  30.740  1.00  0.00    -0.744 OA
ENDBRANCH  92  93
ENDBRANCH  66  87
ENDBRANCH  40  41
ENDBRANCH  32  35
ENDBRANCH  30  31
ENDBRANCH  29  30
ENDBRANCH   1  29
TORSDOF 19
ENDMDL
