MODEL 1
REMARK VINA RESULT:     -10.3      0.000      0.000
REMARK SMILES C[C@@H](C(=O)NCCCCNC(=O)c1ccc(-c2c3nc(c(-c4ccc(S(=O)(=O)[O-])cc4)c4ccc([nH]4)c(-c4ccc(S(=O)(=O)[O-])cc4)c4nc(c(-c5ccc(S(=O)(=O)[O-])cc5)c5ccc2[nH]5)C=C4)C=C3)cc1)c1ccc(C[C@H]2CCCC2=O)c(-c2ccccc2)c1
REMARK SMILES IDX 7 1 6 2 5 3 3 4 4 5 2 7 1 8 73 9 74 10 91 11 75 12 84 13
REMARK SMILES IDX 76 14 85 15 86 16 90 17 87 18 89 19 88 20 77 21 78 22 79 23
REMARK SMILES IDX 82 24 80 25 81 26 83 27 8 28 9 29 10 30 11 31 12 33 13 34
REMARK SMILES IDX 14 35 72 36 15 37 71 38 16 39 17 40 18 41 65 42 19 43 70 44
REMARK SMILES IDX 64 45 66 46 20 47 69 48 63 49 62 50 21 52 51 53 32 54 50 55
REMARK SMILES IDX 33 56 36 57 49 58 67 59 34 60 35 61 48 63 68 64 37 65 22 66
REMARK SMILES IDX 23 67 31 68 24 69 30 70 25 71 26 72 27 73 28 74 29 75 52 76
REMARK SMILES IDX 53 77 61 78 54 79 60 80 55 81 56 82 57 83 58 84 59 85 38 86
REMARK SMILES IDX 39 87 47 88 40 89 46 90 41 91 42 92 43 93 44 94 45 95
REMARK H PARENT 5 6 10 32 66 51 36 62
REMARK Flexibility Score: inf
ROOT
ATOM      1  C   UNL A   1      42.206  19.833  26.719  1.00  0.00     0.023 C 
ENDROOT
BRANCH   1   2
ATOM      2  C   UNL A   1      43.054  19.391  25.521  1.00  0.00     0.116 C 
BRANCH   2   3
ATOM      3  N   UNL A   1      44.454  19.679  25.754  1.00  0.00    -0.356 N 
ATOM      4  C   UNL A   1      45.196  20.747  25.333  1.00  0.00     0.227 C 
ATOM      5  O   UNL A   1      46.408  20.552  25.239  1.00  0.00    -0.274 OA
ATOM      6  H   UNL A   1      44.939  19.012  26.292  1.00  0.00     0.163 HD
BRANCH   4   7
ATOM      7  C   UNL A   1      44.496  22.073  24.980  1.00  0.00     0.105 C 
ATOM      8  C   UNL A   1      44.695  22.328  23.478  1.00  0.00     0.023 C 
BRANCH   7   9
ATOM      9  C   UNL A   1      44.920  23.323  25.763  1.00  0.00    -0.035 A 
ATOM     10  C   UNL A   1      43.935  24.206  26.223  1.00  0.00     0.005 A 
ATOM     11  C   UNL A   1      46.252  23.674  26.021  1.00  0.00     0.013 A 
ATOM     12  C   UNL A   1      44.274  25.441  26.776  1.00  0.00     0.004 A 
ATOM     13  C   UNL A   1      46.632  24.932  26.548  1.00  0.00    -0.015 A 
ATOM     14  C   UNL A   1      45.615  25.851  26.881  1.00  0.00    -0.039 A 
BRANCH  13  15
ATOM     15  C   UNL A   1      48.079  25.218  26.660  1.00  0.00    -0.018 A 
ATOM     16  C   UNL A   1      48.807  25.786  25.603  1.00  0.00     0.009 A 
ATOM     17  C   UNL A   1      48.761  24.962  27.864  1.00  0.00     0.009 A 
ATOM     18  C   UNL A   1      50.176  26.036  25.724  1.00  0.00     0.001 A 
ATOM     19  C   UNL A   1      50.126  25.226  27.994  1.00  0.00     0.001 A 
ATOM     20  C   UNL A   1      50.836  25.752  26.919  1.00  0.00     0.000 A 
ENDBRANCH  13  15
BRANCH  14  21
ATOM     21  C   UNL A   1      45.882  27.285  27.299  1.00  0.00     0.047 C 
BRANCH  21  22
ATOM     22  C   UNL A   1      45.343  28.385  26.370  1.00  0.00     0.060 C 
ATOM     23  C   UNL A   1      44.036  29.069  26.781  1.00  0.00     0.012 C 
ATOM     24  C   UNL A   1      46.286  29.558  26.238  1.00  0.00     0.136 C 
ATOM     25  C   UNL A   1      44.430  30.378  27.454  1.00  0.00     0.009 C 
ATOM     26  C   UNL A   1      45.681  30.847  26.726  1.00  0.00     0.076 C 
ATOM     27  O   UNL A   1      47.413  29.477  25.762  1.00  0.00    -0.299 OA
ENDBRANCH  21  22
ENDBRANCH  14  21
ENDBRANCH   7   9
ENDBRANCH   4   7
ENDBRANCH   2   3
ENDBRANCH   1   2
BRANCH   1  28
ATOM     28  C   UNL A   1      40.780  20.275  26.373  1.00  0.00     0.023 C 
BRANCH  28  29
ATOM     29  C   UNL A   1      40.501  21.759  26.571  1.00  0.00     0.116 C 
BRANCH  29  30
ATOM     30  N   UNL A   1      39.295  22.195  25.886  1.00  0.00    -0.352 N 
ATOM     31  C   UNL A   1      38.626  23.389  25.990  1.00  0.00     0.251 C 
ATOM     32  H   UNL A   1      38.904  21.543  25.260  1.00  0.00     0.163 HD
ATOM     33  O   UNL A   1      37.534  23.527  25.447  1.00  0.00    -0.269 OA
BRANCH  31  34
ATOM     34  C   UNL A   1      39.210  24.491  26.784  1.00  0.00     0.039 A 
ATOM     35  C   UNL A   1      40.086  25.380  26.158  1.00  0.00     0.014 A 
ATOM     36  C   UNL A   1      38.881  24.657  28.132  1.00  0.00     0.014 A 
ATOM     37  C   UNL A   1      40.581  26.475  26.869  1.00  0.00     0.010 A 
ATOM     38  C   UNL A   1      39.317  25.789  28.816  1.00  0.00     0.010 A 
ATOM     39  C   UNL A   1      40.171  26.709  28.192  1.00  0.00    -0.014 A 
BRANCH  39  40
ATOM     40  C   UNL A   1      40.612  27.924  28.926  1.00  0.00     0.031 A 
ATOM     41  C   UNL A   1      41.969  27.970  29.576  1.00  0.00     0.074 A 
ATOM     42  C   UNL A   1      39.765  28.966  29.053  1.00  0.00     0.049 A 
ATOM     43  N   UNL A   1      42.509  28.928  30.284  1.00  0.00    -0.248 NA
ATOM     44  C   UNL A   1      42.820  26.778  29.430  1.00  0.00     0.031 C 
ATOM     45  C   UNL A   1      38.405  29.025  28.508  1.00  0.00     0.029 A 
ATOM     46  N   UNL A   1      39.921  30.175  29.682  1.00  0.00    -0.354 N 
ATOM     47  C   UNL A   1      43.755  28.453  30.677  1.00  0.00     0.074 A 
ATOM     48  C   UNL A   1      43.870  27.103  30.172  1.00  0.00     0.031 C 
ATOM     49  C   UNL A   1      37.865  30.218  28.800  1.00  0.00     0.029 A 
ATOM     50  C   UNL A   1      38.819  30.993  29.587  1.00  0.00     0.049 A 
ATOM     51  H   UNL A   1      40.744  30.434  30.156  1.00  0.00     0.167 HD
ATOM     52  C   UNL A   1      44.724  29.091  31.376  1.00  0.00     0.031 A 
ATOM     53  C   UNL A   1      38.596  32.226  30.082  1.00  0.00     0.031 A 
ATOM     54  C   UNL A   1      44.609  30.437  31.870  1.00  0.00     0.049 A 
ATOM     55  C   UNL A   1      39.684  32.907  30.867  1.00  0.00     0.074 A 
ATOM     56  C   UNL A   1      45.557  31.190  32.543  1.00  0.00     0.029 A 
ATOM     57  N   UNL A   1      43.480  31.233  31.749  1.00  0.00    -0.354 N 
ATOM     58  N   UNL A   1      40.883  32.466  31.166  1.00  0.00    -0.248 NA
ATOM     59  C   UNL A   1      39.394  34.257  31.368  1.00  0.00     0.031 C 
ATOM     60  C   UNL A   1      44.982  32.421  32.876  1.00  0.00     0.029 A 
ATOM     61  C   UNL A   1      43.698  32.459  32.356  1.00  0.00     0.049 A 
ATOM     62  H   UNL A   1      42.646  30.967  31.298  1.00  0.00     0.167 HD
ATOM     63  C   UNL A   1      41.500  33.496  31.869  1.00  0.00     0.074 A 
ATOM     64  C   UNL A   1      40.549  34.586  31.932  1.00  0.00     0.031 C 
ATOM     65  C   UNL A   1      42.740  33.535  32.413  1.00  0.00     0.031 A 
BRANCH  52  66
ATOM     66  C   UNL A   1      46.000  28.337  31.649  1.00  0.00    -0.014 A 
ATOM     67  C   UNL A   1      47.062  28.352  30.726  1.00  0.00     0.010 A 
ATOM     68  C   UNL A   1      46.161  27.651  32.866  1.00  0.00     0.010 A 
ATOM     69  C   UNL A   1      48.248  27.665  31.000  1.00  0.00     0.020 A 
ATOM     70  C   UNL A   1      47.357  26.986  33.157  1.00  0.00     0.020 A 
ATOM     71  C   UNL A   1      48.388  26.987  32.215  1.00  0.00     0.054 A 
BRANCH  71  72
ATOM     72  S   UNL A   1      49.952  26.134  32.557  1.00  0.00     0.124 S 
ATOM     73  O   UNL A   1      50.330  26.704  33.848  1.00  0.00    -0.237 OA
ATOM     74  O   UNL A   1      49.551  24.729  32.584  1.00  0.00    -0.237 OA
ATOM     75  O   UNL A   1      50.807  26.514  31.435  1.00  0.00    -0.744 OA
ENDBRANCH  71  72
ENDBRANCH  52  66
BRANCH  53  76
ATOM     76  C   UNL A   1      37.291  32.902  29.844  1.00  0.00    -0.014 A 
ATOM     77  C   UNL A   1      36.388  33.108  30.902  1.00  0.00     0.010 A 
ATOM     78  C   UNL A   1      36.943  33.342  28.553  1.00  0.00     0.010 A 
ATOM     79  C   UNL A   1      35.150  33.717  30.670  1.00  0.00     0.020 A 
ATOM     80  C   UNL A   1      35.720  33.980  28.323  1.00  0.00     0.020 A 
ATOM     81  C   UNL A   1      34.825  34.149  29.381  1.00  0.00     0.054 A 
BRANCH  81  82
ATOM     82  S   UNL A   1      33.229  34.970  29.110  1.00  0.00     0.124 S 
ATOM     83  O   UNL A   1      33.643  36.303  28.684  1.00  0.00    -0.237 OA
ATOM     84  O   UNL A   1      32.617  34.136  28.079  1.00  0.00    -0.237 OA
ATOM     85  O   UNL A   1      32.584  34.902  30.419  1.00  0.00    -0.744 OA
ENDBRANCH  81  82
ENDBRANCH  53  76
BRANCH  65  86
ATOM     86  C   UNL A   1      43.155  34.810  33.099  1.00  0.00    -0.014 A 
ATOM     87  C   UNL A   1      42.970  34.990  34.481  1.00  0.00     0.010 A 
ATOM     88  C   UNL A   1      43.779  35.827  32.352  1.00  0.00     0.010 A 
ATOM     89  C   UNL A   1      43.366  36.180  35.098  1.00  0.00     0.020 A 
ATOM     90  C   UNL A   1      44.205  37.005  32.971  1.00  0.00     0.020 A 
ATOM     91  C   UNL A   1      43.980  37.181  34.337  1.00  0.00     0.054 A 
BRANCH  91  92
ATOM     92  S   UNL A   1      44.517  38.701  35.168  1.00  0.00     0.124 S 
ATOM     93  O   UNL A   1      44.063  38.474  36.537  1.00  0.00    -0.237 OA
ATOM     94  O   UNL A   1      45.963  38.680  34.973  1.00  0.00    -0.237 OA
ATOM     95  O   UNL A   1      43.812  39.758  34.446  1.00  0.00    -0.744 OA
ENDBRANCH  91  92
ENDBRANCH  65  86
ENDBRANCH  39  40
ENDBRANCH  31  34
ENDBRANCH  29  30
ENDBRANCH  28  29
ENDBRANCH   1  28
TORSDOF 18
ENDMDL
MODEL 2
REMARK VINA RESULT:     -10.1      4.547     11.528
REMARK SMILES C[C@@H](C(=O)NCCCCNC(=O)c1ccc(-c2c3nc(c(-c4ccc(S(=O)(=O)[O-])cc4)c4ccc([nH]4)c(-c4ccc(S(=O)(=O)[O-])cc4)c4nc(c(-c5ccc(S(=O)(=O)[O-])cc5)c5ccc2[nH]5)C=C4)C=C3)cc1)c1ccc(C[C@H]2CCCC2=O)c(-c2ccccc2)c1
REMARK SMILES IDX 7 1 6 2 5 3 3 4 4 5 2 7 1 8 73 9 74 10 91 11 75 12 84 13
REMARK SMILES IDX 76 14 85 15 86 16 90 17 87 18 89 19 88 20 77 21 78 22 79 23
REMARK SMILES IDX 82 24 80 25 81 26 83 27 8 28 9 29 10 30 11 31 12 33 13 34
REMARK SMILES IDX 14 35 72 36 15 37 71 38 16 39 17 40 18 41 65 42 19 43 70 44
REMARK SMILES IDX 64 45 66 46 20 47 69 48 63 49 62 50 21 52 51 53 32 54 50 55
REMARK SMILES IDX 33 56 36 57 49 58 67 59 34 60 35 61 48 63 68 64 37 65 22 66
REMARK SMILES IDX 23 67 31 68 24 69 30 70 25 71 26 72 27 73 28 74 29 75 52 76
REMARK SMILES IDX 53 77 61 78 54 79 60 80 55 81 56 82 57 83 58 84 59 85 38 86
REMARK SMILES IDX 39 87 47 88 40 89 46 90 41 91 42 92 43 93 44 94 45 95
REMARK H PARENT 5 6 10 32 66 51 36 62
REMARK Flexibility Score: inf
ROOT
ATOM      1  C   UNL A   1      32.183  27.683  26.127  1.00  0.00     0.023 C 
ENDROOT
BRANCH   1   2
ATOM      2  C   UNL A   1      31.356  26.423  26.408  1.00  0.00     0.116 C 
BRANCH   2   3
ATOM      3  N   UNL A   1      30.303  26.276  25.424  1.00  0.00    -0.356 N 
ATOM      4  C   UNL A   1      30.380  26.340  24.062  1.00  0.00     0.227 C 
ATOM      5  O   UNL A   1      29.342  26.656  23.480  1.00  0.00    -0.274 OA
ATOM      6  H   UNL A   1      29.404  26.107  25.790  1.00  0.00     0.163 HD
BRANCH   4   7
ATOM      7  C   UNL A   1      31.722  26.057  23.359  1.00  0.00     0.105 C 
ATOM      8  C   UNL A   1      31.553  26.385  21.867  1.00  0.00     0.023 C 
BRANCH   7   9
ATOM      9  C   UNL A   1      32.305  24.644  23.499  1.00  0.00    -0.035 A 
ATOM     10  C   UNL A   1      31.475  23.539  23.273  1.00  0.00     0.005 A 
ATOM     11  C   UNL A   1      33.624  24.372  23.886  1.00  0.00     0.013 A 
ATOM     12  C   UNL A   1      31.902  22.243  23.564  1.00  0.00     0.004 A 
ATOM     13  C   UNL A   1      34.081  23.076  24.222  1.00  0.00    -0.015 A 
ATOM     14  C   UNL A   1      33.176  21.999  24.106  1.00  0.00    -0.039 A 
BRANCH  13  15
ATOM     15  C   UNL A   1      35.464  22.946  24.730  1.00  0.00    -0.018 A 
ATOM     16  C   UNL A   1      36.314  21.912  24.309  1.00  0.00     0.009 A 
ATOM     17  C   UNL A   1      35.981  23.897  25.629  1.00  0.00     0.009 A 
ATOM     18  C   UNL A   1      37.614  21.800  24.811  1.00  0.00     0.001 A 
ATOM     19  C   UNL A   1      37.284  23.796  26.120  1.00  0.00     0.001 A 
ATOM     20  C   UNL A   1      38.096  22.740  25.720  1.00  0.00     0.000 A 
ENDBRANCH  13  15
BRANCH  14  21
ATOM     21  C   UNL A   1      33.480  20.591  24.585  1.00  0.00     0.047 C 
BRANCH  21  22
ATOM     22  C   UNL A   1      32.446  19.508  24.239  1.00  0.00     0.060 C 
ATOM     23  C   UNL A   1      32.467  18.949  22.813  1.00  0.00     0.012 C 
ATOM     24  C   UNL A   1      32.604  18.257  25.071  1.00  0.00     0.136 C 
ATOM     25  C   UNL A   1      33.239  17.637  22.878  1.00  0.00     0.009 C 
ATOM     26  C   UNL A   1      32.909  17.040  24.238  1.00  0.00     0.076 C 
ATOM     27  O   UNL A   1      32.474  18.227  26.289  1.00  0.00    -0.299 OA
ENDBRANCH  21  22
ENDBRANCH  14  21
ENDBRANCH   7   9
ENDBRANCH   4   7
ENDBRANCH   2   3
ENDBRANCH   1   2
BRANCH   1  28
ATOM     28  C   UNL A   1      33.693  27.522  26.330  1.00  0.00     0.023 C 
BRANCH  28  29
ATOM     29  C   UNL A   1      34.526  28.740  25.956  1.00  0.00     0.116 C 
BRANCH  29  30
ATOM     30  N   UNL A   1      33.893  29.989  26.345  1.00  0.00    -0.352 N 
ATOM     31  C   UNL A   1      34.214  30.835  27.378  1.00  0.00     0.251 C 
ATOM     32  H   UNL A   1      33.129  30.268  25.791  1.00  0.00     0.163 HD
ATOM     33  O   UNL A   1      33.471  31.773  27.651  1.00  0.00    -0.269 OA
BRANCH  31  34
ATOM     34  C   UNL A   1      35.434  30.590  28.175  1.00  0.00     0.039 A 
ATOM     35  C   UNL A   1      35.385  29.651  29.207  1.00  0.00     0.014 A 
ATOM     36  C   UNL A   1      36.623  31.269  27.895  1.00  0.00     0.014 A 
ATOM     37  C   UNL A   1      36.549  29.344  29.915  1.00  0.00     0.010 A 
ATOM     38  C   UNL A   1      37.796  30.909  28.553  1.00  0.00     0.010 A 
ATOM     39  C   UNL A   1      37.771  29.943  29.570  1.00  0.00    -0.014 A 
BRANCH  39  40
ATOM     40  C   UNL A   1      39.034  29.553  30.249  1.00  0.00     0.031 A 
ATOM     41  C   UNL A   1      39.491  30.282  31.484  1.00  0.00     0.074 A 
ATOM     42  C   UNL A   1      39.797  28.574  29.719  1.00  0.00     0.049 A 
ATOM     43  N   UNL A   1      40.578  30.103  32.189  1.00  0.00    -0.248 NA
ATOM     44  C   UNL A   1      38.627  31.366  31.978  1.00  0.00     0.031 C 
ATOM     45  C   UNL A   1      39.486  27.823  28.500  1.00  0.00     0.029 A 
ATOM     46  N   UNL A   1      40.992  28.045  30.137  1.00  0.00    -0.354 N 
ATOM     47  C   UNL A   1      40.535  31.055  33.200  1.00  0.00     0.074 A 
ATOM     48  C   UNL A   1      39.341  31.843  32.988  1.00  0.00     0.031 C 
ATOM     49  C   UNL A   1      40.448  26.912  28.286  1.00  0.00     0.029 A 
ATOM     50  C   UNL A   1      41.464  27.040  29.326  1.00  0.00     0.049 A 
ATOM     51  H   UNL A   1      41.467  28.355  30.942  1.00  0.00     0.167 HD
ATOM     52  C   UNL A   1      41.399  31.244  34.226  1.00  0.00     0.031 A 
ATOM     53  C   UNL A   1      42.591  26.305  29.404  1.00  0.00     0.031 A 
ATOM     54  C   UNL A   1      42.583  30.453  34.439  1.00  0.00     0.049 A 
ATOM     55  C   UNL A   1      43.541  26.544  30.546  1.00  0.00     0.074 A 
ATOM     56  C   UNL A   1      43.494  30.532  35.479  1.00  0.00     0.029 A 
ATOM     57  N   UNL A   1      43.023  29.441  33.599  1.00  0.00    -0.354 N 
ATOM     58  N   UNL A   1      43.445  27.403  31.532  1.00  0.00    -0.248 NA
ATOM     59  C   UNL A   1      44.746  25.704  30.592  1.00  0.00     0.031 C 
ATOM     60  C   UNL A   1      44.513  29.604  35.239  1.00  0.00     0.029 A 
ATOM     61  C   UNL A   1      44.205  28.905  34.083  1.00  0.00     0.049 A 
ATOM     62  H   UNL A   1      42.564  29.148  32.779  1.00  0.00     0.167 HD
ATOM     63  C   UNL A   1      44.563  27.189  32.331  1.00  0.00     0.074 A 
ATOM     64  C   UNL A   1      45.309  26.106  31.723  1.00  0.00     0.031 C 
ATOM     65  C   UNL A   1      44.938  27.829  33.465  1.00  0.00     0.031 A 
BRANCH  52  66
ATOM     66  C   UNL A   1      41.096  32.351  35.201  1.00  0.00    -0.014 A 
ATOM     67  C   UNL A   1      40.333  32.110  36.358  1.00  0.00     0.010 A 
ATOM     68  C   UNL A   1      41.627  33.636  34.988  1.00  0.00     0.010 A 
ATOM     69  C   UNL A   1      40.076  33.142  37.264  1.00  0.00     0.020 A 
ATOM     70  C   UNL A   1      41.396  34.665  35.908  1.00  0.00     0.020 A 
ATOM     71  C   UNL A   1      40.610  34.413  37.034  1.00  0.00     0.054 A 
BRANCH  71  72
ATOM     72  S   UNL A   1      40.288  35.723  38.247  1.00  0.00     0.124 S 
ATOM     73  O   UNL A   1      39.869  36.830  37.390  1.00  0.00    -0.237 OA
ATOM     74  O   UNL A   1      39.238  35.139  39.077  1.00  0.00    -0.237 OA
ATOM     75  O   UNL A   1      41.576  35.904  38.912  1.00  0.00    -0.744 OA
ENDBRANCH  71  72
ENDBRANCH  52  66
BRANCH  53  76
ATOM     76  C   UNL A   1      42.880  25.268  28.376  1.00  0.00    -0.014 A 
ATOM     77  C   UNL A   1      42.401  23.955  28.529  1.00  0.00     0.010 A 
ATOM     78  C   UNL A   1      43.642  25.589  27.236  1.00  0.00     0.010 A 
ATOM     79  C   UNL A   1      42.699  22.975  27.576  1.00  0.00     0.020 A 
ATOM     80  C   UNL A   1      43.915  24.620  26.266  1.00  0.00     0.020 A 
ATOM     81  C   UNL A   1      43.455  23.315  26.450  1.00  0.00     0.054 A 
BRANCH  81  82
ATOM     82  S   UNL A   1      43.798  22.037  25.209  1.00  0.00     0.124 S 
ATOM     83  O   UNL A   1      42.741  21.067  25.472  1.00  0.00    -0.237 OA
ATOM     84  O   UNL A   1      43.683  22.778  23.955  1.00  0.00    -0.237 OA
ATOM     85  O   UNL A   1      45.151  21.595  25.540  1.00  0.00    -0.744 OA
ENDBRANCH  81  82
ENDBRANCH  53  76
BRANCH  65  86
ATOM     86  C   UNL A   1      46.198  27.357  34.141  1.00  0.00    -0.014 A 
ATOM     87  C   UNL A   1      47.448  27.929  33.843  1.00  0.00     0.010 A 
ATOM     88  C   UNL A   1      46.122  26.352  35.124  1.00  0.00     0.010 A 
ATOM     89  C   UNL A   1      48.603  27.479  34.486  1.00  0.00     0.020 A 
ATOM     90  C   UNL A   1      47.271  25.921  35.792  1.00  0.00     0.020 A 
ATOM     91  C   UNL A   1      48.507  26.475  35.455  1.00  0.00     0.054 A 
BRANCH  91  92
ATOM     92  S   UNL A   1      50.017  25.933  36.301  1.00  0.00     0.124 S 
ATOM     93  O   UNL A   1      51.025  26.812  35.715  1.00  0.00    -0.237 OA
ATOM     94  O   UNL A   1      49.706  26.181  37.706  1.00  0.00    -0.237 OA
ATOM     95  O   UNL A   1      50.133  24.523  35.934  1.00  0.00    -0.744 OA
ENDBRANCH  91  92
ENDBRANCH  65  86
ENDBRANCH  39  40
ENDBRANCH  31  34
ENDBRANCH  29  30
ENDBRANCH  28  29
ENDBRANCH   1  28
TORSDOF 18
ENDMDL
MODEL 3
REMARK VINA RESULT:      -9.6      4.724     11.338
REMARK SMILES C[C@@H](C(=O)NCCCCNC(=O)c1ccc(-c2c3nc(c(-c4ccc(S(=O)(=O)[O-])cc4)c4ccc([nH]4)c(-c4ccc(S(=O)(=O)[O-])cc4)c4nc(c(-c5ccc(S(=O)(=O)[O-])cc5)c5ccc2[nH]5)C=C4)C=C3)cc1)c1ccc(C[C@H]2CCCC2=O)c(-c2ccccc2)c1
REMARK SMILES IDX 7 1 6 2 5 3 3 4 4 5 2 7 1 8 73 9 74 10 91 11 75 12 84 13
REMARK SMILES IDX 76 14 85 15 86 16 90 17 87 18 89 19 88 20 77 21 78 22 79 23
REMARK SMILES IDX 82 24 80 25 81 26 83 27 8 28 9 29 10 30 11 31 12 33 13 34
REMARK SMILES IDX 14 35 72 36 15 37 71 38 16 39 17 40 18 41 65 42 19 43 70 44
REMARK SMILES IDX 64 45 66 46 20 47 69 48 63 49 62 50 21 52 51 53 32 54 50 55
REMARK SMILES IDX 33 56 36 57 49 58 67 59 34 60 35 61 48 63 68 64 37 65 22 66
REMARK SMILES IDX 23 67 31 68 24 69 30 70 25 71 26 72 27 73 28 74 29 75 52 76
REMARK SMILES IDX 53 77 61 78 54 79 60 80 55 81 56 82 57 83 58 84 59 85 38 86
REMARK SMILES IDX 39 87 47 88 40 89 46 90 41 91 42 92 43 93 44 94 45 95
REMARK H PARENT 5 6 10 32 66 51 36 62
REMARK Flexibility Score: inf
ROOT
ATOM      1  C   UNL A   1      38.411  24.149  26.524  1.00  0.00     0.023 C 
ENDROOT
BRANCH   1   2
ATOM      2  C   UNL A   1      38.034  22.942  25.657  1.00  0.00     0.116 C 
BRANCH   2   3
ATOM      3  N   UNL A   1      37.337  23.372  24.462  1.00  0.00    -0.356 N 
ATOM      4  C   UNL A   1      36.098  23.012  24.011  1.00  0.00     0.227 C 
ATOM      5  O   UNL A   1      35.920  23.116  22.797  1.00  0.00    -0.274 OA
ATOM      6  H   UNL A   1      37.824  24.013  23.896  1.00  0.00     0.163 HD
BRANCH   4   7
ATOM      7  C   UNL A   1      35.046  22.484  25.005  1.00  0.00     0.105 C 
ATOM      8  C   UNL A   1      34.686  21.048  24.595  1.00  0.00     0.023 C 
BRANCH   7   9
ATOM      9  C   UNL A   1      33.756  23.300  25.163  1.00  0.00    -0.035 A 
ATOM     10  C   UNL A   1      32.554  22.776  24.668  1.00  0.00     0.005 A 
ATOM     11  C   UNL A   1      33.696  24.576  25.739  1.00  0.00     0.013 A 
ATOM     12  C   UNL A   1      31.394  23.550  24.621  1.00  0.00     0.004 A 
ATOM     13  C   UNL A   1      32.548  25.400  25.679  1.00  0.00    -0.015 A 
ATOM     14  C   UNL A   1      31.390  24.887  25.056  1.00  0.00    -0.039 A 
BRANCH  13  15
ATOM     15  C   UNL A   1      32.658  26.771  26.224  1.00  0.00    -0.018 A 
ATOM     16  C   UNL A   1      31.623  27.359  26.966  1.00  0.00     0.009 A 
ATOM     17  C   UNL A   1      33.840  27.513  26.041  1.00  0.00     0.009 A 
ATOM     18  C   UNL A   1      31.742  28.661  27.460  1.00  0.00     0.001 A 
ATOM     19  C   UNL A   1      33.968  28.808  26.548  1.00  0.00     0.001 A 
ATOM     20  C   UNL A   1      32.914  29.386  27.247  1.00  0.00     0.000 A 
ENDBRANCH  13  15
BRANCH  14  21
ATOM     21  C   UNL A   1      30.149  25.714  24.777  1.00  0.00     0.047 C 
BRANCH  21  22
ATOM     22  C   UNL A   1      30.129  26.504  23.460  1.00  0.00     0.060 C 
ATOM     23  C   UNL A   1      29.537  27.917  23.499  1.00  0.00     0.012 C 
ATOM     24  C   UNL A   1      31.510  26.756  22.903  1.00  0.00     0.136 C 
ATOM     25  C   UNL A   1      30.719  28.873  23.599  1.00  0.00     0.009 C 
ATOM     26  C   UNL A   1      31.836  28.222  22.798  1.00  0.00     0.076 C 
ATOM     27  O   UNL A   1      32.276  25.866  22.550  1.00  0.00    -0.299 OA
ENDBRANCH  21  22
ENDBRANCH  14  21
ENDBRANCH   7   9
ENDBRANCH   4   7
ENDBRANCH   2   3
ENDBRANCH   1   2
BRANCH   1  28
ATOM     28  C   UNL A   1      39.917  24.367  26.707  1.00  0.00     0.023 C 
BRANCH  28  29
ATOM     29  C   UNL A   1      40.514  25.482  25.860  1.00  0.00     0.116 C 
BRANCH  29  30
ATOM     30  N   UNL A   1      41.925  25.273  25.579  1.00  0.00    -0.352 N 
ATOM     31  C   UNL A   1      43.021  25.790  26.226  1.00  0.00     0.251 C 
ATOM     32  H   UNL A   1      42.123  24.679  24.820  1.00  0.00     0.163 HD
ATOM     33  O   UNL A   1      44.142  25.626  25.754  1.00  0.00    -0.269 OA
BRANCH  31  34
ATOM     34  C   UNL A   1      42.839  26.570  27.469  1.00  0.00     0.039 A 
ATOM     35  C   UNL A   1      43.059  27.949  27.435  1.00  0.00     0.014 A 
ATOM     36  C   UNL A   1      42.437  25.950  28.654  1.00  0.00     0.014 A 
ATOM     37  C   UNL A   1      42.810  28.714  28.576  1.00  0.00     0.010 A 
ATOM     38  C   UNL A   1      42.120  26.723  29.768  1.00  0.00     0.010 A 
ATOM     39  C   UNL A   1      42.303  28.113  29.740  1.00  0.00    -0.014 A 
BRANCH  39  40
ATOM     40  C   UNL A   1      41.941  28.930  30.928  1.00  0.00     0.031 A 
ATOM     41  C   UNL A   1      40.733  29.825  30.896  1.00  0.00     0.074 A 
ATOM     42  C   UNL A   1      42.736  28.903  32.017  1.00  0.00     0.049 A 
ATOM     43  N   UNL A   1      40.283  30.633  31.822  1.00  0.00    -0.248 NA
ATOM     44  C   UNL A   1      39.939  29.833  29.656  1.00  0.00     0.031 C 
ATOM     45  C   UNL A   1      43.961  28.110  32.155  1.00  0.00     0.029 A 
ATOM     46  N   UNL A   1      42.633  29.562  33.217  1.00  0.00    -0.354 N 
ATOM     47  C   UNL A   1      39.164  31.250  31.276  1.00  0.00     0.074 A 
ATOM     48  C   UNL A   1      39.033  30.764  29.921  1.00  0.00     0.031 C 
ATOM     49  C   UNL A   1      44.478  28.306  33.378  1.00  0.00     0.029 A 
ATOM     50  C   UNL A   1      43.648  29.267  34.097  1.00  0.00     0.049 A 
ATOM     51  H   UNL A   1      41.902  30.186  33.428  1.00  0.00     0.167 HD
ATOM     52  C   UNL A   1      38.310  32.126  31.857  1.00  0.00     0.031 A 
ATOM     53  C   UNL A   1      43.890  29.723  35.342  1.00  0.00     0.031 A 
ATOM     54  C   UNL A   1      38.439  32.603  33.209  1.00  0.00     0.049 A 
ATOM     55  C   UNL A   1      42.933  30.706  35.959  1.00  0.00     0.074 A 
ATOM     56  C   UNL A   1      37.595  33.451  33.906  1.00  0.00     0.029 A 
ATOM     57  N   UNL A   1      39.477  32.277  34.069  1.00  0.00    -0.354 N 
ATOM     58  N   UNL A   1      41.841  31.224  35.450  1.00  0.00    -0.248 NA
ATOM     59  C   UNL A   1      43.236  31.157  37.325  1.00  0.00     0.031 C 
ATOM     60  C   UNL A   1      38.152  33.680  35.169  1.00  0.00     0.029 A 
ATOM     61  C   UNL A   1      39.309  32.926  35.281  1.00  0.00     0.049 A 
ATOM     62  H   UNL A   1      40.224  31.674  33.851  1.00  0.00     0.167 HD
ATOM     63  C   UNL A   1      41.311  32.041  36.443  1.00  0.00     0.074 A 
ATOM     64  C   UNL A   1      42.192  31.932  37.587  1.00  0.00     0.031 C 
ATOM     65  C   UNL A   1      40.196  32.811  36.411  1.00  0.00     0.031 A 
BRANCH  52  66
ATOM     66  C   UNL A   1      37.155  32.630  31.031  1.00  0.00    -0.014 A 
ATOM     67  C   UNL A   1      37.294  33.758  30.203  1.00  0.00     0.010 A 
ATOM     68  C   UNL A   1      35.932  31.935  31.040  1.00  0.00     0.010 A 
ATOM     69  C   UNL A   1      36.221  34.203  29.426  1.00  0.00     0.020 A 
ATOM     70  C   UNL A   1      34.865  32.360  30.242  1.00  0.00     0.020 A 
ATOM     71  C   UNL A   1      35.013  33.500  29.450  1.00  0.00     0.054 A 
BRANCH  71  72
ATOM     72  S   UNL A   1      33.649  34.082  28.404  1.00  0.00     0.124 S 
ATOM     73  O   UNL A   1      32.758  34.697  29.386  1.00  0.00    -0.237 OA
ATOM     74  O   UNL A   1      34.317  35.009  27.494  1.00  0.00    -0.237 OA
ATOM     75  O   UNL A   1      33.142  32.860  27.784  1.00  0.00    -0.744 OA
ENDBRANCH  71  72
ENDBRANCH  52  66
BRANCH  53  76
ATOM     76  C   UNL A   1      45.085  29.247  36.093  1.00  0.00    -0.014 A 
ATOM     77  C   UNL A   1      45.008  28.108  36.913  1.00  0.00     0.010 A 
ATOM     78  C   UNL A   1      46.308  29.936  35.993  1.00  0.00     0.010 A 
ATOM     79  C   UNL A   1      46.123  27.681  37.641  1.00  0.00     0.020 A 
ATOM     80  C   UNL A   1      47.434  29.494  36.694  1.00  0.00     0.020 A 
ATOM     81  C   UNL A   1      47.330  28.378  37.526  1.00  0.00     0.054 A 
BRANCH  81  82
ATOM     82  S   UNL A   1      48.775  27.785  38.450  1.00  0.00     0.124 S 
ATOM     83  O   UNL A   1      48.254  27.711  39.811  1.00  0.00    -0.237 OA
ATOM     84  O   UNL A   1      49.055  26.503  37.807  1.00  0.00    -0.237 OA
ATOM     85  O   UNL A   1      49.777  28.822  38.217  1.00  0.00    -0.744 OA
ENDBRANCH  81  82
ENDBRANCH  53  76
BRANCH  65  86
ATOM     86  C   UNL A   1      39.847  33.575  37.661  1.00  0.00    -0.014 A 
ATOM     87  C   UNL A   1      39.183  32.957  38.735  1.00  0.00     0.010 A 
ATOM     88  C   UNL A   1      40.230  34.925  37.777  1.00  0.00     0.010 A 
ATOM     89  C   UNL A   1      38.874  33.683  39.887  1.00  0.00     0.020 A 
ATOM     90  C   UNL A   1      39.949  35.647  38.940  1.00  0.00     0.020 A 
ATOM     91  C   UNL A   1      39.257  35.025  39.981  1.00  0.00     0.054 A 
BRANCH  91  92
ATOM     92  S   UNL A   1      38.874  35.937  41.501  1.00  0.00     0.124 S 
ATOM     93  O   UNL A   1      39.930  35.482  42.401  1.00  0.00    -0.237 OA
ATOM     94  O   UNL A   1      38.970  37.330  41.073  1.00  0.00    -0.237 OA
ATOM     95  O   UNL A   1      37.527  35.488  41.845  1.00  0.00    -0.744 OA
ENDBRANCH  91  92
ENDBRANCH  65  86
ENDBRANCH  39  40
ENDBRANCH  31  34
ENDBRANCH  29  30
ENDBRANCH  28  29
ENDBRANCH   1  28
TORSDOF 18
ENDMDL
