MODEL 1
REMARK VINA RESULT:     -10.8      0.000      0.000
REMARK SMILES COCC(=O)N1[C@@H](C(=O)NCCCCNC(=O)c2ccc(-c3c4nc(c(-c5ccc(S(=O)(=O)[O-])cc5)c5ccc([nH]5)c(-c5ccc(S(=O)(=O)[O-])cc5)c5nc(c(-c6ccc(S(=O)(=O)[O-])cc6)c6ccc3[nH]6)C=C5)C=C4)cc2)CC[C@@H]2CCCC[C@H]21
REMARK SMILES IDX 12 1 11 2 10 3 8 4 9 5 7 7 6 8 85 9 78 10 80 11 84 12 79 13
REMARK SMILES IDX 81 14 83 15 82 16 4 17 5 18 3 19 2 20 1 21 13 22 14 23 15 24
REMARK SMILES IDX 16 25 17 27 18 28 19 29 77 30 20 31 76 32 21 33 22 34 23 35
REMARK SMILES IDX 70 36 24 37 75 38 69 39 71 40 25 41 74 42 68 43 67 44 26 46
REMARK SMILES IDX 56 47 37 48 55 49 38 50 41 51 54 52 72 53 39 54 40 55 53 57
REMARK SMILES IDX 73 58 42 59 27 60 28 61 36 62 29 63 35 64 30 65 31 66 32 67
REMARK SMILES IDX 33 68 34 69 57 70 58 71 66 72 59 73 65 74 60 75 61 76 62 77
REMARK SMILES IDX 63 78 64 79 43 80 44 81 52 82 45 83 51 84 46 85 47 86 48 87
REMARK SMILES IDX 49 88 50 89
REMARK H PARENT 10 6 15 26 71 45 41 56
REMARK Flexibility Score: inf
ROOT
ATOM      1  C   UNL A   1      31.393  26.848  26.859  1.00  0.00     0.023 C 
ENDROOT
BRANCH   1   2
ATOM      2  C   UNL A   1      30.438  26.247  25.833  1.00  0.00     0.116 C 
BRANCH   2   3
ATOM      3  N   UNL A   1      30.096  24.877  26.174  1.00  0.00    -0.354 N 
ATOM      4  C   UNL A   1      30.898  23.784  26.314  1.00  0.00     0.242 C 
ATOM      5  O   UNL A   1      30.353  22.683  26.443  1.00  0.00    -0.273 OA
ATOM      6  H   UNL A   1      29.137  24.714  26.328  1.00  0.00     0.163 HD
BRANCH   4   7
ATOM      7  C   UNL A   1      32.422  23.871  26.086  1.00  0.00     0.174 C 
ATOM      8  N   UNL A   1      32.956  23.449  24.766  1.00  0.00    -0.325 N 
ATOM      9  C   UNL A   1      34.427  23.249  24.725  1.00  0.00     0.089 C 
ATOM     10  C   UNL A   1      32.990  23.013  27.250  1.00  0.00     0.036 C 
ATOM     11  C   UNL A   1      34.852  22.183  25.751  1.00  0.00     0.012 C 
ATOM     12  C   UNL A   1      35.059  22.997  23.342  1.00  0.00     0.025 C 
ATOM     13  C   UNL A   1      34.460  22.657  27.155  1.00  0.00     0.008 C 
ATOM     14  C   UNL A   1      36.359  21.882  25.738  1.00  0.00     0.006 C 
ATOM     15  C   UNL A   1      36.570  22.813  23.427  1.00  0.00     0.002 C 
ATOM     16  C   UNL A   1      36.908  21.644  24.339  1.00  0.00     0.000 C 
BRANCH   8  17
ATOM     17  C   UNL A   1      32.278  23.689  23.568  1.00  0.00     0.249 C 
ATOM     18  O   UNL A   1      31.883  22.759  22.856  1.00  0.00    -0.272 OA
BRANCH  17  19
ATOM     19  C   UNL A   1      32.071  25.138  23.085  1.00  0.00     0.259 C 
BRANCH  19  20
ATOM     20  O   UNL A   1      33.188  26.000  23.064  1.00  0.00    -0.375 OA
ATOM     21  C   UNL A   1      33.291  26.770  21.876  1.00  0.00     0.195 C 
ENDBRANCH  19  20
ENDBRANCH  17  19
ENDBRANCH   8  17
ENDBRANCH   4   7
ENDBRANCH   2   3
ENDBRANCH   1   2
BRANCH   1  22
ATOM     22  C   UNL A   1      32.312  27.938  26.305  1.00  0.00     0.023 C 
BRANCH  22  23
ATOM     23  C   UNL A   1      33.416  28.390  27.254  1.00  0.00     0.116 C 
BRANCH  23  24
ATOM     24  N   UNL A   1      33.391  29.826  27.490  1.00  0.00    -0.352 N 
ATOM     25  C   UNL A   1      34.356  30.628  28.047  1.00  0.00     0.251 C 
ATOM     26  H   UNL A   1      32.566  30.286  27.211  1.00  0.00     0.163 HD
ATOM     27  O   UNL A   1      34.092  31.789  28.351  1.00  0.00    -0.269 OA
BRANCH  25  28
ATOM     28  C   UNL A   1      35.705  30.080  28.305  1.00  0.00     0.039 A 
ATOM     29  C   UNL A   1      36.650  30.096  27.278  1.00  0.00     0.014 A 
ATOM     30  C   UNL A   1      36.039  29.572  29.563  1.00  0.00     0.014 A 
ATOM     31  C   UNL A   1      37.954  29.669  27.536  1.00  0.00     0.010 A 
ATOM     32  C   UNL A   1      37.358  29.219  29.839  1.00  0.00     0.010 A 
ATOM     33  C   UNL A   1      38.331  29.267  28.828  1.00  0.00    -0.014 A 
BRANCH  33  34
ATOM     34  C   UNL A   1      39.742  28.923  29.143  1.00  0.00     0.031 A 
ATOM     35  C   UNL A   1      40.656  29.942  29.768  1.00  0.00     0.074 A 
ATOM     36  C   UNL A   1      40.217  27.704  28.813  1.00  0.00     0.049 A 
ATOM     37  N   UNL A   1      41.922  29.830  30.079  1.00  0.00    -0.248 NA
ATOM     38  C   UNL A   1      40.082  31.266  30.060  1.00  0.00     0.031 C 
ATOM     39  C   UNL A   1      39.444  26.642  28.163  1.00  0.00     0.029 A 
ATOM     40  N   UNL A   1      41.464  27.153  28.974  1.00  0.00    -0.354 N 
ATOM     41  C   UNL A   1      42.298  31.067  30.591  1.00  0.00     0.074 A 
ATOM     42  C   UNL A   1      41.140  31.929  30.503  1.00  0.00     0.031 C 
ATOM     43  C   UNL A   1      40.225  25.561  28.007  1.00  0.00     0.029 A 
ATOM     44  C   UNL A   1      41.564  25.865  28.501  1.00  0.00     0.049 A 
ATOM     45  H   UNL A   1      42.216  27.635  29.388  1.00  0.00     0.167 HD
ATOM     46  C   UNL A   1      43.493  31.445  31.103  1.00  0.00     0.031 A 
ATOM     47  C   UNL A   1      42.616  25.024  28.458  1.00  0.00     0.031 A 
ATOM     48  C   UNL A   1      44.643  30.582  31.192  1.00  0.00     0.049 A 
ATOM     49  C   UNL A   1      43.938  25.474  29.017  1.00  0.00     0.074 A 
ATOM     50  C   UNL A   1      45.880  30.856  31.751  1.00  0.00     0.029 A 
ATOM     51  N   UNL A   1      44.703  29.286  30.705  1.00  0.00    -0.354 N 
ATOM     52  N   UNL A   1      44.250  26.623  29.569  1.00  0.00    -0.248 NA
ATOM     53  C   UNL A   1      45.047  24.512  28.957  1.00  0.00     0.031 C 
ATOM     54  C   UNL A   1      46.707  29.748  31.541  1.00  0.00     0.029 A 
ATOM     55  C   UNL A   1      45.966  28.758  30.918  1.00  0.00     0.049 A 
ATOM     56  H   UNL A   1      43.958  28.810  30.271  1.00  0.00     0.167 HD
ATOM     57  C   UNL A   1      45.584  26.511  29.945  1.00  0.00     0.074 A 
ATOM     58  C   UNL A   1      46.013  25.176  29.576  1.00  0.00     0.031 C 
ATOM     59  C   UNL A   1      46.382  27.429  30.543  1.00  0.00     0.031 A 
BRANCH  46  60
ATOM     60  C   UNL A   1      43.627  32.862  31.600  1.00  0.00    -0.014 A 
ATOM     61  C   UNL A   1      44.093  33.890  30.760  1.00  0.00     0.010 A 
ATOM     62  C   UNL A   1      43.225  33.182  32.911  1.00  0.00     0.010 A 
ATOM     63  C   UNL A   1      44.190  35.202  31.232  1.00  0.00     0.020 A 
ATOM     64  C   UNL A   1      43.291  34.498  33.377  1.00  0.00     0.020 A 
ATOM     65  C   UNL A   1      43.788  35.498  32.538  1.00  0.00     0.054 A 
BRANCH  65  66
ATOM     66  S   UNL A   1      43.893  37.216  33.112  1.00  0.00     0.124 S 
ATOM     67  O   UNL A   1      45.216  37.246  33.729  1.00  0.00    -0.237 OA
ATOM     68  O   UNL A   1      43.762  37.974  31.871  1.00  0.00    -0.237 OA
ATOM     69  O   UNL A   1      42.771  37.343  34.038  1.00  0.00    -0.744 OA
ENDBRANCH  65  66
ENDBRANCH  46  60
BRANCH  47  70
ATOM     70  C   UNL A   1      42.460  23.667  27.862  1.00  0.00    -0.014 A 
ATOM     71  C   UNL A   1      42.821  23.422  26.526  1.00  0.00     0.010 A 
ATOM     72  C   UNL A   1      41.952  22.606  28.636  1.00  0.00     0.010 A 
ATOM     73  C   UNL A   1      42.657  22.150  25.968  1.00  0.00     0.020 A 
ATOM     74  C   UNL A   1      41.817  21.326  28.092  1.00  0.00     0.020 A 
ATOM     75  C   UNL A   1      42.159  21.109  26.757  1.00  0.00     0.054 A 
BRANCH  75  76
ATOM     76  S   UNL A   1      41.997  19.457  26.025  1.00  0.00     0.124 S 
ATOM     77  O   UNL A   1      42.902  19.540  24.883  1.00  0.00    -0.237 OA
ATOM     78  O   UNL A   1      42.431  18.587  27.115  1.00  0.00    -0.237 OA
ATOM     79  O   UNL A   1      40.576  19.366  25.694  1.00  0.00    -0.744 OA
ENDBRANCH  75  76
ENDBRANCH  47  70
BRANCH  59  80
ATOM     80  C   UNL A   1      47.795  27.017  30.867  1.00  0.00    -0.014 A 
ATOM     81  C   UNL A   1      48.826  27.127  29.917  1.00  0.00     0.010 A 
ATOM     82  C   UNL A   1      48.103  26.563  32.164  1.00  0.00     0.010 A 
ATOM     83  C   UNL A   1      50.133  26.757  30.248  1.00  0.00     0.020 A 
ATOM     84  C   UNL A   1      49.415  26.223  32.507  1.00  0.00     0.020 A 
ATOM     85  C   UNL A   1      50.419  26.308  31.541  1.00  0.00     0.054 A 
BRANCH  85  86
ATOM     86  S   UNL A   1      52.131  25.875  31.955  1.00  0.00     0.124 S 
ATOM     87  O   UNL A   1      52.052  24.423  32.092  1.00  0.00    -0.237 OA
ATOM     88  O   UNL A   1      52.873  26.359  30.794  1.00  0.00    -0.237 OA
ATOM     89  O   UNL A   1      52.383  26.604  33.196  1.00  0.00    -0.744 OA
ENDBRANCH  85  86
ENDBRANCH  59  80
ENDBRANCH  33  34
ENDBRANCH  25  28
ENDBRANCH  23  24
ENDBRANCH  22  23
ENDBRANCH   1  22
TORSDOF 17
ENDMDL
MODEL 2
REMARK VINA RESULT:     -10.6      1.372      2.292
REMARK SMILES COCC(=O)N1[C@@H](C(=O)NCCCCNC(=O)c2ccc(-c3c4nc(c(-c5ccc(S(=O)(=O)[O-])cc5)c5ccc([nH]5)c(-c5ccc(S(=O)(=O)[O-])cc5)c5nc(c(-c6ccc(S(=O)(=O)[O-])cc6)c6ccc3[nH]6)C=C5)C=C4)cc2)CC[C@@H]2CCCC[C@H]21
REMARK SMILES IDX 12 1 11 2 10 3 8 4 9 5 7 7 6 8 85 9 78 10 80 11 84 12 79 13
REMARK SMILES IDX 81 14 83 15 82 16 4 17 5 18 3 19 2 20 1 21 13 22 14 23 15 24
REMARK SMILES IDX 16 25 17 27 18 28 19 29 77 30 20 31 76 32 21 33 22 34 23 35
REMARK SMILES IDX 70 36 24 37 75 38 69 39 71 40 25 41 74 42 68 43 67 44 26 46
REMARK SMILES IDX 56 47 37 48 55 49 38 50 41 51 54 52 72 53 39 54 40 55 53 57
REMARK SMILES IDX 73 58 42 59 27 60 28 61 36 62 29 63 35 64 30 65 31 66 32 67
REMARK SMILES IDX 33 68 34 69 57 70 58 71 66 72 59 73 65 74 60 75 61 76 62 77
REMARK SMILES IDX 63 78 64 79 43 80 44 81 52 82 45 83 51 84 46 85 47 86 48 87
REMARK SMILES IDX 49 88 50 89
REMARK H PARENT 10 6 15 26 71 45 41 56
REMARK Flexibility Score: inf
ROOT
ATOM      1  C   UNL A   1      31.509  27.292  26.171  1.00  0.00     0.023 C 
ENDROOT
BRANCH   1   2
ATOM      2  C   UNL A   1      31.858  25.832  25.904  1.00  0.00     0.116 C 
BRANCH   2   3
ATOM      3  N   UNL A   1      32.930  25.719  24.931  1.00  0.00    -0.354 N 
ATOM      4  C   UNL A   1      33.321  24.650  24.181  1.00  0.00     0.242 C 
ATOM      5  O   UNL A   1      34.374  24.749  23.543  1.00  0.00    -0.273 OA
ATOM      6  H   UNL A   1      33.453  26.541  24.790  1.00  0.00     0.163 HD
BRANCH   4   7
ATOM      7  C   UNL A   1      32.614  23.283  24.299  1.00  0.00     0.174 C 
ATOM      8  N   UNL A   1      33.302  22.204  25.053  1.00  0.00    -0.325 N 
ATOM      9  C   UNL A   1      32.734  20.846  24.855  1.00  0.00     0.089 C 
ATOM     10  C   UNL A   1      32.369  22.896  22.815  1.00  0.00     0.036 C 
ATOM     11  C   UNL A   1      32.776  20.460  23.365  1.00  0.00     0.012 C 
ATOM     12  C   UNL A   1      33.283  19.721  25.753  1.00  0.00     0.025 C 
ATOM     13  C   UNL A   1      31.938  21.464  22.565  1.00  0.00     0.008 C 
ATOM     14  C   UNL A   1      32.248  19.045  23.081  1.00  0.00     0.006 C 
ATOM     15  C   UNL A   1      32.621  18.379  25.462  1.00  0.00     0.002 C 
ATOM     16  C   UNL A   1      32.836  17.991  24.007  1.00  0.00     0.000 C 
BRANCH   8  17
ATOM     17  C   UNL A   1      34.060  22.453  26.201  1.00  0.00     0.249 C 
ATOM     18  O   UNL A   1      33.526  22.799  27.260  1.00  0.00    -0.272 OA
BRANCH  17  19
ATOM     19  C   UNL A   1      35.597  22.358  26.135  1.00  0.00     0.259 C 
BRANCH  19  20
ATOM     20  O   UNL A   1      36.190  21.974  24.915  1.00  0.00    -0.375 OA
ATOM     21  C   UNL A   1      36.928  20.763  24.997  1.00  0.00     0.195 C 
ENDBRANCH  19  20
ENDBRANCH  17  19
ENDBRANCH   8  17
ENDBRANCH   4   7
ENDBRANCH   2   3
ENDBRANCH   1   2
BRANCH   1  22
ATOM     22  C   UNL A   1      32.127  27.867  27.447  1.00  0.00     0.023 C 
BRANCH  22  23
ATOM     23  C   UNL A   1      33.486  28.532  27.259  1.00  0.00     0.116 C 
BRANCH  23  24
ATOM     24  N   UNL A   1      33.457  29.952  27.575  1.00  0.00    -0.352 N 
ATOM     25  C   UNL A   1      34.419  30.724  28.178  1.00  0.00     0.251 C 
ATOM     26  H   UNL A   1      32.632  30.426  27.321  1.00  0.00     0.163 HD
ATOM     27  O   UNL A   1      34.152  31.866  28.547  1.00  0.00    -0.269 OA
BRANCH  25  28
ATOM     28  C   UNL A   1      35.768  30.165  28.408  1.00  0.00     0.039 A 
ATOM     29  C   UNL A   1      36.686  30.157  27.357  1.00  0.00     0.014 A 
ATOM     30  C   UNL A   1      36.130  29.669  29.664  1.00  0.00     0.014 A 
ATOM     31  C   UNL A   1      37.992  29.719  27.586  1.00  0.00     0.010 A 
ATOM     32  C   UNL A   1      37.452  29.306  29.910  1.00  0.00     0.010 A 
ATOM     33  C   UNL A   1      38.398  29.331  28.874  1.00  0.00    -0.014 A 
BRANCH  33  34
ATOM     34  C   UNL A   1      39.814  28.976  29.156  1.00  0.00     0.031 A 
ATOM     35  C   UNL A   1      40.752  29.990  29.753  1.00  0.00     0.074 A 
ATOM     36  C   UNL A   1      40.270  27.751  28.821  1.00  0.00     0.049 A 
ATOM     37  N   UNL A   1      42.024  29.868  30.034  1.00  0.00    -0.248 NA
ATOM     38  C   UNL A   1      40.196  31.320  30.052  1.00  0.00     0.031 C 
ATOM     39  C   UNL A   1      39.472  26.692  28.196  1.00  0.00     0.029 A 
ATOM     40  N   UNL A   1      41.516  27.189  28.955  1.00  0.00    -0.354 N 
ATOM     41  C   UNL A   1      42.423  31.104  30.530  1.00  0.00     0.074 A 
ATOM     42  C   UNL A   1      41.271  31.976  30.465  1.00  0.00     0.031 C 
ATOM     43  C   UNL A   1      40.240  25.604  28.027  1.00  0.00     0.029 A 
ATOM     44  C   UNL A   1      41.593  25.899  28.487  1.00  0.00     0.049 A 
ATOM     45  H   UNL A   1      42.282  27.667  29.348  1.00  0.00     0.167 HD
ATOM     46  C   UNL A   1      43.634  31.475  31.010  1.00  0.00     0.031 A 
ATOM     47  C   UNL A   1      42.636  25.048  28.423  1.00  0.00     0.031 A 
ATOM     48  C   UNL A   1      44.778  30.602  31.077  1.00  0.00     0.049 A 
ATOM     49  C   UNL A   1      43.975  25.489  28.947  1.00  0.00     0.074 A 
ATOM     50  C   UNL A   1      46.030  30.868  31.604  1.00  0.00     0.029 A 
ATOM     51  N   UNL A   1      44.815  29.303  30.595  1.00  0.00    -0.354 N 
ATOM     52  N   UNL A   1      44.311  26.638  29.485  1.00  0.00    -0.248 NA
ATOM     53  C   UNL A   1      45.074  24.517  28.866  1.00  0.00     0.031 C 
ATOM     54  C   UNL A   1      46.843  29.752  31.381  1.00  0.00     0.029 A 
ATOM     55  C   UNL A   1      46.077  28.765  30.781  1.00  0.00     0.049 A 
ATOM     56  H   UNL A   1      44.055  28.832  30.182  1.00  0.00     0.167 HD
ATOM     57  C   UNL A   1      45.652  26.516  29.829  1.00  0.00     0.074 A 
ATOM     58  C   UNL A   1      46.060  25.176  29.458  1.00  0.00     0.031 C 
ATOM     59  C   UNL A   1      46.473  27.430  30.403  1.00  0.00     0.031 A 
BRANCH  46  60
ATOM     60  C   UNL A   1      43.792  32.893  31.497  1.00  0.00    -0.014 A 
ATOM     61  C   UNL A   1      43.655  33.218  32.859  1.00  0.00     0.010 A 
ATOM     62  C   UNL A   1      44.139  33.909  30.585  1.00  0.00     0.010 A 
ATOM     63  C   UNL A   1      43.826  34.535  33.294  1.00  0.00     0.020 A 
ATOM     64  C   UNL A   1      44.342  35.221  31.021  1.00  0.00     0.020 A 
ATOM     65  C   UNL A   1      44.169  35.528  32.373  1.00  0.00     0.054 A 
BRANCH  65  66
ATOM     66  S   UNL A   1      44.419  37.222  32.973  1.00  0.00     0.124 S 
ATOM     67  O   UNL A   1      45.325  37.011  34.098  1.00  0.00    -0.237 OA
ATOM     68  O   UNL A   1      45.003  37.888  31.812  1.00  0.00    -0.237 OA
ATOM     69  O   UNL A   1      43.074  37.666  33.331  1.00  0.00    -0.744 OA
ENDBRANCH  65  66
ENDBRANCH  46  60
BRANCH  47  70
ATOM     70  C   UNL A   1      42.454  23.689  27.839  1.00  0.00    -0.014 A 
ATOM     71  C   UNL A   1      42.497  23.492  26.447  1.00  0.00     0.010 A 
ATOM     72  C   UNL A   1      42.240  22.579  28.677  1.00  0.00     0.010 A 
ATOM     73  C   UNL A   1      42.309  22.217  25.904  1.00  0.00     0.020 A 
ATOM     74  C   UNL A   1      42.085  21.298  28.141  1.00  0.00     0.020 A 
ATOM     75  C   UNL A   1      42.107  21.128  26.756  1.00  0.00     0.054 A 
BRANCH  75  76
ATOM     76  S   UNL A   1      41.911  19.476  26.032  1.00  0.00     0.124 S 
ATOM     77  O   UNL A   1      42.833  19.528  24.901  1.00  0.00    -0.237 OA
ATOM     78  O   UNL A   1      42.308  18.601  27.132  1.00  0.00    -0.237 OA
ATOM     79  O   UNL A   1      40.493  19.421  25.683  1.00  0.00    -0.744 OA
ENDBRANCH  75  76
ENDBRANCH  47  70
BRANCH  59  80
ATOM     80  C   UNL A   1      47.889  27.008  30.695  1.00  0.00    -0.014 A 
ATOM     81  C   UNL A   1      48.934  27.273  29.792  1.00  0.00     0.010 A 
ATOM     82  C   UNL A   1      48.186  26.382  31.921  1.00  0.00     0.010 A 
ATOM     83  C   UNL A   1      50.243  26.888  30.094  1.00  0.00     0.020 A 
ATOM     84  C   UNL A   1      49.499  26.025  32.240  1.00  0.00     0.020 A 
ATOM     85  C   UNL A   1      50.518  26.268  31.317  1.00  0.00     0.054 A 
BRANCH  85  86
ATOM     86  S   UNL A   1      52.233  25.818  31.700  1.00  0.00     0.124 S 
ATOM     87  O   UNL A   1      52.885  25.972  30.403  1.00  0.00    -0.237 OA
ATOM     88  O   UNL A   1      52.603  26.803  32.712  1.00  0.00    -0.237 OA
ATOM     89  O   UNL A   1      52.129  24.444  32.186  1.00  0.00    -0.744 OA
ENDBRANCH  85  86
ENDBRANCH  59  80
ENDBRANCH  33  34
ENDBRANCH  25  28
ENDBRANCH  23  24
ENDBRANCH  22  23
ENDBRANCH   1  22
TORSDOF 17
ENDMDL
MODEL 3
REMARK VINA RESULT:     -10.4      4.518     10.339
REMARK SMILES COCC(=O)N1[C@@H](C(=O)NCCCCNC(=O)c2ccc(-c3c4nc(c(-c5ccc(S(=O)(=O)[O-])cc5)c5ccc([nH]5)c(-c5ccc(S(=O)(=O)[O-])cc5)c5nc(c(-c6ccc(S(=O)(=O)[O-])cc6)c6ccc3[nH]6)C=C5)C=C4)cc2)CC[C@@H]2CCCC[C@H]21
REMARK SMILES IDX 12 1 11 2 10 3 8 4 9 5 7 7 6 8 85 9 78 10 80 11 84 12 79 13
REMARK SMILES IDX 81 14 83 15 82 16 4 17 5 18 3 19 2 20 1 21 13 22 14 23 15 24
REMARK SMILES IDX 16 25 17 27 18 28 19 29 77 30 20 31 76 32 21 33 22 34 23 35
REMARK SMILES IDX 70 36 24 37 75 38 69 39 71 40 25 41 74 42 68 43 67 44 26 46
REMARK SMILES IDX 56 47 37 48 55 49 38 50 41 51 54 52 72 53 39 54 40 55 53 57
REMARK SMILES IDX 73 58 42 59 27 60 28 61 36 62 29 63 35 64 30 65 31 66 32 67
REMARK SMILES IDX 33 68 34 69 57 70 58 71 66 72 59 73 65 74 60 75 61 76 62 77
REMARK SMILES IDX 63 78 64 79 43 80 44 81 52 82 45 83 51 84 46 85 47 86 48 87
REMARK SMILES IDX 49 88 50 89
REMARK H PARENT 10 6 15 26 71 45 41 56
REMARK Flexibility Score: inf
ROOT
ATOM      1  C   UNL A   1      38.755  23.203  26.067  1.00  0.00     0.023 C 
ENDROOT
BRANCH   1   2
ATOM      2  C   UNL A   1      37.920  22.068  25.484  1.00  0.00     0.116 C 
BRANCH   2   3
ATOM      3  N   UNL A   1      37.360  22.438  24.196  1.00  0.00    -0.354 N 
ATOM      4  C   UNL A   1      36.144  22.974  23.892  1.00  0.00     0.242 C 
ATOM      5  O   UNL A   1      35.827  23.046  22.700  1.00  0.00    -0.273 OA
ATOM      6  H   UNL A   1      37.949  22.277  23.424  1.00  0.00     0.163 HD
BRANCH   4   7
ATOM      7  C   UNL A   1      35.099  23.269  24.989  1.00  0.00     0.174 C 
ATOM      8  N   UNL A   1      33.742  22.685  24.835  1.00  0.00    -0.325 N 
ATOM      9  C   UNL A   1      32.710  23.262  25.734  1.00  0.00     0.089 C 
ATOM     10  C   UNL A   1      35.068  24.822  25.023  1.00  0.00     0.036 C 
ATOM     11  C   UNL A   1      32.583  24.779  25.499  1.00  0.00     0.012 C 
ATOM     12  C   UNL A   1      31.334  22.569  25.754  1.00  0.00     0.025 C 
ATOM     13  C   UNL A   1      33.929  25.445  25.805  1.00  0.00     0.008 C 
ATOM     14  C   UNL A   1      31.498  25.446  26.359  1.00  0.00     0.006 C 
ATOM     15  C   UNL A   1      30.364  23.246  26.715  1.00  0.00     0.002 C 
ATOM     16  C   UNL A   1      30.170  24.705  26.327  1.00  0.00     0.000 C 
BRANCH   8  17
ATOM     17  C   UNL A   1      33.526  21.413  24.296  1.00  0.00     0.249 C 
ATOM     18  O   UNL A   1      32.965  21.266  23.205  1.00  0.00    -0.272 OA
BRANCH  17  19
ATOM     19  C   UNL A   1      33.935  20.164  25.101  1.00  0.00     0.259 C 
BRANCH  19  20
ATOM     20  O   UNL A   1      32.927  19.247  25.467  1.00  0.00    -0.375 OA
ATOM     21  C   UNL A   1      32.746  18.196  24.529  1.00  0.00     0.195 C 
ENDBRANCH  19  20
ENDBRANCH  17  19
ENDBRANCH   8  17
ENDBRANCH   4   7
ENDBRANCH   2   3
ENDBRANCH   1   2
BRANCH   1  22
ATOM     22  C   UNL A   1      39.584  22.813  27.292  1.00  0.00     0.023 C 
BRANCH  22  23
ATOM     23  C   UNL A   1      41.025  23.310  27.278  1.00  0.00     0.116 C 
BRANCH  23  24
ATOM     24  N   UNL A   1      41.300  24.180  26.144  1.00  0.00    -0.352 N 
ATOM     25  C   UNL A   1      41.319  25.552  26.091  1.00  0.00     0.251 C 
ATOM     26  H   UNL A   1      41.500  23.720  25.297  1.00  0.00     0.163 HD
ATOM     27  O   UNL A   1      41.378  26.126  25.006  1.00  0.00    -0.269 OA
BRANCH  25  28
ATOM     28  C   UNL A   1      41.242  26.334  27.343  1.00  0.00     0.039 A 
ATOM     29  C   UNL A   1      42.282  27.207  27.662  1.00  0.00     0.014 A 
ATOM     30  C   UNL A   1      40.133  26.220  28.187  1.00  0.00     0.014 A 
ATOM     31  C   UNL A   1      42.177  28.020  28.792  1.00  0.00     0.010 A 
ATOM     32  C   UNL A   1      39.996  27.085  29.270  1.00  0.00     0.010 A 
ATOM     33  C   UNL A   1      41.015  27.998  29.582  1.00  0.00    -0.014 A 
BRANCH  33  34
ATOM     34  C   UNL A   1      40.841  28.941  30.717  1.00  0.00     0.031 A 
ATOM     35  C   UNL A   1      41.683  28.808  31.957  1.00  0.00     0.074 A 
ATOM     36  C   UNL A   1      39.881  29.887  30.652  1.00  0.00     0.049 A 
ATOM     37  N   UNL A   1      41.646  29.517  33.056  1.00  0.00    -0.248 NA
ATOM     38  C   UNL A   1      42.681  27.726  31.976  1.00  0.00     0.031 C 
ATOM     39  C   UNL A   1      38.969  30.091  29.523  1.00  0.00     0.029 A 
ATOM     40  N   UNL A   1      39.508  30.851  31.556  1.00  0.00    -0.354 N 
ATOM     41  C   UNL A   1      42.602  28.962  33.899  1.00  0.00     0.074 A 
ATOM     42  C   UNL A   1      43.168  27.827  33.204  1.00  0.00     0.031 C 
ATOM     43  C   UNL A   1      38.164  31.132  29.790  1.00  0.00     0.029 A 
ATOM     44  C   UNL A   1      38.468  31.640  31.125  1.00  0.00     0.049 A 
ATOM     45  H   UNL A   1      39.945  30.966  32.431  1.00  0.00     0.167 HD
ATOM     46  C   UNL A   1      42.985  29.368  35.133  1.00  0.00     0.031 A 
ATOM     47  C   UNL A   1      37.820  32.652  31.735  1.00  0.00     0.031 A 
ATOM     48  C   UNL A   1      42.421  30.502  35.820  1.00  0.00     0.049 A 
ATOM     49  C   UNL A   1      38.253  33.074  33.113  1.00  0.00     0.074 A 
ATOM     50  C   UNL A   1      42.785  31.030  37.047  1.00  0.00     0.029 A 
ATOM     51  N   UNL A   1      41.371  31.275  35.349  1.00  0.00    -0.354 N 
ATOM     52  N   UNL A   1      39.213  32.584  33.860  1.00  0.00    -0.248 NA
ATOM     53  C   UNL A   1      37.522  34.192  33.725  1.00  0.00     0.031 C 
ATOM     54  C   UNL A   1      41.913  32.080  37.347  1.00  0.00     0.029 A 
ATOM     55  C   UNL A   1      41.052  32.254  36.275  1.00  0.00     0.049 A 
ATOM     56  H   UNL A   1      40.920  31.148  34.484  1.00  0.00     0.167 HD
ATOM     57  C   UNL A   1      39.218  33.351  35.020  1.00  0.00     0.074 A 
ATOM     58  C   UNL A   1      38.179  34.349  34.866  1.00  0.00     0.031 C 
ATOM     59  C   UNL A   1      40.013  33.241  36.113  1.00  0.00     0.031 A 
BRANCH  46  60
ATOM     60  C   UNL A   1      44.062  28.578  35.829  1.00  0.00    -0.014 A 
ATOM     61  C   UNL A   1      43.747  27.484  36.657  1.00  0.00     0.010 A 
ATOM     62  C   UNL A   1      45.416  28.897  35.607  1.00  0.00     0.010 A 
ATOM     63  C   UNL A   1      44.760  26.750  37.278  1.00  0.00     0.020 A 
ATOM     64  C   UNL A   1      46.433  28.145  36.202  1.00  0.00     0.020 A 
ATOM     65  C   UNL A   1      46.098  27.084  37.046  1.00  0.00     0.054 A 
BRANCH  65  66
ATOM     66  S   UNL A   1      47.393  26.090  37.838  1.00  0.00     0.124 S 
ATOM     67  O   UNL A   1      46.659  24.883  38.210  1.00  0.00    -0.237 OA
ATOM     68  O   UNL A   1      48.369  25.927  36.766  1.00  0.00    -0.237 OA
ATOM     69  O   UNL A   1      47.833  26.920  38.957  1.00  0.00    -0.744 OA
ENDBRANCH  65  66
ENDBRANCH  46  60
BRANCH  47  70
ATOM     70  C   UNL A   1      36.692  33.338  31.044  1.00  0.00    -0.014 A 
ATOM     71  C   UNL A   1      36.894  34.004  29.823  1.00  0.00     0.010 A 
ATOM     72  C   UNL A   1      35.402  33.323  31.607  1.00  0.00     0.010 A 
ATOM     73  C   UNL A   1      35.834  34.660  29.188  1.00  0.00     0.020 A 
ATOM     74  C   UNL A   1      34.333  33.950  30.960  1.00  0.00     0.020 A 
ATOM     75  C   UNL A   1      34.560  34.625  29.760  1.00  0.00     0.054 A 
BRANCH  75  76
ATOM     76  S   UNL A   1      33.191  35.444  28.896  1.00  0.00     0.124 S 
ATOM     77  O   UNL A   1      33.894  36.415  28.063  1.00  0.00    -0.237 OA
ATOM     78  O   UNL A   1      32.561  34.336  28.182  1.00  0.00    -0.237 OA
ATOM     79  O   UNL A   1      32.391  36.010  29.980  1.00  0.00    -0.744 OA
ENDBRANCH  75  76
ENDBRANCH  47  70
BRANCH  59  80
ATOM     80  C   UNL A   1      39.814  34.241  37.222  1.00  0.00    -0.014 A 
ATOM     81  C   UNL A   1      38.948  33.980  38.298  1.00  0.00     0.010 A 
ATOM     82  C   UNL A   1      40.549  35.442  37.210  1.00  0.00     0.010 A 
ATOM     83  C   UNL A   1      38.795  34.916  39.325  1.00  0.00     0.020 A 
ATOM     84  C   UNL A   1      40.422  36.366  38.251  1.00  0.00     0.020 A 
ATOM     85  C   UNL A   1      39.534  36.102  39.295  1.00  0.00     0.054 A 
BRANCH  85  86
ATOM     86  S   UNL A   1      39.347  37.280  40.662  1.00  0.00     0.124 S 
ATOM     87  O   UNL A   1      40.690  37.845  40.761  1.00  0.00    -0.237 OA
ATOM     88  O   UNL A   1      38.317  38.188  40.164  1.00  0.00    -0.237 OA
ATOM     89  O   UNL A   1      38.940  36.443  41.788  1.00  0.00    -0.744 OA
ENDBRANCH  85  86
ENDBRANCH  59  80
ENDBRANCH  33  34
ENDBRANCH  25  28
ENDBRANCH  23  24
ENDBRANCH  22  23
ENDBRANCH   1  22
TORSDOF 17
ENDMDL
