MODEL 1
REMARK VINA RESULT:     -12.9      0.000      0.000
REMARK SMILES O=C(NCCCCNC(=O)[C@@H]1[C@H](C(=O)Nc2ccc(Cn3cncn3)cc2)[C@@H]2C=C[C@H]1CC2)c1ccc(-c2c3nc(c(-c4ccc(S(=O)(=O)[O-])cc4)c4ccc([nH]4)c(-c4ccc(S(=O)(=O)[O-])cc4)c4nc(c(-c5ccc(S(=O)(=O)[O-])cc5)c5ccc2[nH]5)C=C4)C=C3)cc1
REMARK SMILES IDX 6 1 5 2 4 3 3 4 1 5 2 6 34 8 35 9 93 10 36 11 92 12 37 13
REMARK SMILES IDX 38 14 39 15 86 16 40 17 91 18 85 19 87 20 41 21 90 22 84 23
REMARK SMILES IDX 83 24 42 26 72 27 53 28 71 29 54 30 57 31 70 32 88 33 55 34
REMARK SMILES IDX 56 35 69 37 89 38 58 39 43 40 44 41 52 42 45 43 51 44 46 45
REMARK SMILES IDX 47 46 48 47 49 48 50 49 73 50 74 51 82 52 75 53 81 54 76 55
REMARK SMILES IDX 77 56 78 57 79 58 80 59 59 60 60 61 68 62 61 63 67 64 62 65
REMARK SMILES IDX 63 66 64 67 65 68 66 69 7 70 8 71 9 72 10 74 11 75 12 76
REMARK SMILES IDX 31 77 28 78 30 79 32 80 29 81 33 82 13 83 14 84 15 85 16 87
REMARK SMILES IDX 17 88 27 89 18 90 26 91 19 92 20 93 21 94 22 95 25 96 23 97
REMARK SMILES IDX 24 98
REMARK H PARENT 3 7 87 25 57 36 8 73 15 86
REMARK Flexibility Score: inf
ROOT
ATOM      1  C   UNL A   1      36.734  22.834  25.283  1.00  0.00     0.023 C 
ENDROOT
BRANCH   1   2
ATOM      2  C   UNL A   1      38.137  23.017  25.871  1.00  0.00     0.023 C 
BRANCH   2   3
ATOM      3  C   UNL A   1      39.017  21.802  26.167  1.00  0.00     0.116 C 
BRANCH   3   4
ATOM      4  N   UNL A   1      40.276  21.716  25.455  1.00  0.00    -0.352 N 
ATOM      5  O   UNL A   1      42.467  21.331  25.480  1.00  0.00    -0.269 OA
ATOM      6  C   UNL A   1      41.548  22.072  25.842  1.00  0.00     0.251 C 
ATOM      7  H   UNL A   1      40.210  21.342  24.546  1.00  0.00     0.163 HD
BRANCH   6   8
ATOM      8  C   UNL A   1      41.883  23.369  26.496  1.00  0.00     0.039 A 
ATOM      9  C   UNL A   1      42.499  23.478  27.740  1.00  0.00     0.014 A 
ATOM     10  C   UNL A   1      41.373  24.537  25.894  1.00  0.00     0.014 A 
ATOM     11  C   UNL A   1      42.480  24.680  28.436  1.00  0.00     0.010 A 
ATOM     12  C   UNL A   1      41.369  25.750  26.578  1.00  0.00     0.010 A 
ATOM     13  C   UNL A   1      41.864  25.801  27.879  1.00  0.00    -0.014 A 
BRANCH  13  14
ATOM     14  C   UNL A   1      41.854  27.031  28.667  1.00  0.00     0.031 A 
ATOM     15  C   UNL A   1      43.045  27.911  28.476  1.00  0.00     0.074 A 
ATOM     16  C   UNL A   1      40.790  27.428  29.393  1.00  0.00     0.049 A 
ATOM     17  N   UNL A   1      43.869  28.378  29.358  1.00  0.00    -0.248 NA
ATOM     18  C   UNL A   1      43.409  28.235  27.086  1.00  0.00     0.031 C 
ATOM     19  C   UNL A   1      39.456  26.821  29.434  1.00  0.00     0.029 A 
ATOM     20  N   UNL A   1      40.637  28.554  30.144  1.00  0.00    -0.354 N 
ATOM     21  C   UNL A   1      44.764  29.185  28.656  1.00  0.00     0.074 A 
ATOM     22  C   UNL A   1      44.517  28.951  27.256  1.00  0.00     0.031 C 
ATOM     23  C   UNL A   1      38.581  27.715  29.946  1.00  0.00     0.029 A 
ATOM     24  C   UNL A   1      39.311  28.896  30.377  1.00  0.00     0.049 A 
ATOM     25  H   UNL A   1      41.397  29.079  30.489  1.00  0.00     0.167 HD
ATOM     26  C   UNL A   1      45.521  30.151  29.249  1.00  0.00     0.031 A 
ATOM     27  C   UNL A   1      38.843  30.103  30.782  1.00  0.00     0.031 A 
ATOM     28  C   UNL A   1      45.621  29.985  30.671  1.00  0.00     0.049 A 
ATOM     29  C   UNL A   1      39.978  30.848  31.383  1.00  0.00     0.074 A 
ATOM     30  C   UNL A   1      46.137  29.013  31.502  1.00  0.00     0.029 A 
ATOM     31  N   UNL A   1      44.816  30.768  31.464  1.00  0.00    -0.354 N 
ATOM     32  N   UNL A   1      40.578  30.482  32.481  1.00  0.00    -0.248 NA
ATOM     33  C   UNL A   1      40.734  31.755  30.533  1.00  0.00     0.031 C 
ATOM     34  C   UNL A   1      45.241  28.965  32.610  1.00  0.00     0.029 A 
ATOM     35  C   UNL A   1      44.262  29.940  32.405  1.00  0.00     0.049 A 
ATOM     36  H   UNL A   1      44.667  31.737  31.373  1.00  0.00     0.167 HD
ATOM     37  C   UNL A   1      41.919  30.767  32.268  1.00  0.00     0.074 A 
ATOM     38  C   UNL A   1      41.940  31.637  31.095  1.00  0.00     0.031 C 
ATOM     39  C   UNL A   1      42.904  30.053  32.892  1.00  0.00     0.031 A 
BRANCH  26  40
ATOM     40  C   UNL A   1      45.864  31.449  28.561  1.00  0.00    -0.014 A 
ATOM     41  C   UNL A   1      44.860  32.412  28.342  1.00  0.00     0.010 A 
ATOM     42  C   UNL A   1      47.086  31.629  27.878  1.00  0.00     0.010 A 
ATOM     43  C   UNL A   1      45.055  33.467  27.437  1.00  0.00     0.020 A 
ATOM     44  C   UNL A   1      47.307  32.699  27.012  1.00  0.00     0.020 A 
ATOM     45  C   UNL A   1      46.273  33.592  26.767  1.00  0.00     0.054 A 
BRANCH  45  46
ATOM     46  S   UNL A   1      46.472  34.873  25.503  1.00  0.00     0.124 S 
ATOM     47  O   UNL A   1      47.859  34.674  25.093  1.00  0.00    -0.237 OA
ATOM     48  O   UNL A   1      45.459  34.500  24.520  1.00  0.00    -0.237 OA
ATOM     49  O   UNL A   1      46.204  36.113  26.228  1.00  0.00    -0.744 OA
ENDBRANCH  45  46
ENDBRANCH  26  40
BRANCH  27  50
ATOM     50  C   UNL A   1      37.595  30.763  30.315  1.00  0.00    -0.014 A 
ATOM     51  C   UNL A   1      36.602  31.190  31.215  1.00  0.00     0.010 A 
ATOM     52  C   UNL A   1      37.499  31.208  28.979  1.00  0.00     0.010 A 
ATOM     53  C   UNL A   1      35.575  32.060  30.799  1.00  0.00     0.020 A 
ATOM     54  C   UNL A   1      36.478  32.063  28.555  1.00  0.00     0.020 A 
ATOM     55  C   UNL A   1      35.530  32.502  29.472  1.00  0.00     0.054 A 
BRANCH  55  56
ATOM     56  S   UNL A   1      34.297  33.743  28.976  1.00  0.00     0.124 S 
ATOM     57  O   UNL A   1      35.131  34.799  28.410  1.00  0.00    -0.237 OA
ATOM     58  O   UNL A   1      33.472  33.007  28.023  1.00  0.00    -0.237 OA
ATOM     59  O   UNL A   1      33.631  34.087  30.231  1.00  0.00    -0.744 OA
ENDBRANCH  55  56
ENDBRANCH  27  50
BRANCH  39  60
ATOM     60  C   UNL A   1      42.505  29.094  33.991  1.00  0.00    -0.014 A 
ATOM     61  C   UNL A   1      41.885  27.853  33.736  1.00  0.00     0.010 A 
ATOM     62  C   UNL A   1      42.925  29.377  35.301  1.00  0.00     0.010 A 
ATOM     63  C   UNL A   1      41.671  26.931  34.770  1.00  0.00     0.020 A 
ATOM     64  C   UNL A   1      42.730  28.454  36.333  1.00  0.00     0.020 A 
ATOM     65  C   UNL A   1      42.098  27.238  36.065  1.00  0.00     0.054 A 
BRANCH  65  66
ATOM     66  S   UNL A   1      41.880  26.010  37.383  1.00  0.00     0.124 S 
ATOM     67  O   UNL A   1      42.179  24.755  36.703  1.00  0.00    -0.237 OA
ATOM     68  O   UNL A   1      42.852  26.435  38.386  1.00  0.00    -0.237 OA
ATOM     69  O   UNL A   1      40.480  26.177  37.784  1.00  0.00    -0.744 OA
ENDBRANCH  65  66
ENDBRANCH  39  60
ENDBRANCH  13  14
ENDBRANCH   6   8
ENDBRANCH   3   4
ENDBRANCH   2   3
ENDBRANCH   1   2
BRANCH   1  70
ATOM     70  C   UNL A   1      35.558  23.663  25.827  1.00  0.00     0.116 C 
BRANCH  70  71
ATOM     71  N   UNL A   1      34.964  24.506  24.767  1.00  0.00    -0.356 N 
ATOM     72  C   UNL A   1      34.090  25.505  24.539  1.00  0.00     0.224 C 
ATOM     73  H   UNL A   1      35.355  24.236  23.905  1.00  0.00     0.163 HD
ATOM     74  O   UNL A   1      33.989  25.761  23.322  1.00  0.00    -0.275 OA
BRANCH  72  75
ATOM     75  C   UNL A   1      33.231  26.397  25.474  1.00  0.00     0.098 C 
ATOM     76  C   UNL A   1      31.745  26.292  25.854  1.00  0.00     0.098 C 
ATOM     77  C   UNL A   1      33.662  27.935  25.499  1.00  0.00     0.025 C 
ATOM     78  C   UNL A   1      31.255  27.660  26.448  1.00  0.00     0.025 C 
ATOM     79  C   UNL A   1      32.614  28.867  24.902  1.00  0.00    -0.027 C 
ATOM     80  C   UNL A   1      33.651  28.389  26.980  1.00  0.00     0.009 C 
ATOM     81  C   UNL A   1      31.372  28.726  25.392  1.00  0.00    -0.027 C 
ATOM     82  C   UNL A   1      32.234  28.128  27.571  1.00  0.00     0.009 C 
BRANCH  76  83
ATOM     83  C   UNL A   1      30.682  25.628  24.984  1.00  0.00     0.228 C 
ATOM     84  O   UNL A   1      29.617  26.242  24.806  1.00  0.00    -0.274 OA
ATOM     85  N   UNL A   1      30.832  24.481  24.263  1.00  0.00    -0.326 N 
ATOM     86  H   UNL A   1      30.286  24.469  23.445  1.00  0.00     0.169 HD
BRANCH  85  87
ATOM     87  C   UNL A   1      31.594  23.311  24.430  1.00  0.00     0.041 A 
ATOM     88  C   UNL A   1      31.790  22.806  25.713  1.00  0.00     0.026 A 
ATOM     89  C   UNL A   1      32.278  22.692  23.400  1.00  0.00     0.026 A 
ATOM     90  C   UNL A   1      32.620  21.690  25.924  1.00  0.00     0.008 A 
ATOM     91  C   UNL A   1      33.092  21.578  23.581  1.00  0.00     0.008 A 
ATOM     92  C   UNL A   1      33.273  21.062  24.853  1.00  0.00    -0.026 A 
BRANCH  92  93
ATOM     93  C   UNL A   1      34.224  19.908  25.029  1.00  0.00     0.181 C 
BRANCH  93  94
ATOM     94  N   UNL A   1      33.555  18.642  24.805  1.00  0.00    -0.249 N 
ATOM     95  C   UNL A   1      33.906  17.668  23.927  1.00  0.00     0.220 A 
ATOM     96  N   UNL A   1      32.483  18.275  25.531  1.00  0.00    -0.160 NA
ATOM     97  N   UNL A   1      33.111  16.635  24.074  1.00  0.00    -0.224 NA
ATOM     98  C   UNL A   1      32.309  17.016  25.116  1.00  0.00     0.246 A 
ENDBRANCH  93  94
ENDBRANCH  92  93
ENDBRANCH  85  87
ENDBRANCH  76  83
ENDBRANCH  72  75
ENDBRANCH  70  71
ENDBRANCH   1  70
TORSDOF 18
ENDMDL
MODEL 2
REMARK VINA RESULT:     -12.6      2.887      9.449
REMARK SMILES O=C(NCCCCNC(=O)[C@@H]1[C@H](C(=O)Nc2ccc(Cn3cncn3)cc2)[C@@H]2C=C[C@H]1CC2)c1ccc(-c2c3nc(c(-c4ccc(S(=O)(=O)[O-])cc4)c4ccc([nH]4)c(-c4ccc(S(=O)(=O)[O-])cc4)c4nc(c(-c5ccc(S(=O)(=O)[O-])cc5)c5ccc2[nH]5)C=C4)C=C3)cc1
REMARK SMILES IDX 6 1 5 2 4 3 3 4 1 5 2 6 34 8 35 9 93 10 36 11 92 12 37 13
REMARK SMILES IDX 38 14 39 15 86 16 40 17 91 18 85 19 87 20 41 21 90 22 84 23
REMARK SMILES IDX 83 24 42 26 72 27 53 28 71 29 54 30 57 31 70 32 88 33 55 34
REMARK SMILES IDX 56 35 69 37 89 38 58 39 43 40 44 41 52 42 45 43 51 44 46 45
REMARK SMILES IDX 47 46 48 47 49 48 50 49 73 50 74 51 82 52 75 53 81 54 76 55
REMARK SMILES IDX 77 56 78 57 79 58 80 59 59 60 60 61 68 62 61 63 67 64 62 65
REMARK SMILES IDX 63 66 64 67 65 68 66 69 7 70 8 71 9 72 10 74 11 75 12 76
REMARK SMILES IDX 31 77 28 78 30 79 32 80 29 81 33 82 13 83 14 84 15 85 16 87
REMARK SMILES IDX 17 88 27 89 18 90 26 91 19 92 20 93 21 94 22 95 25 96 23 97
REMARK SMILES IDX 24 98
REMARK H PARENT 3 7 87 25 57 36 8 73 15 86
REMARK Flexibility Score: inf
ROOT
ATOM      1  C   UNL A   1      32.636  27.589  25.891  1.00  0.00     0.023 C 
ENDROOT
BRANCH   1   2
ATOM      2  C   UNL A   1      33.509  28.771  26.327  1.00  0.00     0.023 C 
BRANCH   2   3
ATOM      3  C   UNL A   1      33.476  29.265  27.774  1.00  0.00     0.116 C 
BRANCH   3   4
ATOM      4  N   UNL A   1      33.826  30.653  27.999  1.00  0.00    -0.352 N 
ATOM      5  O   UNL A   1      35.001  32.450  27.417  1.00  0.00    -0.269 OA
ATOM      6  C   UNL A   1      35.032  31.304  27.873  1.00  0.00     0.251 C 
ATOM      7  H   UNL A   1      33.078  31.224  28.291  1.00  0.00     0.163 HD
BRANCH   6   8
ATOM      8  C   UNL A   1      36.318  30.779  28.417  1.00  0.00     0.039 A 
ATOM      9  C   UNL A   1      37.221  31.541  29.153  1.00  0.00     0.014 A 
ATOM     10  C   UNL A   1      36.708  29.491  27.999  1.00  0.00     0.014 A 
ATOM     11  C   UNL A   1      38.526  31.104  29.340  1.00  0.00     0.010 A 
ATOM     12  C   UNL A   1      38.010  29.038  28.201  1.00  0.00     0.010 A 
ATOM     13  C   UNL A   1      38.936  29.879  28.814  1.00  0.00    -0.014 A 
BRANCH  13  14
ATOM     14  C   UNL A   1      40.327  29.482  29.022  1.00  0.00     0.031 A 
ATOM     15  C   UNL A   1      40.701  29.222  30.444  1.00  0.00     0.074 A 
ATOM     16  C   UNL A   1      41.173  29.217  28.008  1.00  0.00     0.049 A 
ATOM     17  N   UNL A   1      41.652  29.745  31.151  1.00  0.00    -0.248 NA
ATOM     18  C   UNL A   1      39.824  28.313  31.202  1.00  0.00     0.031 C 
ATOM     19  C   UNL A   1      40.862  29.139  26.577  1.00  0.00     0.029 A 
ATOM     20  N   UNL A   1      42.474  28.815  28.061  1.00  0.00    -0.354 N 
ATOM     21  C   UNL A   1      41.596  29.116  32.394  1.00  0.00     0.074 A 
ATOM     22  C   UNL A   1      40.376  28.350  32.412  1.00  0.00     0.031 C 
ATOM     23  C   UNL A   1      41.854  28.473  25.946  1.00  0.00     0.029 A 
ATOM     24  C   UNL A   1      42.913  28.191  26.900  1.00  0.00     0.049 A 
ATOM     25  H   UNL A   1      43.049  28.952  28.849  1.00  0.00     0.167 HD
ATOM     26  C   UNL A   1      42.643  29.091  33.266  1.00  0.00     0.031 A 
ATOM     27  C   UNL A   1      44.010  27.402  26.768  1.00  0.00     0.031 A 
ATOM     28  C   UNL A   1      43.629  30.093  32.979  1.00  0.00     0.049 A 
ATOM     29  C   UNL A   1      44.910  27.686  27.913  1.00  0.00     0.074 A 
ATOM     30  C   UNL A   1      43.634  31.472  32.948  1.00  0.00     0.029 A 
ATOM     31  N   UNL A   1      44.765  29.699  32.312  1.00  0.00    -0.354 N 
ATOM     32  N   UNL A   1      45.504  28.832  28.095  1.00  0.00    -0.248 NA
ATOM     33  C   UNL A   1      44.808  26.843  29.095  1.00  0.00     0.031 C 
ATOM     34  C   UNL A   1      44.487  31.812  31.857  1.00  0.00     0.029 A 
ATOM     35  C   UNL A   1      44.981  30.620  31.320  1.00  0.00     0.049 A 
ATOM     36  H   UNL A   1      45.316  28.908  32.509  1.00  0.00     0.167 HD
ATOM     37  C   UNL A   1      45.478  29.036  29.467  1.00  0.00     0.074 A 
ATOM     38  C   UNL A   1      45.127  27.737  30.036  1.00  0.00     0.031 C 
ATOM     39  C   UNL A   1      45.472  30.294  29.999  1.00  0.00     0.031 A 
BRANCH  26  40
ATOM     40  C   UNL A   1      42.928  27.909  34.158  1.00  0.00    -0.014 A 
ATOM     41  C   UNL A   1      43.100  28.102  35.543  1.00  0.00     0.010 A 
ATOM     42  C   UNL A   1      43.306  26.654  33.634  1.00  0.00     0.010 A 
ATOM     43  C   UNL A   1      43.677  27.108  36.346  1.00  0.00     0.020 A 
ATOM     44  C   UNL A   1      43.839  25.642  34.431  1.00  0.00     0.020 A 
ATOM     45  C   UNL A   1      44.057  25.889  35.779  1.00  0.00     0.054 A 
BRANCH  45  46
ATOM     46  S   UNL A   1      44.922  24.663  36.790  1.00  0.00     0.124 S 
ATOM     47  O   UNL A   1      44.334  24.892  38.106  1.00  0.00    -0.237 OA
ATOM     48  O   UNL A   1      44.556  23.408  36.139  1.00  0.00    -0.237 OA
ATOM     49  O   UNL A   1      46.328  25.040  36.657  1.00  0.00    -0.744 OA
ENDBRANCH  45  46
ENDBRANCH  26  40
BRANCH  27  50
ATOM     50  C   UNL A   1      44.110  26.169  25.942  1.00  0.00    -0.014 A 
ATOM     51  C   UNL A   1      45.330  25.753  25.378  1.00  0.00     0.010 A 
ATOM     52  C   UNL A   1      43.038  25.253  25.922  1.00  0.00     0.010 A 
ATOM     53  C   UNL A   1      45.478  24.456  24.851  1.00  0.00     0.020 A 
ATOM     54  C   UNL A   1      43.172  23.966  25.392  1.00  0.00     0.020 A 
ATOM     55  C   UNL A   1      44.399  23.566  24.875  1.00  0.00     0.054 A 
BRANCH  55  56
ATOM     56  S   UNL A   1      44.635  21.845  24.337  1.00  0.00     0.124 S 
ATOM     57  O   UNL A   1      44.385  21.933  22.901  1.00  0.00    -0.237 OA
ATOM     58  O   UNL A   1      46.016  21.577  24.725  1.00  0.00    -0.237 OA
ATOM     59  O   UNL A   1      43.627  21.107  25.096  1.00  0.00    -0.744 OA
ENDBRANCH  55  56
ENDBRANCH  27  50
BRANCH  39  60
ATOM     60  C   UNL A   1      45.721  31.462  29.071  1.00  0.00    -0.014 A 
ATOM     61  C   UNL A   1      47.002  32.018  28.866  1.00  0.00     0.010 A 
ATOM     62  C   UNL A   1      44.665  31.897  28.254  1.00  0.00     0.010 A 
ATOM     63  C   UNL A   1      47.212  32.997  27.885  1.00  0.00     0.020 A 
ATOM     64  C   UNL A   1      44.871  32.861  27.263  1.00  0.00     0.020 A 
ATOM     65  C   UNL A   1      46.142  33.411  27.086  1.00  0.00     0.054 A 
BRANCH  65  66
ATOM     66  S   UNL A   1      46.438  34.629  25.773  1.00  0.00     0.124 S 
ATOM     67  O   UNL A   1      46.232  35.898  26.462  1.00  0.00    -0.237 OA
ATOM     68  O   UNL A   1      47.811  34.342  25.368  1.00  0.00    -0.237 OA
ATOM     69  O   UNL A   1      45.425  34.302  24.764  1.00  0.00    -0.744 OA
ENDBRANCH  65  66
ENDBRANCH  39  60
ENDBRANCH  13  14
ENDBRANCH   6   8
ENDBRANCH   3   4
ENDBRANCH   2   3
ENDBRANCH   1   2
BRANCH   1  70
ATOM     70  C   UNL A   1      31.610  26.990  26.868  1.00  0.00     0.116 C 
BRANCH  70  71
ATOM     71  N   UNL A   1      31.358  25.563  26.568  1.00  0.00    -0.356 N 
ATOM     72  C   UNL A   1      31.891  24.464  26.000  1.00  0.00     0.224 C 
ATOM     73  H   UNL A   1      30.467  25.329  26.914  1.00  0.00     0.163 HD
ATOM     74  O   UNL A   1      31.099  23.500  26.028  1.00  0.00    -0.275 OA
BRANCH  72  75
ATOM     75  C   UNL A   1      33.273  24.165  25.363  1.00  0.00     0.098 C 
ATOM     76  C   UNL A   1      33.702  24.145  23.887  1.00  0.00     0.098 C 
ATOM     77  C   UNL A   1      34.156  23.105  26.170  1.00  0.00     0.025 C 
ATOM     78  C   UNL A   1      35.052  23.356  23.740  1.00  0.00     0.025 C 
ATOM     79  C   UNL A   1      34.374  21.799  25.415  1.00  0.00    -0.027 C 
ATOM     80  C   UNL A   1      35.602  23.659  26.221  1.00  0.00     0.009 C 
ATOM     81  C   UNL A   1      34.836  21.928  24.161  1.00  0.00    -0.027 C 
ATOM     82  C   UNL A   1      36.095  23.903  24.764  1.00  0.00     0.009 C 
BRANCH  76  83
ATOM     83  C   UNL A   1      32.752  23.883  22.721  1.00  0.00     0.228 C 
ATOM     84  O   UNL A   1      32.980  22.897  22.001  1.00  0.00    -0.274 OA
ATOM     85  N   UNL A   1      31.590  24.547  22.465  1.00  0.00    -0.326 N 
ATOM     86  H   UNL A   1      30.915  23.981  22.026  1.00  0.00     0.169 HD
BRANCH  85  87
ATOM     87  C   UNL A   1      31.140  25.861  22.689  1.00  0.00     0.041 A 
ATOM     88  C   UNL A   1      31.929  26.928  22.267  1.00  0.00     0.026 A 
ATOM     89  C   UNL A   1      30.012  26.166  23.427  1.00  0.00     0.026 A 
ATOM     90  C   UNL A   1      31.553  28.253  22.554  1.00  0.00     0.008 A 
ATOM     91  C   UNL A   1      29.611  27.468  23.712  1.00  0.00     0.008 A 
ATOM     92  C   UNL A   1      30.382  28.533  23.275  1.00  0.00    -0.026 A 
BRANCH  92  93
ATOM     93  C   UNL A   1      29.968  29.925  23.668  1.00  0.00     0.181 C 
BRANCH  93  94
ATOM     94  N   UNL A   1      29.125  30.525  22.654  1.00  0.00    -0.249 N 
ATOM     95  C   UNL A   1      28.734  31.822  22.567  1.00  0.00     0.220 A 
ATOM     96  N   UNL A   1      28.663  29.810  21.611  1.00  0.00    -0.160 NA
ATOM     97  N   UNL A   1      28.047  32.002  21.464  1.00  0.00    -0.224 NA
ATOM     98  C   UNL A   1      28.095  30.769  20.872  1.00  0.00     0.246 A 
ENDBRANCH  93  94
ENDBRANCH  92  93
ENDBRANCH  85  87
ENDBRANCH  76  83
ENDBRANCH  72  75
ENDBRANCH  70  71
ENDBRANCH   1  70
TORSDOF 18
ENDMDL
MODEL 3
REMARK VINA RESULT:     -12.1      2.459      8.580
REMARK SMILES O=C(NCCCCNC(=O)[C@@H]1[C@H](C(=O)Nc2ccc(Cn3cncn3)cc2)[C@@H]2C=C[C@H]1CC2)c1ccc(-c2c3nc(c(-c4ccc(S(=O)(=O)[O-])cc4)c4ccc([nH]4)c(-c4ccc(S(=O)(=O)[O-])cc4)c4nc(c(-c5ccc(S(=O)(=O)[O-])cc5)c5ccc2[nH]5)C=C4)C=C3)cc1
REMARK SMILES IDX 6 1 5 2 4 3 3 4 1 5 2 6 34 8 35 9 93 10 36 11 92 12 37 13
REMARK SMILES IDX 38 14 39 15 86 16 40 17 91 18 85 19 87 20 41 21 90 22 84 23
REMARK SMILES IDX 83 24 42 26 72 27 53 28 71 29 54 30 57 31 70 32 88 33 55 34
REMARK SMILES IDX 56 35 69 37 89 38 58 39 43 40 44 41 52 42 45 43 51 44 46 45
REMARK SMILES IDX 47 46 48 47 49 48 50 49 73 50 74 51 82 52 75 53 81 54 76 55
REMARK SMILES IDX 77 56 78 57 79 58 80 59 59 60 60 61 68 62 61 63 67 64 62 65
REMARK SMILES IDX 63 66 64 67 65 68 66 69 7 70 8 71 9 72 10 74 11 75 12 76
REMARK SMILES IDX 31 77 28 78 30 79 32 80 29 81 33 82 13 83 14 84 15 85 16 87
REMARK SMILES IDX 17 88 27 89 18 90 26 91 19 92 20 93 21 94 22 95 25 96 23 97
REMARK SMILES IDX 24 98
REMARK H PARENT 3 7 87 25 57 36 8 73 15 86
REMARK Flexibility Score: inf
ROOT
ATOM      1  C   UNL A   1      32.925  29.348  24.876  1.00  0.00     0.023 C 
ENDROOT
BRANCH   1   2
ATOM      2  C   UNL A   1      33.698  28.560  25.939  1.00  0.00     0.023 C 
BRANCH   2   3
ATOM      3  C   UNL A   1      33.536  28.896  27.422  1.00  0.00     0.116 C 
BRANCH   3   4
ATOM      4  N   UNL A   1      33.754  30.276  27.807  1.00  0.00    -0.352 N 
ATOM      5  O   UNL A   1      34.788  32.217  27.472  1.00  0.00    -0.269 OA
ATOM      6  C   UNL A   1      34.903  31.035  27.806  1.00  0.00     0.251 C 
ATOM      7  H   UNL A   1      32.949  30.747  28.123  1.00  0.00     0.163 HD
BRANCH   6   8
ATOM      8  C   UNL A   1      36.208  30.563  28.351  1.00  0.00     0.039 A 
ATOM      9  C   UNL A   1      37.087  31.365  29.073  1.00  0.00     0.014 A 
ATOM     10  C   UNL A   1      36.643  29.284  27.946  1.00  0.00     0.014 A 
ATOM     11  C   UNL A   1      38.407  30.978  29.261  1.00  0.00     0.010 A 
ATOM     12  C   UNL A   1      37.961  28.881  28.148  1.00  0.00     0.010 A 
ATOM     13  C   UNL A   1      38.858  29.762  28.747  1.00  0.00    -0.014 A 
BRANCH  13  14
ATOM     14  C   UNL A   1      40.264  29.418  28.954  1.00  0.00     0.031 A 
ATOM     15  C   UNL A   1      40.651  29.180  30.377  1.00  0.00     0.074 A 
ATOM     16  C   UNL A   1      41.117  29.178  27.939  1.00  0.00     0.049 A 
ATOM     17  N   UNL A   1      41.582  29.741  31.078  1.00  0.00    -0.248 NA
ATOM     18  C   UNL A   1      39.809  28.243  31.141  1.00  0.00     0.031 C 
ATOM     19  C   UNL A   1      40.806  29.081  26.510  1.00  0.00     0.029 A 
ATOM     20  N   UNL A   1      42.432  28.824  27.991  1.00  0.00    -0.354 N 
ATOM     21  C   UNL A   1      41.553  29.117  32.325  1.00  0.00     0.074 A 
ATOM     22  C   UNL A   1      40.362  28.307  32.349  1.00  0.00     0.031 C 
ATOM     23  C   UNL A   1      41.820  28.449  25.880  1.00  0.00     0.029 A 
ATOM     24  C   UNL A   1      42.891  28.211  26.833  1.00  0.00     0.049 A 
ATOM     25  H   UNL A   1      43.003  28.988  28.777  1.00  0.00     0.167 HD
ATOM     26  C   UNL A   1      42.602  29.135  33.194  1.00  0.00     0.031 A 
ATOM     27  C   UNL A   1      44.016  27.462  26.702  1.00  0.00     0.031 A 
ATOM     28  C   UNL A   1      43.550  30.171  32.899  1.00  0.00     0.049 A 
ATOM     29  C   UNL A   1      44.907  27.785  27.843  1.00  0.00     0.074 A 
ATOM     30  C   UNL A   1      43.504  31.550  32.861  1.00  0.00     0.029 A 
ATOM     31  N   UNL A   1      44.698  29.816  32.232  1.00  0.00    -0.354 N 
ATOM     32  N   UNL A   1      45.459  28.953  28.018  1.00  0.00    -0.248 NA
ATOM     33  C   UNL A   1      44.839  26.946  29.030  1.00  0.00     0.031 C 
ATOM     34  C   UNL A   1      44.341  31.914  31.766  1.00  0.00     0.029 A 
ATOM     35  C   UNL A   1      44.878  30.739  31.234  1.00  0.00     0.049 A 
ATOM     36  H   UNL A   1      45.279  29.047  32.432  1.00  0.00     0.167 HD
ATOM     37  C   UNL A   1      45.428  29.163  29.389  1.00  0.00     0.074 A 
ATOM     38  C   UNL A   1      45.127  27.856  29.966  1.00  0.00     0.031 C 
ATOM     39  C   UNL A   1      45.378  30.424  29.914  1.00  0.00     0.031 A 
BRANCH  26  40
ATOM     40  C   UNL A   1      42.932  27.969  34.092  1.00  0.00    -0.014 A 
ATOM     41  C   UNL A   1      43.010  28.159  35.486  1.00  0.00     0.010 A 
ATOM     42  C   UNL A   1      43.440  26.756  33.580  1.00  0.00     0.010 A 
ATOM     43  C   UNL A   1      43.621  27.205  36.313  1.00  0.00     0.020 A 
ATOM     44  C   UNL A   1      44.008  25.780  34.399  1.00  0.00     0.020 A 
ATOM     45  C   UNL A   1      44.130  26.028  35.758  1.00  0.00     0.054 A 
BRANCH  45  46
ATOM     46  S   UNL A   1      45.035  24.863  36.807  1.00  0.00     0.124 S 
ATOM     47  O   UNL A   1      44.747  23.589  36.156  1.00  0.00    -0.237 OA
ATOM     48  O   UNL A   1      46.410  25.341  36.689  1.00  0.00    -0.237 OA
ATOM     49  O   UNL A   1      44.428  25.046  38.124  1.00  0.00    -0.744 OA
ENDBRANCH  45  46
ENDBRANCH  26  40
BRANCH  27  50
ATOM     50  C   UNL A   1      44.160  26.229  25.883  1.00  0.00    -0.014 A 
ATOM     51  C   UNL A   1      45.420  25.746  25.488  1.00  0.00     0.010 A 
ATOM     52  C   UNL A   1      43.050  25.378  25.702  1.00  0.00     0.010 A 
ATOM     53  C   UNL A   1      45.566  24.444  24.970  1.00  0.00     0.020 A 
ATOM     54  C   UNL A   1      43.182  24.088  25.180  1.00  0.00     0.020 A 
ATOM     55  C   UNL A   1      44.445  23.619  24.833  1.00  0.00     0.054 A 
BRANCH  55  56
ATOM     56  S   UNL A   1      44.655  21.890  24.311  1.00  0.00     0.124 S 
ATOM     57  O   UNL A   1      43.671  21.195  25.136  1.00  0.00    -0.237 OA
ATOM     58  O   UNL A   1      44.356  21.951  22.883  1.00  0.00    -0.237 OA
ATOM     59  O   UNL A   1      46.051  21.600  24.637  1.00  0.00    -0.744 OA
ENDBRANCH  55  56
ENDBRANCH  27  50
BRANCH  39  60
ATOM     60  C   UNL A   1      45.582  31.595  28.979  1.00  0.00    -0.014 A 
ATOM     61  C   UNL A   1      46.814  32.271  28.856  1.00  0.00     0.010 A 
ATOM     62  C   UNL A   1      44.553  31.909  28.075  1.00  0.00     0.010 A 
ATOM     63  C   UNL A   1      47.002  33.250  27.870  1.00  0.00     0.020 A 
ATOM     64  C   UNL A   1      44.739  32.872  27.079  1.00  0.00     0.020 A 
ATOM     65  C   UNL A   1      45.960  33.543  26.985  1.00  0.00     0.054 A 
BRANCH  65  66
ATOM     66  S   UNL A   1      46.235  34.762  25.668  1.00  0.00     0.124 S 
ATOM     67  O   UNL A   1      45.230  34.393  24.677  1.00  0.00    -0.237 OA
ATOM     68  O   UNL A   1      46.016  36.033  26.352  1.00  0.00    -0.237 OA
ATOM     69  O   UNL A   1      47.622  34.522  25.259  1.00  0.00    -0.744 OA
ENDBRANCH  65  66
ENDBRANCH  39  60
ENDBRANCH  13  14
ENDBRANCH   6   8
ENDBRANCH   3   4
ENDBRANCH   2   3
ENDBRANCH   1   2
BRANCH   1  70
ATOM     70  C   UNL A   1      31.433  29.660  25.084  1.00  0.00     0.116 C 
BRANCH  70  71
ATOM     71  N   UNL A   1      30.633  29.246  23.910  1.00  0.00    -0.356 N 
ATOM     72  C   UNL A   1      30.501  28.289  22.971  1.00  0.00     0.224 C 
ATOM     73  H   UNL A   1      29.935  29.924  23.759  1.00  0.00     0.163 HD
ATOM     74  O   UNL A   1      29.586  28.556  22.166  1.00  0.00    -0.275 OA
BRANCH  72  75
ATOM     75  C   UNL A   1      31.225  26.940  22.723  1.00  0.00     0.098 C 
ATOM     76  C   UNL A   1      31.220  25.645  23.551  1.00  0.00     0.098 C 
ATOM     77  C   UNL A   1      32.636  27.074  21.987  1.00  0.00     0.025 C 
ATOM     78  C   UNL A   1      32.441  24.749  23.138  1.00  0.00     0.025 C 
ATOM     79  C   UNL A   1      33.818  26.678  22.864  1.00  0.00    -0.027 C 
ATOM     80  C   UNL A   1      32.692  25.969  20.901  1.00  0.00     0.009 C 
ATOM     81  C   UNL A   1      33.717  25.478  23.458  1.00  0.00    -0.027 C 
ATOM     82  C   UNL A   1      32.474  24.587  21.585  1.00  0.00     0.009 C 
BRANCH  76  83
ATOM     83  C   UNL A   1      30.945  25.586  25.051  1.00  0.00     0.228 C 
ATOM     84  O   UNL A   1      30.501  26.610  25.597  1.00  0.00    -0.274 OA
ATOM     85  N   UNL A   1      31.006  24.475  25.838  1.00  0.00    -0.326 N 
ATOM     86  H   UNL A   1      30.373  24.503  26.591  1.00  0.00     0.169 HD
BRANCH  85  87
ATOM     87  C   UNL A   1      31.776  23.298  25.815  1.00  0.00     0.041 A 
ATOM     88  C   UNL A   1      33.022  23.289  26.437  1.00  0.00     0.026 A 
ATOM     89  C   UNL A   1      31.426  22.172  25.092  1.00  0.00     0.026 A 
ATOM     90  C   UNL A   1      33.855  22.158  26.356  1.00  0.00     0.008 A 
ATOM     91  C   UNL A   1      32.226  21.036  25.009  1.00  0.00     0.008 A 
ATOM     92  C   UNL A   1      33.457  21.017  25.644  1.00  0.00    -0.026 A 
BRANCH  92  93
ATOM     93  C   UNL A   1      34.334  19.807  25.468  1.00  0.00     0.181 C 
BRANCH  93  94
ATOM     94  N   UNL A   1      33.557  18.653  25.062  1.00  0.00    -0.249 N 
ATOM     95  C   UNL A   1      33.654  17.961  23.898  1.00  0.00     0.220 A 
ATOM     96  N   UNL A   1      32.642  18.100  25.879  1.00  0.00    -0.160 NA
ATOM     97  N   UNL A   1      32.846  16.928  23.932  1.00  0.00    -0.224 NA
ATOM     98  C   UNL A   1      32.307  17.004  25.187  1.00  0.00     0.246 A 
ENDBRANCH  93  94
ENDBRANCH  92  93
ENDBRANCH  85  87
ENDBRANCH  76  83
ENDBRANCH  72  75
ENDBRANCH  70  71
ENDBRANCH   1  70
TORSDOF 18
ENDMDL
