MODEL 1
REMARK VINA RESULT:     -11.8      0.000      0.000
REMARK SMILES Cc1[nH]c2c(C(=O)N3CC[C@H](O)C[C@@H]3C(=O)NCCCCNC(=O)c3ccc(-c4c5nc(c(-c6ccc(S(=O)(=O)[O-])cc6)c6ccc([nH]6)c(-c6ccc(S(=O)(=O)[O-])cc6)c6nc(c(-c7ccc(S(=O)(=O)[O-])cc7)c7ccc4[nH]7)C=C6)C=C5)cc3)cccc2c1C
REMARK SMILES IDX 20 1 19 2 18 3 17 4 15 5 16 6 14 8 8 9 9 10 10 11 13 12
REMARK SMILES IDX 11 13 6 14 7 15 5 16 1 17 2 18 3 19 89 20 4 21 88 23 90 24
REMARK SMILES IDX 87 25 85 26 86 27 12 28 21 30 22 31 23 32 24 34 25 35 26 36
REMARK SMILES IDX 84 37 27 38 83 39 28 40 29 41 30 42 77 43 31 44 82 45 76 46
REMARK SMILES IDX 78 47 32 48 81 49 75 50 74 51 33 53 63 54 44 55 62 56 45 57
REMARK SMILES IDX 48 58 61 59 79 60 46 61 47 62 60 64 80 65 49 66 34 67 35 68
REMARK SMILES IDX 43 69 36 70 42 71 37 72 38 73 39 74 40 75 41 76 64 77 65 78
REMARK SMILES IDX 73 79 66 80 72 81 67 82 68 83 69 84 70 85 71 86 50 87 51 88
REMARK SMILES IDX 59 89 52 90 58 91 53 92 54 93 55 94 56 95 57 96
REMARK H PARENT 17 7 3 22 12 29 22 33 78 52 48 63
REMARK Flexibility Score: inf
ROOT
ATOM      1  C   UNL A   1      32.267  28.844  26.549  1.00  0.00     0.023 C 
ENDROOT
BRANCH   1   2
ATOM      2  C   UNL A   1      31.579  27.577  27.039  1.00  0.00     0.023 C 
BRANCH   2   3
ATOM      3  C   UNL A   1      32.022  26.275  26.373  1.00  0.00     0.116 C 
BRANCH   3   4
ATOM      4  N   UNL A   1      31.467  25.092  26.991  1.00  0.00    -0.354 N 
ATOM      5  C   UNL A   1      31.535  23.778  26.644  1.00  0.00     0.242 C 
ATOM      6  O   UNL A   1      30.690  23.050  27.185  1.00  0.00    -0.273 OA
ATOM      7  H   UNL A   1      30.949  25.268  27.809  1.00  0.00     0.163 HD
BRANCH   5   8
ATOM      8  C   UNL A   1      32.484  23.157  25.568  1.00  0.00     0.177 C 
ATOM      9  N   UNL A   1      31.992  22.157  24.610  1.00  0.00    -0.326 N 
ATOM     10  C   UNL A   1      32.177  20.730  24.865  1.00  0.00     0.123 C 
ATOM     11  C   UNL A   1      33.263  20.332  25.882  1.00  0.00     0.053 C 
ATOM     12  C   UNL A   1      33.858  22.792  26.113  1.00  0.00     0.067 C 
ATOM     13  C   UNL A   1      33.856  21.429  26.769  1.00  0.00     0.118 C 
BRANCH   9  14
ATOM     14  C   UNL A   1      31.872  22.557  23.274  1.00  0.00     0.256 C 
ATOM     15  O   UNL A   1      31.569  21.782  22.371  1.00  0.00    -0.269 OA
BRANCH  14  16
ATOM     16  C   UNL A   1      32.168  23.968  22.945  1.00  0.00     0.064 A 
ATOM     17  C   UNL A   1      27.975  26.399  24.119  1.00  0.00     0.064 C 
ATOM     18  C   UNL A   1      29.372  26.184  23.666  1.00  0.00     0.016 A 
ATOM     19  N   UNL A   1      29.915  24.929  23.573  1.00  0.00    -0.358 N 
ATOM     20  C   UNL A   1      30.353  27.093  23.302  1.00  0.00    -0.023 A 
ATOM     21  C   UNL A   1      31.218  24.985  23.144  1.00  0.00     0.059 A 
ATOM     22  H   UNL A   1      29.433  24.097  23.787  1.00  0.00     0.166 HD
ATOM     23  C   UNL A   1      31.528  26.337  22.985  1.00  0.00     0.003 A 
ATOM     24  C   UNL A   1      30.232  28.576  23.289  1.00  0.00     0.047 C 
ATOM     25  C   UNL A   1      32.843  26.688  22.608  1.00  0.00     0.010 A 
ATOM     26  C   UNL A   1      33.474  24.346  22.601  1.00  0.00     0.016 A 
ATOM     27  C   UNL A   1      33.805  25.688  22.424  1.00  0.00     0.002 A 
ENDBRANCH  14  16
ENDBRANCH   9  14
BRANCH  13  28
ATOM     28  O   UNL A   1      33.162  21.479  28.007  1.00  0.00    -0.393 OA
ATOM     29  H   UNL A   1      32.421  22.101  27.938  1.00  0.00     0.210 HD
ENDBRANCH  13  28
ENDBRANCH   5   8
ENDBRANCH   3   4
ENDBRANCH   2   3
ENDBRANCH   1   2
BRANCH   1  30
ATOM     30  C   UNL A   1      33.583  29.192  27.229  1.00  0.00     0.116 C 
BRANCH  30  31
ATOM     31  N   UNL A   1      33.612  30.501  27.868  1.00  0.00    -0.352 N 
ATOM     32  C   UNL A   1      34.673  31.100  28.515  1.00  0.00     0.251 C 
ATOM     33  H   UNL A   1      32.777  31.020  27.833  1.00  0.00     0.163 HD
ATOM     34  O   UNL A   1      34.552  32.202  29.039  1.00  0.00    -0.269 OA
BRANCH  32  35
ATOM     35  C   UNL A   1      35.940  30.350  28.615  1.00  0.00     0.039 A 
ATOM     36  C   UNL A   1      36.850  30.427  27.560  1.00  0.00     0.014 A 
ATOM     37  C   UNL A   1      36.278  29.707  29.808  1.00  0.00     0.014 A 
ATOM     38  C   UNL A   1      38.147  29.945  27.742  1.00  0.00     0.010 A 
ATOM     39  C   UNL A   1      37.592  29.300  30.013  1.00  0.00     0.010 A 
ATOM     40  C   UNL A   1      38.543  29.430  28.988  1.00  0.00    -0.014 A 
BRANCH  40  41
ATOM     41  C   UNL A   1      39.954  29.052  29.250  1.00  0.00     0.031 A 
ATOM     42  C   UNL A   1      40.903  30.051  29.849  1.00  0.00     0.074 A 
ATOM     43  C   UNL A   1      40.401  27.835  28.874  1.00  0.00     0.049 A 
ATOM     44  N   UNL A   1      42.183  29.930  30.090  1.00  0.00    -0.248 NA
ATOM     45  C   UNL A   1      40.347  31.370  30.194  1.00  0.00     0.031 C 
ATOM     46  C   UNL A   1      39.597  26.796  28.223  1.00  0.00     0.029 A 
ATOM     47  N   UNL A   1      41.646  27.267  28.982  1.00  0.00    -0.354 N 
ATOM     48  C   UNL A   1      42.588  31.159  30.594  1.00  0.00     0.074 A 
ATOM     49  C   UNL A   1      41.432  32.028  30.574  1.00  0.00     0.031 C 
ATOM     50  C   UNL A   1      40.361  25.711  28.018  1.00  0.00     0.029 A 
ATOM     51  C   UNL A   1      41.714  25.984  28.491  1.00  0.00     0.049 A 
ATOM     52  H   UNL A   1      42.419  27.736  29.374  1.00  0.00     0.167 HD
ATOM     53  C   UNL A   1      43.809  31.527  31.052  1.00  0.00     0.031 A 
ATOM     54  C   UNL A   1      42.748  25.122  28.432  1.00  0.00     0.031 A 
ATOM     55  C   UNL A   1      44.950  30.656  31.095  1.00  0.00     0.049 A 
ATOM     56  C   UNL A   1      44.083  25.540  28.982  1.00  0.00     0.074 A 
ATOM     57  C   UNL A   1      46.215  30.917  31.594  1.00  0.00     0.029 A 
ATOM     58  N   UNL A   1      44.966  29.350  30.628  1.00  0.00    -0.354 N 
ATOM     59  N   UNL A   1      44.431  26.689  29.511  1.00  0.00    -0.248 NA
ATOM     60  C   UNL A   1      45.161  24.541  28.941  1.00  0.00     0.031 C 
ATOM     61  C   UNL A   1      47.003  29.778  31.402  1.00  0.00     0.029 A 
ATOM     62  C   UNL A   1      46.218  28.795  30.820  1.00  0.00     0.049 A 
ATOM     63  H   UNL A   1      44.198  28.887  30.220  1.00  0.00     0.167 HD
ATOM     64  C   UNL A   1      45.762  26.543  29.886  1.00  0.00     0.074 A 
ATOM     65  C   UNL A   1      46.152  25.192  29.536  1.00  0.00     0.031 C 
ATOM     66  C   UNL A   1      46.587  27.448  30.468  1.00  0.00     0.031 A 
BRANCH  53  67
ATOM     67  C   UNL A   1      43.956  32.937  31.555  1.00  0.00    -0.014 A 
ATOM     68  C   UNL A   1      44.267  33.988  30.673  1.00  0.00     0.010 A 
ATOM     69  C   UNL A   1      43.765  33.219  32.920  1.00  0.00     0.010 A 
ATOM     70  C   UNL A   1      44.432  35.288  31.153  1.00  0.00     0.020 A 
ATOM     71  C   UNL A   1      43.904  34.525  33.400  1.00  0.00     0.020 A 
ATOM     72  C   UNL A   1      44.256  35.547  32.515  1.00  0.00     0.054 A 
BRANCH  72  73
ATOM     73  S   UNL A   1      44.467  37.247  33.113  1.00  0.00     0.124 S 
ATOM     74  O   UNL A   1      43.114  37.580  33.549  1.00  0.00    -0.237 OA
ATOM     75  O   UNL A   1      45.451  37.094  34.180  1.00  0.00    -0.237 OA
ATOM     76  O   UNL A   1      44.938  37.971  31.934  1.00  0.00    -0.744 OA
ENDBRANCH  72  73
ENDBRANCH  53  67
BRANCH  54  77
ATOM     77  C   UNL A   1      42.551  23.764  27.857  1.00  0.00    -0.014 A 
ATOM     78  C   UNL A   1      42.127  22.702  28.674  1.00  0.00     0.010 A 
ATOM     79  C   UNL A   1      42.769  23.530  26.488  1.00  0.00     0.010 A 
ATOM     80  C   UNL A   1      41.939  21.425  28.136  1.00  0.00     0.020 A 
ATOM     81  C   UNL A   1      42.560  22.260  25.942  1.00  0.00     0.020 A 
ATOM     82  C   UNL A   1      42.156  21.213  26.773  1.00  0.00     0.054 A 
BRANCH  82  83
ATOM     83  S   UNL A   1      41.849  19.562  26.081  1.00  0.00     0.124 S 
ATOM     84  O   UNL A   1      42.271  18.693  27.173  1.00  0.00    -0.237 OA
ATOM     85  O   UNL A   1      40.413  19.592  25.813  1.00  0.00    -0.237 OA
ATOM     86  O   UNL A   1      42.695  19.532  24.889  1.00  0.00    -0.744 OA
ENDBRANCH  82  83
ENDBRANCH  54  77
BRANCH  66  87
ATOM     87  C   UNL A   1      47.984  27.001  30.791  1.00  0.00    -0.014 A 
ATOM     88  C   UNL A   1      49.023  27.130  29.852  1.00  0.00     0.010 A 
ATOM     89  C   UNL A   1      48.275  26.502  32.074  1.00  0.00     0.010 A 
ATOM     90  C   UNL A   1      50.324  26.743  30.183  1.00  0.00     0.020 A 
ATOM     91  C   UNL A   1      49.579  26.136  32.416  1.00  0.00     0.020 A 
ATOM     92  C   UNL A   1      50.593  26.248  31.462  1.00  0.00     0.054 A 
BRANCH  92  93
ATOM     93  S   UNL A   1      52.299  25.801  31.887  1.00  0.00     0.124 S 
ATOM     94  O   UNL A   1      52.530  26.595  33.090  1.00  0.00    -0.237 OA
ATOM     95  O   UNL A   1      52.212  24.357  32.094  1.00  0.00    -0.237 OA
ATOM     96  O   UNL A   1      53.066  26.209  30.712  1.00  0.00    -0.744 OA
ENDBRANCH  92  93
ENDBRANCH  66  87
ENDBRANCH  40  41
ENDBRANCH  32  35
ENDBRANCH  30  31
ENDBRANCH   1  30
TORSDOF 17
ENDMDL
MODEL 2
REMARK VINA RESULT:     -11.8      1.378      3.223
REMARK SMILES Cc1[nH]c2c(C(=O)N3CC[C@H](O)C[C@@H]3C(=O)NCCCCNC(=O)c3ccc(-c4c5nc(c(-c6ccc(S(=O)(=O)[O-])cc6)c6ccc([nH]6)c(-c6ccc(S(=O)(=O)[O-])cc6)c6nc(c(-c7ccc(S(=O)(=O)[O-])cc7)c7ccc4[nH]7)C=C6)C=C5)cc3)cccc2c1C
REMARK SMILES IDX 20 1 19 2 18 3 17 4 15 5 16 6 14 8 8 9 9 10 10 11 13 12
REMARK SMILES IDX 11 13 6 14 7 15 5 16 1 17 2 18 3 19 89 20 4 21 88 23 90 24
REMARK SMILES IDX 87 25 85 26 86 27 12 28 21 30 22 31 23 32 24 34 25 35 26 36
REMARK SMILES IDX 84 37 27 38 83 39 28 40 29 41 30 42 77 43 31 44 82 45 76 46
REMARK SMILES IDX 78 47 32 48 81 49 75 50 74 51 33 53 63 54 44 55 62 56 45 57
REMARK SMILES IDX 48 58 61 59 79 60 46 61 47 62 60 64 80 65 49 66 34 67 35 68
REMARK SMILES IDX 43 69 36 70 42 71 37 72 38 73 39 74 40 75 41 76 64 77 65 78
REMARK SMILES IDX 73 79 66 80 72 81 67 82 68 83 69 84 70 85 71 86 50 87 51 88
REMARK SMILES IDX 59 89 52 90 58 91 53 92 54 93 55 94 56 95 57 96
REMARK H PARENT 17 7 3 22 12 29 22 33 78 52 48 63
REMARK Flexibility Score: inf
ROOT
ATOM      1  C   UNL A   1      33.057  28.016  27.361  1.00  0.00     0.023 C 
ENDROOT
BRANCH   1   2
ATOM      2  C   UNL A   1      31.724  27.603  26.753  1.00  0.00     0.023 C 
BRANCH   2   3
ATOM      3  C   UNL A   1      31.699  26.242  26.060  1.00  0.00     0.116 C 
BRANCH   3   4
ATOM      4  N   UNL A   1      30.463  25.972  25.359  1.00  0.00    -0.354 N 
ATOM      5  C   UNL A   1      30.094  26.192  24.068  1.00  0.00     0.242 C 
ATOM      6  O   UNL A   1      28.872  26.154  23.861  1.00  0.00    -0.273 OA
ATOM      7  H   UNL A   1      29.766  25.554  25.914  1.00  0.00     0.163 HD
BRANCH   5   8
ATOM      8  C   UNL A   1      31.044  26.591  22.892  1.00  0.00     0.177 C 
ATOM      9  N   UNL A   1      32.491  26.342  22.970  1.00  0.00    -0.326 N 
ATOM     10  C   UNL A   1      33.405  27.399  23.397  1.00  0.00     0.123 C 
ATOM     11  C   UNL A   1      32.890  28.850  23.317  1.00  0.00     0.053 C 
ATOM     12  C   UNL A   1      30.735  27.961  22.304  1.00  0.00     0.067 C 
ATOM     13  C   UNL A   1      31.392  29.071  23.094  1.00  0.00     0.118 C 
BRANCH   9  14
ATOM     14  C   UNL A   1      33.012  25.345  22.139  1.00  0.00     0.256 C 
ATOM     15  O   UNL A   1      33.381  25.562  20.988  1.00  0.00    -0.269 OA
BRANCH  14  16
ATOM     16  C   UNL A   1      33.076  23.965  22.669  1.00  0.00     0.064 A 
ATOM     17  C   UNL A   1      37.181  23.936  25.502  1.00  0.00     0.064 C 
ATOM     18  C   UNL A   1      35.938  23.442  24.857  1.00  0.00     0.016 A 
ATOM     19  N   UNL A   1      35.220  24.221  23.986  1.00  0.00    -0.358 N 
ATOM     20  C   UNL A   1      35.270  22.235  24.988  1.00  0.00    -0.023 A 
ATOM     21  C   UNL A   1      34.109  23.554  23.530  1.00  0.00     0.059 A 
ATOM     22  H   UNL A   1      35.468  25.137  23.724  1.00  0.00     0.166 HD
ATOM     23  C   UNL A   1      34.103  22.309  24.160  1.00  0.00     0.003 A 
ATOM     24  C   UNL A   1      35.659  21.094  25.860  1.00  0.00     0.047 C 
ATOM     25  C   UNL A   1      33.022  21.434  23.918  1.00  0.00     0.010 A 
ATOM     26  C   UNL A   1      31.999  23.089  22.469  1.00  0.00     0.016 A 
ATOM     27  C   UNL A   1      31.977  21.836  23.077  1.00  0.00     0.002 A 
ENDBRANCH  14  16
ENDBRANCH   9  14
BRANCH  13  28
ATOM     28  O   UNL A   1      30.737  29.243  24.342  1.00  0.00    -0.393 OA
ATOM     29  H   UNL A   1      30.276  30.097  24.351  1.00  0.00     0.210 HD
ENDBRANCH  13  28
ENDBRANCH   5   8
ENDBRANCH   3   4
ENDBRANCH   2   3
ENDBRANCH   1   2
BRANCH   1  30
ATOM     30  C   UNL A   1      33.708  29.254  26.760  1.00  0.00     0.116 C 
BRANCH  30  31
ATOM     31  N   UNL A   1      33.635  30.447  27.593  1.00  0.00    -0.352 N 
ATOM     32  C   UNL A   1      34.606  30.946  28.436  1.00  0.00     0.251 C 
ATOM     33  H   UNL A   1      32.795  30.957  27.549  1.00  0.00     0.163 HD
ATOM     34  O   UNL A   1      34.403  31.950  29.108  1.00  0.00    -0.269 OA
BRANCH  32  35
ATOM     35  C   UNL A   1      35.875  30.201  28.555  1.00  0.00     0.039 A 
ATOM     36  C   UNL A   1      36.762  30.211  27.477  1.00  0.00     0.014 A 
ATOM     37  C   UNL A   1      36.239  29.632  29.777  1.00  0.00     0.014 A 
ATOM     38  C   UNL A   1      38.062  29.738  27.660  1.00  0.00     0.010 A 
ATOM     39  C   UNL A   1      37.556  29.237  29.978  1.00  0.00     0.010 A 
ATOM     40  C   UNL A   1      38.485  29.301  28.927  1.00  0.00    -0.014 A 
BRANCH  40  41
ATOM     41  C   UNL A   1      39.901  28.936  29.180  1.00  0.00     0.031 A 
ATOM     42  C   UNL A   1      40.844  29.946  29.770  1.00  0.00     0.074 A 
ATOM     43  C   UNL A   1      40.356  27.723  28.805  1.00  0.00     0.049 A 
ATOM     44  N   UNL A   1      42.127  29.837  30.004  1.00  0.00    -0.248 NA
ATOM     45  C   UNL A   1      40.278  31.261  30.115  1.00  0.00     0.031 C 
ATOM     46  C   UNL A   1      39.558  26.674  28.162  1.00  0.00     0.029 A 
ATOM     47  N   UNL A   1      41.608  27.167  28.906  1.00  0.00    -0.354 N 
ATOM     48  C   UNL A   1      42.524  31.072  30.501  1.00  0.00     0.074 A 
ATOM     49  C   UNL A   1      41.360  31.930  30.487  1.00  0.00     0.031 C 
ATOM     50  C   UNL A   1      40.332  25.596  27.955  1.00  0.00     0.029 A 
ATOM     51  C   UNL A   1      41.685  25.883  28.419  1.00  0.00     0.049 A 
ATOM     52  H   UNL A   1      42.379  27.643  29.292  1.00  0.00     0.167 HD
ATOM     53  C   UNL A   1      43.744  31.452  30.951  1.00  0.00     0.031 A 
ATOM     54  C   UNL A   1      42.726  25.031  28.355  1.00  0.00     0.031 A 
ATOM     55  C   UNL A   1      44.894  30.592  30.989  1.00  0.00     0.049 A 
ATOM     56  C   UNL A   1      44.061  25.462  28.896  1.00  0.00     0.074 A 
ATOM     57  C   UNL A   1      46.159  30.867  31.479  1.00  0.00     0.029 A 
ATOM     58  N   UNL A   1      44.918  29.285  30.526  1.00  0.00    -0.354 N 
ATOM     59  N   UNL A   1      44.401  26.616  29.419  1.00  0.00    -0.248 NA
ATOM     60  C   UNL A   1      45.148  24.474  28.850  1.00  0.00     0.031 C 
ATOM     61  C   UNL A   1      46.956  29.734  31.285  1.00  0.00     0.029 A 
ATOM     62  C   UNL A   1      46.177  28.743  30.711  1.00  0.00     0.049 A 
ATOM     63  H   UNL A   1      44.153  28.814  30.123  1.00  0.00     0.167 HD
ATOM     64  C   UNL A   1      45.736  26.484  29.786  1.00  0.00     0.074 A 
ATOM     65  C   UNL A   1      46.136  25.136  29.437  1.00  0.00     0.031 C 
ATOM     66  C   UNL A   1      46.556  27.398  30.361  1.00  0.00     0.031 A 
BRANCH  53  67
ATOM     67  C   UNL A   1      43.881  32.865  31.449  1.00  0.00    -0.014 A 
ATOM     68  C   UNL A   1      44.218  33.910  30.569  1.00  0.00     0.010 A 
ATOM     69  C   UNL A   1      43.654  33.156  32.806  1.00  0.00     0.010 A 
ATOM     70  C   UNL A   1      44.374  35.213  31.046  1.00  0.00     0.020 A 
ATOM     71  C   UNL A   1      43.783  34.464  33.282  1.00  0.00     0.020 A 
ATOM     72  C   UNL A   1      44.162  35.480  32.401  1.00  0.00     0.054 A 
BRANCH  72  73
ATOM     73  S   UNL A   1      44.361  37.184  32.993  1.00  0.00     0.124 S 
ATOM     74  O   UNL A   1      45.423  37.033  33.984  1.00  0.00    -0.237 OA
ATOM     75  O   UNL A   1      44.732  37.906  31.779  1.00  0.00    -0.237 OA
ATOM     76  O   UNL A   1      43.045  37.516  33.534  1.00  0.00    -0.744 OA
ENDBRANCH  72  73
ENDBRANCH  53  67
BRANCH  54  77
ATOM     77  C   UNL A   1      42.538  23.669  27.786  1.00  0.00    -0.014 A 
ATOM     78  C   UNL A   1      42.775  23.430  26.421  1.00  0.00     0.010 A 
ATOM     79  C   UNL A   1      42.139  22.601  28.608  1.00  0.00     0.010 A 
ATOM     80  C   UNL A   1      42.601  22.152  25.884  1.00  0.00     0.020 A 
ATOM     81  C   UNL A   1      41.985  21.315  28.080  1.00  0.00     0.020 A 
ATOM     82  C   UNL A   1      42.208  21.102  26.717  1.00  0.00     0.054 A 
BRANCH  82  83
ATOM     83  S   UNL A   1      42.045  19.436  26.014  1.00  0.00     0.124 S 
ATOM     84  O   UNL A   1      40.607  19.339  25.793  1.00  0.00    -0.237 OA
ATOM     85  O   UNL A   1      42.868  19.518  24.810  1.00  0.00    -0.237 OA
ATOM     86  O   UNL A   1      42.580  18.571  27.065  1.00  0.00    -0.744 OA
ENDBRANCH  82  83
ENDBRANCH  54  77
BRANCH  66  87
ATOM     87  C   UNL A   1      47.960  26.965  30.676  1.00  0.00    -0.014 A 
ATOM     88  C   UNL A   1      49.020  27.246  29.796  1.00  0.00     0.010 A 
ATOM     89  C   UNL A   1      48.230  26.323  31.898  1.00  0.00     0.010 A 
ATOM     90  C   UNL A   1      50.325  26.868  30.123  1.00  0.00     0.020 A 
ATOM     91  C   UNL A   1      49.537  25.964  32.238  1.00  0.00     0.020 A 
ATOM     92  C   UNL A   1      50.575  26.229  31.341  1.00  0.00     0.054 A 
BRANCH  92  93
ATOM     93  S   UNL A   1      52.283  25.794  31.768  1.00  0.00     0.124 S 
ATOM     94  O   UNL A   1      52.148  24.399  32.178  1.00  0.00    -0.237 OA
ATOM     95  O   UNL A   1      52.996  26.013  30.512  1.00  0.00    -0.237 OA
ATOM     96  O   UNL A   1      52.621  26.729  32.839  1.00  0.00    -0.744 OA
ENDBRANCH  92  93
ENDBRANCH  66  87
ENDBRANCH  40  41
ENDBRANCH  32  35
ENDBRANCH  30  31
ENDBRANCH   1  30
TORSDOF 17
ENDMDL
MODEL 3
REMARK VINA RESULT:     -11.7      4.114      5.183
REMARK SMILES Cc1[nH]c2c(C(=O)N3CC[C@H](O)C[C@@H]3C(=O)NCCCCNC(=O)c3ccc(-c4c5nc(c(-c6ccc(S(=O)(=O)[O-])cc6)c6ccc([nH]6)c(-c6ccc(S(=O)(=O)[O-])cc6)c6nc(c(-c7ccc(S(=O)(=O)[O-])cc7)c7ccc4[nH]7)C=C6)C=C5)cc3)cccc2c1C
REMARK SMILES IDX 20 1 19 2 18 3 17 4 15 5 16 6 14 8 8 9 9 10 10 11 13 12
REMARK SMILES IDX 11 13 6 14 7 15 5 16 1 17 2 18 3 19 89 20 4 21 88 23 90 24
REMARK SMILES IDX 87 25 85 26 86 27 12 28 21 30 22 31 23 32 24 34 25 35 26 36
REMARK SMILES IDX 84 37 27 38 83 39 28 40 29 41 30 42 77 43 31 44 82 45 76 46
REMARK SMILES IDX 78 47 32 48 81 49 75 50 74 51 33 53 63 54 44 55 62 56 45 57
REMARK SMILES IDX 48 58 61 59 79 60 46 61 47 62 60 64 80 65 49 66 34 67 35 68
REMARK SMILES IDX 43 69 36 70 42 71 37 72 38 73 39 74 40 75 41 76 64 77 65 78
REMARK SMILES IDX 73 79 66 80 72 81 67 82 68 83 69 84 70 85 71 86 50 87 51 88
REMARK SMILES IDX 59 89 52 90 58 91 53 92 54 93 55 94 56 95 57 96
REMARK H PARENT 17 7 3 22 12 29 22 33 78 52 48 63
REMARK Flexibility Score: inf
ROOT
ATOM      1  C   UNL A   1      33.001  30.513  26.621  1.00  0.00     0.023 C 
ENDROOT
BRANCH   1   2
ATOM      2  C   UNL A   1      32.152  29.394  27.210  1.00  0.00     0.023 C 
BRANCH   2   3
ATOM      3  C   UNL A   1      32.516  27.977  26.772  1.00  0.00     0.116 C 
BRANCH   3   4
ATOM      4  N   UNL A   1      31.466  27.011  27.006  1.00  0.00    -0.354 N 
ATOM      5  C   UNL A   1      31.240  25.780  26.474  1.00  0.00     0.242 C 
ATOM      6  O   UNL A   1      30.089  25.345  26.634  1.00  0.00    -0.273 OA
ATOM      7  H   UNL A   1      30.796  27.295  27.670  1.00  0.00     0.163 HD
BRANCH   5   8
ATOM      8  C   UNL A   1      32.243  24.951  25.609  1.00  0.00     0.177 C 
ATOM      9  N   UNL A   1      31.834  24.369  24.323  1.00  0.00    -0.326 N 
ATOM     10  C   UNL A   1      31.398  22.977  24.242  1.00  0.00     0.123 C 
ATOM     11  C   UNL A   1      31.807  22.043  25.398  1.00  0.00     0.053 C 
ATOM     12  C   UNL A   1      33.088  23.983  26.426  1.00  0.00     0.067 C 
ATOM     13  C   UNL A   1      32.363  22.678  26.674  1.00  0.00     0.118 C 
BRANCH   9  14
ATOM     14  C   UNL A   1      32.375  24.937  23.164  1.00  0.00     0.256 C 
ATOM     15  O   UNL A   1      32.837  24.265  22.246  1.00  0.00    -0.269 OA
BRANCH  14  16
ATOM     16  C   UNL A   1      32.426  26.413  23.075  1.00  0.00     0.064 A 
ATOM     17  C   UNL A   1      27.661  27.824  23.500  1.00  0.00     0.064 C 
ATOM     18  C   UNL A   1      29.135  27.941  23.366  1.00  0.00     0.016 A 
ATOM     19  N   UNL A   1      29.939  26.836  23.262  1.00  0.00    -0.358 N 
ATOM     20  C   UNL A   1      29.954  29.059  23.347  1.00  0.00    -0.023 A 
ATOM     21  C   UNL A   1      31.261  27.196  23.159  1.00  0.00     0.059 A 
ATOM     22  H   UNL A   1      29.612  25.908  23.262  1.00  0.00     0.166 HD
ATOM     23  C   UNL A   1      31.302  28.589  23.231  1.00  0.00     0.003 A 
ATOM     24  C   UNL A   1      29.525  30.478  23.474  1.00  0.00     0.047 C 
ATOM     25  C   UNL A   1      32.561  29.229  23.215  1.00  0.00     0.010 A 
ATOM     26  C   UNL A   1      33.664  27.072  23.092  1.00  0.00     0.016 A 
ATOM     27  C   UNL A   1      33.730  28.462  23.150  1.00  0.00     0.002 A 
ENDBRANCH  14  16
ENDBRANCH   9  14
BRANCH  13  28
ATOM     28  O   UNL A   1      31.317  22.867  27.616  1.00  0.00    -0.393 OA
ATOM     29  H   UNL A   1      31.611  23.485  28.305  1.00  0.00     0.210 HD
ENDBRANCH  13  28
ENDBRANCH   5   8
ENDBRANCH   3   4
ENDBRANCH   2   3
ENDBRANCH   1   2
BRANCH   1  30
ATOM     30  C   UNL A   1      33.672  31.438  27.626  1.00  0.00     0.116 C 
BRANCH  30  31
ATOM     31  N   UNL A   1      33.135  32.792  27.662  1.00  0.00    -0.352 N 
ATOM     32  C   UNL A   1      33.549  33.842  28.454  1.00  0.00     0.251 C 
ATOM     33  H   UNL A   1      32.388  32.979  27.050  1.00  0.00     0.163 HD
ATOM     34  O   UNL A   1      32.986  34.930  28.406  1.00  0.00    -0.269 OA
BRANCH  32  35
ATOM     35  C   UNL A   1      34.650  33.603  29.407  1.00  0.00     0.039 A 
ATOM     36  C   UNL A   1      34.395  32.842  30.549  1.00  0.00     0.014 A 
ATOM     37  C   UNL A   1      35.950  34.002  29.088  1.00  0.00     0.014 A 
ATOM     38  C   UNL A   1      35.467  32.391  31.321  1.00  0.00     0.010 A 
ATOM     39  C   UNL A   1      37.018  33.485  29.812  1.00  0.00     0.010 A 
ATOM     40  C   UNL A   1      36.788  32.661  30.926  1.00  0.00    -0.014 A 
BRANCH  40  41
ATOM     41  C   UNL A   1      37.942  32.066  31.645  1.00  0.00     0.031 A 
ATOM     42  C   UNL A   1      38.370  32.623  32.973  1.00  0.00     0.074 A 
ATOM     43  C   UNL A   1      38.653  31.077  31.064  1.00  0.00     0.049 A 
ATOM     44  N   UNL A   1      39.389  32.283  33.719  1.00  0.00    -0.248 NA
ATOM     45  C   UNL A   1      37.566  33.729  33.519  1.00  0.00     0.031 C 
ATOM     46  C   UNL A   1      38.382  30.491  29.748  1.00  0.00     0.029 A 
ATOM     47  N   UNL A   1      39.758  30.392  31.507  1.00  0.00    -0.354 N 
ATOM     48  C   UNL A   1      39.360  33.143  34.809  1.00  0.00     0.074 A 
ATOM     49  C   UNL A   1      38.256  34.055  34.602  1.00  0.00     0.031 C 
ATOM     50  C   UNL A   1      39.274  29.517  29.506  1.00  0.00     0.029 A 
ATOM     51  C   UNL A   1      40.201  29.429  30.630  1.00  0.00     0.049 A 
ATOM     52  H   UNL A   1      40.193  30.573  32.372  1.00  0.00     0.167 HD
ATOM     53  C   UNL A   1      40.166  33.160  35.898  1.00  0.00     0.031 A 
ATOM     54  C   UNL A   1      41.234  28.570  30.721  1.00  0.00     0.031 A 
ATOM     55  C   UNL A   1      41.247  32.239  36.116  1.00  0.00     0.049 A 
ATOM     56  C   UNL A   1      42.091  28.582  31.956  1.00  0.00     0.074 A 
ATOM     57  C   UNL A   1      42.085  32.139  37.212  1.00  0.00     0.029 A 
ATOM     58  N   UNL A   1      41.635  31.251  35.223  1.00  0.00    -0.354 N 
ATOM     59  N   UNL A   1      42.010  29.365  33.005  1.00  0.00    -0.248 NA
ATOM     60  C   UNL A   1      43.171  27.587  32.026  1.00  0.00     0.031 C 
ATOM     61  C   UNL A   1      43.000  31.109  36.969  1.00  0.00     0.029 A 
ATOM     62  C   UNL A   1      42.704  30.542  35.739  1.00  0.00     0.049 A 
ATOM     63  H   UNL A   1      41.212  31.081  34.350  1.00  0.00     0.167 HD
ATOM     64  C   UNL A   1      43.013  28.942  33.870  1.00  0.00     0.074 A 
ATOM     65  C   UNL A   1      43.679  27.827  33.227  1.00  0.00     0.031 C 
ATOM     66  C   UNL A   1      43.352  29.433  35.087  1.00  0.00     0.031 A 
BRANCH  53  67
ATOM     67  C   UNL A   1      39.891  34.211  36.938  1.00  0.00    -0.014 A 
ATOM     68  C   UNL A   1      40.488  35.482  36.855  1.00  0.00     0.010 A 
ATOM     69  C   UNL A   1      39.013  33.932  38.002  1.00  0.00     0.010 A 
ATOM     70  C   UNL A   1      40.251  36.440  37.843  1.00  0.00     0.020 A 
ATOM     71  C   UNL A   1      38.753  34.898  38.978  1.00  0.00     0.020 A 
ATOM     72  C   UNL A   1      39.390  36.140  38.902  1.00  0.00     0.054 A 
BRANCH  72  73
ATOM     73  S   UNL A   1      39.091  37.406  40.166  1.00  0.00     0.124 S 
ATOM     74  O   UNL A   1      38.528  36.612  41.256  1.00  0.00    -0.237 OA
ATOM     75  O   UNL A   1      40.427  37.944  40.406  1.00  0.00    -0.237 OA
ATOM     76  O   UNL A   1      38.159  38.326  39.519  1.00  0.00    -0.744 OA
ENDBRANCH  72  73
ENDBRANCH  53  67
BRANCH  54  77
ATOM     77  C   UNL A   1      41.494  27.601  29.622  1.00  0.00    -0.014 A 
ATOM     78  C   UNL A   1      40.607  26.535  29.390  1.00  0.00     0.010 A 
ATOM     79  C   UNL A   1      42.618  27.749  28.792  1.00  0.00     0.010 A 
ATOM     80  C   UNL A   1      40.848  25.625  28.356  1.00  0.00     0.020 A 
ATOM     81  C   UNL A   1      42.851  26.854  27.742  1.00  0.00     0.020 A 
ATOM     82  C   UNL A   1      41.968  25.791  27.539  1.00  0.00     0.054 A 
BRANCH  82  83
ATOM     83  S   UNL A   1      42.232  24.634  26.165  1.00  0.00     0.124 S 
ATOM     84  O   UNL A   1      41.939  25.468  25.005  1.00  0.00    -0.237 OA
ATOM     85  O   UNL A   1      43.632  24.253  26.335  1.00  0.00    -0.237 OA
ATOM     86  O   UNL A   1      41.269  23.566  26.431  1.00  0.00    -0.744 OA
ENDBRANCH  82  83
ENDBRANCH  54  77
BRANCH  66  87
ATOM     87  C   UNL A   1      44.474  28.752  35.819  1.00  0.00    -0.014 A 
ATOM     88  C   UNL A   1      45.801  29.195  35.686  1.00  0.00     0.010 A 
ATOM     89  C   UNL A   1      44.186  27.694  36.700  1.00  0.00     0.010 A 
ATOM     90  C   UNL A   1      46.827  28.574  36.403  1.00  0.00     0.020 A 
ATOM     91  C   UNL A   1      45.206  27.086  37.436  1.00  0.00     0.020 A 
ATOM     92  C   UNL A   1      46.522  27.523  37.273  1.00  0.00     0.054 A 
BRANCH  92  93
ATOM     93  S   UNL A   1      47.862  26.764  38.232  1.00  0.00     0.124 S 
ATOM     94  O   UNL A   1      47.318  25.439  38.517  1.00  0.00    -0.237 OA
ATOM     95  O   UNL A   1      48.985  26.795  37.299  1.00  0.00    -0.237 OA
ATOM     96  O   UNL A   1      47.998  27.644  39.390  1.00  0.00    -0.744 OA
ENDBRANCH  92  93
ENDBRANCH  66  87
ENDBRANCH  40  41
ENDBRANCH  32  35
ENDBRANCH  30  31
ENDBRANCH   1  30
TORSDOF 17
ENDMDL
