MODEL 1
REMARK VINA RESULT:     -11.6      0.000      0.000
REMARK SMILES O=C(NCCCCNC(=O)c1cc(Cl)ncc1-c1cccc(C(F)(F)F)c1)c1ccc(-c2c3nc(c(-c4ccc(S(=O)(=O)[O-])cc4)c4ccc([nH]4)c(-c4ccc(S(=O)(=O)[O-])cc4)c4nc(c(-c5ccc(S(=O)(=O)[O-])cc5)c5ccc2[nH]5)C=C4)C=C3)cc1
REMARK SMILES IDX 5 1 4 2 3 3 1 4 2 5 28 7 29 8 87 9 30 10 86 11 31 12 32 13
REMARK SMILES IDX 33 14 80 15 34 16 85 17 79 18 81 19 35 20 84 21 78 22 77 23
REMARK SMILES IDX 36 25 66 26 47 27 65 28 48 29 51 30 64 31 82 32 49 33 50 34
REMARK SMILES IDX 63 36 83 37 52 38 37 39 38 40 46 41 39 42 45 43 40 44 41 45
REMARK SMILES IDX 42 46 43 47 44 48 67 49 68 50 76 51 69 52 75 53 70 54 71 55
REMARK SMILES IDX 72 56 73 57 74 58 53 59 54 60 62 61 55 62 61 63 56 64 57 65
REMARK SMILES IDX 58 66 59 67 60 68 6 69 7 70 8 71 9 72 10 74 11 75 12 76
REMARK SMILES IDX 17 77 13 78 16 79 14 80 15 81 18 82 19 83 27 84 20 85 22 86
REMARK SMILES IDX 21 87 23 88 24 89 25 90 26 91
REMARK H PARENT 3 6 81 24 51 35 8 73
REMARK Flexibility Score: inf
ROOT
ATOM      1  C   UNL A   1      31.896  31.308  26.795  1.00  0.00     0.023 C 
ENDROOT
BRANCH   1   2
ATOM      2  C   UNL A   1      33.066  32.078  27.392  1.00  0.00     0.116 C 
BRANCH   2   3
ATOM      3  N   UNL A   1      32.766  33.478  27.647  1.00  0.00    -0.352 N 
ATOM      4  O   UNL A   1      32.854  35.461  28.719  1.00  0.00    -0.269 OA
ATOM      5  C   UNL A   1      33.327  34.339  28.564  1.00  0.00     0.251 C 
ATOM      6  H   UNL A   1      32.058  33.867  27.084  1.00  0.00     0.163 HD
BRANCH   5   7
ATOM      7  C   UNL A   1      34.478  33.894  29.381  1.00  0.00     0.039 A 
ATOM      8  C   UNL A   1      35.780  34.250  29.030  1.00  0.00     0.014 A 
ATOM      9  C   UNL A   1      34.248  33.090  30.502  1.00  0.00     0.014 A 
ATOM     10  C   UNL A   1      36.856  33.662  29.686  1.00  0.00     0.010 A 
ATOM     11  C   UNL A   1      35.334  32.581  31.222  1.00  0.00     0.010 A 
ATOM     12  C   UNL A   1      36.647  32.827  30.795  1.00  0.00    -0.014 A 
BRANCH  12  13
ATOM     13  C   UNL A   1      37.819  32.267  31.518  1.00  0.00     0.031 A 
ATOM     14  C   UNL A   1      38.241  32.802  32.860  1.00  0.00     0.074 A 
ATOM     15  C   UNL A   1      38.493  31.241  30.960  1.00  0.00     0.049 A 
ATOM     16  N   UNL A   1      39.219  32.403  33.633  1.00  0.00    -0.248 NA
ATOM     17  C   UNL A   1      37.473  33.934  33.402  1.00  0.00     0.031 C 
ATOM     18  C   UNL A   1      38.177  30.632  29.664  1.00  0.00     0.029 A 
ATOM     19  N   UNL A   1      39.562  30.514  31.417  1.00  0.00    -0.354 N 
ATOM     20  C   UNL A   1      39.202  33.246  34.739  1.00  0.00     0.074 A 
ATOM     21  C   UNL A   1      38.132  34.197  34.522  1.00  0.00     0.031 C 
ATOM     22  C   UNL A   1      38.995  29.591  29.458  1.00  0.00     0.029 A 
ATOM     23  C   UNL A   1      39.938  29.501  30.566  1.00  0.00     0.049 A 
ATOM     24  H   UNL A   1      40.016  30.700  32.270  1.00  0.00     0.167 HD
ATOM     25  C   UNL A   1      40.002  33.229  35.834  1.00  0.00     0.031 A 
ATOM     26  C   UNL A   1      40.938  28.605  30.656  1.00  0.00     0.031 A 
ATOM     27  C   UNL A   1      41.073  32.285  36.038  1.00  0.00     0.049 A 
ATOM     28  C   UNL A   1      41.837  28.634  31.856  1.00  0.00     0.074 A 
ATOM     29  C   UNL A   1      41.920  32.165  37.127  1.00  0.00     0.029 A 
ATOM     30  N   UNL A   1      41.453  31.308  35.129  1.00  0.00    -0.354 N 
ATOM     31  N   UNL A   1      41.784  29.418  32.905  1.00  0.00    -0.248 NA
ATOM     32  C   UNL A   1      42.930  27.654  31.885  1.00  0.00     0.031 C 
ATOM     33  C   UNL A   1      42.851  31.158  36.848  1.00  0.00     0.029 A 
ATOM     34  C   UNL A   1      42.541  30.601  35.617  1.00  0.00     0.049 A 
ATOM     35  H   UNL A   1      41.015  31.140  34.263  1.00  0.00     0.167 HD
ATOM     36  C   UNL A   1      42.821  29.010  33.735  1.00  0.00     0.074 A 
ATOM     37  C   UNL A   1      43.475  27.901  33.068  1.00  0.00     0.031 C 
ATOM     38  C   UNL A   1      43.193  29.506  34.941  1.00  0.00     0.031 A 
BRANCH  25  39
ATOM     39  C   UNL A   1      39.777  34.296  36.878  1.00  0.00    -0.014 A 
ATOM     40  C   UNL A   1      40.376  35.565  36.777  1.00  0.00     0.010 A 
ATOM     41  C   UNL A   1      38.935  34.028  37.974  1.00  0.00     0.010 A 
ATOM     42  C   UNL A   1      40.186  36.521  37.781  1.00  0.00     0.020 A 
ATOM     43  C   UNL A   1      38.717  34.992  38.963  1.00  0.00     0.020 A 
ATOM     44  C   UNL A   1      39.366  36.223  38.873  1.00  0.00     0.054 A 
BRANCH  44  45
ATOM     45  S   UNL A   1      39.153  37.474  40.170  1.00  0.00     0.124 S 
ATOM     46  O   UNL A   1      40.523  37.954  40.351  1.00  0.00    -0.237 OA
ATOM     47  O   UNL A   1      38.232  38.424  39.553  1.00  0.00    -0.237 OA
ATOM     48  O   UNL A   1      38.606  36.719  41.294  1.00  0.00    -0.744 OA
ENDBRANCH  44  45
ENDBRANCH  25  39
BRANCH  26  49
ATOM     49  C   UNL A   1      41.123  27.607  29.568  1.00  0.00    -0.014 A 
ATOM     50  C   UNL A   1      42.301  27.599  28.801  1.00  0.00     0.010 A 
ATOM     51  C   UNL A   1      40.144  26.622  29.333  1.00  0.00     0.010 A 
ATOM     52  C   UNL A   1      42.497  26.625  27.819  1.00  0.00     0.020 A 
ATOM     53  C   UNL A   1      40.350  25.630  28.373  1.00  0.00     0.020 A 
ATOM     54  C   UNL A   1      41.523  25.640  27.617  1.00  0.00     0.054 A 
BRANCH  54  55
ATOM     55  S   UNL A   1      41.838  24.340  26.393  1.00  0.00     0.124 S 
ATOM     56  O   UNL A   1      42.915  23.583  27.024  1.00  0.00    -0.237 OA
ATOM     57  O   UNL A   1      40.546  23.662  26.314  1.00  0.00    -0.237 OA
ATOM     58  O   UNL A   1      42.215  25.085  25.193  1.00  0.00    -0.744 OA
ENDBRANCH  54  55
ENDBRANCH  26  49
BRANCH  38  59
ATOM     59  C   UNL A   1      44.342  28.827  35.640  1.00  0.00    -0.014 A 
ATOM     60  C   UNL A   1      44.147  27.686  36.438  1.00  0.00     0.010 A 
ATOM     61  C   UNL A   1      45.647  29.321  35.459  1.00  0.00     0.010 A 
ATOM     62  C   UNL A   1      45.231  27.073  37.072  1.00  0.00     0.020 A 
ATOM     63  C   UNL A   1      46.737  28.693  36.066  1.00  0.00     0.020 A 
ATOM     64  C   UNL A   1      46.520  27.582  36.881  1.00  0.00     0.054 A 
BRANCH  64  65
ATOM     65  S   UNL A   1      47.916  26.746  37.684  1.00  0.00     0.124 S 
ATOM     66  O   UNL A   1      48.469  25.957  36.586  1.00  0.00    -0.237 OA
ATOM     67  O   UNL A   1      48.743  27.864  38.133  1.00  0.00    -0.237 OA
ATOM     68  O   UNL A   1      47.290  25.973  38.753  1.00  0.00    -0.744 OA
ENDBRANCH  64  65
ENDBRANCH  38  59
ENDBRANCH  12  13
ENDBRANCH   5   7
ENDBRANCH   2   3
ENDBRANCH   1   2
BRANCH   1  69
ATOM     69  C   UNL A   1      32.268  30.233  25.778  1.00  0.00     0.023 C 
BRANCH  69  70
ATOM     70  C   UNL A   1      32.763  28.918  26.368  1.00  0.00     0.116 C 
BRANCH  70  71
ATOM     71  N   UNL A   1      31.686  28.031  26.783  1.00  0.00    -0.352 N 
ATOM     72  C   UNL A   1      31.152  26.943  26.140  1.00  0.00     0.252 C 
ATOM     73  H   UNL A   1      31.278  28.245  27.654  1.00  0.00     0.163 HD
ATOM     74  O   UNL A   1      30.242  26.296  26.648  1.00  0.00    -0.269 OA
BRANCH  72  75
ATOM     75  C   UNL A   1      31.695  26.540  24.829  1.00  0.00     0.052 A 
ATOM     76  C   UNL A   1      32.812  25.699  24.822  1.00  0.00     0.055 A 
ATOM     77  C   UNL A   1      31.092  26.956  23.630  1.00  0.00     0.013 A 
ATOM     78  C   UNL A   1      33.352  25.368  23.601  1.00  0.00     0.129 A 
ATOM     79  C   UNL A   1      31.736  26.538  22.464  1.00  0.00     0.122 A 
ATOM     80  Cl  UNL A   1      34.772  24.415  23.495  1.00  0.00    -0.062 Cl
ATOM     81  N   UNL A   1      32.854  25.773  22.419  1.00  0.00    -0.244 NA
BRANCH  77  82
ATOM     82  C   UNL A   1      29.865  27.763  23.540  1.00  0.00    -0.015 A 
ATOM     83  C   UNL A   1      28.609  27.133  23.507  1.00  0.00     0.009 A 
ATOM     84  C   UNL A   1      29.904  29.165  23.467  1.00  0.00     0.021 A 
ATOM     85  C   UNL A   1      27.431  27.875  23.403  1.00  0.00     0.001 A 
ATOM     86  C   UNL A   1      28.724  29.925  23.370  1.00  0.00     0.056 A 
ATOM     87  C   UNL A   1      27.488  29.263  23.333  1.00  0.00     0.013 A 
BRANCH  86  88
ATOM     88  C   UNL A   1      28.767  31.432  23.297  1.00  0.00     0.416 C 
ATOM     89  F   UNL A   1      27.533  31.987  23.459  1.00  0.00    -0.166 F 
ATOM     90  F   UNL A   1      29.554  31.982  24.261  1.00  0.00    -0.166 F 
ATOM     91  F   UNL A   1      29.235  31.906  22.109  1.00  0.00    -0.166 F 
ENDBRANCH  86  88
ENDBRANCH  77  82
ENDBRANCH  72  75
ENDBRANCH  70  71
ENDBRANCH  69  70
ENDBRANCH   1  69
TORSDOF 16
ENDMDL
MODEL 2
REMARK VINA RESULT:     -11.5      6.060      8.092
REMARK SMILES O=C(NCCCCNC(=O)c1cc(Cl)ncc1-c1cccc(C(F)(F)F)c1)c1ccc(-c2c3nc(c(-c4ccc(S(=O)(=O)[O-])cc4)c4ccc([nH]4)c(-c4ccc(S(=O)(=O)[O-])cc4)c4nc(c(-c5ccc(S(=O)(=O)[O-])cc5)c5ccc2[nH]5)C=C4)C=C3)cc1
REMARK SMILES IDX 5 1 4 2 3 3 1 4 2 5 28 7 29 8 87 9 30 10 86 11 31 12 32 13
REMARK SMILES IDX 33 14 80 15 34 16 85 17 79 18 81 19 35 20 84 21 78 22 77 23
REMARK SMILES IDX 36 25 66 26 47 27 65 28 48 29 51 30 64 31 82 32 49 33 50 34
REMARK SMILES IDX 63 36 83 37 52 38 37 39 38 40 46 41 39 42 45 43 40 44 41 45
REMARK SMILES IDX 42 46 43 47 44 48 67 49 68 50 76 51 69 52 75 53 70 54 71 55
REMARK SMILES IDX 72 56 73 57 74 58 53 59 54 60 62 61 55 62 61 63 56 64 57 65
REMARK SMILES IDX 58 66 59 67 60 68 6 69 7 70 8 71 9 72 10 74 11 75 12 76
REMARK SMILES IDX 17 77 13 78 16 79 14 80 15 81 18 82 19 83 27 84 20 85 22 86
REMARK SMILES IDX 21 87 23 88 24 89 25 90 26 91
REMARK H PARENT 3 6 81 24 51 35 8 73
REMARK Flexibility Score: inf
ROOT
ATOM      1  C   UNL A   1      34.337  30.242  27.196  1.00  0.00     0.023 C 
ENDROOT
BRANCH   1   2
ATOM      2  C   UNL A   1      35.406  29.523  28.007  1.00  0.00     0.116 C 
BRANCH   2   3
ATOM      3  N   UNL A   1      35.336  29.807  29.433  1.00  0.00    -0.352 N 
ATOM      4  O   UNL A   1      36.073  29.962  31.559  1.00  0.00    -0.269 OA
ATOM      5  C   UNL A   1      36.345  29.821  30.370  1.00  0.00     0.251 C 
ATOM      6  H   UNL A   1      34.439  30.017  29.777  1.00  0.00     0.163 HD
BRANCH   5   7
ATOM      7  C   UNL A   1      37.749  29.634  29.942  1.00  0.00     0.039 A 
ATOM      8  C   UNL A   1      38.141  29.932  28.637  1.00  0.00     0.014 A 
ATOM      9  C   UNL A   1      38.679  29.130  30.856  1.00  0.00     0.014 A 
ATOM     10  C   UNL A   1      39.407  29.563  28.196  1.00  0.00     0.010 A 
ATOM     11  C   UNL A   1      39.984  28.853  30.435  1.00  0.00     0.010 A 
ATOM     12  C   UNL A   1      40.347  29.027  29.091  1.00  0.00    -0.014 A 
BRANCH  12  13
ATOM     13  C   UNL A   1      41.715  28.705  28.606  1.00  0.00     0.031 A 
ATOM     14  C   UNL A   1      42.807  29.740  28.598  1.00  0.00     0.074 A 
ATOM     15  C   UNL A   1      41.975  27.448  28.192  1.00  0.00     0.049 A 
ATOM     16  N   UNL A   1      44.059  29.611  28.236  1.00  0.00    -0.248 NA
ATOM     17  C   UNL A   1      42.450  31.095  29.045  1.00  0.00     0.031 C 
ATOM     18  C   UNL A   1      40.999  26.355  28.157  1.00  0.00     0.029 A 
ATOM     19  N   UNL A   1      43.136  26.871  27.747  1.00  0.00    -0.354 N 
ATOM     20  C   UNL A   1      44.634  30.869  28.388  1.00  0.00     0.074 A 
ATOM     21  C   UNL A   1      43.584  31.754  28.848  1.00  0.00     0.031 C 
ATOM     22  C   UNL A   1      41.615  25.229  27.770  1.00  0.00     0.029 A 
ATOM     23  C   UNL A   1      43.007  25.533  27.460  1.00  0.00     0.049 A 
ATOM     24  H   UNL A   1      43.980  27.367  27.643  1.00  0.00     0.167 HD
ATOM     25  C   UNL A   1      45.916  31.251  28.165  1.00  0.00     0.031 A 
ATOM     26  C   UNL A   1      43.902  24.646  26.986  1.00  0.00     0.031 A 
ATOM     27  C   UNL A   1      46.953  30.365  27.696  1.00  0.00     0.049 A 
ATOM     28  C   UNL A   1      45.303  25.102  26.707  1.00  0.00     0.074 A 
ATOM     29  C   UNL A   1      48.289  30.647  27.469  1.00  0.00     0.029 A 
ATOM     30  N   UNL A   1      46.768  29.029  27.369  1.00  0.00    -0.354 N 
ATOM     31  N   UNL A   1      45.833  26.287  26.887  1.00  0.00    -0.248 NA
ATOM     32  C   UNL A   1      46.226  24.099  26.162  1.00  0.00     0.031 C 
ATOM     33  C   UNL A   1      48.897  29.501  26.946  1.00  0.00     0.029 A 
ATOM     34  C   UNL A   1      47.957  28.482  26.913  1.00  0.00     0.049 A 
ATOM     35  H   UNL A   1      45.916  28.541  27.448  1.00  0.00     0.167 HD
ATOM     36  C   UNL A   1      47.163  26.168  26.502  1.00  0.00     0.074 A 
ATOM     37  C   UNL A   1      47.356  24.791  26.092  1.00  0.00     0.031 C 
ATOM     38  C   UNL A   1      48.136  27.113  26.496  1.00  0.00     0.031 A 
BRANCH  25  39
ATOM     39  C   UNL A   1      46.258  32.705  28.384  1.00  0.00    -0.014 A 
ATOM     40  C   UNL A   1      46.769  33.166  29.610  1.00  0.00     0.010 A 
ATOM     41  C   UNL A   1      46.079  33.625  27.333  1.00  0.00     0.010 A 
ATOM     42  C   UNL A   1      47.036  34.526  29.801  1.00  0.00     0.020 A 
ATOM     43  C   UNL A   1      46.375  34.980  27.510  1.00  0.00     0.020 A 
ATOM     44  C   UNL A   1      46.827  35.425  28.752  1.00  0.00     0.054 A 
BRANCH  44  45
ATOM     45  S   UNL A   1      47.163  37.186  29.034  1.00  0.00     0.124 S 
ATOM     46  O   UNL A   1      48.395  37.381  28.271  1.00  0.00    -0.237 OA
ATOM     47  O   UNL A   1      45.975  37.832  28.482  1.00  0.00    -0.237 OA
ATOM     48  O   UNL A   1      47.307  37.285  30.483  1.00  0.00    -0.744 OA
ENDBRANCH  44  45
ENDBRANCH  25  39
BRANCH  26  49
ATOM     49  C   UNL A   1      43.482  23.237  26.758  1.00  0.00    -0.014 A 
ATOM     50  C   UNL A   1      43.565  22.667  25.477  1.00  0.00     0.010 A 
ATOM     51  C   UNL A   1      43.049  22.441  27.837  1.00  0.00     0.010 A 
ATOM     52  C   UNL A   1      43.225  21.327  25.277  1.00  0.00     0.020 A 
ATOM     53  C   UNL A   1      42.737  21.093  27.646  1.00  0.00     0.020 A 
ATOM     54  C   UNL A   1      42.821  20.545  26.365  1.00  0.00     0.054 A 
BRANCH  54  55
ATOM     55  S   UNL A   1      42.463  18.789  26.092  1.00  0.00     0.124 S 
ATOM     56  O   UNL A   1      42.695  18.222  27.417  1.00  0.00    -0.237 OA
ATOM     57  O   UNL A   1      41.071  18.817  25.649  1.00  0.00    -0.237 OA
ATOM     58  O   UNL A   1      43.426  18.399  25.065  1.00  0.00    -0.744 OA
ENDBRANCH  54  55
ENDBRANCH  26  49
BRANCH  38  59
ATOM     59  C   UNL A   1      49.513  26.680  26.064  1.00  0.00    -0.014 A 
ATOM     60  C   UNL A   1      50.330  25.891  26.893  1.00  0.00     0.010 A 
ATOM     61  C   UNL A   1      49.979  27.038  24.785  1.00  0.00     0.010 A 
ATOM     62  C   UNL A   1      51.602  25.500  26.466  1.00  0.00     0.020 A 
ATOM     63  C   UNL A   1      51.236  26.623  24.343  1.00  0.00     0.020 A 
ATOM     64  C   UNL A   1      52.047  25.869  25.192  1.00  0.00     0.054 A 
BRANCH  64  65
ATOM     65  S   UNL A   1      53.686  25.317  24.645  1.00  0.00     0.124 S 
ATOM     66  O   UNL A   1      53.688  25.716  23.240  1.00  0.00    -0.237 OA
ATOM     67  O   UNL A   1      54.585  26.072  25.515  1.00  0.00    -0.237 OA
ATOM     68  O   UNL A   1      53.663  23.876  24.883  1.00  0.00    -0.744 OA
ENDBRANCH  64  65
ENDBRANCH  38  59
ENDBRANCH  12  13
ENDBRANCH   5   7
ENDBRANCH   2   3
ENDBRANCH   1   2
BRANCH   1  69
ATOM     69  C   UNL A   1      33.744  29.444  26.039  1.00  0.00     0.023 C 
BRANCH  69  70
ATOM     70  C   UNL A   1      34.091  27.959  26.023  1.00  0.00     0.116 C 
BRANCH  70  71
ATOM     71  N   UNL A   1      33.064  27.121  26.623  1.00  0.00    -0.352 N 
ATOM     72  C   UNL A   1      32.513  25.950  26.166  1.00  0.00     0.252 C 
ATOM     73  H   UNL A   1      32.712  27.442  27.485  1.00  0.00     0.163 HD
ATOM     74  O   UNL A   1      31.653  25.364  26.816  1.00  0.00    -0.269 OA
BRANCH  72  75
ATOM     75  C   UNL A   1      32.975  25.386  24.884  1.00  0.00     0.052 A 
ATOM     76  C   UNL A   1      34.128  24.594  24.904  1.00  0.00     0.055 A 
ATOM     77  C   UNL A   1      32.265  25.604  23.692  1.00  0.00     0.013 A 
ATOM     78  C   UNL A   1      34.589  24.113  23.701  1.00  0.00     0.129 A 
ATOM     79  C   UNL A   1      32.840  25.050  22.547  1.00  0.00     0.122 A 
ATOM     80  Cl  UNL A   1      36.042  23.208  23.614  1.00  0.00    -0.062 Cl
ATOM     81  N   UNL A   1      33.986  24.327  22.518  1.00  0.00    -0.244 NA
BRANCH  77  82
ATOM     82  C   UNL A   1      30.997  26.344  23.590  1.00  0.00    -0.015 A 
ATOM     83  C   UNL A   1      29.803  25.761  24.047  1.00  0.00     0.009 A 
ATOM     84  C   UNL A   1      30.933  27.630  23.027  1.00  0.00     0.021 A 
ATOM     85  C   UNL A   1      28.584  26.435  23.945  1.00  0.00     0.001 A 
ATOM     86  C   UNL A   1      29.712  28.323  22.925  1.00  0.00     0.056 A 
ATOM     87  C   UNL A   1      28.539  27.708  23.385  1.00  0.00     0.013 A 
BRANCH  86  88
ATOM     88  C   UNL A   1      29.645  29.706  22.325  1.00  0.00     0.416 C 
ATOM     89  F   UNL A   1      28.549  29.867  21.532  1.00  0.00    -0.166 F 
ATOM     90  F   UNL A   1      29.571  30.684  23.268  1.00  0.00    -0.166 F 
ATOM     91  F   UNL A   1      30.718  30.013  21.544  1.00  0.00    -0.166 F 
ENDBRANCH  86  88
ENDBRANCH  77  82
ENDBRANCH  72  75
ENDBRANCH  70  71
ENDBRANCH  69  70
ENDBRANCH   1  69
TORSDOF 16
ENDMDL
MODEL 3
REMARK VINA RESULT:     -11.4      3.034      8.878
REMARK SMILES O=C(NCCCCNC(=O)c1cc(Cl)ncc1-c1cccc(C(F)(F)F)c1)c1ccc(-c2c3nc(c(-c4ccc(S(=O)(=O)[O-])cc4)c4ccc([nH]4)c(-c4ccc(S(=O)(=O)[O-])cc4)c4nc(c(-c5ccc(S(=O)(=O)[O-])cc5)c5ccc2[nH]5)C=C4)C=C3)cc1
REMARK SMILES IDX 5 1 4 2 3 3 1 4 2 5 28 7 29 8 87 9 30 10 86 11 31 12 32 13
REMARK SMILES IDX 33 14 80 15 34 16 85 17 79 18 81 19 35 20 84 21 78 22 77 23
REMARK SMILES IDX 36 25 66 26 47 27 65 28 48 29 51 30 64 31 82 32 49 33 50 34
REMARK SMILES IDX 63 36 83 37 52 38 37 39 38 40 46 41 39 42 45 43 40 44 41 45
REMARK SMILES IDX 42 46 43 47 44 48 67 49 68 50 76 51 69 52 75 53 70 54 71 55
REMARK SMILES IDX 72 56 73 57 74 58 53 59 54 60 62 61 55 62 61 63 56 64 57 65
REMARK SMILES IDX 58 66 59 67 60 68 6 69 7 70 8 71 9 72 10 74 11 75 12 76
REMARK SMILES IDX 17 77 13 78 16 79 14 80 15 81 18 82 19 83 27 84 20 85 22 86
REMARK SMILES IDX 21 87 23 88 24 89 25 90 26 91
REMARK H PARENT 3 6 81 24 51 35 8 73
REMARK Flexibility Score: inf
ROOT
ATOM      1  C   UNL A   1      37.165  23.720  25.604  1.00  0.00     0.023 C 
ENDROOT
BRANCH   1   2
ATOM      2  C   UNL A   1      38.178  24.184  26.642  1.00  0.00     0.116 C 
BRANCH   2   3
ATOM      3  N   UNL A   1      39.545  24.203  26.145  1.00  0.00    -0.352 N 
ATOM      4  O   UNL A   1      41.641  24.988  25.857  1.00  0.00    -0.269 OA
ATOM      5  C   UNL A   1      40.583  25.046  26.477  1.00  0.00     0.251 C 
ATOM      6  H   UNL A   1      39.760  23.516  25.474  1.00  0.00     0.163 HD
BRANCH   5   7
ATOM      7  C   UNL A   1      40.405  26.040  27.558  1.00  0.00     0.039 A 
ATOM      8  C   UNL A   1      41.129  27.233  27.553  1.00  0.00     0.014 A 
ATOM      9  C   UNL A   1      39.518  25.763  28.602  1.00  0.00     0.014 A 
ATOM     10  C   UNL A   1      41.102  28.060  28.671  1.00  0.00     0.010 A 
ATOM     11  C   UNL A   1      39.418  26.649  29.680  1.00  0.00     0.010 A 
ATOM     12  C   UNL A   1      40.240  27.783  29.744  1.00  0.00    -0.014 A 
BRANCH  12  13
ATOM     13  C   UNL A   1      40.184  28.722  30.895  1.00  0.00     0.031 A 
ATOM     14  C   UNL A   1      41.119  28.583  32.066  1.00  0.00     0.074 A 
ATOM     15  C   UNL A   1      39.289  29.731  30.864  1.00  0.00     0.049 A 
ATOM     16  N   UNL A   1      41.220  29.336  33.132  1.00  0.00    -0.248 NA
ATOM     17  C   UNL A   1      42.057  27.449  32.043  1.00  0.00     0.031 C 
ATOM     18  C   UNL A   1      38.332  29.973  29.781  1.00  0.00     0.029 A 
ATOM     19  N   UNL A   1      39.055  30.752  31.749  1.00  0.00    -0.354 N 
ATOM     20  C   UNL A   1      42.212  28.759  33.918  1.00  0.00     0.074 A 
ATOM     21  C   UNL A   1      42.662  27.575  33.217  1.00  0.00     0.031 C 
ATOM     22  C   UNL A   1      37.655  31.101  30.039  1.00  0.00     0.029 A 
ATOM     23  C   UNL A   1      38.076  31.622  31.334  1.00  0.00     0.049 A 
ATOM     24  H   UNL A   1      39.541  30.850  32.600  1.00  0.00     0.167 HD
ATOM     25  C   UNL A   1      42.702  29.176  35.111  1.00  0.00     0.031 A 
ATOM     26  C   UNL A   1      37.559  32.712  31.930  1.00  0.00     0.031 A 
ATOM     27  C   UNL A   1      42.240  30.352  35.808  1.00  0.00     0.049 A 
ATOM     28  C   UNL A   1      38.088  33.130  33.270  1.00  0.00     0.074 A 
ATOM     29  C   UNL A   1      42.694  30.877  37.006  1.00  0.00     0.029 A 
ATOM     30  N   UNL A   1      41.212  31.177  35.377  1.00  0.00    -0.354 N 
ATOM     31  N   UNL A   1      39.047  32.588  33.981  1.00  0.00    -0.248 NA
ATOM     32  C   UNL A   1      37.465  34.307  33.887  1.00  0.00     0.031 C 
ATOM     33  C   UNL A   1      41.899  31.981  37.330  1.00  0.00     0.029 A 
ATOM     34  C   UNL A   1      40.995  32.189  36.299  1.00  0.00     0.049 A 
ATOM     35  H   UNL A   1      40.708  31.062  34.538  1.00  0.00     0.167 HD
ATOM     36  C   UNL A   1      39.163  33.376  35.120  1.00  0.00     0.074 A 
ATOM     37  C   UNL A   1      38.183  34.437  34.994  1.00  0.00     0.031 C 
ATOM     38  C   UNL A   1      40.009  33.234  36.170  1.00  0.00     0.031 A 
BRANCH  25  39
ATOM     39  C   UNL A   1      43.767  28.327  35.762  1.00  0.00    -0.014 A 
ATOM     40  C   UNL A   1      43.438  27.233  36.583  1.00  0.00     0.010 A 
ATOM     41  C   UNL A   1      45.125  28.622  35.535  1.00  0.00     0.010 A 
ATOM     42  C   UNL A   1      44.443  26.489  37.209  1.00  0.00     0.020 A 
ATOM     43  C   UNL A   1      46.133  27.861  36.134  1.00  0.00     0.020 A 
ATOM     44  C   UNL A   1      45.785  26.815  36.989  1.00  0.00     0.054 A 
BRANCH  44  45
ATOM     45  S   UNL A   1      47.067  25.847  37.830  1.00  0.00     0.124 S 
ATOM     46  O   UNL A   1      47.486  26.762  38.891  1.00  0.00    -0.237 OA
ATOM     47  O   UNL A   1      46.337  24.663  38.275  1.00  0.00    -0.237 OA
ATOM     48  O   UNL A   1      48.062  25.607  36.788  1.00  0.00    -0.744 OA
ENDBRANCH  44  45
ENDBRANCH  25  39
BRANCH  26  49
ATOM     49  C   UNL A   1      36.483  33.478  31.245  1.00  0.00    -0.014 A 
ATOM     50  C   UNL A   1      36.714  34.064  29.989  1.00  0.00     0.010 A 
ATOM     51  C   UNL A   1      35.202  33.575  31.822  1.00  0.00     0.010 A 
ATOM     52  C   UNL A   1      35.685  34.733  29.322  1.00  0.00     0.020 A 
ATOM     53  C   UNL A   1      34.163  34.217  31.146  1.00  0.00     0.020 A 
ATOM     54  C   UNL A   1      34.413  34.798  29.901  1.00  0.00     0.054 A 
BRANCH  54  55
ATOM     55  S   UNL A   1      33.074  35.602  28.978  1.00  0.00     0.124 S 
ATOM     56  O   UNL A   1      32.268  36.176  30.051  1.00  0.00    -0.237 OA
ATOM     57  O   UNL A   1      33.798  36.560  28.146  1.00  0.00    -0.237 OA
ATOM     58  O   UNL A   1      32.454  34.499  28.246  1.00  0.00    -0.744 OA
ENDBRANCH  54  55
ENDBRANCH  26  49
BRANCH  38  59
ATOM     59  C   UNL A   1      39.938  34.276  37.256  1.00  0.00    -0.014 A 
ATOM     60  C   UNL A   1      39.302  34.017  38.483  1.00  0.00     0.010 A 
ATOM     61  C   UNL A   1      40.556  35.524  37.056  1.00  0.00     0.010 A 
ATOM     62  C   UNL A   1      39.254  35.000  39.475  1.00  0.00     0.020 A 
ATOM     63  C   UNL A   1      40.537  36.498  38.057  1.00  0.00     0.020 A 
ATOM     64  C   UNL A   1      39.873  36.236  39.255  1.00  0.00     0.054 A 
BRANCH  64  65
ATOM     65  S   UNL A   1      39.830  37.482  40.572  1.00  0.00     0.124 S 
ATOM     66  O   UNL A   1      39.431  38.683  39.842  1.00  0.00    -0.237 OA
ATOM     67  O   UNL A   1      38.830  36.942  41.490  1.00  0.00    -0.237 OA
ATOM     68  O   UNL A   1      41.197  37.490  41.086  1.00  0.00    -0.744 OA
ENDBRANCH  64  65
ENDBRANCH  38  59
ENDBRANCH  12  13
ENDBRANCH   5   7
ENDBRANCH   2   3
ENDBRANCH   1   2
BRANCH   1  69
ATOM     69  C   UNL A   1      37.475  22.384  24.936  1.00  0.00     0.023 C 
BRANCH  69  70
ATOM     70  C   UNL A   1      36.576  21.223  25.347  1.00  0.00     0.116 C 
BRANCH  70  71
ATOM     71  N   UNL A   1      35.672  21.554  26.438  1.00  0.00    -0.352 N 
ATOM     72  C   UNL A   1      34.303  21.468  26.497  1.00  0.00     0.252 C 
ATOM     73  H   UNL A   1      36.106  21.890  27.256  1.00  0.00     0.163 HD
ATOM     74  O   UNL A   1      33.697  21.783  27.516  1.00  0.00    -0.269 OA
BRANCH  72  75
ATOM     75  C   UNL A   1      33.559  20.974  25.324  1.00  0.00     0.052 A 
ATOM     76  C   UNL A   1      33.385  19.591  25.203  1.00  0.00     0.055 A 
ATOM     77  C   UNL A   1      33.014  21.858  24.379  1.00  0.00     0.013 A 
ATOM     78  C   UNL A   1      32.739  19.127  24.081  1.00  0.00     0.129 A 
ATOM     79  C   UNL A   1      32.375  21.253  23.296  1.00  0.00     0.122 A 
ATOM     80  Cl  UNL A   1      32.557  17.446  23.803  1.00  0.00    -0.062 Cl
ATOM     81  N   UNL A   1      32.238  19.917  23.115  1.00  0.00    -0.244 NA
BRANCH  77  82
ATOM     82  C   UNL A   1      33.067  23.326  24.471  1.00  0.00    -0.015 A 
ATOM     83  C   UNL A   1      34.116  24.032  23.856  1.00  0.00     0.009 A 
ATOM     84  C   UNL A   1      32.099  24.060  25.177  1.00  0.00     0.021 A 
ATOM     85  C   UNL A   1      34.199  25.423  23.943  1.00  0.00     0.001 A 
ATOM     86  C   UNL A   1      32.168  25.463  25.265  1.00  0.00     0.056 A 
ATOM     87  C   UNL A   1      33.232  26.134  24.646  1.00  0.00     0.013 A 
BRANCH  86  88
ATOM     88  C   UNL A   1      31.125  26.251  26.020  1.00  0.00     0.416 C 
ATOM     89  F   UNL A   1      30.749  27.376  25.348  1.00  0.00    -0.166 F 
ATOM     90  F   UNL A   1      29.983  25.542  26.232  1.00  0.00    -0.166 F 
ATOM     91  F   UNL A   1      31.543  26.672  27.246  1.00  0.00    -0.166 F 
ENDBRANCH  86  88
ENDBRANCH  77  82
ENDBRANCH  72  75
ENDBRANCH  70  71
ENDBRANCH  69  70
ENDBRANCH   1  69
TORSDOF 16
ENDMDL
