MODEL 1
REMARK VINA RESULT:      -9.6      0.000      0.000
REMARK SMILES COc1cc2nc(SCC(=O)NCCCCNC(=O)c3ccc(-c4c5nc(c(-c6ccc(S(=O)(=O)[O-])cc6)c6ccc([nH]6)c(-c6ccc(S(=O)(=O)[O-])cc6)c6nc(c(-c7ccc(S(=O)(=O)[O-])cc7)c7ccc4[nH]7)C=C6)C=C5)cc3)nc(O)c2cc1OC
REMARK SMILES IDX 14 1 13 2 12 3 10 4 11 5 9 7 8 8 7 9 3 10 4 11 85 12 5 13
REMARK SMILES IDX 84 14 6 15 83 16 81 17 80 18 2 19 1 20 86 21 87 22 82 23
REMARK SMILES IDX 15 25 16 26 17 27 18 28 19 30 20 31 21 32 79 33 22 34 78 35
REMARK SMILES IDX 23 36 24 37 25 38 72 39 26 40 77 41 71 42 73 43 27 44 76 45
REMARK SMILES IDX 70 46 69 47 28 49 58 50 39 51 57 52 40 53 43 54 56 55 74 56
REMARK SMILES IDX 41 57 42 58 55 60 75 61 44 62 29 63 30 64 38 65 31 66 37 67
REMARK SMILES IDX 32 68 33 69 34 70 35 71 36 72 59 73 60 74 68 75 61 76 67 77
REMARK SMILES IDX 62 78 63 79 64 80 65 81 66 82 45 83 46 84 54 85 47 86 53 87
REMARK SMILES IDX 48 88 49 89 50 90 51 91 52 92
REMARK H PARENT 12 6 82 24 17 29 73 48 43 59
REMARK Flexibility Score: inf
ROOT
ATOM      1  C   UNL A   1      34.242  35.533  28.710  1.00  0.00     0.023 C 
ENDROOT
BRANCH   1   2
ATOM      2  C   UNL A   1      33.206  35.109  29.752  1.00  0.00     0.116 C 
BRANCH   2   3
ATOM      3  N   UNL A   1      32.775  36.222  30.579  1.00  0.00    -0.355 N 
ATOM      4  C   UNL A   1      33.258  36.656  31.779  1.00  0.00     0.230 C 
ATOM      5  O   UNL A   1      32.743  37.662  32.276  1.00  0.00    -0.274 OA
ATOM      6  H   UNL A   1      32.019  36.741  30.219  1.00  0.00     0.163 HD
BRANCH   4   7
ATOM      7  C   UNL A   1      34.460  35.986  32.424  1.00  0.00     0.178 C 
BRANCH   7   8
ATOM      8  S   UNL A   1      34.158  34.286  32.991  1.00  0.00    -0.076 SA
BRANCH   8   9
ATOM      9  C   UNL A   1      35.794  33.759  33.426  1.00  0.00     0.192 A 
ATOM     10  C   UNL A   1      38.925  30.215  33.591  1.00  0.00     0.162 A 
ATOM     11  C   UNL A   1      37.659  30.714  33.263  1.00  0.00     0.079 A 
ATOM     12  C   UNL A   1      39.903  31.053  34.142  1.00  0.00     0.161 A 
ATOM     13  C   UNL A   1      37.312  32.036  33.501  1.00  0.00     0.083 A 
ATOM     14  C   UNL A   1      39.566  32.382  34.392  1.00  0.00     0.066 A 
ATOM     15  N   UNL A   1      36.083  32.470  33.185  1.00  0.00    -0.222 NA
ATOM     16  C   UNL A   1      38.275  32.868  34.071  1.00  0.00     0.066 A 
ATOM     17  C   UNL A   1      37.843  34.169  34.269  1.00  0.00     0.223 A 
ATOM     18  N   UNL A   1      36.640  34.648  33.945  1.00  0.00    -0.187 NA
BRANCH  10  19
ATOM     19  O   UNL A   1      39.134  28.896  33.270  1.00  0.00    -0.493 OA
ATOM     20  C   UNL A   1      37.985  28.287  32.676  1.00  0.00     0.278 C 
ENDBRANCH  10  19
BRANCH  12  21
ATOM     21  O   UNL A   1      41.142  30.514  34.356  1.00  0.00    -0.493 OA
ATOM     22  C   UNL A   1      41.825  30.887  35.546  1.00  0.00     0.278 C 
ENDBRANCH  12  21
BRANCH  17  23
ATOM     23  O   UNL A   1      38.640  35.102  34.858  1.00  0.00    -0.493 OA
ATOM     24  H   UNL A   1      38.560  36.004  34.618  1.00  0.00     0.295 HD
ENDBRANCH  17  23
ENDBRANCH   8   9
ENDBRANCH   7   8
ENDBRANCH   4   7
ENDBRANCH   2   3
ENDBRANCH   1   2
BRANCH   1  25
ATOM     25  C   UNL A   1      34.882  34.383  27.929  1.00  0.00     0.023 C 
BRANCH  25  26
ATOM     26  C   UNL A   1      34.917  33.039  28.648  1.00  0.00     0.116 C 
BRANCH  26  27
ATOM     27  N   UNL A   1      33.952  32.079  28.131  1.00  0.00    -0.352 N 
ATOM     28  C   UNL A   1      34.138  30.743  27.850  1.00  0.00     0.251 C 
ATOM     29  H   UNL A   1      33.048  32.430  27.961  1.00  0.00     0.163 HD
ATOM     30  O   UNL A   1      33.241  30.088  27.327  1.00  0.00    -0.269 OA
BRANCH  28  31
ATOM     31  C   UNL A   1      35.449  30.123  28.134  1.00  0.00     0.039 A 
ATOM     32  C   UNL A   1      35.749  29.655  29.416  1.00  0.00     0.014 A 
ATOM     33  C   UNL A   1      36.414  30.084  27.125  1.00  0.00     0.014 A 
ATOM     34  C   UNL A   1      37.061  29.316  29.732  1.00  0.00     0.010 A 
ATOM     35  C   UNL A   1      37.715  29.675  27.429  1.00  0.00     0.010 A 
ATOM     36  C   UNL A   1      38.063  29.349  28.749  1.00  0.00    -0.014 A 
BRANCH  36  37
ATOM     37  C   UNL A   1      39.476  29.089  29.128  1.00  0.00     0.031 A 
ATOM     38  C   UNL A   1      40.141  27.791  28.753  1.00  0.00     0.074 A 
ATOM     39  C   UNL A   1      40.184  30.046  29.759  1.00  0.00     0.049 A 
ATOM     40  N   UNL A   1      41.372  27.405  28.973  1.00  0.00    -0.248 NA
ATOM     41  C   UNL A   1      39.322  26.797  28.038  1.00  0.00     0.031 C 
ATOM     42  C   UNL A   1      39.662  31.358  30.143  1.00  0.00     0.029 A 
ATOM     43  N   UNL A   1      41.497  30.077  30.157  1.00  0.00    -0.354 N 
ATOM     44  C   UNL A   1      41.469  26.121  28.451  1.00  0.00     0.074 A 
ATOM     45  C   UNL A   1      40.167  25.782  27.918  1.00  0.00     0.031 C 
ATOM     46  C   UNL A   1      40.659  32.087  30.668  1.00  0.00     0.029 A 
ATOM     47  C   UNL A   1      41.873  31.275  30.713  1.00  0.00     0.049 A 
ATOM     48  H   UNL A   1      42.109  29.313  30.054  1.00  0.00     0.167 HD
ATOM     49  C   UNL A   1      42.545  25.303  28.412  1.00  0.00     0.031 A 
ATOM     50  C   UNL A   1      43.057  31.683  31.210  1.00  0.00     0.031 A 
ATOM     51  C   UNL A   1      43.846  25.652  28.917  1.00  0.00     0.049 A 
ATOM     52  C   UNL A   1      44.227  30.745  31.199  1.00  0.00     0.074 A 
ATOM     53  C   UNL A   1      45.007  24.900  28.880  1.00  0.00     0.029 A 
ATOM     54  N   UNL A   1      44.160  26.846  29.548  1.00  0.00    -0.354 N 
ATOM     55  N   UNL A   1      44.299  29.536  30.699  1.00  0.00    -0.248 NA
ATOM     56  C   UNL A   1      45.470  31.215  31.827  1.00  0.00     0.031 C 
ATOM     57  C   UNL A   1      46.011  25.616  29.536  1.00  0.00     0.029 A 
ATOM     58  C   UNL A   1      45.490  26.838  29.936  1.00  0.00     0.049 A 
ATOM     59  H   UNL A   1      43.532  27.588  29.698  1.00  0.00     0.167 HD
ATOM     60  C   UNL A   1      45.594  29.099  30.947  1.00  0.00     0.074 A 
ATOM     61  C   UNL A   1      46.276  30.177  31.633  1.00  0.00     0.031 C 
ATOM     62  C   UNL A   1      46.159  27.908  30.632  1.00  0.00     0.031 A 
BRANCH  49  63
ATOM     63  C   UNL A   1      42.371  23.931  27.818  1.00  0.00    -0.014 A 
ATOM     64  C   UNL A   1      41.895  22.882  28.626  1.00  0.00     0.010 A 
ATOM     65  C   UNL A   1      42.753  23.656  26.493  1.00  0.00     0.010 A 
ATOM     66  C   UNL A   1      41.810  21.580  28.124  1.00  0.00     0.020 A 
ATOM     67  C   UNL A   1      42.648  22.359  25.980  1.00  0.00     0.020 A 
ATOM     68  C   UNL A   1      42.191  21.327  26.805  1.00  0.00     0.054 A 
BRANCH  68  69
ATOM     69  S   UNL A   1      42.053  19.639  26.153  1.00  0.00     0.124 S 
ATOM     70  O   UNL A   1      40.618  19.516  25.916  1.00  0.00    -0.237 OA
ATOM     71  O   UNL A   1      42.890  19.683  24.957  1.00  0.00    -0.237 OA
ATOM     72  O   UNL A   1      42.582  18.815  27.238  1.00  0.00    -0.744 OA
ENDBRANCH  68  69
ENDBRANCH  49  63
BRANCH  50  73
ATOM     73  C   UNL A   1      43.163  33.072  31.731  1.00  0.00    -0.014 A 
ATOM     74  C   UNL A   1      43.643  34.106  30.905  1.00  0.00     0.010 A 
ATOM     75  C   UNL A   1      42.934  33.330  33.093  1.00  0.00     0.010 A 
ATOM     76  C   UNL A   1      43.967  35.351  31.448  1.00  0.00     0.020 A 
ATOM     77  C   UNL A   1      43.236  34.583  33.636  1.00  0.00     0.020 A 
ATOM     78  C   UNL A   1      43.787  35.571  32.816  1.00  0.00     0.054 A 
BRANCH  78  79
ATOM     79  S   UNL A   1      44.321  37.155  33.524  1.00  0.00     0.124 S 
ATOM     80  O   UNL A   1      44.071  36.942  34.947  1.00  0.00    -0.237 OA
ATOM     81  O   UNL A   1      45.727  37.223  33.135  1.00  0.00    -0.237 OA
ATOM     82  O   UNL A   1      43.449  38.130  32.874  1.00  0.00    -0.744 OA
ENDBRANCH  78  79
ENDBRANCH  50  73
BRANCH  62  83
ATOM     83  C   UNL A   1      47.589  27.668  31.029  1.00  0.00    -0.014 A 
ATOM     84  C   UNL A   1      48.625  27.993  30.133  1.00  0.00     0.010 A 
ATOM     85  C   UNL A   1      47.894  26.973  32.211  1.00  0.00     0.010 A 
ATOM     86  C   UNL A   1      49.936  27.587  30.392  1.00  0.00     0.020 A 
ATOM     87  C   UNL A   1      49.208  26.583  32.483  1.00  0.00     0.020 A 
ATOM     88  C   UNL A   1      50.216  26.868  31.557  1.00  0.00     0.054 A 
BRANCH  88  89
ATOM     89  S   UNL A   1      51.911  26.292  31.847  1.00  0.00     0.124 S 
ATOM     90  O   UNL A   1      52.591  26.712  30.626  1.00  0.00    -0.237 OA
ATOM     91  O   UNL A   1      52.294  27.012  33.060  1.00  0.00    -0.237 OA
ATOM     92  O   UNL A   1      51.758  24.848  32.013  1.00  0.00    -0.744 OA
ENDBRANCH  88  89
ENDBRANCH  62  83
ENDBRANCH  36  37
ENDBRANCH  28  31
ENDBRANCH  26  27
ENDBRANCH  25  26
ENDBRANCH   1  25
TORSDOF 19
ENDMDL
MODEL 2
REMARK VINA RESULT:      -9.4      4.809     11.125
REMARK SMILES COc1cc2nc(SCC(=O)NCCCCNC(=O)c3ccc(-c4c5nc(c(-c6ccc(S(=O)(=O)[O-])cc6)c6ccc([nH]6)c(-c6ccc(S(=O)(=O)[O-])cc6)c6nc(c(-c7ccc(S(=O)(=O)[O-])cc7)c7ccc4[nH]7)C=C6)C=C5)cc3)nc(O)c2cc1OC
REMARK SMILES IDX 14 1 13 2 12 3 10 4 11 5 9 7 8 8 7 9 3 10 4 11 85 12 5 13
REMARK SMILES IDX 84 14 6 15 83 16 81 17 80 18 2 19 1 20 86 21 87 22 82 23
REMARK SMILES IDX 15 25 16 26 17 27 18 28 19 30 20 31 21 32 79 33 22 34 78 35
REMARK SMILES IDX 23 36 24 37 25 38 72 39 26 40 77 41 71 42 73 43 27 44 76 45
REMARK SMILES IDX 70 46 69 47 28 49 58 50 39 51 57 52 40 53 43 54 56 55 74 56
REMARK SMILES IDX 41 57 42 58 55 60 75 61 44 62 29 63 30 64 38 65 31 66 37 67
REMARK SMILES IDX 32 68 33 69 34 70 35 71 36 72 59 73 60 74 68 75 61 76 67 77
REMARK SMILES IDX 62 78 63 79 64 80 65 81 66 82 45 83 46 84 54 85 47 86 53 87
REMARK SMILES IDX 48 88 49 89 50 90 51 91 52 92
REMARK H PARENT 12 6 82 24 17 29 73 48 43 59
REMARK Flexibility Score: inf
ROOT
ATOM      1  C   UNL A   1      33.295  30.423  26.884  1.00  0.00     0.023 C 
ENDROOT
BRANCH   1   2
ATOM      2  C   UNL A   1      31.840  30.002  26.671  1.00  0.00     0.116 C 
BRANCH   2   3
ATOM      3  N   UNL A   1      31.482  29.967  25.265  1.00  0.00    -0.355 N 
ATOM      4  C   UNL A   1      31.537  28.933  24.376  1.00  0.00     0.230 C 
ATOM      5  O   UNL A   1      31.136  29.141  23.226  1.00  0.00    -0.274 OA
ATOM      6  H   UNL A   1      31.148  30.818  24.897  1.00  0.00     0.163 HD
BRANCH   4   7
ATOM      7  C   UNL A   1      31.975  27.547  24.818  1.00  0.00     0.178 C 
BRANCH   7   8
ATOM      8  S   UNL A   1      30.810  26.710  25.934  1.00  0.00    -0.076 SA
BRANCH   8   9
ATOM      9  C   UNL A   1      31.309  25.017  25.767  1.00  0.00     0.192 A 
ATOM     10  C   UNL A   1      34.719  21.970  24.553  1.00  0.00     0.162 A 
ATOM     11  C   UNL A   1      34.252  23.279  24.726  1.00  0.00     0.079 A 
ATOM     12  C   UNL A   1      33.906  20.874  24.870  1.00  0.00     0.161 A 
ATOM     13  C   UNL A   1      32.968  23.541  25.179  1.00  0.00     0.083 A 
ATOM     14  C   UNL A   1      32.611  21.123  25.322  1.00  0.00     0.066 A 
ATOM     15  N   UNL A   1      32.557  24.810  25.318  1.00  0.00    -0.222 NA
ATOM     16  C   UNL A   1      32.148  22.453  25.475  1.00  0.00     0.066 A 
ATOM     17  C   UNL A   1      30.887  22.809  25.923  1.00  0.00     0.223 A 
ATOM     18  N   UNL A   1      30.447  24.056  26.100  1.00  0.00    -0.187 NA
BRANCH  10  19
ATOM     19  O   UNL A   1      36.020  21.865  24.126  1.00  0.00    -0.493 OA
ATOM     20  C   UNL A   1      36.629  23.139  23.902  1.00  0.00     0.278 C 
ENDBRANCH  10  19
BRANCH  12  21
ATOM     21  O   UNL A   1      34.460  19.629  24.756  1.00  0.00    -0.493 OA
ATOM     22  C   UNL A   1      33.577  18.516  24.719  1.00  0.00     0.278 C 
ENDBRANCH  12  21
BRANCH  17  23
ATOM     23  O   UNL A   1      29.944  21.872  26.213  1.00  0.00    -0.493 OA
ATOM     24  H   UNL A   1      30.097  20.972  26.003  1.00  0.00     0.295 HD
ENDBRANCH  17  23
ENDBRANCH   8   9
ENDBRANCH   7   8
ENDBRANCH   4   7
ENDBRANCH   2   3
ENDBRANCH   1   2
BRANCH   1  25
ATOM     25  C   UNL A   1      34.272  29.271  27.127  1.00  0.00     0.023 C 
BRANCH  25  26
ATOM     26  C   UNL A   1      35.639  29.671  27.673  1.00  0.00     0.116 C 
BRANCH  26  27
ATOM     27  N   UNL A   1      35.699  29.688  29.128  1.00  0.00    -0.352 N 
ATOM     28  C   UNL A   1      36.746  29.325  29.947  1.00  0.00     0.251 C 
ATOM     29  H   UNL A   1      34.886  29.999  29.586  1.00  0.00     0.163 HD
ATOM     30  O   UNL A   1      36.604  29.308  31.166  1.00  0.00    -0.269 OA
BRANCH  28  31
ATOM     31  C   UNL A   1      38.024  28.902  29.336  1.00  0.00     0.039 A 
ATOM     32  C   UNL A   1      38.906  28.077  30.038  1.00  0.00     0.014 A 
ATOM     33  C   UNL A   1      38.375  29.405  28.081  1.00  0.00     0.014 A 
ATOM     34  C   UNL A   1      40.204  27.901  29.565  1.00  0.00     0.010 A 
ATOM     35  C   UNL A   1      39.656  29.169  27.576  1.00  0.00     0.010 A 
ATOM     36  C   UNL A   1      40.600  28.468  28.343  1.00  0.00    -0.014 A 
BRANCH  36  37
ATOM     37  C   UNL A   1      42.016  28.362  27.908  1.00  0.00     0.031 A 
ATOM     38  C   UNL A   1      42.985  29.482  28.181  1.00  0.00     0.074 A 
ATOM     39  C   UNL A   1      42.450  27.230  27.319  1.00  0.00     0.049 A 
ATOM     40  N   UNL A   1      44.262  29.549  27.902  1.00  0.00    -0.248 NA
ATOM     41  C   UNL A   1      42.457  30.680  28.855  1.00  0.00     0.031 C 
ATOM     42  C   UNL A   1      41.616  26.062  27.033  1.00  0.00     0.029 A 
ATOM     43  N   UNL A   1      43.700  26.866  26.885  1.00  0.00    -0.354 N 
ATOM     44  C   UNL A   1      44.683  30.800  28.339  1.00  0.00     0.074 A 
ATOM     45  C   UNL A   1      43.523  31.469  28.886  1.00  0.00     0.031 C 
ATOM     46  C   UNL A   1      42.388  25.089  26.527  1.00  0.00     0.029 A 
ATOM     47  C   UNL A   1      43.757  25.583  26.396  1.00  0.00     0.049 A 
ATOM     48  H   UNL A   1      44.479  27.465  26.923  1.00  0.00     0.167 HD
ATOM     49  C   UNL A   1      45.924  31.338  28.295  1.00  0.00     0.031 A 
ATOM     50  C   UNL A   1      44.789  24.877  25.892  1.00  0.00     0.031 A 
ATOM     51  C   UNL A   1      47.082  30.661  27.776  1.00  0.00     0.049 A 
ATOM     52  C   UNL A   1      46.146  25.508  25.810  1.00  0.00     0.074 A 
ATOM     53  C   UNL A   1      48.388  31.115  27.732  1.00  0.00     0.029 A 
ATOM     54  N   UNL A   1      47.077  29.394  27.213  1.00  0.00    -0.354 N 
ATOM     55  N   UNL A   1      46.524  26.690  26.231  1.00  0.00    -0.248 NA
ATOM     56  C   UNL A   1      47.215  24.722  25.177  1.00  0.00     0.031 C 
ATOM     57  C   UNL A   1      49.164  30.145  27.093  1.00  0.00     0.029 A 
ATOM     58  C   UNL A   1      48.352  29.063  26.787  1.00  0.00     0.049 A 
ATOM     59  H   UNL A   1      46.284  28.816  27.128  1.00  0.00     0.167 HD
ATOM     60  C   UNL A   1      47.875  26.791  25.918  1.00  0.00     0.074 A 
ATOM     61  C   UNL A   1      48.252  25.546  25.282  1.00  0.00     0.031 C 
ATOM     62  C   UNL A   1      48.718  27.827  26.141  1.00  0.00     0.031 A 
BRANCH  49  63
ATOM     63  C   UNL A   1      46.105  32.742  28.806  1.00  0.00    -0.014 A 
ATOM     64  C   UNL A   1      46.449  32.949  30.155  1.00  0.00     0.010 A 
ATOM     65  C   UNL A   1      45.857  33.855  27.984  1.00  0.00     0.010 A 
ATOM     66  C   UNL A   1      46.534  34.243  30.677  1.00  0.00     0.020 A 
ATOM     67  C   UNL A   1      45.963  35.152  28.497  1.00  0.00     0.020 A 
ATOM     68  C   UNL A   1      46.287  35.336  29.844  1.00  0.00     0.054 A 
BRANCH  68  69
ATOM     69  S   UNL A   1      46.426  37.014  30.523  1.00  0.00     0.124 S 
ATOM     70  O   UNL A   1      45.802  36.868  31.834  1.00  0.00    -0.237 OA
ATOM     71  O   UNL A   1      47.869  37.242  30.530  1.00  0.00    -0.237 OA
ATOM     72  O   UNL A   1      45.684  37.828  29.562  1.00  0.00    -0.744 OA
ENDBRANCH  68  69
ENDBRANCH  49  63
BRANCH  50  73
ATOM     73  C   UNL A   1      44.540  23.478  25.456  1.00  0.00    -0.014 A 
ATOM     74  C   UNL A   1      44.436  22.446  26.408  1.00  0.00     0.010 A 
ATOM     75  C   UNL A   1      44.564  23.153  24.090  1.00  0.00     0.010 A 
ATOM     76  C   UNL A   1      44.439  21.109  26.005  1.00  0.00     0.020 A 
ATOM     77  C   UNL A   1      44.545  21.815  23.681  1.00  0.00     0.020 A 
ATOM     78  C   UNL A   1      44.522  20.803  24.643  1.00  0.00     0.054 A 
BRANCH  78  79
ATOM     79  S   UNL A   1      44.642  19.062  24.145  1.00  0.00     0.124 S 
ATOM     80  O   UNL A   1      45.967  18.702  24.644  1.00  0.00    -0.237 OA
ATOM     81  O   UNL A   1      43.517  18.449  24.844  1.00  0.00    -0.237 OA
ATOM     82  O   UNL A   1      44.515  19.115  22.690  1.00  0.00    -0.744 OA
ENDBRANCH  78  79
ENDBRANCH  50  73
BRANCH  62  83
ATOM     83  C   UNL A   1      50.146  27.697  25.689  1.00  0.00    -0.014 A 
ATOM     84  C   UNL A   1      50.473  27.923  24.339  1.00  0.00     0.010 A 
ATOM     85  C   UNL A   1      51.126  27.192  26.560  1.00  0.00     0.010 A 
ATOM     86  C   UNL A   1      51.744  27.604  23.857  1.00  0.00     0.020 A 
ATOM     87  C   UNL A   1      52.406  26.891  26.086  1.00  0.00     0.020 A 
ATOM     88  C   UNL A   1      52.698  27.072  24.730  1.00  0.00     0.054 A 
BRANCH  88  89
ATOM     89  S   UNL A   1      54.323  26.603  24.075  1.00  0.00     0.124 S 
ATOM     90  O   UNL A   1      55.124  27.788  24.363  1.00  0.00    -0.237 OA
ATOM     91  O   UNL A   1      54.656  25.414  24.856  1.00  0.00    -0.237 OA
ATOM     92  O   UNL A   1      54.061  26.353  22.659  1.00  0.00    -0.744 OA
ENDBRANCH  88  89
ENDBRANCH  62  83
ENDBRANCH  36  37
ENDBRANCH  28  31
ENDBRANCH  26  27
ENDBRANCH  25  26
ENDBRANCH   1  25
TORSDOF 19
ENDMDL
MODEL 3
REMARK VINA RESULT:      -9.4      4.642     10.523
REMARK SMILES COc1cc2nc(SCC(=O)NCCCCNC(=O)c3ccc(-c4c5nc(c(-c6ccc(S(=O)(=O)[O-])cc6)c6ccc([nH]6)c(-c6ccc(S(=O)(=O)[O-])cc6)c6nc(c(-c7ccc(S(=O)(=O)[O-])cc7)c7ccc4[nH]7)C=C6)C=C5)cc3)nc(O)c2cc1OC
REMARK SMILES IDX 14 1 13 2 12 3 10 4 11 5 9 7 8 8 7 9 3 10 4 11 85 12 5 13
REMARK SMILES IDX 84 14 6 15 83 16 81 17 80 18 2 19 1 20 86 21 87 22 82 23
REMARK SMILES IDX 15 25 16 26 17 27 18 28 19 30 20 31 21 32 79 33 22 34 78 35
REMARK SMILES IDX 23 36 24 37 25 38 72 39 26 40 77 41 71 42 73 43 27 44 76 45
REMARK SMILES IDX 70 46 69 47 28 49 58 50 39 51 57 52 40 53 43 54 56 55 74 56
REMARK SMILES IDX 41 57 42 58 55 60 75 61 44 62 29 63 30 64 38 65 31 66 37 67
REMARK SMILES IDX 32 68 33 69 34 70 35 71 36 72 59 73 60 74 68 75 61 76 67 77
REMARK SMILES IDX 62 78 63 79 64 80 65 81 66 82 45 83 46 84 54 85 47 86 53 87
REMARK SMILES IDX 48 88 49 89 50 90 51 91 52 92
REMARK H PARENT 12 6 82 24 17 29 73 48 43 59
REMARK Flexibility Score: inf
ROOT
ATOM      1  C   UNL A   1      37.376  20.624  24.899  1.00  0.00     0.023 C 
ENDROOT
BRANCH   1   2
ATOM      2  C   UNL A   1      35.964  20.046  24.997  1.00  0.00     0.116 C 
BRANCH   2   3
ATOM      3  N   UNL A   1      35.094  20.865  25.822  1.00  0.00    -0.355 N 
ATOM      4  C   UNL A   1      34.155  21.784  25.455  1.00  0.00     0.230 C 
ATOM      5  O   UNL A   1      33.506  22.333  26.351  1.00  0.00    -0.274 OA
ATOM      6  H   UNL A   1      35.198  20.737  26.793  1.00  0.00     0.163 HD
BRANCH   4   7
ATOM      7  C   UNL A   1      33.846  22.040  23.989  1.00  0.00     0.178 C 
BRANCH   7   8
ATOM      8  S   UNL A   1      34.901  23.295  23.207  1.00  0.00    -0.076 SA
BRANCH   8   9
ATOM      9  C   UNL A   1      33.772  24.650  23.025  1.00  0.00     0.192 A 
ATOM     10  C   UNL A   1      31.648  28.363  25.047  1.00  0.00     0.162 A 
ATOM     11  C   UNL A   1      32.534  27.281  25.103  1.00  0.00     0.079 A 
ATOM     12  C   UNL A   1      30.966  28.668  23.861  1.00  0.00     0.161 A 
ATOM     13  C   UNL A   1      32.745  26.454  24.010  1.00  0.00     0.083 A 
ATOM     14  C   UNL A   1      31.165  27.842  22.757  1.00  0.00     0.066 A 
ATOM     15  N   UNL A   1      33.593  25.419  24.111  1.00  0.00    -0.222 NA
ATOM     16  C   UNL A   1      32.052  26.740  22.835  1.00  0.00     0.066 A 
ATOM     17  C   UNL A   1      32.326  25.865  21.797  1.00  0.00     0.223 A 
ATOM     18  N   UNL A   1      33.180  24.841  21.846  1.00  0.00    -0.187 NA
BRANCH  10  19
ATOM     19  O   UNL A   1      31.564  29.111  26.197  1.00  0.00    -0.493 OA
ATOM     20  C   UNL A   1      31.576  28.304  27.377  1.00  0.00     0.278 C 
ENDBRANCH  10  19
BRANCH  12  21
ATOM     21  O   UNL A   1      30.184  29.790  23.859  1.00  0.00    -0.493 OA
ATOM     22  C   UNL A   1      29.034  29.789  23.023  1.00  0.00     0.278 C 
ENDBRANCH  12  21
BRANCH  17  23
ATOM     23  O   UNL A   1      31.702  25.971  20.592  1.00  0.00    -0.493 OA
ATOM     24  H   UNL A   1      31.096  26.670  20.439  1.00  0.00     0.295 HD
ENDBRANCH  17  23
ENDBRANCH   8   9
ENDBRANCH   7   8
ENDBRANCH   4   7
ENDBRANCH   2   3
ENDBRANCH   1   2
BRANCH   1  25
ATOM     25  C   UNL A   1      38.504  19.592  24.971  1.00  0.00     0.023 C 
BRANCH  25  26
ATOM     26  C   UNL A   1      39.433  19.715  26.174  1.00  0.00     0.116 C 
BRANCH  26  27
ATOM     27  N   UNL A   1      40.707  19.032  25.995  1.00  0.00    -0.352 N 
ATOM     28  C   UNL A   1      41.979  19.552  26.092  1.00  0.00     0.251 C 
ATOM     29  H   UNL A   1      40.652  18.074  25.777  1.00  0.00     0.163 HD
ATOM     30  O   UNL A   1      42.955  18.859  25.819  1.00  0.00    -0.269 OA
BRANCH  28  31
ATOM     31  C   UNL A   1      42.151  20.969  26.475  1.00  0.00     0.039 A 
ATOM     32  C   UNL A   1      42.152  21.971  25.502  1.00  0.00     0.014 A 
ATOM     33  C   UNL A   1      42.393  21.285  27.814  1.00  0.00     0.014 A 
ATOM     34  C   UNL A   1      42.569  23.256  25.840  1.00  0.00     0.010 A 
ATOM     35  C   UNL A   1      42.744  22.592  28.162  1.00  0.00     0.010 A 
ATOM     36  C   UNL A   1      42.896  23.572  27.169  1.00  0.00    -0.014 A 
BRANCH  36  37
ATOM     37  C   UNL A   1      43.443  24.914  27.493  1.00  0.00     0.031 A 
ATOM     38  C   UNL A   1      44.878  25.250  27.183  1.00  0.00     0.074 A 
ATOM     39  C   UNL A   1      42.632  25.857  28.011  1.00  0.00     0.049 A 
ATOM     40  N   UNL A   1      45.516  26.378  27.366  1.00  0.00    -0.248 NA
ATOM     41  C   UNL A   1      45.706  24.186  26.589  1.00  0.00     0.031 C 
ATOM     42  C   UNL A   1      41.215  25.664  28.321  1.00  0.00     0.029 A 
ATOM     43  N   UNL A   1      42.873  27.168  28.337  1.00  0.00    -0.354 N 
ATOM     44  C   UNL A   1      46.820  26.153  26.939  1.00  0.00     0.074 A 
ATOM     45  C   UNL A   1      46.890  24.776  26.502  1.00  0.00     0.031 C 
ATOM     46  C   UNL A   1      40.698  26.831  28.736  1.00  0.00     0.029 A 
ATOM     47  C   UNL A   1      41.757  27.836  28.779  1.00  0.00     0.049 A 
ATOM     48  H   UNL A   1      43.759  27.588  28.260  1.00  0.00     0.167 HD
ATOM     49  C   UNL A   1      47.860  27.017  26.906  1.00  0.00     0.031 A 
ATOM     50  C   UNL A   1      41.596  29.113  29.182  1.00  0.00     0.031 A 
ATOM     51  C   UNL A   1      47.781  28.395  27.315  1.00  0.00     0.049 A 
ATOM     52  C   UNL A   1      42.772  30.043  29.181  1.00  0.00     0.074 A 
ATOM     53  C   UNL A   1      48.775  29.356  27.274  1.00  0.00     0.029 A 
ATOM     54  N   UNL A   1      46.651  29.006  27.836  1.00  0.00    -0.354 N 
ATOM     55  N   UNL A   1      43.994  29.812  28.771  1.00  0.00    -0.248 NA
ATOM     56  C   UNL A   1      42.555  31.398  29.706  1.00  0.00     0.031 C 
ATOM     57  C   UNL A   1      48.263  30.535  27.821  1.00  0.00     0.029 A 
ATOM     58  C   UNL A   1      46.934  30.324  28.153  1.00  0.00     0.049 A 
ATOM     59  H   UNL A   1      45.778  28.569  27.962  1.00  0.00     0.167 HD
ATOM     60  C   UNL A   1      44.695  30.993  28.984  1.00  0.00     0.074 A 
ATOM     61  C   UNL A   1      43.758  31.941  29.549  1.00  0.00     0.031 C 
ATOM     62  C   UNL A   1      45.999  31.258  28.730  1.00  0.00     0.031 A 
BRANCH  49  63
ATOM     63  C   UNL A   1      49.192  26.505  26.428  1.00  0.00    -0.014 A 
ATOM     64  C   UNL A   1      50.044  25.844  27.332  1.00  0.00     0.010 A 
ATOM     65  C   UNL A   1      49.637  26.746  25.116  1.00  0.00     0.010 A 
ATOM     66  C   UNL A   1      51.322  25.439  26.936  1.00  0.00     0.020 A 
ATOM     67  C   UNL A   1      50.906  26.322  24.711  1.00  0.00     0.020 A 
ATOM     68  C   UNL A   1      51.747  25.685  25.629  1.00  0.00     0.054 A 
BRANCH  68  69
ATOM     69  S   UNL A   1      53.398  25.133  25.117  1.00  0.00     0.124 S 
ATOM     70  O   UNL A   1      54.261  25.800  26.086  1.00  0.00    -0.237 OA
ATOM     71  O   UNL A   1      53.308  23.680  25.244  1.00  0.00    -0.237 OA
ATOM     72  O   UNL A   1      53.504  25.619  23.743  1.00  0.00    -0.744 OA
ENDBRANCH  68  69
ENDBRANCH  49  63
BRANCH  50  73
ATOM     73  C   UNL A   1      40.237  29.557  29.590  1.00  0.00    -0.014 A 
ATOM     74  C   UNL A   1      39.323  30.023  28.626  1.00  0.00     0.010 A 
ATOM     75  C   UNL A   1      39.912  29.661  30.953  1.00  0.00     0.010 A 
ATOM     76  C   UNL A   1      38.143  30.658  29.020  1.00  0.00     0.020 A 
ATOM     77  C   UNL A   1      38.720  30.276  31.350  1.00  0.00     0.020 A 
ATOM     78  C   UNL A   1      37.864  30.805  30.382  1.00  0.00     0.054 A 
BRANCH  78  79
ATOM     79  S   UNL A   1      36.385  31.734  30.875  1.00  0.00     0.124 S 
ATOM     80  O   UNL A   1      35.486  31.477  29.753  1.00  0.00    -0.237 OA
ATOM     81  O   UNL A   1      36.014  31.101  32.138  1.00  0.00    -0.237 OA
ATOM     82  O   UNL A   1      36.868  33.108  30.988  1.00  0.00    -0.744 OA
ENDBRANCH  78  79
ENDBRANCH  50  73
BRANCH  62  83
ATOM     83  C   UNL A   1      46.530  32.624  29.069  1.00  0.00    -0.014 A 
ATOM     84  C   UNL A   1      46.393  33.675  28.143  1.00  0.00     0.010 A 
ATOM     85  C   UNL A   1      47.303  32.822  30.225  1.00  0.00     0.010 A 
ATOM     86  C   UNL A   1      47.058  34.886  28.345  1.00  0.00     0.020 A 
ATOM     87  C   UNL A   1      47.954  34.040  30.441  1.00  0.00     0.020 A 
ATOM     88  C   UNL A   1      47.850  35.054  29.484  1.00  0.00     0.054 A 
BRANCH  88  89
ATOM     89  S   UNL A   1      48.759  36.609  29.699  1.00  0.00     0.124 S 
ATOM     90  O   UNL A   1      50.145  36.177  29.556  1.00  0.00    -0.237 OA
ATOM     91  O   UNL A   1      48.242  37.439  28.612  1.00  0.00    -0.237 OA
ATOM     92  O   UNL A   1      48.374  37.046  31.040  1.00  0.00    -0.744 OA
ENDBRANCH  88  89
ENDBRANCH  62  83
ENDBRANCH  36  37
ENDBRANCH  28  31
ENDBRANCH  26  27
ENDBRANCH  25  26
ENDBRANCH   1  25
TORSDOF 19
ENDMDL
