MODEL 1
REMARK VINA RESULT:     -11.9      0.000      0.000
REMARK SMILES C[C@@H]1[C@@H](C(=O)NCCCCNC(=O)c2ccc(-c3c4nc(c(-c5ccc(S(=O)(=O)[O-])cc5)c5ccc([nH]5)c(-c5ccc(S(=O)(=O)[O-])cc5)c5nc(c(-c6ccc(S(=O)(=O)[O-])cc6)c6ccc3[nH]6)C=C5)C=C4)cc2)CC[N@@H+]1[C@@H]1CCOC2(CCCCC2)C1
REMARK SMILES IDX 9 1 8 2 7 3 6 4 4 5 5 6 3 8 1 9 2 10 76 11 74 12 75 13 77 15
REMARK SMILES IDX 78 16 87 17 79 18 81 19 80 20 82 21 86 22 83 23 85 24 84 25
REMARK SMILES IDX 10 26 11 27 12 28 13 30 14 31 15 32 73 33 16 34 72 35 17 36
REMARK SMILES IDX 18 37 19 38 66 39 20 40 71 41 65 42 67 43 21 44 70 45 64 46
REMARK SMILES IDX 63 47 22 49 52 50 33 51 51 52 34 53 37 54 50 55 68 56 35 57
REMARK SMILES IDX 36 58 49 60 69 61 38 62 23 63 24 64 32 65 25 66 31 67 26 68
REMARK SMILES IDX 27 69 28 70 29 71 30 72 53 73 54 74 62 75 55 76 61 77 56 78
REMARK SMILES IDX 57 79 58 80 59 81 60 82 39 83 40 84 48 85 41 86 47 87 42 88
REMARK SMILES IDX 43 89 44 90 45 91 46 92
REMARK H PARENT 6 7 76 14 11 29 67 48 37 59
REMARK Flexibility Score: inf
ROOT
ATOM      1  C   UNL A   1      32.468  28.113  26.302  1.00  0.00     0.023 C 
ENDROOT
BRANCH   1   2
ATOM      2  C   UNL A   1      31.705  29.280  25.687  1.00  0.00     0.023 C 
BRANCH   2   3
ATOM      3  C   UNL A   1      31.510  29.175  24.182  1.00  0.00     0.116 C 
BRANCH   3   4
ATOM      4  N   UNL A   1      32.736  28.828  23.491  1.00  0.00    -0.356 N 
ATOM      5  C   UNL A   1      32.947  27.774  22.645  1.00  0.00     0.229 C 
ATOM      6  O   UNL A   1      34.038  27.662  22.093  1.00  0.00    -0.275 OA
ATOM      7  H   UNL A   1      33.508  29.420  23.648  1.00  0.00     0.163 HD
BRANCH   5   8
ATOM      8  C   UNL A   1      31.785  26.816  22.463  1.00  0.00     0.142 C 
ATOM      9  C   UNL A   1      30.037  25.969  23.940  1.00  0.00     0.076 C 
ATOM     10  C   UNL A   1      31.541  25.875  23.648  1.00  0.00     0.193 C 
ATOM     11  N   UNL A   1      32.174  24.604  23.255  1.00  0.00    -0.329 N 
ATOM     12  C   UNL A   1      31.983  25.896  21.277  1.00  0.00     0.081 C 
ATOM     13  C   UNL A   1      32.641  24.673  21.873  1.00  0.00     0.263 C 
ATOM     14  H   UNL A   1      32.818  24.639  24.046  1.00  0.00     0.348 HD
BRANCH  11  15
ATOM     15  C   UNL A   1      31.930  23.248  23.755  1.00  0.00     0.189 C 
ATOM     16  C   UNL A   1      31.571  23.196  25.238  1.00  0.00     0.093 C 
ATOM     17  C   UNL A   1      32.958  22.125  23.449  1.00  0.00     0.100 C 
ATOM     18  C   UNL A   1      32.735  22.710  26.094  1.00  0.00     0.167 C 
ATOM     19  C   UNL A   1      34.255  22.264  24.251  1.00  0.00     0.074 C 
ATOM     20  O   UNL A   1      34.001  22.956  25.483  1.00  0.00    -0.375 OA
ATOM     21  C   UNL A   1      35.285  23.003  23.369  1.00  0.00     0.036 C 
ATOM     22  C   UNL A   1      34.957  20.948  24.645  1.00  0.00     0.036 C 
ATOM     23  C   UNL A   1      36.488  23.456  24.171  1.00  0.00     0.003 C 
ATOM     24  C   UNL A   1      36.268  21.236  25.416  1.00  0.00     0.003 C 
ATOM     25  C   UNL A   1      37.208  22.233  24.723  1.00  0.00     0.000 C 
ENDBRANCH  11  15
ENDBRANCH   5   8
ENDBRANCH   3   4
ENDBRANCH   2   3
ENDBRANCH   1   2
BRANCH   1  26
ATOM     26  C   UNL A   1      33.611  28.519  27.220  1.00  0.00     0.116 C 
BRANCH  26  27
ATOM     27  N   UNL A   1      33.517  29.903  27.669  1.00  0.00    -0.352 N 
ATOM     28  C   UNL A   1      34.487  30.675  28.255  1.00  0.00     0.251 C 
ATOM     29  H   UNL A   1      32.645  30.340  27.534  1.00  0.00     0.163 HD
ATOM     30  O   UNL A   1      34.233  31.802  28.665  1.00  0.00    -0.269 OA
BRANCH  28  31
ATOM     31  C   UNL A   1      35.825  30.088  28.421  1.00  0.00     0.039 A 
ATOM     32  C   UNL A   1      36.717  30.141  27.350  1.00  0.00     0.014 A 
ATOM     33  C   UNL A   1      36.223  29.608  29.671  1.00  0.00     0.014 A 
ATOM     34  C   UNL A   1      38.042  29.760  27.553  1.00  0.00     0.010 A 
ATOM     35  C   UNL A   1      37.561  29.321  29.893  1.00  0.00     0.010 A 
ATOM     36  C   UNL A   1      38.480  29.381  28.833  1.00  0.00    -0.014 A 
BRANCH  36  37
ATOM     37  C   UNL A   1      39.892  29.007  29.080  1.00  0.00     0.031 A 
ATOM     38  C   UNL A   1      40.828  30.019  29.679  1.00  0.00     0.074 A 
ATOM     39  C   UNL A   1      40.339  27.788  28.719  1.00  0.00     0.049 A 
ATOM     40  N   UNL A   1      42.108  29.914  29.926  1.00  0.00    -0.248 NA
ATOM     41  C   UNL A   1      40.259  31.336  30.015  1.00  0.00     0.031 C 
ATOM     42  C   UNL A   1      39.533  26.738  28.089  1.00  0.00     0.029 A 
ATOM     43  N   UNL A   1      41.586  27.227  28.829  1.00  0.00    -0.354 N 
ATOM     44  C   UNL A   1      42.498  31.151  30.421  1.00  0.00     0.074 A 
ATOM     45  C   UNL A   1      41.337  32.011  30.382  1.00  0.00     0.031 C 
ATOM     46  C   UNL A   1      40.299  25.650  27.903  1.00  0.00     0.029 A 
ATOM     47  C   UNL A   1      41.653  25.936  28.361  1.00  0.00     0.049 A 
ATOM     48  H   UNL A   1      42.359  27.704  29.208  1.00  0.00     0.167 HD
ATOM     49  C   UNL A   1      43.707  31.534  30.894  1.00  0.00     0.031 A 
ATOM     50  C   UNL A   1      42.693  25.080  28.311  1.00  0.00     0.031 A 
ATOM     51  C   UNL A   1      44.852  30.666  30.949  1.00  0.00     0.049 A 
ATOM     52  C   UNL A   1      44.027  25.523  28.847  1.00  0.00     0.074 A 
ATOM     53  C   UNL A   1      46.110  30.934  31.455  1.00  0.00     0.029 A 
ATOM     54  N   UNL A   1      44.876  29.361  30.481  1.00  0.00    -0.354 N 
ATOM     55  N   UNL A   1      44.363  26.680  29.369  1.00  0.00    -0.248 NA
ATOM     56  C   UNL A   1      45.118  24.540  28.804  1.00  0.00     0.031 C 
ATOM     57  C   UNL A   1      46.909  29.804  31.254  1.00  0.00     0.029 A 
ATOM     58  C   UNL A   1      46.131  28.813  30.675  1.00  0.00     0.049 A 
ATOM     59  H   UNL A   1      44.111  28.893  30.073  1.00  0.00     0.167 HD
ATOM     60  C   UNL A   1      45.695  26.553  29.746  1.00  0.00     0.074 A 
ATOM     61  C   UNL A   1      46.099  25.204  29.402  1.00  0.00     0.031 C 
ATOM     62  C   UNL A   1      46.509  27.466  30.329  1.00  0.00     0.031 A 
BRANCH  49  63
ATOM     63  C   UNL A   1      43.841  32.950  31.385  1.00  0.00    -0.014 A 
ATOM     64  C   UNL A   1      43.560  33.286  32.723  1.00  0.00     0.010 A 
ATOM     65  C   UNL A   1      44.263  33.960  30.502  1.00  0.00     0.010 A 
ATOM     66  C   UNL A   1      43.648  34.612  33.154  1.00  0.00     0.020 A 
ATOM     67  C   UNL A   1      44.384  35.282  30.938  1.00  0.00     0.020 A 
ATOM     68  C   UNL A   1      44.056  35.602  32.257  1.00  0.00     0.054 A 
BRANCH  68  69
ATOM     69  S   UNL A   1      44.172  37.313  32.848  1.00  0.00     0.124 S 
ATOM     70  O   UNL A   1      45.552  37.374  33.321  1.00  0.00    -0.237 OA
ATOM     71  O   UNL A   1      43.887  38.088  31.642  1.00  0.00    -0.237 OA
ATOM     72  O   UNL A   1      43.152  37.390  33.891  1.00  0.00    -0.744 OA
ENDBRANCH  68  69
ENDBRANCH  49  63
BRANCH  50  73
ATOM     73  C   UNL A   1      42.502  23.710  27.763  1.00  0.00    -0.014 A 
ATOM     74  C   UNL A   1      42.757  23.443  26.405  1.00  0.00     0.010 A 
ATOM     75  C   UNL A   1      42.081  22.658  28.598  1.00  0.00     0.010 A 
ATOM     76  C   UNL A   1      42.578  22.156  25.889  1.00  0.00     0.020 A 
ATOM     77  C   UNL A   1      41.928  21.363  28.091  1.00  0.00     0.020 A 
ATOM     78  C   UNL A   1      42.166  21.123  26.736  1.00  0.00     0.054 A 
BRANCH  78  79
ATOM     79  S   UNL A   1      41.994  19.451  26.055  1.00  0.00     0.124 S 
ATOM     80  O   UNL A   1      42.512  18.626  27.142  1.00  0.00    -0.237 OA
ATOM     81  O   UNL A   1      40.557  19.353  25.815  1.00  0.00    -0.237 OA
ATOM     82  O   UNL A   1      42.818  19.486  24.849  1.00  0.00    -0.744 OA
ENDBRANCH  78  79
ENDBRANCH  50  73
BRANCH  62  83
ATOM     83  C   UNL A   1      47.906  27.026  30.678  1.00  0.00    -0.014 A 
ATOM     84  C   UNL A   1      48.985  27.251  29.804  1.00  0.00     0.010 A 
ATOM     85  C   UNL A   1      48.147  26.429  31.930  1.00  0.00     0.010 A 
ATOM     86  C   UNL A   1      50.276  26.856  30.164  1.00  0.00     0.020 A 
ATOM     87  C   UNL A   1      49.441  26.059  32.304  1.00  0.00     0.020 A 
ATOM     88  C   UNL A   1      50.494  26.261  31.412  1.00  0.00     0.054 A 
BRANCH  88  89
ATOM     89  S   UNL A   1      52.186  25.796  31.873  1.00  0.00     0.124 S 
ATOM     90  O   UNL A   1      52.908  26.001  30.620  1.00  0.00    -0.237 OA
ATOM     91  O   UNL A   1      52.499  26.742  32.941  1.00  0.00    -0.237 OA
ATOM     92  O   UNL A   1      52.059  24.405  32.299  1.00  0.00    -0.744 OA
ENDBRANCH  88  89
ENDBRANCH  62  83
ENDBRANCH  36  37
ENDBRANCH  28  31
ENDBRANCH  26  27
ENDBRANCH   1  26
TORSDOF 15
ENDMDL
MODEL 2
REMARK VINA RESULT:     -11.5      4.515     10.418
REMARK SMILES C[C@@H]1[C@@H](C(=O)NCCCCNC(=O)c2ccc(-c3c4nc(c(-c5ccc(S(=O)(=O)[O-])cc5)c5ccc([nH]5)c(-c5ccc(S(=O)(=O)[O-])cc5)c5nc(c(-c6ccc(S(=O)(=O)[O-])cc6)c6ccc3[nH]6)C=C5)C=C4)cc2)CC[N@@H+]1[C@@H]1CCOC2(CCCCC2)C1
REMARK SMILES IDX 9 1 8 2 7 3 6 4 4 5 5 6 3 8 1 9 2 10 76 11 74 12 75 13 77 15
REMARK SMILES IDX 78 16 87 17 79 18 81 19 80 20 82 21 86 22 83 23 85 24 84 25
REMARK SMILES IDX 10 26 11 27 12 28 13 30 14 31 15 32 73 33 16 34 72 35 17 36
REMARK SMILES IDX 18 37 19 38 66 39 20 40 71 41 65 42 67 43 21 44 70 45 64 46
REMARK SMILES IDX 63 47 22 49 52 50 33 51 51 52 34 53 37 54 50 55 68 56 35 57
REMARK SMILES IDX 36 58 49 60 69 61 38 62 23 63 24 64 32 65 25 66 31 67 26 68
REMARK SMILES IDX 27 69 28 70 29 71 30 72 53 73 54 74 62 75 55 76 61 77 56 78
REMARK SMILES IDX 57 79 58 80 59 81 60 82 39 83 40 84 48 85 41 86 47 87 42 88
REMARK SMILES IDX 43 89 44 90 45 91 46 92
REMARK H PARENT 6 7 76 14 11 29 67 48 37 59
REMARK Flexibility Score: inf
ROOT
ATOM      1  C   UNL A   1      37.538  23.581  25.545  1.00  0.00     0.023 C 
ENDROOT
BRANCH   1   2
ATOM      2  C   UNL A   1      37.521  22.069  25.357  1.00  0.00     0.023 C 
BRANCH   2   3
ATOM      3  C   UNL A   1      36.149  21.434  25.525  1.00  0.00     0.116 C 
BRANCH   3   4
ATOM      4  N   UNL A   1      35.355  22.097  26.541  1.00  0.00    -0.356 N 
ATOM      5  C   UNL A   1      34.096  22.615  26.411  1.00  0.00     0.229 C 
ATOM      6  O   UNL A   1      33.543  23.091  27.397  1.00  0.00    -0.275 OA
ATOM      7  H   UNL A   1      35.771  22.185  27.430  1.00  0.00     0.163 HD
BRANCH   5   8
ATOM      8  C   UNL A   1      33.484  22.552  25.024  1.00  0.00     0.142 C 
ATOM      9  C   UNL A   1      34.253  23.197  22.800  1.00  0.00     0.076 C 
ATOM     10  C   UNL A   1      33.776  23.771  24.142  1.00  0.00     0.193 C 
ATOM     11  N   UNL A   1      32.564  24.603  24.239  1.00  0.00    -0.329 N 
ATOM     12  C   UNL A   1      31.973  22.463  25.069  1.00  0.00     0.081 C 
ATOM     13  C   UNL A   1      31.524  23.903  24.988  1.00  0.00     0.263 C 
ATOM     14  H   UNL A   1      33.088  25.381  24.641  1.00  0.00     0.348 HD
BRANCH  11  15
ATOM     15  C   UNL A   1      32.075  25.645  23.332  1.00  0.00     0.189 C 
ATOM     16  C   UNL A   1      33.181  26.350  22.553  1.00  0.00     0.093 C 
ATOM     17  C   UNL A   1      31.078  26.712  23.862  1.00  0.00     0.100 C 
ATOM     18  C   UNL A   1      33.477  27.740  23.105  1.00  0.00     0.167 C 
ATOM     19  C   UNL A   1      31.733  27.733  24.796  1.00  0.00     0.074 C 
ATOM     20  O   UNL A   1      33.127  27.865  24.482  1.00  0.00    -0.375 OA
ATOM     21  C   UNL A   1      31.503  27.265  26.250  1.00  0.00     0.036 C 
ATOM     22  C   UNL A   1      31.154  29.162  24.755  1.00  0.00     0.036 C 
ATOM     23  C   UNL A   1      32.365  28.036  27.230  1.00  0.00     0.003 C 
ATOM     24  C   UNL A   1      31.882  30.077  25.771  1.00  0.00     0.003 C 
ATOM     25  C   UNL A   1      31.968  29.505  27.193  1.00  0.00     0.000 C 
ENDBRANCH  11  15
ENDBRANCH   5   8
ENDBRANCH   3   4
ENDBRANCH   2   3
ENDBRANCH   1   2
BRANCH   1  26
ATOM     26  C   UNL A   1      38.517  24.076  26.598  1.00  0.00     0.116 C 
BRANCH  26  27
ATOM     27  N   UNL A   1      39.899  24.082  26.133  1.00  0.00    -0.352 N 
ATOM     28  C   UNL A   1      40.900  24.963  26.453  1.00  0.00     0.251 C 
ATOM     29  H   UNL A   1      40.145  23.362  25.509  1.00  0.00     0.163 HD
ATOM     30  O   UNL A   1      41.997  24.895  25.910  1.00  0.00    -0.269 OA
BRANCH  28  31
ATOM     31  C   UNL A   1      40.599  26.020  27.431  1.00  0.00     0.039 A 
ATOM     32  C   UNL A   1      39.666  25.760  28.434  1.00  0.00     0.014 A 
ATOM     33  C   UNL A   1      41.336  27.208  27.417  1.00  0.00     0.014 A 
ATOM     34  C   UNL A   1      39.512  26.679  29.470  1.00  0.00     0.010 A 
ATOM     35  C   UNL A   1      41.247  28.073  28.497  1.00  0.00     0.010 A 
ATOM     36  C   UNL A   1      40.326  27.823  29.527  1.00  0.00    -0.014 A 
BRANCH  36  37
ATOM     37  C   UNL A   1      40.204  28.796  30.638  1.00  0.00     0.031 A 
ATOM     38  C   UNL A   1      41.091  28.651  31.843  1.00  0.00     0.074 A 
ATOM     39  C   UNL A   1      39.269  29.764  30.586  1.00  0.00     0.049 A 
ATOM     40  N   UNL A   1      41.110  29.359  32.942  1.00  0.00    -0.248 NA
ATOM     41  C   UNL A   1      42.065  27.545  31.826  1.00  0.00     0.031 C 
ATOM     42  C   UNL A   1      38.322  29.975  29.488  1.00  0.00     0.029 A 
ATOM     43  N   UNL A   1      38.960  30.754  31.484  1.00  0.00    -0.354 N 
ATOM     44  C   UNL A   1      42.074  28.771  33.751  1.00  0.00     0.074 A 
ATOM     45  C   UNL A   1      42.574  27.613  33.045  1.00  0.00     0.031 C 
ATOM     46  C   UNL A   1      37.564  31.050  29.762  1.00  0.00     0.029 A 
ATOM     47  C   UNL A   1      37.941  31.578  31.068  1.00  0.00     0.049 A 
ATOM     48  H   UNL A   1      39.424  30.863  32.345  1.00  0.00     0.167 HD
ATOM     49  C   UNL A   1      42.526  29.173  34.962  1.00  0.00     0.031 A 
ATOM     50  C   UNL A   1      37.379  32.642  31.673  1.00  0.00     0.031 A 
ATOM     51  C   UNL A   1      42.038  30.337  35.648  1.00  0.00     0.049 A 
ATOM     52  C   UNL A   1      37.899  33.076  33.016  1.00  0.00     0.074 A 
ATOM     53  C   UNL A   1      42.460  30.864  36.855  1.00  0.00     0.029 A 
ATOM     54  N   UNL A   1      41.018  31.156  35.186  1.00  0.00    -0.354 N 
ATOM     55  N   UNL A   1      38.856  32.542  33.741  1.00  0.00    -0.248 NA
ATOM     56  C   UNL A   1      37.277  34.264  33.617  1.00  0.00     0.031 C 
ATOM     57  C   UNL A   1      41.665  31.978  37.144  1.00  0.00     0.029 A 
ATOM     58  C   UNL A   1      40.788  32.178  36.090  1.00  0.00     0.049 A 
ATOM     59  H   UNL A   1      40.531  31.029  34.340  1.00  0.00     0.167 HD
ATOM     60  C   UNL A   1      38.973  33.349  34.867  1.00  0.00     0.074 A 
ATOM     61  C   UNL A   1      37.997  34.411  34.722  1.00  0.00     0.031 C 
ATOM     62  C   UNL A   1      39.814  33.228  35.922  1.00  0.00     0.031 A 
BRANCH  49  63
ATOM     63  C   UNL A   1      43.600  28.341  35.610  1.00  0.00    -0.014 A 
ATOM     64  C   UNL A   1      43.275  27.233  36.416  1.00  0.00     0.010 A 
ATOM     65  C   UNL A   1      44.954  28.662  35.404  1.00  0.00     0.010 A 
ATOM     66  C   UNL A   1      44.281  26.495  37.044  1.00  0.00     0.020 A 
ATOM     67  C   UNL A   1      45.964  27.906  36.006  1.00  0.00     0.020 A 
ATOM     68  C   UNL A   1      45.619  26.840  36.839  1.00  0.00     0.054 A 
BRANCH  68  69
ATOM     69  S   UNL A   1      46.904  25.857  37.659  1.00  0.00     0.124 S 
ATOM     70  O   UNL A   1      47.236  24.877  36.628  1.00  0.00    -0.237 OA
ATOM     71  O   UNL A   1      47.938  26.850  37.937  1.00  0.00    -0.237 OA
ATOM     72  O   UNL A   1      46.229  25.317  38.837  1.00  0.00    -0.744 OA
ENDBRANCH  68  69
ENDBRANCH  49  63
BRANCH  50  73
ATOM     73  C   UNL A   1      36.283  33.389  30.997  1.00  0.00    -0.014 A 
ATOM     74  C   UNL A   1      35.075  33.647  31.671  1.00  0.00     0.010 A 
ATOM     75  C   UNL A   1      36.446  33.863  29.682  1.00  0.00     0.010 A 
ATOM     76  C   UNL A   1      34.045  34.348  31.037  1.00  0.00     0.020 A 
ATOM     77  C   UNL A   1      35.428  34.589  29.055  1.00  0.00     0.020 A 
ATOM     78  C   UNL A   1      34.229  34.817  29.733  1.00  0.00     0.054 A 
BRANCH  78  79
ATOM     79  S   UNL A   1      32.899  35.772  28.951  1.00  0.00     0.124 S 
ATOM     80  O   UNL A   1      32.341  34.804  28.013  1.00  0.00    -0.237 OA
ATOM     81  O   UNL A   1      32.048  36.116  30.087  1.00  0.00    -0.237 OA
ATOM     82  O   UNL A   1      33.601  36.901  28.344  1.00  0.00    -0.744 OA
ENDBRANCH  78  79
ENDBRANCH  50  73
BRANCH  62  83
ATOM     83  C   UNL A   1      39.753  34.292  36.984  1.00  0.00    -0.014 A 
ATOM     84  C   UNL A   1      39.001  34.115  38.159  1.00  0.00     0.010 A 
ATOM     85  C   UNL A   1      40.511  35.468  36.823  1.00  0.00     0.010 A 
ATOM     86  C   UNL A   1      38.982  35.110  39.140  1.00  0.00     0.020 A 
ATOM     87  C   UNL A   1      40.517  36.451  37.815  1.00  0.00     0.020 A 
ATOM     88  C   UNL A   1      39.740  36.272  38.960  1.00  0.00     0.054 A 
BRANCH  88  89
ATOM     89  S   UNL A   1      39.734  37.530  40.267  1.00  0.00     0.124 S 
ATOM     90  O   UNL A   1      41.162  37.745  40.487  1.00  0.00    -0.237 OA
ATOM     91  O   UNL A   1      39.021  38.641  39.641  1.00  0.00    -0.237 OA
ATOM     92  O   UNL A   1      39.024  36.883  41.368  1.00  0.00    -0.744 OA
ENDBRANCH  88  89
ENDBRANCH  62  83
ENDBRANCH  36  37
ENDBRANCH  28  31
ENDBRANCH  26  27
ENDBRANCH   1  26
TORSDOF 15
ENDMDL
MODEL 3
REMARK VINA RESULT:     -11.4      2.534      9.269
REMARK SMILES C[C@@H]1[C@@H](C(=O)NCCCCNC(=O)c2ccc(-c3c4nc(c(-c5ccc(S(=O)(=O)[O-])cc5)c5ccc([nH]5)c(-c5ccc(S(=O)(=O)[O-])cc5)c5nc(c(-c6ccc(S(=O)(=O)[O-])cc6)c6ccc3[nH]6)C=C5)C=C4)cc2)CC[N@@H+]1[C@@H]1CCOC2(CCCCC2)C1
REMARK SMILES IDX 9 1 8 2 7 3 6 4 4 5 5 6 3 8 1 9 2 10 76 11 74 12 75 13 77 15
REMARK SMILES IDX 78 16 87 17 79 18 81 19 80 20 82 21 86 22 83 23 85 24 84 25
REMARK SMILES IDX 10 26 11 27 12 28 13 30 14 31 15 32 73 33 16 34 72 35 17 36
REMARK SMILES IDX 18 37 19 38 66 39 20 40 71 41 65 42 67 43 21 44 70 45 64 46
REMARK SMILES IDX 63 47 22 49 52 50 33 51 51 52 34 53 37 54 50 55 68 56 35 57
REMARK SMILES IDX 36 58 49 60 69 61 38 62 23 63 24 64 32 65 25 66 31 67 26 68
REMARK SMILES IDX 27 69 28 70 29 71 30 72 53 73 54 74 62 75 55 76 61 77 56 78
REMARK SMILES IDX 57 79 58 80 59 81 60 82 39 83 40 84 48 85 41 86 47 87 42 88
REMARK SMILES IDX 43 89 44 90 45 91 46 92
REMARK H PARENT 6 7 76 14 11 29 67 48 37 59
REMARK Flexibility Score: inf
ROOT
ATOM      1  C   UNL A   1      35.714  23.145  25.215  1.00  0.00     0.023 C 
ENDROOT
BRANCH   1   2
ATOM      2  C   UNL A   1      35.672  21.629  25.068  1.00  0.00     0.023 C 
BRANCH   2   3
ATOM      3  C   UNL A   1      34.457  20.973  25.708  1.00  0.00     0.116 C 
BRANCH   3   4
ATOM      4  N   UNL A   1      33.991  21.697  26.874  1.00  0.00    -0.356 N 
ATOM      5  C   UNL A   1      32.775  22.299  27.051  1.00  0.00     0.229 C 
ATOM      6  O   UNL A   1      32.521  22.821  28.133  1.00  0.00    -0.275 OA
ATOM      7  H   UNL A   1      34.622  21.764  27.628  1.00  0.00     0.163 HD
BRANCH   5   8
ATOM      8  C   UNL A   1      31.831  22.268  25.865  1.00  0.00     0.142 C 
ATOM      9  C   UNL A   1      32.140  22.379  23.447  1.00  0.00     0.076 C 
ATOM     10  C   UNL A   1      32.203  23.224  24.727  1.00  0.00     0.193 C 
ATOM     11  N   UNL A   1      31.333  24.396  24.921  1.00  0.00    -0.329 N 
ATOM     12  C   UNL A   1      30.419  22.658  26.248  1.00  0.00     0.081 C 
ATOM     13  C   UNL A   1      30.373  24.146  25.994  1.00  0.00     0.263 C 
ATOM     14  H   UNL A   1      32.134  25.016  25.048  1.00  0.00     0.348 HD
BRANCH  11  15
ATOM     15  C   UNL A   1      30.927  25.426  23.960  1.00  0.00     0.189 C 
ATOM     16  C   UNL A   1      31.980  25.722  22.896  1.00  0.00     0.093 C 
ATOM     17  C   UNL A   1      30.349  26.770  24.479  1.00  0.00     0.100 C 
ATOM     18  C   UNL A   1      32.709  27.034  23.158  1.00  0.00     0.167 C 
ATOM     19  C   UNL A   1      31.411  27.676  25.109  1.00  0.00     0.074 C 
ATOM     20  O   UNL A   1      32.698  27.397  24.538  1.00  0.00    -0.375 OA
ATOM     21  C   UNL A   1      31.388  27.448  26.636  1.00  0.00     0.036 C 
ATOM     22  C   UNL A   1      31.196  29.195  24.942  1.00  0.00     0.036 C 
ATOM     23  C   UNL A   1      32.596  28.064  27.313  1.00  0.00     0.003 C 
ATOM     24  C   UNL A   1      32.319  29.988  25.656  1.00  0.00     0.003 C 
ATOM     25  C   UNL A   1      32.564  29.573  27.113  1.00  0.00     0.000 C 
ENDBRANCH  11  15
ENDBRANCH   5   8
ENDBRANCH   3   4
ENDBRANCH   2   3
ENDBRANCH   1   2
BRANCH   1  26
ATOM     26  C   UNL A   1      37.103  23.753  25.090  1.00  0.00     0.116 C 
BRANCH  26  27
ATOM     27  N   UNL A   1      38.170  22.793  25.346  1.00  0.00    -0.352 N 
ATOM     28  C   UNL A   1      39.317  22.972  26.076  1.00  0.00     0.251 C 
ATOM     29  H   UNL A   1      38.053  21.903  24.942  1.00  0.00     0.163 HD
ATOM     30  O   UNL A   1      40.173  22.095  26.129  1.00  0.00    -0.269 OA
BRANCH  28  31
ATOM     31  C   UNL A   1      39.508  24.264  26.751  1.00  0.00     0.039 A 
ATOM     32  C   UNL A   1      39.006  24.427  28.042  1.00  0.00     0.014 A 
ATOM     33  C   UNL A   1      40.290  25.253  26.148  1.00  0.00     0.014 A 
ATOM     34  C   UNL A   1      39.341  25.573  28.759  1.00  0.00     0.010 A 
ATOM     35  C   UNL A   1      40.698  26.345  26.899  1.00  0.00     0.010 A 
ATOM     36  C   UNL A   1      40.217  26.522  28.206  1.00  0.00    -0.014 A 
BRANCH  36  37
ATOM     37  C   UNL A   1      40.616  27.731  28.964  1.00  0.00     0.031 A 
ATOM     38  C   UNL A   1      41.963  27.770  29.632  1.00  0.00     0.074 A 
ATOM     39  C   UNL A   1      39.755  28.758  29.096  1.00  0.00     0.049 A 
ATOM     40  N   UNL A   1      42.483  28.704  30.385  1.00  0.00    -0.248 NA
ATOM     41  C   UNL A   1      42.827  26.589  29.460  1.00  0.00     0.031 C 
ATOM     42  C   UNL A   1      38.405  28.815  28.529  1.00  0.00     0.029 A 
ATOM     43  N   UNL A   1      39.889  29.956  29.752  1.00  0.00    -0.354 N 
ATOM     44  C   UNL A   1      43.718  28.215  30.791  1.00  0.00     0.074 A 
ATOM     45  C   UNL A   1      43.844  26.878  30.256  1.00  0.00     0.031 C 
ATOM     46  C   UNL A   1      37.851  30.001  28.832  1.00  0.00     0.029 A 
ATOM     47  C   UNL A   1      38.786  30.770  29.645  1.00  0.00     0.049 A 
ATOM     48  H   UNL A   1      40.699  30.208  30.251  1.00  0.00     0.167 HD
ATOM     49  C   UNL A   1      44.676  28.832  31.521  1.00  0.00     0.031 A 
ATOM     50  C   UNL A   1      38.559  32.000  30.147  1.00  0.00     0.031 A 
ATOM     51  C   UNL A   1      44.552  30.169  32.033  1.00  0.00     0.049 A 
ATOM     52  C   UNL A   1      39.639  32.669  30.951  1.00  0.00     0.074 A 
ATOM     53  C   UNL A   1      45.481  30.909  32.741  1.00  0.00     0.029 A 
ATOM     54  N   UNL A   1      43.426  30.967  31.890  1.00  0.00    -0.354 N 
ATOM     55  N   UNL A   1      40.827  32.214  31.275  1.00  0.00    -0.248 NA
ATOM     56  C   UNL A   1      39.356  34.024  31.443  1.00  0.00     0.031 C 
ATOM     57  C   UNL A   1      44.900  32.140  33.064  1.00  0.00     0.029 A 
ATOM     58  C   UNL A   1      43.632  32.187  32.506  1.00  0.00     0.049 A 
ATOM     59  H   UNL A   1      42.603  30.704  31.416  1.00  0.00     0.167 HD
ATOM     60  C   UNL A   1      41.446  33.240  31.980  1.00  0.00     0.074 A 
ATOM     61  C   UNL A   1      40.505  34.341  32.027  1.00  0.00     0.031 C 
ATOM     62  C   UNL A   1      42.682  33.272  32.535  1.00  0.00     0.031 A 
BRANCH  49  63
ATOM     63  C   UNL A   1      45.935  28.057  31.803  1.00  0.00    -0.014 A 
ATOM     64  C   UNL A   1      47.061  28.168  30.966  1.00  0.00     0.010 A 
ATOM     65  C   UNL A   1      46.000  27.212  32.926  1.00  0.00     0.010 A 
ATOM     66  C   UNL A   1      48.208  27.412  31.216  1.00  0.00     0.020 A 
ATOM     67  C   UNL A   1      47.158  26.478  33.198  1.00  0.00     0.020 A 
ATOM     68  C   UNL A   1      48.248  26.568  32.329  1.00  0.00     0.054 A 
BRANCH  68  69
ATOM     69  S   UNL A   1      49.755  25.606  32.636  1.00  0.00     0.124 S 
ATOM     70  O   UNL A   1      50.738  26.658  32.881  1.00  0.00    -0.237 OA
ATOM     71  O   UNL A   1      49.390  24.803  33.801  1.00  0.00    -0.237 OA
ATOM     72  O   UNL A   1      49.943  24.853  31.398  1.00  0.00    -0.744 OA
ENDBRANCH  68  69
ENDBRANCH  49  63
BRANCH  50  73
ATOM     73  C   UNL A   1      37.268  32.687  29.872  1.00  0.00    -0.014 A 
ATOM     74  C   UNL A   1      37.123  33.504  28.736  1.00  0.00     0.010 A 
ATOM     75  C   UNL A   1      36.169  32.517  30.734  1.00  0.00     0.010 A 
ATOM     76  C   UNL A   1      35.910  34.151  28.477  1.00  0.00     0.020 A 
ATOM     77  C   UNL A   1      34.946  33.140  30.463  1.00  0.00     0.020 A 
ATOM     78  C   UNL A   1      34.829  33.963  29.341  1.00  0.00     0.054 A 
BRANCH  78  79
ATOM     79  S   UNL A   1      33.250  34.768  28.954  1.00  0.00     0.124 S 
ATOM     80  O   UNL A   1      32.655  33.831  28.007  1.00  0.00    -0.237 OA
ATOM     81  O   UNL A   1      32.604  34.843  30.262  1.00  0.00    -0.237 OA
ATOM     82  O   UNL A   1      33.652  36.056  28.392  1.00  0.00    -0.744 OA
ENDBRANCH  78  79
ENDBRANCH  50  73
BRANCH  62  83
ATOM     83  C   UNL A   1      43.111  34.552  33.200  1.00  0.00    -0.014 A 
ATOM     84  C   UNL A   1      43.062  34.705  34.597  1.00  0.00     0.010 A 
ATOM     85  C   UNL A   1      43.626  35.598  32.411  1.00  0.00     0.010 A 
ATOM     86  C   UNL A   1      43.490  35.895  35.191  1.00  0.00     0.020 A 
ATOM     87  C   UNL A   1      44.082  36.777  33.004  1.00  0.00     0.020 A 
ATOM     88  C   UNL A   1      43.996  36.924  34.389  1.00  0.00     0.054 A 
BRANCH  88  89
ATOM     89  S   UNL A   1      44.586  38.443  35.186  1.00  0.00     0.124 S 
ATOM     90  O   UNL A   1      43.992  39.478  34.343  1.00  0.00    -0.237 OA
ATOM     91  O   UNL A   1      44.031  38.336  36.533  1.00  0.00    -0.237 OA
ATOM     92  O   UNL A   1      46.040  38.334  35.108  1.00  0.00    -0.744 OA
ENDBRANCH  88  89
ENDBRANCH  62  83
ENDBRANCH  36  37
ENDBRANCH  28  31
ENDBRANCH  26  27
ENDBRANCH   1  26
TORSDOF 15
ENDMDL
