MODEL 1
REMARK VINA RESULT:     -10.5      0.000      0.000
REMARK SMILES C[C@H](SCc1nc2ccccc2c(=O)[nH]1)C(=O)NCCCCNC(=O)c1ccc(-c2c3nc(c(-c4ccc(S(=O)(=O)[O-])cc4)c4ccc([nH]4)c(-c4ccc(S(=O)(=O)[O-])cc4)c4nc(c(-c5ccc(S(=O)(=O)[O-])cc5)c5ccc2[nH]5)C=C4)C=C3)cc1
REMARK SMILES IDX 20 1 19 2 18 3 16 4 17 5 2 7 1 8 3 9 4 10 5 11 6 12 15 13
REMARK SMILES IDX 7 14 13 15 8 17 12 18 14 19 9 20 11 21 10 22 21 23 22 24
REMARK SMILES IDX 23 25 24 26 25 28 26 29 27 30 85 31 28 32 84 33 29 34 30 35
REMARK SMILES IDX 31 36 78 37 32 38 83 39 77 40 79 41 33 42 82 43 76 44 75 45
REMARK SMILES IDX 34 47 64 48 45 49 63 50 46 51 49 52 62 53 80 54 47 55 48 56
REMARK SMILES IDX 61 58 81 59 50 60 35 61 36 62 44 63 37 64 43 65 38 66 39 67
REMARK SMILES IDX 40 68 41 69 42 70 65 71 66 72 74 73 67 74 73 75 68 76 69 77
REMARK SMILES IDX 70 78 71 79 72 80 51 81 52 82 60 83 53 84 59 85 54 86 55 87
REMARK SMILES IDX 56 88 57 89 58 90
REMARK H PARENT 18 6 15 16 23 27 79 46 49 57
REMARK Flexibility Score: inf
ROOT
ATOM      1  C   UNL A   1      32.889  27.041  24.891  1.00  0.00     0.023 C 
ENDROOT
BRANCH   1   2
ATOM      2  C   UNL A   1      33.487  25.632  24.953  1.00  0.00     0.116 C 
BRANCH   2   3
ATOM      3  N   UNL A   1      33.704  25.046  23.643  1.00  0.00    -0.355 N 
ATOM      4  C   UNL A   1      32.989  24.137  22.932  1.00  0.00     0.232 C 
ATOM      5  O   UNL A   1      33.420  23.830  21.816  1.00  0.00    -0.274 OA
ATOM      6  H   UNL A   1      34.515  25.366  23.187  1.00  0.00     0.163 HD
BRANCH   4   7
ATOM      7  C   UNL A   1      31.694  23.514  23.431  1.00  0.00     0.133 C 
ATOM      8  C   UNL A   1      30.523  24.494  23.425  1.00  0.00     0.030 C 
BRANCH   7   9
ATOM      9  S   UNL A   1      31.773  22.585  25.012  1.00  0.00    -0.141 SA
BRANCH   9  10
ATOM     10  C   UNL A   1      32.812  21.143  24.643  1.00  0.00     0.145 C 
BRANCH  10  11
ATOM     11  C   UNL A   1      34.290  21.295  24.889  1.00  0.00     0.119 A 
ATOM     12  N   UNL A   1      34.757  22.449  25.244  1.00  0.00    -0.234 NA
ATOM     13  N   UNL A   1      35.057  20.169  24.792  1.00  0.00    -0.309 N 
ATOM     14  C   UNL A   1      36.133  22.549  25.512  1.00  0.00     0.078 A 
ATOM     15  C   UNL A   1      36.405  20.158  25.031  1.00  0.00     0.258 A 
ATOM     16  H   UNL A   1      34.619  19.325  24.538  1.00  0.00     0.171 HD
ATOM     17  C   UNL A   1      36.662  23.782  25.900  1.00  0.00     0.029 A 
ATOM     18  C   UNL A   1      36.992  21.450  25.426  1.00  0.00     0.065 A 
ATOM     19  O   UNL A   1      37.070  19.131  24.935  1.00  0.00    -0.269 OA
ATOM     20  C   UNL A   1      38.023  23.909  26.197  1.00  0.00     0.002 A 
ATOM     21  C   UNL A   1      38.354  21.564  25.720  1.00  0.00     0.016 A 
ATOM     22  C   UNL A   1      38.867  22.801  26.107  1.00  0.00     0.001 A 
ENDBRANCH  10  11
ENDBRANCH   9  10
ENDBRANCH   7   9
ENDBRANCH   4   7
ENDBRANCH   2   3
ENDBRANCH   1   2
BRANCH   1  23
ATOM     23  C   UNL A   1      33.812  28.155  25.377  1.00  0.00     0.023 C 
BRANCH  23  24
ATOM     24  C   UNL A   1      33.778  28.349  26.882  1.00  0.00     0.116 C 
BRANCH  24  25
ATOM     25  N   UNL A   1      33.686  29.760  27.235  1.00  0.00    -0.352 N 
ATOM     26  C   UNL A   1      34.551  30.524  27.976  1.00  0.00     0.251 C 
ATOM     27  H   UNL A   1      32.891  30.231  26.892  1.00  0.00     0.163 HD
ATOM     28  O   UNL A   1      34.189  31.607  28.425  1.00  0.00    -0.269 OA
BRANCH  26  29
ATOM     29  C   UNL A   1      35.914  30.021  28.224  1.00  0.00     0.039 A 
ATOM     30  C   UNL A   1      36.874  30.102  27.213  1.00  0.00     0.014 A 
ATOM     31  C   UNL A   1      36.241  29.487  29.472  1.00  0.00     0.014 A 
ATOM     32  C   UNL A   1      38.182  29.699  27.483  1.00  0.00     0.010 A 
ATOM     33  C   UNL A   1      37.562  29.189  29.770  1.00  0.00     0.010 A 
ATOM     34  C   UNL A   1      38.543  29.275  28.772  1.00  0.00    -0.014 A 
BRANCH  34  35
ATOM     35  C   UNL A   1      39.936  28.893  29.104  1.00  0.00     0.031 A 
ATOM     36  C   UNL A   1      40.852  29.898  29.749  1.00  0.00     0.074 A 
ATOM     37  C   UNL A   1      40.390  27.670  28.763  1.00  0.00     0.049 A 
ATOM     38  N   UNL A   1      42.117  29.779  30.056  1.00  0.00    -0.248 NA
ATOM     39  C   UNL A   1      40.282  31.221  30.059  1.00  0.00     0.031 C 
ATOM     40  C   UNL A   1      39.606  26.630  28.091  1.00  0.00     0.029 A 
ATOM     41  N   UNL A   1      41.624  27.097  28.930  1.00  0.00    -0.354 N 
ATOM     42  C   UNL A   1      42.495  31.012  30.576  1.00  0.00     0.074 A 
ATOM     43  C   UNL A   1      41.347  31.883  30.486  1.00  0.00     0.031 C 
ATOM     44  C   UNL A   1      40.369  25.535  27.937  1.00  0.00     0.029 A 
ATOM     45  C   UNL A   1      41.705  25.810  28.452  1.00  0.00     0.049 A 
ATOM     46  H   UNL A   1      42.382  27.563  29.353  1.00  0.00     0.167 HD
ATOM     47  C   UNL A   1      43.687  31.378  31.104  1.00  0.00     0.031 A 
ATOM     48  C   UNL A   1      42.742  24.952  28.428  1.00  0.00     0.031 A 
ATOM     49  C   UNL A   1      44.820  30.499  31.203  1.00  0.00     0.049 A 
ATOM     50  C   UNL A   1      44.060  25.386  29.010  1.00  0.00     0.074 A 
ATOM     51  C   UNL A   1      46.054  30.750  31.774  1.00  0.00     0.029 A 
ATOM     52  N   UNL A   1      44.859  29.201  30.717  1.00  0.00    -0.354 N 
ATOM     53  N   UNL A   1      44.377  26.532  29.565  1.00  0.00    -0.248 NA
ATOM     54  C   UNL A   1      45.154  24.409  28.974  1.00  0.00     0.031 C 
ATOM     55  C   UNL A   1      46.860  29.624  31.579  1.00  0.00     0.029 A 
ATOM     56  C   UNL A   1      46.105  28.647  30.949  1.00  0.00     0.049 A 
ATOM     57  H   UNL A   1      44.110  28.742  30.272  1.00  0.00     0.167 HD
ATOM     58  C   UNL A   1      45.700  26.401  29.972  1.00  0.00     0.074 A 
ATOM     59  C   UNL A   1      46.115  25.060  29.615  1.00  0.00     0.031 C 
ATOM     60  C   UNL A   1      46.499  27.308  30.588  1.00  0.00     0.031 A 
BRANCH  47  61
ATOM     61  C   UNL A   1      43.823  32.790  31.611  1.00  0.00    -0.014 A 
ATOM     62  C   UNL A   1      44.223  33.836  30.757  1.00  0.00     0.010 A 
ATOM     63  C   UNL A   1      43.502  33.087  32.947  1.00  0.00     0.010 A 
ATOM     64  C   UNL A   1      44.337  35.142  31.241  1.00  0.00     0.020 A 
ATOM     65  C   UNL A   1      43.583  34.398  33.428  1.00  0.00     0.020 A 
ATOM     66  C   UNL A   1      44.015  35.414  32.574  1.00  0.00     0.054 A 
BRANCH  66  67
ATOM     67  S   UNL A   1      44.137  37.125  33.163  1.00  0.00     0.124 S 
ATOM     68  O   UNL A   1      42.857  37.301  33.845  1.00  0.00    -0.237 OA
ATOM     69  O   UNL A   1      45.310  37.079  34.032  1.00  0.00    -0.237 OA
ATOM     70  O   UNL A   1      44.301  37.903  31.939  1.00  0.00    -0.744 OA
ENDBRANCH  66  67
ENDBRANCH  47  61
BRANCH  48  71
ATOM     71  C   UNL A   1      42.571  23.592  27.843  1.00  0.00    -0.014 A 
ATOM     72  C   UNL A   1      43.102  23.285  26.578  1.00  0.00     0.010 A 
ATOM     73  C   UNL A   1      41.880  22.593  28.553  1.00  0.00     0.010 A 
ATOM     74  C   UNL A   1      42.922  22.015  26.022  1.00  0.00     0.020 A 
ATOM     75  C   UNL A   1      41.726  21.311  28.015  1.00  0.00     0.020 A 
ATOM     76  C   UNL A   1      42.237  21.035  26.745  1.00  0.00     0.054 A 
BRANCH  76  77
ATOM     77  S   UNL A   1      42.051  19.383  26.021  1.00  0.00     0.124 S 
ATOM     78  O   UNL A   1      42.806  19.509  24.778  1.00  0.00    -0.237 OA
ATOM     79  O   UNL A   1      42.649  18.524  27.040  1.00  0.00    -0.237 OA
ATOM     80  O   UNL A   1      40.606  19.238  25.865  1.00  0.00    -0.744 OA
ENDBRANCH  76  77
ENDBRANCH  48  71
BRANCH  60  81
ATOM     81  C   UNL A   1      47.892  26.870  30.953  1.00  0.00    -0.014 A 
ATOM     82  C   UNL A   1      48.982  27.104  30.098  1.00  0.00     0.010 A 
ATOM     83  C   UNL A   1      48.118  26.264  32.204  1.00  0.00     0.010 A 
ATOM     84  C   UNL A   1      50.270  26.710  30.473  1.00  0.00     0.020 A 
ATOM     85  C   UNL A   1      49.408  25.900  32.596  1.00  0.00     0.020 A 
ATOM     86  C   UNL A   1      50.474  26.112  31.720  1.00  0.00     0.054 A 
BRANCH  86  87
ATOM     87  S   UNL A   1      52.161  25.653  32.200  1.00  0.00     0.124 S 
ATOM     88  O   UNL A   1      52.456  26.628  33.245  1.00  0.00    -0.237 OA
ATOM     89  O   UNL A   1      51.999  24.274  32.654  1.00  0.00    -0.237 OA
ATOM     90  O   UNL A   1      52.929  25.810  30.966  1.00  0.00    -0.744 OA
ENDBRANCH  86  87
ENDBRANCH  60  81
ENDBRANCH  34  35
ENDBRANCH  26  29
ENDBRANCH  24  25
ENDBRANCH  23  24
ENDBRANCH   1  23
TORSDOF 17
ENDMDL
MODEL 2
REMARK VINA RESULT:     -10.5      3.558      6.415
REMARK SMILES C[C@H](SCc1nc2ccccc2c(=O)[nH]1)C(=O)NCCCCNC(=O)c1ccc(-c2c3nc(c(-c4ccc(S(=O)(=O)[O-])cc4)c4ccc([nH]4)c(-c4ccc(S(=O)(=O)[O-])cc4)c4nc(c(-c5ccc(S(=O)(=O)[O-])cc5)c5ccc2[nH]5)C=C4)C=C3)cc1
REMARK SMILES IDX 20 1 19 2 18 3 16 4 17 5 2 7 1 8 3 9 4 10 5 11 6 12 15 13
REMARK SMILES IDX 7 14 13 15 8 17 12 18 14 19 9 20 11 21 10 22 21 23 22 24
REMARK SMILES IDX 23 25 24 26 25 28 26 29 27 30 85 31 28 32 84 33 29 34 30 35
REMARK SMILES IDX 31 36 78 37 32 38 83 39 77 40 79 41 33 42 82 43 76 44 75 45
REMARK SMILES IDX 34 47 64 48 45 49 63 50 46 51 49 52 62 53 80 54 47 55 48 56
REMARK SMILES IDX 61 58 81 59 50 60 35 61 36 62 44 63 37 64 43 65 38 66 39 67
REMARK SMILES IDX 40 68 41 69 42 70 65 71 66 72 74 73 67 74 73 75 68 76 69 77
REMARK SMILES IDX 70 78 71 79 72 80 51 81 52 82 60 83 53 84 59 85 54 86 55 87
REMARK SMILES IDX 56 88 57 89 58 90
REMARK H PARENT 18 6 15 16 23 27 79 46 49 57
REMARK Flexibility Score: inf
ROOT
ATOM      1  C   UNL A   1      33.725  34.850  29.179  1.00  0.00     0.023 C 
ENDROOT
BRANCH   1   2
ATOM      2  C   UNL A   1      34.257  34.363  30.531  1.00  0.00     0.116 C 
BRANCH   2   3
ATOM      3  N   UNL A   1      34.207  35.381  31.564  1.00  0.00    -0.355 N 
ATOM      4  C   UNL A   1      34.978  35.590  32.662  1.00  0.00     0.232 C 
ATOM      5  O   UNL A   1      34.701  36.566  33.367  1.00  0.00    -0.274 OA
ATOM      6  H   UNL A   1      33.485  36.039  31.448  1.00  0.00     0.163 HD
BRANCH   4   7
ATOM      7  C   UNL A   1      36.159  34.708  33.036  1.00  0.00     0.133 C 
ATOM      8  C   UNL A   1      37.200  34.606  31.923  1.00  0.00     0.030 C 
BRANCH   7   9
ATOM      9  S   UNL A   1      35.774  33.056  33.739  1.00  0.00    -0.141 SA
BRANCH   9  10
ATOM     10  C   UNL A   1      37.242  32.623  34.715  1.00  0.00     0.145 C 
BRANCH  10  11
ATOM     11  C   UNL A   1      38.071  31.471  34.213  1.00  0.00     0.119 A 
ATOM     12  N   UNL A   1      39.360  31.525  34.321  1.00  0.00    -0.234 NA
ATOM     13  N   UNL A   1      37.401  30.384  33.729  1.00  0.00    -0.309 N 
ATOM     14  C   UNL A   1      40.105  30.416  33.887  1.00  0.00     0.078 A 
ATOM     15  C   UNL A   1      38.031  29.254  33.280  1.00  0.00     0.258 A 
ATOM     16  H   UNL A   1      36.418  30.415  33.702  1.00  0.00     0.171 HD
ATOM     17  C   UNL A   1      41.497  30.448  33.995  1.00  0.00     0.029 A 
ATOM     18  C   UNL A   1      39.501  29.267  33.368  1.00  0.00     0.065 A 
ATOM     19  O   UNL A   1      37.403  28.291  32.850  1.00  0.00    -0.269 OA
ATOM     20  C   UNL A   1      42.266  29.350  33.593  1.00  0.00     0.002 A 
ATOM     21  C   UNL A   1      40.259  28.164  32.963  1.00  0.00     0.016 A 
ATOM     22  C   UNL A   1      41.647  28.210  33.080  1.00  0.00     0.001 A 
ENDBRANCH  10  11
ENDBRANCH   9  10
ENDBRANCH   7   9
ENDBRANCH   4   7
ENDBRANCH   2   3
ENDBRANCH   1   2
BRANCH   1  23
ATOM     23  C   UNL A   1      34.469  34.310  27.961  1.00  0.00     0.023 C 
BRANCH  23  24
ATOM     24  C   UNL A   1      35.159  32.983  28.219  1.00  0.00     0.116 C 
BRANCH  24  25
ATOM     25  N   UNL A   1      34.236  31.866  28.067  1.00  0.00    -0.352 N 
ATOM     26  C   UNL A   1      34.512  30.537  27.864  1.00  0.00     0.251 C 
ATOM     27  H   UNL A   1      33.279  32.097  28.117  1.00  0.00     0.163 HD
ATOM     28  O   UNL A   1      33.634  29.777  27.468  1.00  0.00    -0.269 OA
BRANCH  26  29
ATOM     29  C   UNL A   1      35.876  30.043  28.128  1.00  0.00     0.039 A 
ATOM     30  C   UNL A   1      36.828  30.066  27.107  1.00  0.00     0.014 A 
ATOM     31  C   UNL A   1      36.211  29.576  29.401  1.00  0.00     0.014 A 
ATOM     32  C   UNL A   1      38.136  29.673  27.387  1.00  0.00     0.010 A 
ATOM     33  C   UNL A   1      37.533  29.290  29.704  1.00  0.00     0.010 A 
ATOM     34  C   UNL A   1      38.506  29.318  28.695  1.00  0.00    -0.014 A 
BRANCH  34  35
ATOM     35  C   UNL A   1      39.900  28.949  29.036  1.00  0.00     0.031 A 
ATOM     36  C   UNL A   1      40.806  29.966  29.677  1.00  0.00     0.074 A 
ATOM     37  C   UNL A   1      40.365  27.727  28.708  1.00  0.00     0.049 A 
ATOM     38  N   UNL A   1      42.070  29.860  29.991  1.00  0.00    -0.248 NA
ATOM     39  C   UNL A   1      40.224  31.288  29.974  1.00  0.00     0.031 C 
ATOM     40  C   UNL A   1      39.592  26.675  28.041  1.00  0.00     0.029 A 
ATOM     41  N   UNL A   1      41.603  27.165  28.885  1.00  0.00    -0.354 N 
ATOM     42  C   UNL A   1      42.437  31.100  30.502  1.00  0.00     0.074 A 
ATOM     43  C   UNL A   1      41.282  31.961  30.399  1.00  0.00     0.031 C 
ATOM     44  C   UNL A   1      40.363  25.585  27.900  1.00  0.00     0.029 A 
ATOM     45  C   UNL A   1      41.695  25.875  28.418  1.00  0.00     0.049 A 
ATOM     46  H   UNL A   1      42.355  27.640  29.307  1.00  0.00     0.167 HD
ATOM     47  C   UNL A   1      43.623  31.479  31.032  1.00  0.00     0.031 A 
ATOM     48  C   UNL A   1      42.739  25.024  28.405  1.00  0.00     0.031 A 
ATOM     49  C   UNL A   1      44.763  30.610  31.143  1.00  0.00     0.049 A 
ATOM     50  C   UNL A   1      44.051  25.473  28.990  1.00  0.00     0.074 A 
ATOM     51  C   UNL A   1      45.993  30.875  31.718  1.00  0.00     0.029 A 
ATOM     52  N   UNL A   1      44.813  29.307  30.668  1.00  0.00    -0.354 N 
ATOM     53  N   UNL A   1      44.357  26.626  29.536  1.00  0.00    -0.248 NA
ATOM     54  C   UNL A   1      45.153  24.503  28.967  1.00  0.00     0.031 C 
ATOM     55  C   UNL A   1      46.808  29.754  31.535  1.00  0.00     0.029 A 
ATOM     56  C   UNL A   1      46.063  28.765  30.910  1.00  0.00     0.049 A 
ATOM     57  H   UNL A   1      44.070  28.839  30.224  1.00  0.00     0.167 HD
ATOM     58  C   UNL A   1      45.679  26.508  29.951  1.00  0.00     0.074 A 
ATOM     59  C   UNL A   1      46.106  25.168  29.607  1.00  0.00     0.031 C 
ATOM     60  C   UNL A   1      46.468  27.426  30.562  1.00  0.00     0.031 A 
BRANCH  47  61
ATOM     61  C   UNL A   1      43.747  32.896  31.527  1.00  0.00    -0.014 A 
ATOM     62  C   UNL A   1      44.307  33.905  30.721  1.00  0.00     0.010 A 
ATOM     63  C   UNL A   1      43.254  33.237  32.800  1.00  0.00     0.010 A 
ATOM     64  C   UNL A   1      44.407  35.216  31.192  1.00  0.00     0.020 A 
ATOM     65  C   UNL A   1      43.322  34.555  33.263  1.00  0.00     0.020 A 
ATOM     66  C   UNL A   1      43.912  35.533  32.461  1.00  0.00     0.054 A 
BRANCH  66  67
ATOM     67  S   UNL A   1      44.023  37.251  33.031  1.00  0.00     0.124 S 
ATOM     68  O   UNL A   1      42.948  37.311  34.019  1.00  0.00    -0.237 OA
ATOM     69  O   UNL A   1      45.377  37.320  33.573  1.00  0.00    -0.237 OA
ATOM     70  O   UNL A   1      43.798  38.034  31.819  1.00  0.00    -0.744 OA
ENDBRANCH  66  67
ENDBRANCH  47  61
BRANCH  48  71
ATOM     71  C   UNL A   1      42.581  23.658  27.832  1.00  0.00    -0.014 A 
ATOM     72  C   UNL A   1      42.853  23.417  26.473  1.00  0.00     0.010 A 
ATOM     73  C   UNL A   1      42.162  22.588  28.644  1.00  0.00     0.010 A 
ATOM     74  C   UNL A   1      42.684  22.139  25.932  1.00  0.00     0.020 A 
ATOM     75  C   UNL A   1      42.023  21.301  28.114  1.00  0.00     0.020 A 
ATOM     76  C   UNL A   1      42.272  21.089  26.756  1.00  0.00     0.054 A 
BRANCH  76  77
ATOM     77  S   UNL A   1      42.098  19.431  26.041  1.00  0.00     0.124 S 
ATOM     78  O   UNL A   1      40.656  19.342  25.828  1.00  0.00    -0.237 OA
ATOM     79  O   UNL A   1      42.912  19.523  24.831  1.00  0.00    -0.237 OA
ATOM     80  O   UNL A   1      42.634  18.553  27.078  1.00  0.00    -0.744 OA
ENDBRANCH  76  77
ENDBRANCH  48  71
BRANCH  60  81
ATOM     81  C   UNL A   1      47.863  27.001  30.937  1.00  0.00    -0.014 A 
ATOM     82  C   UNL A   1      48.946  27.181  30.059  1.00  0.00     0.010 A 
ATOM     83  C   UNL A   1      48.100  26.465  32.218  1.00  0.00     0.010 A 
ATOM     84  C   UNL A   1      50.235  26.802  30.442  1.00  0.00     0.020 A 
ATOM     85  C   UNL A   1      49.391  26.117  32.616  1.00  0.00     0.020 A 
ATOM     86  C   UNL A   1      50.450  26.274  31.719  1.00  0.00     0.054 A 
BRANCH  86  87
ATOM     87  S   UNL A   1      52.139  25.833  32.206  1.00  0.00     0.124 S 
ATOM     88  O   UNL A   1      52.126  24.380  32.070  1.00  0.00    -0.237 OA
ATOM     89  O   UNL A   1      52.952  26.549  31.226  1.00  0.00    -0.237 OA
ATOM     90  O   UNL A   1      52.246  26.329  33.577  1.00  0.00    -0.744 OA
ENDBRANCH  86  87
ENDBRANCH  60  81
ENDBRANCH  34  35
ENDBRANCH  26  29
ENDBRANCH  24  25
ENDBRANCH  23  24
ENDBRANCH   1  23
TORSDOF 17
ENDMDL
MODEL 3
REMARK VINA RESULT:     -10.4      3.567     10.445
REMARK SMILES C[C@H](SCc1nc2ccccc2c(=O)[nH]1)C(=O)NCCCCNC(=O)c1ccc(-c2c3nc(c(-c4ccc(S(=O)(=O)[O-])cc4)c4ccc([nH]4)c(-c4ccc(S(=O)(=O)[O-])cc4)c4nc(c(-c5ccc(S(=O)(=O)[O-])cc5)c5ccc2[nH]5)C=C4)C=C3)cc1
REMARK SMILES IDX 20 1 19 2 18 3 16 4 17 5 2 7 1 8 3 9 4 10 5 11 6 12 15 13
REMARK SMILES IDX 7 14 13 15 8 17 12 18 14 19 9 20 11 21 10 22 21 23 22 24
REMARK SMILES IDX 23 25 24 26 25 28 26 29 27 30 85 31 28 32 84 33 29 34 30 35
REMARK SMILES IDX 31 36 78 37 32 38 83 39 77 40 79 41 33 42 82 43 76 44 75 45
REMARK SMILES IDX 34 47 64 48 45 49 63 50 46 51 49 52 62 53 80 54 47 55 48 56
REMARK SMILES IDX 61 58 81 59 50 60 35 61 36 62 44 63 37 64 43 65 38 66 39 67
REMARK SMILES IDX 40 68 41 69 42 70 65 71 66 72 74 73 67 74 73 75 68 76 69 77
REMARK SMILES IDX 70 78 71 79 72 80 51 81 52 82 60 83 53 84 59 85 54 86 55 87
REMARK SMILES IDX 56 88 57 89 58 90
REMARK H PARENT 18 6 15 16 23 27 79 46 49 57
REMARK Flexibility Score: inf
ROOT
ATOM      1  C   UNL A   1      33.462  34.521  29.119  1.00  0.00     0.023 C 
ENDROOT
BRANCH   1   2
ATOM      2  C   UNL A   1      34.255  34.231  30.398  1.00  0.00     0.116 C 
BRANCH   2   3
ATOM      3  N   UNL A   1      34.194  35.313  31.363  1.00  0.00    -0.355 N 
ATOM      4  C   UNL A   1      34.950  35.588  32.457  1.00  0.00     0.232 C 
ATOM      5  O   UNL A   1      34.668  36.608  33.095  1.00  0.00    -0.274 OA
ATOM      6  H   UNL A   1      33.478  35.966  31.195  1.00  0.00     0.163 HD
BRANCH   4   7
ATOM      7  C   UNL A   1      36.120  34.726  32.905  1.00  0.00     0.133 C 
ATOM      8  C   UNL A   1      37.188  34.567  31.825  1.00  0.00     0.030 C 
BRANCH   7   9
ATOM      9  S   UNL A   1      35.717  33.112  33.681  1.00  0.00    -0.141 SA
BRANCH   9  10
ATOM     10  C   UNL A   1      37.179  32.706  34.676  1.00  0.00     0.145 C 
BRANCH  10  11
ATOM     11  C   UNL A   1      38.030  31.562  34.191  1.00  0.00     0.119 A 
ATOM     12  N   UNL A   1      39.319  31.666  34.243  1.00  0.00    -0.234 NA
ATOM     13  N   UNL A   1      37.382  30.432  33.783  1.00  0.00    -0.309 N 
ATOM     14  C   UNL A   1      40.087  30.565  33.827  1.00  0.00     0.078 A 
ATOM     15  C   UNL A   1      38.034  29.306  33.357  1.00  0.00     0.258 A 
ATOM     16  H   UNL A   1      36.397  30.427  33.795  1.00  0.00     0.171 HD
ATOM     17  C   UNL A   1      41.480  30.651  33.876  1.00  0.00     0.029 A 
ATOM     18  C   UNL A   1      39.505  29.374  33.384  1.00  0.00     0.065 A 
ATOM     19  O   UNL A   1      37.425  28.303  32.996  1.00  0.00    -0.269 OA
ATOM     20  C   UNL A   1      42.272  29.564  33.491  1.00  0.00     0.002 A 
ATOM     21  C   UNL A   1      40.286  28.281  32.996  1.00  0.00     0.016 A 
ATOM     22  C   UNL A   1      41.675  28.381  33.053  1.00  0.00     0.001 A 
ENDBRANCH  10  11
ENDBRANCH   9  10
ENDBRANCH   7   9
ENDBRANCH   4   7
ENDBRANCH   2   3
ENDBRANCH   1   2
BRANCH   1  23
ATOM     23  C   UNL A   1      33.595  33.467  28.024  1.00  0.00     0.023 C 
BRANCH  23  24
ATOM     24  C   UNL A   1      34.588  32.369  28.365  1.00  0.00     0.116 C 
BRANCH  24  25
ATOM     25  N   UNL A   1      33.995  31.048  28.203  1.00  0.00    -0.352 N 
ATOM     26  C   UNL A   1      34.615  29.839  28.012  1.00  0.00     0.251 C 
ATOM     27  H   UNL A   1      33.010  31.018  28.236  1.00  0.00     0.163 HD
ATOM     28  O   UNL A   1      33.976  28.874  27.604  1.00  0.00    -0.269 OA
BRANCH  26  29
ATOM     29  C   UNL A   1      36.056  29.723  28.301  1.00  0.00     0.039 A 
ATOM     30  C   UNL A   1      36.475  29.328  29.573  1.00  0.00     0.014 A 
ATOM     31  C   UNL A   1      36.990  29.989  27.297  1.00  0.00     0.014 A 
ATOM     32  C   UNL A   1      37.837  29.143  29.814  1.00  0.00     0.010 A 
ATOM     33  C   UNL A   1      38.329  29.701  27.507  1.00  0.00     0.010 A 
ATOM     34  C   UNL A   1      38.768  29.292  28.774  1.00  0.00    -0.014 A 
BRANCH  34  35
ATOM     35  C   UNL A   1      40.215  29.049  28.985  1.00  0.00     0.031 A 
ATOM     36  C   UNL A   1      40.807  27.712  28.626  1.00  0.00     0.074 A 
ATOM     37  C   UNL A   1      40.974  30.003  29.560  1.00  0.00     0.049 A 
ATOM     38  N   UNL A   1      42.030  27.283  28.793  1.00  0.00    -0.248 NA
ATOM     39  C   UNL A   1      39.898  26.716  28.031  1.00  0.00     0.031 C 
ATOM     40  C   UNL A   1      40.499  31.320  29.994  1.00  0.00     0.029 A 
ATOM     41  N   UNL A   1      42.306  30.010  29.883  1.00  0.00    -0.354 N 
ATOM     42  C   UNL A   1      42.032  25.967  28.344  1.00  0.00     0.074 A 
ATOM     43  C   UNL A   1      40.678  25.648  27.955  1.00  0.00     0.031 C 
ATOM     44  C   UNL A   1      41.532  32.018  30.492  1.00  0.00     0.029 A 
ATOM     45  C   UNL A   1      42.728  31.185  30.460  1.00  0.00     0.049 A 
ATOM     46  H   UNL A   1      42.905  29.245  29.719  1.00  0.00     0.167 HD
ATOM     47  C   UNL A   1      43.074  25.109  28.241  1.00  0.00     0.031 A 
ATOM     48  C   UNL A   1      43.943  31.547  30.916  1.00  0.00     0.031 A 
ATOM     49  C   UNL A   1      44.421  25.441  28.618  1.00  0.00     0.049 A 
ATOM     50  C   UNL A   1      45.082  30.572  30.802  1.00  0.00     0.074 A 
ATOM     51  C   UNL A   1      45.562  24.667  28.499  1.00  0.00     0.029 A 
ATOM     52  N   UNL A   1      44.810  26.644  29.188  1.00  0.00    -0.354 N 
ATOM     53  N   UNL A   1      45.080  29.357  30.305  1.00  0.00    -0.248 NA
ATOM     54  C   UNL A   1      46.389  31.019  31.298  1.00  0.00     0.031 C 
ATOM     55  C   UNL A   1      46.629  25.379  29.055  1.00  0.00     0.029 A 
ATOM     56  C   UNL A   1      46.167  26.624  29.454  1.00  0.00     0.049 A 
ATOM     57  H   UNL A   1      44.208  27.400  29.376  1.00  0.00     0.167 HD
ATOM     58  C   UNL A   1      46.393  28.908  30.401  1.00  0.00     0.074 A 
ATOM     59  C   UNL A   1      47.161  29.987  30.986  1.00  0.00     0.031 C 
ATOM     60  C   UNL A   1      46.915  27.710  30.036  1.00  0.00     0.031 A 
BRANCH  47  61
ATOM     61  C   UNL A   1      42.795  23.730  27.705  1.00  0.00    -0.014 A 
ATOM     62  C   UNL A   1      42.980  23.424  26.343  1.00  0.00     0.010 A 
ATOM     63  C   UNL A   1      42.385  22.709  28.581  1.00  0.00     0.010 A 
ATOM     64  C   UNL A   1      42.724  22.138  25.863  1.00  0.00     0.020 A 
ATOM     65  C   UNL A   1      42.159  21.411  28.112  1.00  0.00     0.020 A 
ATOM     66  C   UNL A   1      42.316  21.139  26.751  1.00  0.00     0.054 A 
BRANCH  66  67
ATOM     67  S   UNL A   1      42.026  19.469  26.105  1.00  0.00     0.124 S 
ATOM     68  O   UNL A   1      40.595  19.506  25.809  1.00  0.00    -0.237 OA
ATOM     69  O   UNL A   1      42.906  19.422  24.940  1.00  0.00    -0.237 OA
ATOM     70  O   UNL A   1      42.410  18.597  27.211  1.00  0.00    -0.744 OA
ENDBRANCH  66  67
ENDBRANCH  47  61
BRANCH  48  71
ATOM     71  C   UNL A   1      44.144  32.899  31.509  1.00  0.00    -0.014 A 
ATOM     72  C   UNL A   1      44.063  33.089  32.900  1.00  0.00     0.010 A 
ATOM     73  C   UNL A   1      44.425  34.004  30.685  1.00  0.00     0.010 A 
ATOM     74  C   UNL A   1      44.232  34.362  33.452  1.00  0.00     0.020 A 
ATOM     75  C   UNL A   1      44.626  35.273  31.236  1.00  0.00     0.020 A 
ATOM     76  C   UNL A   1      44.515  35.446  32.617  1.00  0.00     0.054 A 
BRANCH  76  77
ATOM     77  S   UNL A   1      44.769  37.081  33.360  1.00  0.00     0.124 S 
ATOM     78  O   UNL A   1      43.398  37.548  33.544  1.00  0.00    -0.237 OA
ATOM     79  O   UNL A   1      45.498  36.759  34.585  1.00  0.00    -0.237 OA
ATOM     80  O   UNL A   1      45.546  37.798  32.352  1.00  0.00    -0.744 OA
ENDBRANCH  76  77
ENDBRANCH  48  71
BRANCH  60  81
ATOM     81  C   UNL A   1      48.397  27.515  30.220  1.00  0.00    -0.014 A 
ATOM     82  C   UNL A   1      49.311  27.835  29.201  1.00  0.00     0.010 A 
ATOM     83  C   UNL A   1      48.883  27.057  31.459  1.00  0.00     0.010 A 
ATOM     84  C   UNL A   1      50.683  27.669  29.407  1.00  0.00     0.020 A 
ATOM     85  C   UNL A   1      50.255  26.922  31.681  1.00  0.00     0.020 A 
ATOM     86  C   UNL A   1      51.146  27.216  30.646  1.00  0.00     0.054 A 
BRANCH  86  87
ATOM     87  S   UNL A   1      52.933  27.053  30.902  1.00  0.00     0.124 S 
ATOM     88  O   UNL A   1      53.454  27.264  29.554  1.00  0.00    -0.237 OA
ATOM     89  O   UNL A   1      53.217  28.120  31.859  1.00  0.00    -0.237 OA
ATOM     90  O   UNL A   1      53.088  25.697  31.425  1.00  0.00    -0.744 OA
ENDBRANCH  86  87
ENDBRANCH  60  81
ENDBRANCH  34  35
ENDBRANCH  26  29
ENDBRANCH  24  25
ENDBRANCH  23  24
ENDBRANCH   1  23
TORSDOF 17
ENDMDL
