MODEL 1
REMARK VINA RESULT:      -8.2      0.000      0.000
REMARK SMILES CC[C@@H](C(=O)NCCCCNC(=O)c1ccc(-c2c3nc(c(-c4ccc(S(=O)(=O)[O-])cc4)c4ccc([nH]4)c(-c4ccc(S(=O)(=O)[O-])cc4)c4nc(c(-c5ccc(S(=O)(=O)[O-])cc5)c5ccc2[nH]5)C=C4)C=C3)cc1)N1C(=O)/C(=C/C(C)=C/c2ccccc2)SC1=S
REMARK SMILES IDX 8 1 7 2 6 3 4 4 5 5 3 7 2 8 1 9 74 10 75 11 89 12 76 13
REMARK SMILES IDX 77 14 88 15 90 16 78 17 79 18 80 19 81 20 82 21 83 22 87 23
REMARK SMILES IDX 84 24 86 25 85 26 9 27 10 28 11 29 12 30 13 32 14 33 15 34
REMARK SMILES IDX 73 35 16 36 72 37 17 38 18 39 19 40 66 41 20 42 71 43 65 44
REMARK SMILES IDX 67 45 21 46 70 47 64 48 63 49 22 51 52 52 33 53 51 54 34 55
REMARK SMILES IDX 37 56 50 57 68 58 35 59 36 60 49 62 69 63 38 64 23 65 24 66
REMARK SMILES IDX 32 67 25 68 31 69 26 70 27 71 28 72 29 73 30 74 53 75 54 76
REMARK SMILES IDX 62 77 55 78 61 79 56 80 57 81 58 82 59 83 60 84 39 85 40 86
REMARK SMILES IDX 48 87 41 88 47 89 42 90 43 91 44 92 45 93 46 94
REMARK H PARENT 6 6 11 31 67 50 37 61
REMARK Flexibility Score: inf
ROOT
ATOM      1  C   UNL A   1      51.619  26.555  33.893  1.00  0.00     0.023 C 
ENDROOT
BRANCH   1   2
ATOM      2  C   UNL A   1      52.528  25.368  34.214  1.00  0.00     0.116 C 
BRANCH   2   3
ATOM      3  N   UNL A   1      52.294  24.280  33.282  1.00  0.00    -0.354 N 
ATOM      4  C   UNL A   1      52.062  22.953  33.509  1.00  0.00     0.243 C 
ATOM      5  O   UNL A   1      51.953  22.217  32.526  1.00  0.00    -0.273 OA
ATOM      6  H   UNL A   1      52.303  24.540  32.332  1.00  0.00     0.163 HD
BRANCH   4   7
ATOM      7  C   UNL A   1      51.904  22.416  34.950  1.00  0.00     0.181 C 
BRANCH   7   8
ATOM      8  C   UNL A   1      52.575  21.043  35.163  1.00  0.00     0.032 C 
ATOM      9  C   UNL A   1      54.055  21.050  35.494  1.00  0.00     0.006 C 
ENDBRANCH   7   8
BRANCH   7  10
ATOM     10  N   UNL A   1      50.437  22.401  35.232  1.00  0.00    -0.280 N 
ATOM     11  C   UNL A   1      49.841  23.405  35.978  1.00  0.00     0.266 C 
ATOM     12  C   UNL A   1      49.606  21.351  34.886  1.00  0.00     0.149 C 
ATOM     13  O   UNL A   1      50.383  24.391  36.461  1.00  0.00    -0.268 OA
ATOM     14  C   UNL A   1      48.372  23.187  36.095  1.00  0.00     0.080 C 
ATOM     15  S   UNL A   1      47.944  21.708  35.354  1.00  0.00    -0.054 SA
ATOM     16  S   UNL A   1      50.007  19.925  34.114  1.00  0.00    -0.052 S 
ATOM     17  C   UNL A   1      47.618  24.126  36.683  1.00  0.00     0.024 C 
BRANCH  17  18
ATOM     18  C   UNL A   1      46.181  24.237  36.912  1.00  0.00    -0.049 C 
ATOM     19  C   UNL A   1      45.724  23.594  38.206  1.00  0.00     0.044 C 
ATOM     20  C   UNL A   1      45.323  24.724  35.993  1.00  0.00     0.011 C 
BRANCH  20  21
ATOM     21  C   UNL A   1      43.857  24.798  36.102  1.00  0.00    -0.025 A 
ATOM     22  C   UNL A   1      43.305  25.686  37.034  1.00  0.00     0.008 A 
ATOM     23  C   UNL A   1      42.999  23.980  35.357  1.00  0.00     0.008 A 
ATOM     24  C   UNL A   1      41.922  25.782  37.193  1.00  0.00     0.001 A 
ATOM     25  C   UNL A   1      41.613  24.084  35.507  1.00  0.00     0.001 A 
ATOM     26  C   UNL A   1      41.075  24.985  36.424  1.00  0.00     0.000 A 
ENDBRANCH  20  21
ENDBRANCH  17  18
ENDBRANCH   7  10
ENDBRANCH   4   7
ENDBRANCH   2   3
ENDBRANCH   1   2
BRANCH   1  27
ATOM     27  C   UNL A   1      50.188  26.174  33.532  1.00  0.00     0.023 C 
BRANCH  27  28
ATOM     28  C   UNL A   1      49.120  26.895  34.343  1.00  0.00     0.116 C 
BRANCH  28  29
ATOM     29  N   UNL A   1      49.483  27.063  35.746  1.00  0.00    -0.352 N 
ATOM     30  C   UNL A   1      48.868  27.825  36.712  1.00  0.00     0.251 C 
ATOM     31  H   UNL A   1      50.278  26.563  36.041  1.00  0.00     0.163 HD
ATOM     32  O   UNL A   1      49.377  27.956  37.821  1.00  0.00    -0.269 OA
BRANCH  30  33
ATOM     33  C   UNL A   1      47.606  28.515  36.380  1.00  0.00     0.039 A 
ATOM     34  C   UNL A   1      47.642  29.631  35.539  1.00  0.00     0.014 A 
ATOM     35  C   UNL A   1      46.387  27.994  36.819  1.00  0.00     0.014 A 
ATOM     36  C   UNL A   1      46.445  30.156  35.049  1.00  0.00     0.010 A 
ATOM     37  C   UNL A   1      45.205  28.465  36.265  1.00  0.00     0.010 A 
ATOM     38  C   UNL A   1      45.223  29.538  35.360  1.00  0.00    -0.014 A 
BRANCH  38  39
ATOM     39  C   UNL A   1      43.950  29.960  34.722  1.00  0.00     0.031 A 
ATOM     40  C   UNL A   1      43.545  29.373  33.398  1.00  0.00     0.074 A 
ATOM     41  C   UNL A   1      43.223  30.950  35.275  1.00  0.00     0.049 A 
ATOM     42  N   UNL A   1      42.549  29.706  32.621  1.00  0.00    -0.248 NA
ATOM     43  C   UNL A   1      44.391  28.292  32.865  1.00  0.00     0.031 C 
ATOM     44  C   UNL A   1      43.540  31.640  36.530  1.00  0.00     0.029 A 
ATOM     45  N   UNL A   1      42.073  31.565  34.844  1.00  0.00    -0.354 N 
ATOM     46  C   UNL A   1      42.664  28.899  31.495  1.00  0.00     0.074 A 
ATOM     47  C   UNL A   1      43.849  28.089  31.672  1.00  0.00     0.031 C 
ATOM     48  C   UNL A   1      42.598  32.566  36.774  1.00  0.00     0.029 A 
ATOM     49  C   UNL A   1      41.638  32.569  35.677  1.00  0.00     0.049 A 
ATOM     50  H   UNL A   1      41.605  31.310  34.018  1.00  0.00     0.167 HD
ATOM     51  C   UNL A   1      41.847  28.828  30.418  1.00  0.00     0.031 A 
ATOM     52  C   UNL A   1      40.592  33.412  35.564  1.00  0.00     0.031 A 
ATOM     53  C   UNL A   1      40.653  29.613  30.259  1.00  0.00     0.049 A 
ATOM     54  C   UNL A   1      39.697  33.310  34.359  1.00  0.00     0.074 A 
ATOM     55  C   UNL A   1      39.715  29.553  29.245  1.00  0.00     0.029 A 
ATOM     56  N   UNL A   1      40.236  30.603  31.135  1.00  0.00    -0.354 N 
ATOM     57  N   UNL A   1      39.780  32.488  33.341  1.00  0.00    -0.248 NA
ATOM     58  C   UNL A   1      38.568  34.249  34.290  1.00  0.00     0.031 C 
ATOM     59  C   UNL A   1      38.751  30.539  29.485  1.00  0.00     0.029 A 
ATOM     60  C   UNL A   1      39.068  31.182  30.671  1.00  0.00     0.049 A 
ATOM     61  H   UNL A   1      40.701  30.857  31.965  1.00  0.00     0.167 HD
ATOM     62  C   UNL A   1      38.709  32.804  32.513  1.00  0.00     0.074 A 
ATOM     63  C   UNL A   1      37.982  33.878  33.158  1.00  0.00     0.031 C 
ATOM     64  C   UNL A   1      38.362  32.255  31.325  1.00  0.00     0.031 A 
BRANCH  51  65
ATOM     65  C   UNL A   1      42.219  27.861  29.328  1.00  0.00    -0.014 A 
ATOM     66  C   UNL A   1      43.055  28.254  28.267  1.00  0.00     0.010 A 
ATOM     67  C   UNL A   1      41.753  26.536  29.379  1.00  0.00     0.010 A 
ATOM     68  C   UNL A   1      43.384  27.350  27.254  1.00  0.00     0.020 A 
ATOM     69  C   UNL A   1      42.099  25.621  28.381  1.00  0.00     0.020 A 
ATOM     70  C   UNL A   1      42.899  26.040  27.315  1.00  0.00     0.054 A 
BRANCH  70  71
ATOM     71  S   UNL A   1      43.355  24.881  25.997  1.00  0.00     0.124 S 
ATOM     72  O   UNL A   1      42.353  23.830  26.161  1.00  0.00    -0.237 OA
ATOM     73  O   UNL A   1      43.217  25.694  24.791  1.00  0.00    -0.237 OA
ATOM     74  O   UNL A   1      44.722  24.494  26.332  1.00  0.00    -0.744 OA
ENDBRANCH  70  71
ENDBRANCH  51  65
BRANCH  52  75
ATOM     75  C   UNL A   1      40.335  34.426  36.621  1.00  0.00    -0.014 A 
ATOM     76  C   UNL A   1      39.529  34.109  37.727  1.00  0.00     0.010 A 
ATOM     77  C   UNL A   1      40.911  35.707  36.536  1.00  0.00     0.010 A 
ATOM     78  C   UNL A   1      39.293  35.058  38.726  1.00  0.00     0.020 A 
ATOM     79  C   UNL A   1      40.695  36.651  37.545  1.00  0.00     0.020 A 
ATOM     80  C   UNL A   1      39.878  36.324  38.628  1.00  0.00     0.054 A 
BRANCH  80  81
ATOM     81  S   UNL A   1      39.605  37.521  39.964  1.00  0.00     0.124 S 
ATOM     82  O   UNL A   1      40.879  38.231  40.000  1.00  0.00    -0.237 OA
ATOM     83  O   UNL A   1      38.465  38.291  39.473  1.00  0.00    -0.237 OA
ATOM     84  O   UNL A   1      39.323  36.677  41.123  1.00  0.00    -0.744 OA
ENDBRANCH  80  81
ENDBRANCH  52  75
BRANCH  64  85
ATOM     85  C   UNL A   1      37.137  32.798  30.643  1.00  0.00    -0.014 A 
ATOM     86  C   UNL A   1      35.858  32.317  30.972  1.00  0.00     0.010 A 
ATOM     87  C   UNL A   1      37.261  33.850  29.718  1.00  0.00     0.010 A 
ATOM     88  C   UNL A   1      34.723  32.871  30.377  1.00  0.00     0.020 A 
ATOM     89  C   UNL A   1      36.126  34.421  29.137  1.00  0.00     0.020 A 
ATOM     90  C   UNL A   1      34.864  33.921  29.464  1.00  0.00     0.054 A 
BRANCH  90  91
ATOM     91  S   UNL A   1      33.371  34.670  28.756  1.00  0.00     0.124 S 
ATOM     92  O   UNL A   1      33.908  35.866  28.114  1.00  0.00    -0.237 OA
ATOM     93  O   UNL A   1      32.889  33.631  27.849  1.00  0.00    -0.237 OA
ATOM     94  O   UNL A   1      32.522  34.915  29.920  1.00  0.00    -0.744 OA
ENDBRANCH  90  91
ENDBRANCH  64  85
ENDBRANCH  38  39
ENDBRANCH  30  33
ENDBRANCH  28  29
ENDBRANCH  27  28
ENDBRANCH   1  27
TORSDOF 18
ENDMDL
MODEL 2
REMARK VINA RESULT:      -8.1      3.789     10.302
REMARK SMILES CC[C@@H](C(=O)NCCCCNC(=O)c1ccc(-c2c3nc(c(-c4ccc(S(=O)(=O)[O-])cc4)c4ccc([nH]4)c(-c4ccc(S(=O)(=O)[O-])cc4)c4nc(c(-c5ccc(S(=O)(=O)[O-])cc5)c5ccc2[nH]5)C=C4)C=C3)cc1)N1C(=O)/C(=C/C(C)=C/c2ccccc2)SC1=S
REMARK SMILES IDX 8 1 7 2 6 3 4 4 5 5 3 7 2 8 1 9 74 10 75 11 89 12 76 13
REMARK SMILES IDX 77 14 88 15 90 16 78 17 79 18 80 19 81 20 82 21 83 22 87 23
REMARK SMILES IDX 84 24 86 25 85 26 9 27 10 28 11 29 12 30 13 32 14 33 15 34
REMARK SMILES IDX 73 35 16 36 72 37 17 38 18 39 19 40 66 41 20 42 71 43 65 44
REMARK SMILES IDX 67 45 21 46 70 47 64 48 63 49 22 51 52 52 33 53 51 54 34 55
REMARK SMILES IDX 37 56 50 57 68 58 35 59 36 60 49 62 69 63 38 64 23 65 24 66
REMARK SMILES IDX 32 67 25 68 31 69 26 70 27 71 28 72 29 73 30 74 53 75 54 76
REMARK SMILES IDX 62 77 55 78 61 79 56 80 57 81 58 82 59 83 60 84 39 85 40 86
REMARK SMILES IDX 48 87 41 88 47 89 42 90 43 91 44 92 45 93 46 94
REMARK H PARENT 6 6 11 31 67 50 37 61
REMARK Flexibility Score: inf
ROOT
ATOM      1  C   UNL A   1      42.003  29.317  25.808  1.00  0.00     0.023 C 
ENDROOT
BRANCH   1   2
ATOM      2  C   UNL A   1      42.965  29.577  26.967  1.00  0.00     0.116 C 
BRANCH   2   3
ATOM      3  N   UNL A   1      44.272  29.965  26.469  1.00  0.00    -0.354 N 
ATOM      4  C   UNL A   1      44.829  31.203  26.312  1.00  0.00     0.243 C 
ATOM      5  O   UNL A   1      45.951  31.263  25.803  1.00  0.00    -0.273 OA
ATOM      6  H   UNL A   1      44.851  29.215  26.201  1.00  0.00     0.163 HD
BRANCH   4   7
ATOM      7  C   UNL A   1      44.085  32.469  26.795  1.00  0.00     0.181 C 
BRANCH   7   8
ATOM      8  C   UNL A   1      44.254  33.672  25.844  1.00  0.00     0.032 C 
ATOM      9  C   UNL A   1      43.776  33.486  24.416  1.00  0.00     0.006 C 
ENDBRANCH   7   8
BRANCH   7  10
ATOM     10  N   UNL A   1      44.582  32.742  28.178  1.00  0.00    -0.280 N 
ATOM     11  C   UNL A   1      43.819  32.418  29.289  1.00  0.00     0.266 C 
ATOM     12  C   UNL A   1      45.750  33.431  28.445  1.00  0.00     0.149 C 
ATOM     13  O   UNL A   1      42.720  31.879  29.302  1.00  0.00    -0.268 OA
ATOM     14  C   UNL A   1      44.537  32.756  30.549  1.00  0.00     0.080 C 
ATOM     15  S   UNL A   1      46.017  33.530  30.185  1.00  0.00    -0.054 SA
ATOM     16  S   UNL A   1      46.835  34.091  27.359  1.00  0.00    -0.052 S 
ATOM     17  C   UNL A   1      43.998  32.400  31.723  1.00  0.00     0.024 C 
BRANCH  17  18
ATOM     18  C   UNL A   1      44.455  32.539  33.103  1.00  0.00    -0.049 C 
ATOM     19  C   UNL A   1      45.190  31.320  33.621  1.00  0.00     0.044 C 
ATOM     20  C   UNL A   1      44.122  33.583  33.887  1.00  0.00     0.011 C 
BRANCH  20  21
ATOM     21  C   UNL A   1      44.465  33.768  35.307  1.00  0.00    -0.025 A 
ATOM     22  C   UNL A   1      43.751  34.722  36.044  1.00  0.00     0.008 A 
ATOM     23  C   UNL A   1      45.507  33.072  35.932  1.00  0.00     0.008 A 
ATOM     24  C   UNL A   1      44.049  34.951  37.387  1.00  0.00     0.001 A 
ATOM     25  C   UNL A   1      45.799  33.294  37.281  1.00  0.00     0.001 A 
ATOM     26  C   UNL A   1      45.069  34.232  38.008  1.00  0.00     0.000 A 
ENDBRANCH  20  21
ENDBRANCH  17  18
ENDBRANCH   7  10
ENDBRANCH   4   7
ENDBRANCH   2   3
ENDBRANCH   1   2
BRANCH   1  27
ATOM     27  C   UNL A   1      41.521  27.874  25.702  1.00  0.00     0.023 C 
BRANCH  27  28
ATOM     28  C   UNL A   1      42.600  26.876  25.309  1.00  0.00     0.116 C 
BRANCH  28  29
ATOM     29  N   UNL A   1      42.174  25.487  25.449  1.00  0.00    -0.352 N 
ATOM     30  C   UNL A   1      41.783  24.813  26.582  1.00  0.00     0.251 C 
ATOM     31  H   UNL A   1      42.164  24.961  24.617  1.00  0.00     0.163 HD
ATOM     32  O   UNL A   1      41.573  23.604  26.547  1.00  0.00    -0.269 OA
BRANCH  30  33
ATOM     33  C   UNL A   1      41.662  25.559  27.850  1.00  0.00     0.039 A 
ATOM     34  C   UNL A   1      42.812  26.087  28.442  1.00  0.00     0.014 A 
ATOM     35  C   UNL A   1      40.400  25.819  28.390  1.00  0.00     0.014 A 
ATOM     36  C   UNL A   1      42.685  26.969  29.515  1.00  0.00     0.010 A 
ATOM     37  C   UNL A   1      40.273  26.760  29.402  1.00  0.00     0.010 A 
ATOM     38  C   UNL A   1      41.412  27.359  29.962  1.00  0.00    -0.014 A 
BRANCH  38  39
ATOM     39  C   UNL A   1      41.235  28.424  30.982  1.00  0.00     0.031 A 
ATOM     40  C   UNL A   1      42.049  28.394  32.246  1.00  0.00     0.074 A 
ATOM     41  C   UNL A   1      40.264  29.346  30.822  1.00  0.00     0.049 A 
ATOM     42  N   UNL A   1      41.947  29.149  33.307  1.00  0.00    -0.248 NA
ATOM     43  C   UNL A   1      43.092  27.359  32.339  1.00  0.00     0.031 C 
ATOM     44  C   UNL A   1      39.369  29.447  29.665  1.00  0.00     0.029 A 
ATOM     45  N   UNL A   1      39.854  30.365  31.645  1.00  0.00    -0.354 N 
ATOM     46  C   UNL A   1      42.889  28.663  34.207  1.00  0.00     0.074 A 
ATOM     47  C   UNL A   1      43.525  27.524  33.581  1.00  0.00     0.031 C 
ATOM     48  C   UNL A   1      38.532  30.481  29.844  1.00  0.00     0.029 A 
ATOM     49  C   UNL A   1      38.797  31.088  31.144  1.00  0.00     0.049 A 
ATOM     50  H   UNL A   1      40.278  30.561  32.511  1.00  0.00     0.167 HD
ATOM     51  C   UNL A   1      43.208  29.134  35.435  1.00  0.00     0.031 A 
ATOM     52  C   UNL A   1      38.104  32.114  31.676  1.00  0.00     0.031 A 
ATOM     53  C   UNL A   1      42.596  30.284  36.041  1.00  0.00     0.049 A 
ATOM     54  C   UNL A   1      38.480  32.621  33.042  1.00  0.00     0.074 A 
ATOM     55  C   UNL A   1      42.908  30.890  37.245  1.00  0.00     0.029 A 
ATOM     56  N   UNL A   1      41.544  31.001  35.491  1.00  0.00    -0.354 N 
ATOM     57  N   UNL A   1      39.425  32.195  33.844  1.00  0.00    -0.248 NA
ATOM     58  C   UNL A   1      37.696  33.746  33.571  1.00  0.00     0.031 C 
ATOM     59  C   UNL A   1      42.015  31.948  37.444  1.00  0.00     0.029 A 
ATOM     60  C   UNL A   1      41.176  32.027  36.345  1.00  0.00     0.049 A 
ATOM     61  H   UNL A   1      41.121  30.810  34.623  1.00  0.00     0.167 HD
ATOM     62  C   UNL A   1      39.357  33.006  34.971  1.00  0.00     0.074 A 
ATOM     63  C   UNL A   1      38.292  33.959  34.738  1.00  0.00     0.031 C 
ATOM     64  C   UNL A   1      40.108  32.962  36.098  1.00  0.00     0.031 A 
BRANCH  51  65
ATOM     65  C   UNL A   1      44.273  28.400  36.203  1.00  0.00    -0.014 A 
ATOM     66  C   UNL A   1      45.582  28.908  36.292  1.00  0.00     0.010 A 
ATOM     67  C   UNL A   1      43.955  27.204  36.869  1.00  0.00     0.010 A 
ATOM     68  C   UNL A   1      46.564  28.211  36.999  1.00  0.00     0.020 A 
ATOM     69  C   UNL A   1      44.929  26.515  37.598  1.00  0.00     0.020 A 
ATOM     70  C   UNL A   1      46.232  27.015  37.642  1.00  0.00     0.054 A 
BRANCH  70  71
ATOM     71  S   UNL A   1      47.522  26.138  38.568  1.00  0.00     0.124 S 
ATOM     72  O   UNL A   1      48.135  27.223  39.331  1.00  0.00    -0.237 OA
ATOM     73  O   UNL A   1      46.755  25.175  39.355  1.00  0.00    -0.237 OA
ATOM     74  O   UNL A   1      48.364  25.558  37.525  1.00  0.00    -0.744 OA
ENDBRANCH  70  71
ENDBRANCH  51  65
BRANCH  52  75
ATOM     75  C   UNL A   1      36.985  32.731  30.916  1.00  0.00    -0.014 A 
ATOM     76  C   UNL A   1      35.655  32.364  31.188  1.00  0.00     0.010 A 
ATOM     77  C   UNL A   1      37.240  33.702  29.931  1.00  0.00     0.010 A 
ATOM     78  C   UNL A   1      34.601  32.948  30.479  1.00  0.00     0.020 A 
ATOM     79  C   UNL A   1      36.187  34.305  29.236  1.00  0.00     0.020 A 
ATOM     80  C   UNL A   1      34.874  33.915  29.508  1.00  0.00     0.054 A 
BRANCH  80  81
ATOM     81  S   UNL A   1      33.487  34.703  28.641  1.00  0.00     0.124 S 
ATOM     82  O   UNL A   1      34.140  35.830  27.985  1.00  0.00    -0.237 OA
ATOM     83  O   UNL A   1      33.021  33.638  27.756  1.00  0.00    -0.237 OA
ATOM     84  O   UNL A   1      32.566  35.050  29.722  1.00  0.00    -0.744 OA
ENDBRANCH  80  81
ENDBRANCH  52  75
BRANCH  64  85
ATOM     85  C   UNL A   1      39.812  33.977  37.167  1.00  0.00    -0.014 A 
ATOM     86  C   UNL A   1      39.236  33.589  38.388  1.00  0.00     0.010 A 
ATOM     87  C   UNL A   1      40.183  35.320  36.975  1.00  0.00     0.010 A 
ATOM     88  C   UNL A   1      39.022  34.530  39.397  1.00  0.00     0.020 A 
ATOM     89  C   UNL A   1      39.991  36.261  37.991  1.00  0.00     0.020 A 
ATOM     90  C   UNL A   1      39.402  35.860  39.193  1.00  0.00     0.054 A 
BRANCH  90  91
ATOM     91  S   UNL A   1      39.178  37.050  40.543  1.00  0.00     0.124 S 
ATOM     92  O   UNL A   1      38.596  36.214  41.590  1.00  0.00    -0.237 OA
ATOM     93  O   UNL A   1      40.540  37.514  40.794  1.00  0.00    -0.237 OA
ATOM     94  O   UNL A   1      38.279  38.052  39.975  1.00  0.00    -0.744 OA
ENDBRANCH  90  91
ENDBRANCH  64  85
ENDBRANCH  38  39
ENDBRANCH  30  33
ENDBRANCH  28  29
ENDBRANCH  27  28
ENDBRANCH   1  27
TORSDOF 18
ENDMDL
MODEL 3
REMARK VINA RESULT:      -8.1      4.611     13.375
REMARK SMILES CC[C@@H](C(=O)NCCCCNC(=O)c1ccc(-c2c3nc(c(-c4ccc(S(=O)(=O)[O-])cc4)c4ccc([nH]4)c(-c4ccc(S(=O)(=O)[O-])cc4)c4nc(c(-c5ccc(S(=O)(=O)[O-])cc5)c5ccc2[nH]5)C=C4)C=C3)cc1)N1C(=O)/C(=C/C(C)=C/c2ccccc2)SC1=S
REMARK SMILES IDX 8 1 7 2 6 3 4 4 5 5 3 7 2 8 1 9 74 10 75 11 89 12 76 13
REMARK SMILES IDX 77 14 88 15 90 16 78 17 79 18 80 19 81 20 82 21 83 22 87 23
REMARK SMILES IDX 84 24 86 25 85 26 9 27 10 28 11 29 12 30 13 32 14 33 15 34
REMARK SMILES IDX 73 35 16 36 72 37 17 38 18 39 19 40 66 41 20 42 71 43 65 44
REMARK SMILES IDX 67 45 21 46 70 47 64 48 63 49 22 51 52 52 33 53 51 54 34 55
REMARK SMILES IDX 37 56 50 57 68 58 35 59 36 60 49 62 69 63 38 64 23 65 24 66
REMARK SMILES IDX 32 67 25 68 31 69 26 70 27 71 28 72 29 73 30 74 53 75 54 76
REMARK SMILES IDX 62 77 55 78 61 79 56 80 57 81 58 82 59 83 60 84 39 85 40 86
REMARK SMILES IDX 48 87 41 88 47 89 42 90 43 91 44 92 45 93 46 94
REMARK H PARENT 6 6 11 31 67 50 37 61
REMARK Flexibility Score: inf
ROOT
ATOM      1  C   UNL A   1      35.665  32.904  33.493  1.00  0.00     0.023 C 
ENDROOT
BRANCH   1   2
ATOM      2  C   UNL A   1      36.923  32.035  33.514  1.00  0.00     0.116 C 
BRANCH   2   3
ATOM      3  N   UNL A   1      37.338  31.772  34.880  1.00  0.00    -0.354 N 
ATOM      4  C   UNL A   1      38.583  31.768  35.442  1.00  0.00     0.243 C 
ATOM      5  O   UNL A   1      38.672  31.449  36.630  1.00  0.00    -0.273 OA
ATOM      6  H   UNL A   1      36.604  31.563  35.502  1.00  0.00     0.163 HD
BRANCH   4   7
ATOM      7  C   UNL A   1      39.822  32.190  34.618  1.00  0.00     0.181 C 
BRANCH   7   8
ATOM      8  C   UNL A   1      39.495  32.481  33.139  1.00  0.00     0.032 C 
ATOM      9  C   UNL A   1      39.729  33.899  32.654  1.00  0.00     0.006 C 
ENDBRANCH   7   8
BRANCH   7  10
ATOM     10  N   UNL A   1      40.829  31.101  34.792  1.00  0.00    -0.280 N 
ATOM     11  C   UNL A   1      40.656  29.862  34.196  1.00  0.00     0.266 C 
ATOM     12  C   UNL A   1      41.918  31.199  35.639  1.00  0.00     0.149 C 
ATOM     13  O   UNL A   1      39.732  29.512  33.472  1.00  0.00    -0.268 OA
ATOM     14  C   UNL A   1      41.803  28.959  34.489  1.00  0.00     0.080 C 
ATOM     15  S   UNL A   1      42.892  29.732  35.555  1.00  0.00    -0.054 SA
ATOM     16  S   UNL A   1      42.356  32.480  36.618  1.00  0.00    -0.052 S 
ATOM     17  C   UNL A   1      41.859  27.761  33.892  1.00  0.00     0.024 C 
BRANCH  17  18
ATOM     18  C   UNL A   1      42.845  26.685  33.929  1.00  0.00    -0.049 C 
ATOM     19  C   UNL A   1      43.817  26.716  32.767  1.00  0.00     0.044 C 
ATOM     20  C   UNL A   1      42.799  25.674  34.820  1.00  0.00     0.011 C 
BRANCH  20  21
ATOM     21  C   UNL A   1      43.696  24.508  34.882  1.00  0.00    -0.025 A 
ATOM     22  C   UNL A   1      43.970  23.818  33.694  1.00  0.00     0.008 A 
ATOM     23  C   UNL A   1      44.236  24.030  36.082  1.00  0.00     0.008 A 
ATOM     24  C   UNL A   1      44.797  22.694  33.700  1.00  0.00     0.001 A 
ATOM     25  C   UNL A   1      45.074  22.911  36.086  1.00  0.00     0.001 A 
ATOM     26  C   UNL A   1      45.355  22.245  34.895  1.00  0.00     0.000 A 
ENDBRANCH  20  21
ENDBRANCH  17  18
ENDBRANCH   7  10
ENDBRANCH   4   7
ENDBRANCH   2   3
ENDBRANCH   1   2
BRANCH   1  27
ATOM     27  C   UNL A   1      34.837  32.783  32.219  1.00  0.00     0.023 C 
BRANCH  27  28
ATOM     28  C   UNL A   1      35.585  32.185  31.036  1.00  0.00     0.116 C 
BRANCH  28  29
ATOM     29  N   UNL A   1      34.697  31.694  29.987  1.00  0.00    -0.352 N 
ATOM     30  C   UNL A   1      34.967  30.804  28.973  1.00  0.00     0.251 C 
ATOM     31  H   UNL A   1      33.780  32.049  30.007  1.00  0.00     0.163 HD
ATOM     32  O   UNL A   1      34.138  30.592  28.093  1.00  0.00    -0.269 OA
BRANCH  30  33
ATOM     33  C   UNL A   1      36.285  30.140  28.938  1.00  0.00     0.039 A 
ATOM     34  C   UNL A   1      37.010  30.128  27.744  1.00  0.00     0.014 A 
ATOM     35  C   UNL A   1      36.838  29.624  30.112  1.00  0.00     0.014 A 
ATOM     36  C   UNL A   1      38.337  29.697  27.755  1.00  0.00     0.010 A 
ATOM     37  C   UNL A   1      38.181  29.276  30.137  1.00  0.00     0.010 A 
ATOM     38  C   UNL A   1      38.950  29.326  28.963  1.00  0.00    -0.014 A 
BRANCH  38  39
ATOM     39  C   UNL A   1      40.403  29.030  29.043  1.00  0.00     0.031 A 
ATOM     40  C   UNL A   1      41.372  30.122  29.399  1.00  0.00     0.074 A 
ATOM     41  C   UNL A   1      40.855  27.811  28.684  1.00  0.00     0.049 A 
ATOM     42  N   UNL A   1      42.679  30.097  29.389  1.00  0.00    -0.248 NA
ATOM     43  C   UNL A   1      40.797  31.421  29.784  1.00  0.00     0.031 C 
ATOM     44  C   UNL A   1      40.019  26.682  28.266  1.00  0.00     0.029 A 
ATOM     45  N   UNL A   1      42.135  27.323  28.595  1.00  0.00    -0.354 N 
ATOM     46  C   UNL A   1      43.083  31.381  29.737  1.00  0.00     0.074 A 
ATOM     47  C   UNL A   1      41.883  32.170  29.912  1.00  0.00     0.031 C 
ATOM     48  C   UNL A   1      40.805  25.631  27.984  1.00  0.00     0.029 A 
ATOM     49  C   UNL A   1      42.200  26.020  28.157  1.00  0.00     0.049 A 
ATOM     50  H   UNL A   1      42.931  27.854  28.824  1.00  0.00     0.167 HD
ATOM     51  C   UNL A   1      44.338  31.856  29.911  1.00  0.00     0.031 A 
ATOM     52  C   UNL A   1      43.263  25.231  27.906  1.00  0.00     0.031 A 
ATOM     53  C   UNL A   1      45.527  31.061  29.766  1.00  0.00     0.049 A 
ATOM     54  C   UNL A   1      44.648  25.781  28.110  1.00  0.00     0.074 A 
ATOM     55  C   UNL A   1      46.840  31.427  30.003  1.00  0.00     0.029 A 
ATOM     56  N   UNL A   1      45.548  29.741  29.342  1.00  0.00    -0.354 N 
ATOM     57  N   UNL A   1      45.006  26.976  28.512  1.00  0.00    -0.248 NA
ATOM     58  C   UNL A   1      45.770  24.875  27.827  1.00  0.00     0.031 C 
ATOM     59  C   UNL A   1      47.660  30.340  29.681  1.00  0.00     0.029 A 
ATOM     60  C   UNL A   1      46.854  29.285  29.284  1.00  0.00     0.049 A 
ATOM     61  H   UNL A   1      44.753  29.206  29.117  1.00  0.00     0.167 HD
ATOM     62  C   UNL A   1      46.396  26.964  28.540  1.00  0.00     0.074 A 
ATOM     63  C   UNL A   1      46.812  25.638  28.133  1.00  0.00     0.031 C 
ATOM     64  C   UNL A   1      47.249  27.963  28.870  1.00  0.00     0.031 A 
BRANCH  51  65
ATOM     65  C   UNL A   1      44.486  33.306  30.282  1.00  0.00    -0.014 A 
ATOM     66  C   UNL A   1      44.482  33.713  31.628  1.00  0.00     0.010 A 
ATOM     67  C   UNL A   1      44.661  34.270  29.274  1.00  0.00     0.010 A 
ATOM     68  C   UNL A   1      44.608  35.064  31.958  1.00  0.00     0.020 A 
ATOM     69  C   UNL A   1      44.812  35.621  29.601  1.00  0.00     0.020 A 
ATOM     70  C   UNL A   1      44.766  36.010  30.941  1.00  0.00     0.054 A 
BRANCH  70  71
ATOM     71  S   UNL A   1      44.945  37.756  31.398  1.00  0.00     0.124 S 
ATOM     72  O   UNL A   1      46.397  37.925  31.375  1.00  0.00    -0.237 OA
ATOM     73  O   UNL A   1      44.217  38.444  30.334  1.00  0.00    -0.237 OA
ATOM     74  O   UNL A   1      44.331  37.834  32.721  1.00  0.00    -0.744 OA
ENDBRANCH  70  71
ENDBRANCH  51  65
BRANCH  52  75
ATOM     75  C   UNL A   1      43.059  23.836  27.432  1.00  0.00    -0.014 A 
ATOM     76  C   UNL A   1      42.901  22.789  28.356  1.00  0.00     0.010 A 
ATOM     77  C   UNL A   1      43.002  23.551  26.056  1.00  0.00     0.010 A 
ATOM     78  C   UNL A   1      42.701  21.478  27.912  1.00  0.00     0.020 A 
ATOM     79  C   UNL A   1      42.780  22.244  25.609  1.00  0.00     0.020 A 
ATOM     80  C   UNL A   1      42.641  21.215  26.541  1.00  0.00     0.054 A 
BRANCH  80  81
ATOM     81  S   UNL A   1      42.323  19.515  25.988  1.00  0.00     0.124 S 
ATOM     82  O   UNL A   1      40.907  19.569  25.643  1.00  0.00    -0.237 OA
ATOM     83  O   UNL A   1      43.244  19.370  24.863  1.00  0.00    -0.237 OA
ATOM     84  O   UNL A   1      42.656  18.710  27.162  1.00  0.00    -0.744 OA
ENDBRANCH  80  81
ENDBRANCH  52  75
BRANCH  64  85
ATOM     85  C   UNL A   1      48.721  27.663  28.814  1.00  0.00    -0.014 A 
ATOM     86  C   UNL A   1      49.360  26.996  29.873  1.00  0.00     0.010 A 
ATOM     87  C   UNL A   1      49.456  27.986  27.660  1.00  0.00     0.010 A 
ATOM     88  C   UNL A   1      50.714  26.668  29.785  1.00  0.00     0.020 A 
ATOM     89  C   UNL A   1      50.806  27.640  27.558  1.00  0.00     0.020 A 
ATOM     90  C   UNL A   1      51.428  26.991  28.627  1.00  0.00     0.054 A 
BRANCH  90  91
ATOM     91  S   UNL A   1      53.169  26.494  28.507  1.00  0.00     0.124 S 
ATOM     92  O   UNL A   1      53.453  26.053  29.870  1.00  0.00    -0.237 OA
ATOM     93  O   UNL A   1      53.134  25.437  27.499  1.00  0.00    -0.237 OA
ATOM     94  O   UNL A   1      53.850  27.719  28.093  1.00  0.00    -0.744 OA
ENDBRANCH  90  91
ENDBRANCH  64  85
ENDBRANCH  38  39
ENDBRANCH  30  33
ENDBRANCH  28  29
ENDBRANCH  27  28
ENDBRANCH   1  27
TORSDOF 18
ENDMDL
