MODEL 1
REMARK VINA RESULT:     -13.5      0.000      0.000
REMARK SMILES Cc1c(/C=C/C(=O)NCCCCNC(=O)c2ccc(-c3c4nc(c(-c5ccc(S(=O)(=O)[O-])cc5)c5ccc([nH]5)c(-c5ccc(S(=O)(=O)[O-])cc5)c5nc(c(-c6ccc(S(=O)(=O)[O-])cc6)c6ccc3[nH]6)C=C5)C=C4)cc2)cccc1C(=O)N1C[C@@H](C)[C@@H](C)C1
REMARK SMILES IDX 10 1 9 2 8 3 6 4 7 5 5 7 4 8 3 9 1 10 2 11 79 12 76 13 78 14
REMARK SMILES IDX 77 15 80 16 81 17 82 18 83 19 88 20 84 21 86 22 85 23 87 24
REMARK SMILES IDX 11 25 12 26 13 27 14 28 15 30 16 31 17 32 75 33 18 34 74 35
REMARK SMILES IDX 19 36 20 37 21 38 68 39 22 40 73 41 67 42 69 43 23 44 72 45
REMARK SMILES IDX 66 46 65 47 24 49 54 50 35 51 53 52 36 53 39 54 52 55 70 56
REMARK SMILES IDX 37 57 38 58 51 60 71 61 40 62 25 63 26 64 34 65 27 66 33 67
REMARK SMILES IDX 28 68 29 69 30 70 31 71 32 72 55 73 56 74 64 75 57 76 63 77
REMARK SMILES IDX 58 78 59 79 60 80 61 81 62 82 41 83 42 84 50 85 43 86 49 87
REMARK SMILES IDX 44 88 45 89 46 90 47 91 48 92
REMARK H PARENT 8 6 13 29 69 48 39 59
REMARK Flexibility Score: inf
ROOT
ATOM      1  C   UNL A   1      36.353  21.723  25.782  1.00  0.00     0.023 C 
ENDROOT
BRANCH   1   2
ATOM      2  C   UNL A   1      35.809  20.646  24.829  1.00  0.00     0.116 C 
BRANCH   2   3
ATOM      3  N   UNL A   1      34.707  19.888  25.409  1.00  0.00    -0.353 N 
ATOM      4  C   UNL A   1      33.361  20.044  25.256  1.00  0.00     0.243 C 
ATOM      5  O   UNL A   1      32.576  19.221  25.722  1.00  0.00    -0.270 OA
ATOM      6  H   UNL A   1      34.976  19.149  26.001  1.00  0.00     0.163 HD
BRANCH   4   7
ATOM      7  C   UNL A   1      32.850  21.178  24.461  1.00  0.00     0.072 C 
ATOM      8  C   UNL A   1      32.663  22.383  25.018  1.00  0.00     0.014 C 
BRANCH   8   9
ATOM      9  C   UNL A   1      32.202  23.577  24.290  1.00  0.00    -0.022 A 
ATOM     10  C   UNL A   1      34.374  24.758  24.836  1.00  0.00     0.046 C 
ATOM     11  C   UNL A   1      32.998  24.755  24.216  1.00  0.00    -0.031 A 
ATOM     12  C   UNL A   1      32.464  25.891  23.558  1.00  0.00     0.043 A 
ATOM     13  C   UNL A   1      30.904  23.567  23.752  1.00  0.00     0.008 A 
ATOM     14  C   UNL A   1      31.166  25.841  23.015  1.00  0.00     0.014 A 
ATOM     15  C   UNL A   1      30.392  24.689  23.109  1.00  0.00     0.001 A 
BRANCH  12  16
ATOM     16  C   UNL A   1      33.037  27.262  23.687  1.00  0.00     0.254 C 
ATOM     17  O   UNL A   1      33.626  27.708  22.700  1.00  0.00    -0.269 OA
BRANCH  16  18
ATOM     18  N   UNL A   1      32.845  28.026  24.818  1.00  0.00    -0.338 N 
ATOM     19  C   UNL A   1      33.996  28.462  25.582  1.00  0.00     0.123 C 
ATOM     20  C   UNL A   1      31.595  28.380  25.476  1.00  0.00     0.123 C 
ATOM     21  C   UNL A   1      33.473  28.791  26.970  1.00  0.00     0.010 C 
ATOM     22  C   UNL A   1      32.005  29.183  26.726  1.00  0.00     0.010 C 
ATOM     23  C   UNL A   1      34.347  29.824  27.668  1.00  0.00     0.010 C 
ATOM     24  C   UNL A   1      31.768  30.669  26.524  1.00  0.00     0.010 C 
ENDBRANCH  16  18
ENDBRANCH  12  16
ENDBRANCH   8   9
ENDBRANCH   4   7
ENDBRANCH   2   3
ENDBRANCH   1   2
BRANCH   1  25
ATOM     25  C   UNL A   1      37.337  22.709  25.147  1.00  0.00     0.023 C 
BRANCH  25  26
ATOM     26  C   UNL A   1      37.885  23.726  26.138  1.00  0.00     0.116 C 
BRANCH  26  27
ATOM     27  N   UNL A   1      39.013  23.268  26.928  1.00  0.00    -0.352 N 
ATOM     28  C   UNL A   1      40.068  24.068  27.362  1.00  0.00     0.251 C 
ATOM     29  H   UNL A   1      39.034  22.317  27.179  1.00  0.00     0.163 HD
ATOM     30  O   UNL A   1      41.184  23.646  27.578  1.00  0.00    -0.269 OA
BRANCH  28  31
ATOM     31  C   UNL A   1      39.706  25.463  27.713  1.00  0.00     0.039 A 
ATOM     32  C   UNL A   1      40.218  26.484  26.902  1.00  0.00     0.014 A 
ATOM     33  C   UNL A   1      39.138  25.746  28.951  1.00  0.00     0.014 A 
ATOM     34  C   UNL A   1      40.318  27.777  27.411  1.00  0.00     0.010 A 
ATOM     35  C   UNL A   1      39.317  27.007  29.485  1.00  0.00     0.010 A 
ATOM     36  C   UNL A   1      39.941  28.012  28.732  1.00  0.00    -0.014 A 
BRANCH  36  37
ATOM     37  C   UNL A   1      40.172  29.267  29.438  1.00  0.00     0.031 A 
ATOM     38  C   UNL A   1      39.138  30.317  29.420  1.00  0.00     0.074 A 
ATOM     39  C   UNL A   1      41.283  29.438  30.184  1.00  0.00     0.049 A 
ATOM     40  N   UNL A   1      39.338  31.546  29.752  1.00  0.00    -0.248 NA
ATOM     41  C   UNL A   1      37.777  30.056  28.966  1.00  0.00     0.031 C 
ATOM     42  C   UNL A   1      41.548  30.471  31.181  1.00  0.00     0.029 A 
ATOM     43  N   UNL A   1      42.518  28.841  29.973  1.00  0.00    -0.354 N 
ATOM     44  C   UNL A   1      38.110  32.157  29.838  1.00  0.00     0.074 A 
ATOM     45  C   UNL A   1      37.180  31.210  29.267  1.00  0.00     0.031 C 
ATOM     46  C   UNL A   1      42.876  30.623  31.300  1.00  0.00     0.029 A 
ATOM     47  C   UNL A   1      43.494  29.807  30.271  1.00  0.00     0.049 A 
ATOM     48  H   UNL A   1      42.679  27.917  29.673  1.00  0.00     0.167 HD
ATOM     49  C   UNL A   1      38.002  33.345  30.496  1.00  0.00     0.031 A 
ATOM     50  C   UNL A   1      44.318  30.266  29.279  1.00  0.00     0.031 A 
ATOM     51  C   UNL A   1      39.311  33.891  30.860  1.00  0.00     0.049 A 
ATOM     52  C   UNL A   1      44.173  31.746  28.986  1.00  0.00     0.074 A 
ATOM     53  C   UNL A   1      40.045  33.982  32.032  1.00  0.00     0.029 A 
ATOM     54  N   UNL A   1      40.188  34.212  29.836  1.00  0.00    -0.354 N 
ATOM     55  N   UNL A   1      43.300  32.524  29.564  1.00  0.00    -0.248 NA
ATOM     56  C   UNL A   1      44.952  32.456  27.968  1.00  0.00     0.031 C 
ATOM     57  C   UNL A   1      41.385  34.332  31.690  1.00  0.00     0.029 A 
ATOM     58  C   UNL A   1      41.457  34.471  30.315  1.00  0.00     0.049 A 
ATOM     59  H   UNL A   1      39.938  34.250  28.885  1.00  0.00     0.167 HD
ATOM     60  C   UNL A   1      43.354  33.770  29.008  1.00  0.00     0.074 A 
ATOM     61  C   UNL A   1      44.413  33.687  28.019  1.00  0.00     0.031 C 
ATOM     62  C   UNL A   1      42.508  34.778  29.362  1.00  0.00     0.031 A 
BRANCH  49  63
ATOM     63  C   UNL A   1      36.691  33.907  30.993  1.00  0.00    -0.014 A 
ATOM     64  C   UNL A   1      35.568  33.917  30.141  1.00  0.00     0.010 A 
ATOM     65  C   UNL A   1      36.508  34.492  32.261  1.00  0.00     0.010 A 
ATOM     66  C   UNL A   1      34.368  34.554  30.497  1.00  0.00     0.020 A 
ATOM     67  C   UNL A   1      35.332  35.166  32.617  1.00  0.00     0.020 A 
ATOM     68  C   UNL A   1      34.268  35.202  31.726  1.00  0.00     0.054 A 
BRANCH  68  69
ATOM     69  S   UNL A   1      32.744  36.085  32.147  1.00  0.00     0.124 S 
ATOM     70  O   UNL A   1      31.829  34.994  32.472  1.00  0.00    -0.237 OA
ATOM     71  O   UNL A   1      33.165  36.914  33.273  1.00  0.00    -0.237 OA
ATOM     72  O   UNL A   1      32.420  36.817  30.924  1.00  0.00    -0.744 OA
ENDBRANCH  68  69
ENDBRANCH  49  63
BRANCH  50  73
ATOM     73  C   UNL A   1      44.675  29.188  28.304  1.00  0.00    -0.014 A 
ATOM     74  C   UNL A   1      44.223  29.391  26.981  1.00  0.00     0.010 A 
ATOM     75  C   UNL A   1      45.737  28.293  28.521  1.00  0.00     0.010 A 
ATOM     76  C   UNL A   1      44.960  28.907  25.904  1.00  0.00     0.020 A 
ATOM     77  C   UNL A   1      46.417  27.724  27.426  1.00  0.00     0.020 A 
ATOM     78  C   UNL A   1      46.058  28.085  26.126  1.00  0.00     0.054 A 
BRANCH  78  79
ATOM     79  S   UNL A   1      47.056  27.640  24.676  1.00  0.00     0.124 S 
ATOM     80  O   UNL A   1      48.410  27.925  25.141  1.00  0.00    -0.237 OA
ATOM     81  O   UNL A   1      46.748  26.218  24.504  1.00  0.00    -0.237 OA
ATOM     82  O   UNL A   1      46.547  28.523  23.633  1.00  0.00    -0.744 OA
ENDBRANCH  78  79
ENDBRANCH  50  73
BRANCH  62  83
ATOM     83  C   UNL A   1      42.594  36.154  28.774  1.00  0.00    -0.014 A 
ATOM     84  C   UNL A   1      41.850  36.521  27.641  1.00  0.00     0.010 A 
ATOM     85  C   UNL A   1      43.524  37.085  29.282  1.00  0.00     0.010 A 
ATOM     86  C   UNL A   1      41.979  37.797  27.080  1.00  0.00     0.020 A 
ATOM     87  C   UNL A   1      43.672  38.354  28.718  1.00  0.00     0.020 A 
ATOM     88  C   UNL A   1      42.879  38.710  27.633  1.00  0.00     0.054 A 
BRANCH  88  89
ATOM     89  S   UNL A   1      43.035  40.356  26.894  1.00  0.00     0.124 S 
ATOM     90  O   UNL A   1      41.700  40.596  26.353  1.00  0.00    -0.237 OA
ATOM     91  O   UNL A   1      43.398  41.170  28.051  1.00  0.00    -0.237 OA
ATOM     92  O   UNL A   1      44.086  40.189  25.893  1.00  0.00    -0.744 OA
ENDBRANCH  88  89
ENDBRANCH  62  83
ENDBRANCH  36  37
ENDBRANCH  28  31
ENDBRANCH  26  27
ENDBRANCH  25  26
ENDBRANCH   1  25
TORSDOF 17
ENDMDL
MODEL 2
REMARK VINA RESULT:     -13.0      1.663      2.473
REMARK SMILES Cc1c(/C=C/C(=O)NCCCCNC(=O)c2ccc(-c3c4nc(c(-c5ccc(S(=O)(=O)[O-])cc5)c5ccc([nH]5)c(-c5ccc(S(=O)(=O)[O-])cc5)c5nc(c(-c6ccc(S(=O)(=O)[O-])cc6)c6ccc3[nH]6)C=C5)C=C4)cc2)cccc1C(=O)N1C[C@@H](C)[C@@H](C)C1
REMARK SMILES IDX 10 1 9 2 8 3 6 4 7 5 5 7 4 8 3 9 1 10 2 11 79 12 76 13 78 14
REMARK SMILES IDX 77 15 80 16 81 17 82 18 83 19 88 20 84 21 86 22 85 23 87 24
REMARK SMILES IDX 11 25 12 26 13 27 14 28 15 30 16 31 17 32 75 33 18 34 74 35
REMARK SMILES IDX 19 36 20 37 21 38 68 39 22 40 73 41 67 42 69 43 23 44 72 45
REMARK SMILES IDX 66 46 65 47 24 49 54 50 35 51 53 52 36 53 39 54 52 55 70 56
REMARK SMILES IDX 37 57 38 58 51 60 71 61 40 62 25 63 26 64 34 65 27 66 33 67
REMARK SMILES IDX 28 68 29 69 30 70 31 71 32 72 55 73 56 74 64 75 57 76 63 77
REMARK SMILES IDX 58 78 59 79 60 80 61 81 62 82 41 83 42 84 50 85 43 86 49 87
REMARK SMILES IDX 44 88 45 89 46 90 47 91 48 92
REMARK H PARENT 8 6 13 29 69 48 39 59
REMARK Flexibility Score: inf
ROOT
ATOM      1  C   UNL A   1      36.873  21.474  25.112  1.00  0.00     0.023 C 
ENDROOT
BRANCH   1   2
ATOM      2  C   UNL A   1      35.505  21.333  25.798  1.00  0.00     0.116 C 
BRANCH   2   3
ATOM      3  N   UNL A   1      34.445  20.960  24.866  1.00  0.00    -0.353 N 
ATOM      4  C   UNL A   1      33.442  21.714  24.335  1.00  0.00     0.243 C 
ATOM      5  O   UNL A   1      32.713  21.261  23.457  1.00  0.00    -0.270 OA
ATOM      6  H   UNL A   1      34.458  20.020  24.577  1.00  0.00     0.163 HD
BRANCH   4   7
ATOM      7  C   UNL A   1      33.280  23.115  24.774  1.00  0.00     0.072 C 
ATOM      8  C   UNL A   1      32.151  23.792  24.517  1.00  0.00     0.014 C 
BRANCH   8   9
ATOM      9  C   UNL A   1      31.889  25.173  24.957  1.00  0.00    -0.022 A 
ATOM     10  C   UNL A   1      31.452  25.860  22.559  1.00  0.00     0.046 C 
ATOM     11  C   UNL A   1      31.582  26.203  24.023  1.00  0.00    -0.031 A 
ATOM     12  C   UNL A   1      31.410  27.525  24.507  1.00  0.00     0.043 A 
ATOM     13  C   UNL A   1      32.052  25.480  26.318  1.00  0.00     0.008 A 
ATOM     14  C   UNL A   1      31.563  27.793  25.881  1.00  0.00     0.014 A 
ATOM     15  C   UNL A   1      31.880  26.780  26.780  1.00  0.00     0.001 A 
BRANCH  12  16
ATOM     16  C   UNL A   1      31.410  28.729  23.629  1.00  0.00     0.254 C 
ATOM     17  O   UNL A   1      32.513  29.159  23.281  1.00  0.00    -0.269 OA
BRANCH  16  18
ATOM     18  N   UNL A   1      30.239  29.284  23.157  1.00  0.00    -0.338 N 
ATOM     19  C   UNL A   1      29.658  30.411  23.857  1.00  0.00     0.123 C 
ATOM     20  C   UNL A   1      29.378  28.813  22.082  1.00  0.00     0.123 C 
ATOM     21  C   UNL A   1      28.194  30.441  23.451  1.00  0.00     0.010 C 
ATOM     22  C   UNL A   1      28.186  29.790  22.057  1.00  0.00     0.010 C 
ATOM     23  C   UNL A   1      27.614  31.846  23.551  1.00  0.00     0.010 C 
ATOM     24  C   UNL A   1      28.300  30.765  20.898  1.00  0.00     0.010 C 
ENDBRANCH  16  18
ENDBRANCH  12  16
ENDBRANCH   8   9
ENDBRANCH   4   7
ENDBRANCH   2   3
ENDBRANCH   1   2
BRANCH   1  25
ATOM     25  C   UNL A   1      37.281  22.912  24.778  1.00  0.00     0.023 C 
BRANCH  25  26
ATOM     26  C   UNL A   1      37.606  23.742  26.012  1.00  0.00     0.116 C 
BRANCH  26  27
ATOM     27  N   UNL A   1      38.699  23.235  26.822  1.00  0.00    -0.352 N 
ATOM     28  C   UNL A   1      39.773  23.991  27.284  1.00  0.00     0.251 C 
ATOM     29  H   UNL A   1      38.679  22.282  27.065  1.00  0.00     0.163 HD
ATOM     30  O   UNL A   1      40.868  23.525  27.520  1.00  0.00    -0.269 OA
BRANCH  28  31
ATOM     31  C   UNL A   1      39.457  25.396  27.639  1.00  0.00     0.039 A 
ATOM     32  C   UNL A   1      39.997  26.402  26.828  1.00  0.00     0.014 A 
ATOM     33  C   UNL A   1      38.904  25.695  28.881  1.00  0.00     0.014 A 
ATOM     34  C   UNL A   1      40.140  27.690  27.339  1.00  0.00     0.010 A 
ATOM     35  C   UNL A   1      39.125  26.948  29.416  1.00  0.00     0.010 A 
ATOM     36  C   UNL A   1      39.777  27.935  28.661  1.00  0.00    -0.014 A 
BRANCH  36  37
ATOM     37  C   UNL A   1      40.050  29.180  29.369  1.00  0.00     0.031 A 
ATOM     38  C   UNL A   1      39.039  30.252  29.379  1.00  0.00     0.074 A 
ATOM     39  C   UNL A   1      41.181  29.324  30.091  1.00  0.00     0.049 A 
ATOM     40  N   UNL A   1      39.272  31.475  29.713  1.00  0.00    -0.248 NA
ATOM     41  C   UNL A   1      37.663  30.022  28.955  1.00  0.00     0.031 C 
ATOM     42  C   UNL A   1      41.490  30.345  31.087  1.00  0.00     0.029 A 
ATOM     43  N   UNL A   1      42.398  28.701  29.849  1.00  0.00    -0.354 N 
ATOM     44  C   UNL A   1      38.060  32.111  29.830  1.00  0.00     0.074 A 
ATOM     45  C   UNL A   1      37.098  31.188  29.275  1.00  0.00     0.031 C 
ATOM     46  C   UNL A   1      42.824  30.468  31.177  1.00  0.00     0.029 A 
ATOM     47  C   UNL A   1      43.401  29.645  30.130  1.00  0.00     0.049 A 
ATOM     48  H   UNL A   1      42.532  27.776  29.540  1.00  0.00     0.167 HD
ATOM     49  C   UNL A   1      37.992  33.298  30.497  1.00  0.00     0.031 A 
ATOM     50  C   UNL A   1      44.212  30.092  29.122  1.00  0.00     0.031 A 
ATOM     51  C   UNL A   1      39.321  33.813  30.834  1.00  0.00     0.049 A 
ATOM     52  C   UNL A   1      44.092  31.576  28.839  1.00  0.00     0.074 A 
ATOM     53  C   UNL A   1      40.082  33.882  31.989  1.00  0.00     0.029 A 
ATOM     54  N   UNL A   1      40.181  34.121  29.792  1.00  0.00    -0.354 N 
ATOM     55  N   UNL A   1      43.249  32.369  29.441  1.00  0.00    -0.248 NA
ATOM     56  C   UNL A   1      44.863  32.275  27.808  1.00  0.00     0.031 C 
ATOM     57  C   UNL A   1      41.422  34.206  31.619  1.00  0.00     0.029 A 
ATOM     58  C   UNL A   1      41.466  34.351  30.244  1.00  0.00     0.049 A 
ATOM     59  H   UNL A   1      39.911  34.170  28.846  1.00  0.00     0.167 HD
ATOM     60  C   UNL A   1      43.317  33.617  28.890  1.00  0.00     0.074 A 
ATOM     61  C   UNL A   1      44.352  33.517  27.877  1.00  0.00     0.031 C 
ATOM     62  C   UNL A   1      42.501  34.641  29.269  1.00  0.00     0.031 A 
BRANCH  49  63
ATOM     63  C   UNL A   1      36.705  33.884  31.026  1.00  0.00    -0.014 A 
ATOM     64  C   UNL A   1      35.547  33.865  30.222  1.00  0.00     0.010 A 
ATOM     65  C   UNL A   1      36.577  34.521  32.275  1.00  0.00     0.010 A 
ATOM     66  C   UNL A   1      34.365  34.521  30.603  1.00  0.00     0.020 A 
ATOM     67  C   UNL A   1      35.419  35.213  32.654  1.00  0.00     0.020 A 
ATOM     68  C   UNL A   1      34.318  35.218  31.808  1.00  0.00     0.054 A 
BRANCH  68  69
ATOM     69  S   UNL A   1      32.817  36.123  32.257  1.00  0.00     0.124 S 
ATOM     70  O   UNL A   1      33.245  36.880  33.431  1.00  0.00    -0.237 OA
ATOM     71  O   UNL A   1      32.556  36.912  31.057  1.00  0.00    -0.237 OA
ATOM     72  O   UNL A   1      31.844  35.067  32.529  1.00  0.00    -0.744 OA
ENDBRANCH  68  69
ENDBRANCH  49  63
BRANCH  50  73
ATOM     73  C   UNL A   1      44.525  29.012  28.134  1.00  0.00    -0.014 A 
ATOM     74  C   UNL A   1      45.455  28.042  28.568  1.00  0.00     0.010 A 
ATOM     75  C   UNL A   1      43.668  28.691  27.067  1.00  0.00     0.010 A 
ATOM     76  C   UNL A   1      45.364  26.728  28.116  1.00  0.00     0.020 A 
ATOM     77  C   UNL A   1      43.650  27.383  26.543  1.00  0.00     0.020 A 
ATOM     78  C   UNL A   1      44.459  26.398  27.116  1.00  0.00     0.054 A 
BRANCH  78  79
ATOM     79  S   UNL A   1      44.290  24.636  26.709  1.00  0.00     0.124 S 
ATOM     80  O   UNL A   1      43.204  24.653  25.734  1.00  0.00    -0.237 OA
ATOM     81  O   UNL A   1      45.609  24.310  26.161  1.00  0.00    -0.237 OA
ATOM     82  O   UNL A   1      43.976  24.024  27.995  1.00  0.00    -0.744 OA
ENDBRANCH  78  79
ENDBRANCH  50  73
BRANCH  62  83
ATOM     83  C   UNL A   1      42.604  36.018  28.686  1.00  0.00    -0.014 A 
ATOM     84  C   UNL A   1      43.127  37.094  29.421  1.00  0.00     0.010 A 
ATOM     85  C   UNL A   1      42.064  36.290  27.411  1.00  0.00     0.010 A 
ATOM     86  C   UNL A   1      43.173  38.381  28.874  1.00  0.00     0.020 A 
ATOM     87  C   UNL A   1      42.089  37.575  26.865  1.00  0.00     0.020 A 
ATOM     88  C   UNL A   1      42.667  38.610  27.592  1.00  0.00     0.054 A 
BRANCH  88  89
ATOM     89  S   UNL A   1      42.732  40.282  26.899  1.00  0.00     0.124 S 
ATOM     90  O   UNL A   1      41.341  40.534  26.531  1.00  0.00    -0.237 OA
ATOM     91  O   UNL A   1      43.231  41.055  28.033  1.00  0.00    -0.237 OA
ATOM     92  O   UNL A   1      43.656  40.155  25.774  1.00  0.00    -0.744 OA
ENDBRANCH  88  89
ENDBRANCH  62  83
ENDBRANCH  36  37
ENDBRANCH  28  31
ENDBRANCH  26  27
ENDBRANCH  25  26
ENDBRANCH   1  25
TORSDOF 17
ENDMDL
MODEL 3
REMARK VINA RESULT:     -12.6      1.496      1.956
REMARK SMILES Cc1c(/C=C/C(=O)NCCCCNC(=O)c2ccc(-c3c4nc(c(-c5ccc(S(=O)(=O)[O-])cc5)c5ccc([nH]5)c(-c5ccc(S(=O)(=O)[O-])cc5)c5nc(c(-c6ccc(S(=O)(=O)[O-])cc6)c6ccc3[nH]6)C=C5)C=C4)cc2)cccc1C(=O)N1C[C@@H](C)[C@@H](C)C1
REMARK SMILES IDX 10 1 9 2 8 3 6 4 7 5 5 7 4 8 3 9 1 10 2 11 79 12 76 13 78 14
REMARK SMILES IDX 77 15 80 16 81 17 82 18 83 19 88 20 84 21 86 22 85 23 87 24
REMARK SMILES IDX 11 25 12 26 13 27 14 28 15 30 16 31 17 32 75 33 18 34 74 35
REMARK SMILES IDX 19 36 20 37 21 38 68 39 22 40 73 41 67 42 69 43 23 44 72 45
REMARK SMILES IDX 66 46 65 47 24 49 54 50 35 51 53 52 36 53 39 54 52 55 70 56
REMARK SMILES IDX 37 57 38 58 51 60 71 61 40 62 25 63 26 64 34 65 27 66 33 67
REMARK SMILES IDX 28 68 29 69 30 70 31 71 32 72 55 73 56 74 64 75 57 76 63 77
REMARK SMILES IDX 58 78 59 79 60 80 61 81 62 82 41 83 42 84 50 85 43 86 49 87
REMARK SMILES IDX 44 88 45 89 46 90 47 91 48 92
REMARK H PARENT 8 6 13 29 69 48 39 59
REMARK Flexibility Score: inf
ROOT
ATOM      1  C   UNL A   1      36.477  22.249  24.475  1.00  0.00     0.023 C 
ENDROOT
BRANCH   1   2
ATOM      2  C   UNL A   1      36.006  21.455  25.705  1.00  0.00     0.116 C 
BRANCH   2   3
ATOM      3  N   UNL A   1      35.405  20.174  25.349  1.00  0.00    -0.353 N 
ATOM      4  C   UNL A   1      34.127  19.881  24.974  1.00  0.00     0.243 C 
ATOM      5  O   UNL A   1      33.831  18.755  24.581  1.00  0.00    -0.270 OA
ATOM      6  H   UNL A   1      36.016  19.404  25.385  1.00  0.00     0.163 HD
BRANCH   4   7
ATOM      7  C   UNL A   1      33.109  20.951  24.976  1.00  0.00     0.072 C 
ATOM      8  C   UNL A   1      32.893  21.695  26.070  1.00  0.00     0.014 C 
BRANCH   8   9
ATOM      9  C   UNL A   1      31.932  22.808  26.144  1.00  0.00    -0.022 A 
ATOM     10  C   UNL A   1      33.806  24.461  25.733  1.00  0.00     0.046 C 
ATOM     11  C   UNL A   1      32.354  24.162  26.019  1.00  0.00    -0.031 A 
ATOM     12  C   UNL A   1      31.388  25.188  26.170  1.00  0.00     0.043 A 
ATOM     13  C   UNL A   1      30.593  22.512  26.448  1.00  0.00     0.008 A 
ATOM     14  C   UNL A   1      30.050  24.855  26.456  1.00  0.00     0.014 A 
ATOM     15  C   UNL A   1      29.655  23.528  26.594  1.00  0.00     0.001 A 
BRANCH  12  16
ATOM     16  C   UNL A   1      31.736  26.622  26.385  1.00  0.00     0.254 C 
ATOM     17  O   UNL A   1      31.932  26.973  27.551  1.00  0.00    -0.269 OA
BRANCH  16  18
ATOM     18  N   UNL A   1      31.917  27.491  25.331  1.00  0.00    -0.338 N 
ATOM     19  C   UNL A   1      33.151  27.439  24.573  1.00  0.00     0.123 C 
ATOM     20  C   UNL A   1      31.072  28.600  24.911  1.00  0.00     0.123 C 
ATOM     21  C   UNL A   1      33.271  28.787  23.882  1.00  0.00     0.010 C 
ATOM     22  C   UNL A   1      31.812  29.250  23.725  1.00  0.00     0.010 C 
ATOM     23  C   UNL A   1      34.096  28.690  22.606  1.00  0.00     0.010 C 
ATOM     24  C   UNL A   1      31.164  28.877  22.404  1.00  0.00     0.010 C 
ENDBRANCH  16  18
ENDBRANCH  12  16
ENDBRANCH   8   9
ENDBRANCH   4   7
ENDBRANCH   2   3
ENDBRANCH   1   2
BRANCH   1  25
ATOM     25  C   UNL A   1      37.597  23.257  24.749  1.00  0.00     0.023 C 
BRANCH  25  26
ATOM     26  C   UNL A   1      37.677  23.677  26.210  1.00  0.00     0.116 C 
BRANCH  26  27
ATOM     27  N   UNL A   1      38.875  23.247  26.907  1.00  0.00    -0.352 N 
ATOM     28  C   UNL A   1      39.949  24.068  27.241  1.00  0.00     0.251 C 
ATOM     29  H   UNL A   1      38.933  22.299  27.167  1.00  0.00     0.163 HD
ATOM     30  O   UNL A   1      41.086  23.666  27.368  1.00  0.00    -0.269 OA
BRANCH  28  31
ATOM     31  C   UNL A   1      39.595  25.462  27.606  1.00  0.00     0.039 A 
ATOM     32  C   UNL A   1      40.109  26.487  26.802  1.00  0.00     0.014 A 
ATOM     33  C   UNL A   1      39.033  25.737  28.848  1.00  0.00     0.014 A 
ATOM     34  C   UNL A   1      40.217  27.775  27.322  1.00  0.00     0.010 A 
ATOM     35  C   UNL A   1      39.220  26.992  29.393  1.00  0.00     0.010 A 
ATOM     36  C   UNL A   1      39.847  28.001  28.646  1.00  0.00    -0.014 A 
BRANCH  36  37
ATOM     37  C   UNL A   1      40.086  29.248  29.362  1.00  0.00     0.031 A 
ATOM     38  C   UNL A   1      39.058  30.305  29.354  1.00  0.00     0.074 A 
ATOM     39  C   UNL A   1      41.199  29.407  30.108  1.00  0.00     0.049 A 
ATOM     40  N   UNL A   1      39.266  31.530  29.696  1.00  0.00    -0.248 NA
ATOM     41  C   UNL A   1      37.696  30.055  28.900  1.00  0.00     0.031 C 
ATOM     42  C   UNL A   1      41.472  30.430  31.113  1.00  0.00     0.029 A 
ATOM     43  N   UNL A   1      42.430  28.804  29.890  1.00  0.00    -0.354 N 
ATOM     44  C   UNL A   1      38.042  32.147  29.790  1.00  0.00     0.074 A 
ATOM     45  C   UNL A   1      37.106  31.211  29.212  1.00  0.00     0.031 C 
ATOM     46  C   UNL A   1      42.801  30.573  31.232  1.00  0.00     0.029 A 
ATOM     47  C   UNL A   1      43.413  29.761  30.195  1.00  0.00     0.049 A 
ATOM     48  H   UNL A   1      42.585  27.881  29.582  1.00  0.00     0.167 HD
ATOM     49  C   UNL A   1      37.942  33.331  30.458  1.00  0.00     0.031 A 
ATOM     50  C   UNL A   1      44.237  30.224  29.205  1.00  0.00     0.031 A 
ATOM     51  C   UNL A   1      39.256  33.865  30.824  1.00  0.00     0.049 A 
ATOM     52  C   UNL A   1      44.101  31.706  28.924  1.00  0.00     0.074 A 
ATOM     53  C   UNL A   1      39.991  33.942  31.995  1.00  0.00     0.029 A 
ATOM     54  N   UNL A   1      40.133  34.189  29.801  1.00  0.00    -0.354 N 
ATOM     55  N   UNL A   1      43.234  32.485  29.511  1.00  0.00    -0.248 NA
ATOM     56  C   UNL A   1      44.883  32.420  27.912  1.00  0.00     0.031 C 
ATOM     57  C   UNL A   1      41.333  34.287  31.654  1.00  0.00     0.029 A 
ATOM     58  C   UNL A   1      41.404  34.437  30.281  1.00  0.00     0.049 A 
ATOM     59  H   UNL A   1      39.882  34.237  28.851  1.00  0.00     0.167 HD
ATOM     60  C   UNL A   1      43.294  33.736  28.965  1.00  0.00     0.074 A 
ATOM     61  C   UNL A   1      44.352  33.654  27.973  1.00  0.00     0.031 C 
ATOM     62  C   UNL A   1      42.455  34.746  29.328  1.00  0.00     0.031 A 
BRANCH  49  63
ATOM     63  C   UNL A   1      36.635  33.896  30.961  1.00  0.00    -0.014 A 
ATOM     64  C   UNL A   1      35.532  33.986  30.089  1.00  0.00     0.010 A 
ATOM     65  C   UNL A   1      36.440  34.409  32.258  1.00  0.00     0.010 A 
ATOM     66  C   UNL A   1      34.341  34.632  30.458  1.00  0.00     0.020 A 
ATOM     67  C   UNL A   1      35.274  35.092  32.630  1.00  0.00     0.020 A 
ATOM     68  C   UNL A   1      34.230  35.208  31.722  1.00  0.00     0.054 A 
BRANCH  68  69
ATOM     69  S   UNL A   1      32.721  36.104  32.165  1.00  0.00     0.124 S 
ATOM     70  O   UNL A   1      31.821  35.026  32.565  1.00  0.00    -0.237 OA
ATOM     71  O   UNL A   1      33.180  36.977  33.242  1.00  0.00    -0.237 OA
ATOM     72  O   UNL A   1      32.349  36.789  30.928  1.00  0.00    -0.744 OA
ENDBRANCH  68  69
ENDBRANCH  49  63
BRANCH  50  73
ATOM     73  C   UNL A   1      44.587  29.152  28.221  1.00  0.00    -0.014 A 
ATOM     74  C   UNL A   1      45.595  28.252  28.634  1.00  0.00     0.010 A 
ATOM     75  C   UNL A   1      43.718  28.758  27.189  1.00  0.00     0.010 A 
ATOM     76  C   UNL A   1      45.576  26.929  28.204  1.00  0.00     0.020 A 
ATOM     77  C   UNL A   1      43.769  27.444  26.683  1.00  0.00     0.020 A 
ATOM     78  C   UNL A   1      44.661  26.524  27.240  1.00  0.00     0.054 A 
BRANCH  78  79
ATOM     79  S   UNL A   1      44.596  24.748  26.864  1.00  0.00     0.124 S 
ATOM     80  O   UNL A   1      45.984  24.461  26.516  1.00  0.00    -0.237 OA
ATOM     81  O   UNL A   1      44.145  24.172  28.133  1.00  0.00    -0.237 OA
ATOM     82  O   UNL A   1      43.640  24.673  25.765  1.00  0.00    -0.744 OA
ENDBRANCH  78  79
ENDBRANCH  50  73
BRANCH  62  83
ATOM     83  C   UNL A   1      42.549  36.126  28.751  1.00  0.00    -0.014 A 
ATOM     84  C   UNL A   1      43.097  37.195  29.479  1.00  0.00     0.010 A 
ATOM     85  C   UNL A   1      41.977  36.409  27.493  1.00  0.00     0.010 A 
ATOM     86  C   UNL A   1      43.134  38.486  28.939  1.00  0.00     0.020 A 
ATOM     87  C   UNL A   1      41.993  37.697  26.955  1.00  0.00     0.020 A 
ATOM     88  C   UNL A   1      42.595  38.724  27.672  1.00  0.00     0.054 A 
BRANCH  88  89
ATOM     89  S   UNL A   1      42.651  40.400  26.989  1.00  0.00     0.124 S 
ATOM     90  O   UNL A   1      43.313  40.203  25.701  1.00  0.00    -0.237 OA
ATOM     91  O   UNL A   1      41.232  40.741  26.919  1.00  0.00    -0.237 OA
ATOM     92  O   UNL A   1      43.427  41.151  27.973  1.00  0.00    -0.744 OA
ENDBRANCH  88  89
ENDBRANCH  62  83
ENDBRANCH  36  37
ENDBRANCH  28  31
ENDBRANCH  26  27
ENDBRANCH  25  26
ENDBRANCH   1  25
TORSDOF 17
ENDMDL
