MODEL 1
REMARK VINA RESULT:     -10.7      0.000      0.000
REMARK SMILES O=C(NCCCCNC(=O)[C@@H](CCc1ccccc1)[C@@H]1CCS(=O)(=O)C1)c1ccc(-c2c3nc(c(-c4ccc(S(=O)(=O)[O-])cc4)c4ccc([nH]4)c(-c4ccc(S(=O)(=O)[O-])cc4)c4nc(c(-c5ccc(S(=O)(=O)[O-])cc5)c5ccc2[nH]5)C=C4)C=C3)cc1
REMARK SMILES IDX 5 1 4 2 3 3 1 4 2 5 27 7 28 8 86 9 29 10 85 11 30 12 31 13
REMARK SMILES IDX 32 14 79 15 33 16 84 17 78 18 80 19 34 20 83 21 77 22 76 23
REMARK SMILES IDX 35 25 65 26 46 27 64 28 47 29 50 30 63 31 81 32 48 33 49 34
REMARK SMILES IDX 62 36 82 37 51 38 36 39 37 40 45 41 38 42 44 43 39 44 40 45
REMARK SMILES IDX 41 46 42 47 43 48 66 49 67 50 75 51 68 52 74 53 69 54 70 55
REMARK SMILES IDX 71 56 72 57 73 58 52 59 53 60 61 61 54 62 60 63 55 64 56 65
REMARK SMILES IDX 57 66 58 67 59 68 6 69 7 70 8 71 9 72 10 74 11 75 12 76
REMARK SMILES IDX 13 77 14 78 15 79 19 80 16 81 18 82 17 83 20 84 21 85 26 86
REMARK SMILES IDX 22 87 23 88 24 89 25 90
REMARK H PARENT 3 6 80 24 50 35 8 73
REMARK Flexibility Score: inf
ROOT
ATOM      1  C   UNL A   1      33.753  27.988  25.533  1.00  0.00     0.023 C 
ENDROOT
BRANCH   1   2
ATOM      2  C   UNL A   1      33.408  28.510  26.924  1.00  0.00     0.116 C 
BRANCH   2   3
ATOM      3  N   UNL A   1      33.423  29.960  27.069  1.00  0.00    -0.352 N 
ATOM      4  O   UNL A   1      34.351  31.962  27.613  1.00  0.00    -0.269 OA
ATOM      5  C   UNL A   1      34.454  30.743  27.554  1.00  0.00     0.251 C 
ATOM      6  H   UNL A   1      32.608  30.436  26.790  1.00  0.00     0.163 HD
BRANCH   5   7
ATOM      7  C   UNL A   1      35.655  30.054  28.071  1.00  0.00     0.039 A 
ATOM      8  C   UNL A   1      35.655  29.555  29.372  1.00  0.00     0.014 A 
ATOM      9  C   UNL A   1      36.834  30.108  27.325  1.00  0.00     0.014 A 
ATOM     10  C   UNL A   1      36.872  29.347  30.007  1.00  0.00     0.010 A 
ATOM     11  C   UNL A   1      38.044  29.758  27.930  1.00  0.00     0.010 A 
ATOM     12  C   UNL A   1      38.083  29.437  29.295  1.00  0.00    -0.014 A 
BRANCH  12  13
ATOM     13  C   UNL A   1      39.363  29.149  29.999  1.00  0.00     0.031 A 
ATOM     14  C   UNL A   1      40.339  28.116  29.489  1.00  0.00     0.074 A 
ATOM     15  C   UNL A   1      39.655  29.864  31.103  1.00  0.00     0.049 A 
ATOM     16  N   UNL A   1      41.499  27.767  29.988  1.00  0.00    -0.248 NA
ATOM     17  C   UNL A   1      39.967  27.372  28.275  1.00  0.00     0.031 C 
ATOM     18  C   UNL A   1      38.792  30.895  31.691  1.00  0.00     0.029 A 
ATOM     19  N   UNL A   1      40.762  29.863  31.911  1.00  0.00    -0.354 N 
ATOM     20  C   UNL A   1      41.976  26.741  29.178  1.00  0.00     0.074 A 
ATOM     21  C   UNL A   1      40.971  26.511  28.163  1.00  0.00     0.031 C 
ATOM     22  C   UNL A   1      39.433  31.478  32.712  1.00  0.00     0.029 A 
ATOM     23  C   UNL A   1      40.705  30.799  32.915  1.00  0.00     0.049 A 
ATOM     24  H   UNL A   1      41.522  29.251  31.784  1.00  0.00     0.167 HD
ATOM     25  C   UNL A   1      43.142  26.053  29.275  1.00  0.00     0.031 A 
ATOM     26  C   UNL A   1      41.567  31.074  33.911  1.00  0.00     0.031 A 
ATOM     27  C   UNL A   1      44.139  26.296  30.289  1.00  0.00     0.049 A 
ATOM     28  C   UNL A   1      42.830  30.275  34.014  1.00  0.00     0.074 A 
ATOM     29  C   UNL A   1      45.372  25.684  30.448  1.00  0.00     0.029 A 
ATOM     30  N   UNL A   1      44.019  27.217  31.320  1.00  0.00    -0.354 N 
ATOM     31  N   UNL A   1      43.273  29.328  33.222  1.00  0.00    -0.248 NA
ATOM     32  C   UNL A   1      43.710  30.580  35.147  1.00  0.00     0.031 C 
ATOM     33  C   UNL A   1      45.964  26.184  31.612  1.00  0.00     0.029 A 
ATOM     34  C   UNL A   1      45.137  27.165  32.137  1.00  0.00     0.049 A 
ATOM     35  H   UNL A   1      43.252  27.819  31.451  1.00  0.00     0.167 HD
ATOM     36  C   UNL A   1      44.500  28.942  33.746  1.00  0.00     0.074 A 
ATOM     37  C   UNL A   1      44.735  29.773  34.911  1.00  0.00     0.031 C 
ATOM     38  C   UNL A   1      45.356  27.990  33.300  1.00  0.00     0.031 A 
BRANCH  25  39
ATOM     39  C   UNL A   1      43.390  24.936  28.288  1.00  0.00    -0.014 A 
ATOM     40  C   UNL A   1      42.983  23.614  28.545  1.00  0.00     0.010 A 
ATOM     41  C   UNL A   1      44.001  25.228  27.053  1.00  0.00     0.010 A 
ATOM     42  C   UNL A   1      43.226  22.601  27.611  1.00  0.00     0.020 A 
ATOM     43  C   UNL A   1      44.217  24.225  26.103  1.00  0.00     0.020 A 
ATOM     44  C   UNL A   1      43.846  22.913  26.396  1.00  0.00     0.054 A 
BRANCH  44  45
ATOM     45  S   UNL A   1      44.145  21.580  25.202  1.00  0.00     0.124 S 
ATOM     46  O   UNL A   1      43.071  20.642  25.522  1.00  0.00    -0.237 OA
ATOM     47  O   UNL A   1      44.017  22.265  23.919  1.00  0.00    -0.237 OA
ATOM     48  O   UNL A   1      45.492  21.116  25.526  1.00  0.00    -0.744 OA
ENDBRANCH  44  45
ENDBRANCH  25  39
BRANCH  26  49
ATOM     49  C   UNL A   1      41.246  32.149  34.888  1.00  0.00    -0.014 A 
ATOM     50  C   UNL A   1      41.650  33.473  34.648  1.00  0.00     0.010 A 
ATOM     51  C   UNL A   1      40.504  31.858  36.049  1.00  0.00     0.010 A 
ATOM     52  C   UNL A   1      41.334  34.483  35.561  1.00  0.00     0.020 A 
ATOM     53  C   UNL A   1      40.156  32.871  36.944  1.00  0.00     0.020 A 
ATOM     54  C   UNL A   1      40.586  34.176  36.701  1.00  0.00     0.054 A 
BRANCH  54  55
ATOM     55  S   UNL A   1      40.151  35.513  37.845  1.00  0.00     0.124 S 
ATOM     56  O   UNL A   1      41.352  35.607  38.670  1.00  0.00    -0.237 OA
ATOM     57  O   UNL A   1      39.912  36.636  36.942  1.00  0.00    -0.237 OA
ATOM     58  O   UNL A   1      38.961  35.006  38.527  1.00  0.00    -0.744 OA
ENDBRANCH  54  55
ENDBRANCH  26  49
BRANCH  38  59
ATOM     59  C   UNL A   1      46.650  27.828  34.053  1.00  0.00    -0.014 A 
ATOM     60  C   UNL A   1      46.773  26.921  35.120  1.00  0.00     0.010 A 
ATOM     61  C   UNL A   1      47.771  28.588  33.668  1.00  0.00     0.010 A 
ATOM     62  C   UNL A   1      47.978  26.811  35.819  1.00  0.00     0.020 A 
ATOM     63  C   UNL A   1      48.987  28.455  34.340  1.00  0.00     0.020 A 
ATOM     64  C   UNL A   1      49.078  27.581  35.425  1.00  0.00     0.054 A 
BRANCH  64  65
ATOM     65  S   UNL A   1      50.638  27.401  36.330  1.00  0.00     0.124 S 
ATOM     66  O   UNL A   1      50.844  25.956  36.298  1.00  0.00    -0.237 OA
ATOM     67  O   UNL A   1      51.568  28.188  35.523  1.00  0.00    -0.237 OA
ATOM     68  O   UNL A   1      50.341  27.959  37.648  1.00  0.00    -0.744 OA
ENDBRANCH  64  65
ENDBRANCH  38  59
ENDBRANCH  12  13
ENDBRANCH   5   7
ENDBRANCH   2   3
ENDBRANCH   1   2
BRANCH   1  69
ATOM     69  C   UNL A   1      33.655  26.481  25.359  1.00  0.00     0.023 C 
BRANCH  69  70
ATOM     70  C   UNL A   1      32.665  26.075  24.275  1.00  0.00     0.116 C 
BRANCH  70  71
ATOM     71  N   UNL A   1      33.231  25.761  22.996  1.00  0.00    -0.356 N 
ATOM     72  C   UNL A   1      33.400  24.502  22.514  1.00  0.00     0.223 C 
ATOM     73  H   UNL A   1      33.517  26.511  22.426  1.00  0.00     0.163 HD
ATOM     74  O   UNL A   1      33.219  24.320  21.307  1.00  0.00    -0.275 OA
BRANCH  72  75
ATOM     75  C   UNL A   1      33.823  23.323  23.410  1.00  0.00     0.083 C 
BRANCH  75  76
ATOM     76  C   UNL A   1      35.183  23.449  24.180  1.00  0.00     0.018 C 
BRANCH  76  77
ATOM     77  C   UNL A   1      36.311  22.395  24.271  1.00  0.00     0.036 C 
BRANCH  77  78
ATOM     78  C   UNL A   1      37.445  22.618  25.242  1.00  0.00    -0.048 A 
ATOM     79  C   UNL A   1      38.373  21.606  25.533  1.00  0.00     0.004 A 
ATOM     80  C   UNL A   1      37.584  23.843  25.902  1.00  0.00     0.004 A 
ATOM     81  C   UNL A   1      39.509  21.863  26.302  1.00  0.00     0.000 A 
ATOM     82  C   UNL A   1      38.685  24.081  26.731  1.00  0.00     0.000 A 
ATOM     83  C   UNL A   1      39.672  23.109  26.891  1.00  0.00     0.000 A 
ENDBRANCH  77  78
ENDBRANCH  76  77
ENDBRANCH  75  76
BRANCH  75  84
ATOM     84  C   UNL A   1      32.708  22.432  24.034  1.00  0.00     0.017 C 
ATOM     85  C   UNL A   1      32.625  22.455  25.582  1.00  0.00     0.021 C 
ATOM     86  C   UNL A   1      32.622  20.966  23.640  1.00  0.00     0.141 C 
ATOM     87  C   UNL A   1      33.312  21.232  26.181  1.00  0.00     0.137 C 
ATOM     88  S   UNL A   1      33.243  19.959  24.953  1.00  0.00     0.150 S 
ATOM     89  O   UNL A   1      34.587  19.549  24.618  1.00  0.00    -0.229 OA
ATOM     90  O   UNL A   1      32.211  19.001  25.310  1.00  0.00    -0.229 OA
ENDBRANCH  75  84
ENDBRANCH  72  75
ENDBRANCH  70  71
ENDBRANCH  69  70
ENDBRANCH   1  69
TORSDOF 18
ENDMDL
MODEL 2
REMARK VINA RESULT:     -10.7      0.402      8.240
REMARK SMILES O=C(NCCCCNC(=O)[C@@H](CCc1ccccc1)[C@@H]1CCS(=O)(=O)C1)c1ccc(-c2c3nc(c(-c4ccc(S(=O)(=O)[O-])cc4)c4ccc([nH]4)c(-c4ccc(S(=O)(=O)[O-])cc4)c4nc(c(-c5ccc(S(=O)(=O)[O-])cc5)c5ccc2[nH]5)C=C4)C=C3)cc1
REMARK SMILES IDX 5 1 4 2 3 3 1 4 2 5 27 7 28 8 86 9 29 10 85 11 30 12 31 13
REMARK SMILES IDX 32 14 79 15 33 16 84 17 78 18 80 19 34 20 83 21 77 22 76 23
REMARK SMILES IDX 35 25 65 26 46 27 64 28 47 29 50 30 63 31 81 32 48 33 49 34
REMARK SMILES IDX 62 36 82 37 51 38 36 39 37 40 45 41 38 42 44 43 39 44 40 45
REMARK SMILES IDX 41 46 42 47 43 48 66 49 67 50 75 51 68 52 74 53 69 54 70 55
REMARK SMILES IDX 71 56 72 57 73 58 52 59 53 60 61 61 54 62 60 63 55 64 56 65
REMARK SMILES IDX 57 66 58 67 59 68 6 69 7 70 8 71 9 72 10 74 11 75 12 76
REMARK SMILES IDX 13 77 14 78 15 79 19 80 16 81 18 82 17 83 20 84 21 85 26 86
REMARK SMILES IDX 22 87 23 88 24 89 25 90
REMARK H PARENT 3 6 80 24 50 35 8 73
REMARK Flexibility Score: inf
ROOT
ATOM      1  C   UNL A   1      33.866  27.889  25.498  1.00  0.00     0.023 C 
ENDROOT
BRANCH   1   2
ATOM      2  C   UNL A   1      33.452  28.403  26.872  1.00  0.00     0.116 C 
BRANCH   2   3
ATOM      3  N   UNL A   1      33.437  29.854  27.019  1.00  0.00    -0.352 N 
ATOM      4  O   UNL A   1      34.323  31.875  27.562  1.00  0.00    -0.269 OA
ATOM      5  C   UNL A   1      34.451  30.658  27.502  1.00  0.00     0.251 C 
ATOM      6  H   UNL A   1      32.610  30.312  26.743  1.00  0.00     0.163 HD
BRANCH   5   7
ATOM      7  C   UNL A   1      35.669  29.995  28.013  1.00  0.00     0.039 A 
ATOM      8  C   UNL A   1      35.687  29.502  29.318  1.00  0.00     0.014 A 
ATOM      9  C   UNL A   1      36.842  30.068  27.260  1.00  0.00     0.014 A 
ATOM     10  C   UNL A   1      36.912  29.321  29.946  1.00  0.00     0.010 A 
ATOM     11  C   UNL A   1      38.062  29.744  27.859  1.00  0.00     0.010 A 
ATOM     12  C   UNL A   1      38.116  29.431  29.225  1.00  0.00    -0.014 A 
BRANCH  12  13
ATOM     13  C   UNL A   1      39.406  29.171  29.921  1.00  0.00     0.031 A 
ATOM     14  C   UNL A   1      39.801  29.917  31.173  1.00  0.00     0.074 A 
ATOM     15  C   UNL A   1      40.216  28.216  29.423  1.00  0.00     0.049 A 
ATOM     16  N   UNL A   1      40.887  29.788  31.896  1.00  0.00    -0.248 NA
ATOM     17  C   UNL A   1      38.874  30.944  31.673  1.00  0.00     0.031 C 
ATOM     18  C   UNL A   1      39.939  27.422  28.220  1.00  0.00     0.029 A 
ATOM     19  N   UNL A   1      41.413  27.724  29.871  1.00  0.00    -0.354 N 
ATOM     20  C   UNL A   1      40.793  30.739  32.908  1.00  0.00     0.074 A 
ATOM     21  C   UNL A   1      39.550  31.450  32.696  1.00  0.00     0.031 C 
ATOM     22  C   UNL A   1      40.895  26.495  28.073  1.00  0.00     0.029 A 
ATOM     23  C   UNL A   1      41.900  26.691  29.108  1.00  0.00     0.049 A 
ATOM     24  H   UNL A   1      41.879  28.078  30.664  1.00  0.00     0.167 HD
ATOM     25  C   UNL A   1      41.663  30.995  33.918  1.00  0.00     0.031 A 
ATOM     26  C   UNL A   1      43.042  25.986  29.207  1.00  0.00     0.031 A 
ATOM     27  C   UNL A   1      42.895  30.274  34.122  1.00  0.00     0.049 A 
ATOM     28  C   UNL A   1      44.000  26.315  30.310  1.00  0.00     0.074 A 
ATOM     29  C   UNL A   1      43.824  30.428  35.138  1.00  0.00     0.029 A 
ATOM     30  N   UNL A   1      43.378  29.270  33.294  1.00  0.00    -0.354 N 
ATOM     31  N   UNL A   1      43.877  27.199  31.272  1.00  0.00    -0.248 NA
ATOM     32  C   UNL A   1      45.252  25.552  30.342  1.00  0.00     0.031 C 
ATOM     33  C   UNL A   1      44.898  29.568  34.886  1.00  0.00     0.029 A 
ATOM     34  C   UNL A   1      44.604  28.821  33.756  1.00  0.00     0.049 A 
ATOM     35  H   UNL A   1      42.915  28.927  32.496  1.00  0.00     0.167 HD
ATOM     36  C   UNL A   1      45.027  27.078  32.042  1.00  0.00     0.074 A 
ATOM     37  C   UNL A   1      45.821  26.023  31.443  1.00  0.00     0.031 C 
ATOM     38  C   UNL A   1      45.390  27.776  33.146  1.00  0.00     0.031 A 
BRANCH  25  39
ATOM     39  C   UNL A   1      41.342  32.134  34.859  1.00  0.00    -0.014 A 
ATOM     40  C   UNL A   1      41.862  33.426  34.664  1.00  0.00     0.010 A 
ATOM     41  C   UNL A   1      40.458  31.914  35.933  1.00  0.00     0.010 A 
ATOM     42  C   UNL A   1      41.545  34.461  35.552  1.00  0.00     0.020 A 
ATOM     43  C   UNL A   1      40.114  32.952  36.805  1.00  0.00     0.020 A 
ATOM     44  C   UNL A   1      40.676  34.216  36.620  1.00  0.00     0.054 A 
BRANCH  44  45
ATOM     45  S   UNL A   1      40.280  35.577  37.752  1.00  0.00     0.124 S 
ATOM     46  O   UNL A   1      41.602  35.945  38.256  1.00  0.00    -0.237 OA
ATOM     47  O   UNL A   1      39.651  36.555  36.869  1.00  0.00    -0.237 OA
ATOM     48  O   UNL A   1      39.389  34.965  38.735  1.00  0.00    -0.744 OA
ENDBRANCH  44  45
ENDBRANCH  25  39
BRANCH  26  49
ATOM     49  C   UNL A   1      43.332  24.912  28.220  1.00  0.00    -0.014 A 
ATOM     50  C   UNL A   1      42.959  23.583  28.484  1.00  0.00     0.010 A 
ATOM     51  C   UNL A   1      43.955  25.219  26.995  1.00  0.00     0.010 A 
ATOM     52  C   UNL A   1      43.221  22.578  27.548  1.00  0.00     0.020 A 
ATOM     53  C   UNL A   1      44.183  24.224  26.043  1.00  0.00     0.020 A 
ATOM     54  C   UNL A   1      43.827  22.906  26.332  1.00  0.00     0.054 A 
BRANCH  54  55
ATOM     55  S   UNL A   1      44.114  21.592  25.118  1.00  0.00     0.124 S 
ATOM     56  O   UNL A   1      44.022  22.320  23.856  1.00  0.00    -0.237 OA
ATOM     57  O   UNL A   1      45.447  21.114  25.479  1.00  0.00    -0.237 OA
ATOM     58  O   UNL A   1      43.030  20.645  25.375  1.00  0.00    -0.744 OA
ENDBRANCH  54  55
ENDBRANCH  26  49
BRANCH  38  59
ATOM     59  C   UNL A   1      46.686  27.385  33.806  1.00  0.00    -0.014 A 
ATOM     60  C   UNL A   1      47.907  27.978  33.439  1.00  0.00     0.010 A 
ATOM     61  C   UNL A   1      46.676  26.416  34.827  1.00  0.00     0.010 A 
ATOM     62  C   UNL A   1      49.099  27.577  34.049  1.00  0.00     0.020 A 
ATOM     63  C   UNL A   1      47.859  26.038  35.463  1.00  0.00     0.020 A 
ATOM     64  C   UNL A   1      49.067  26.607  35.057  1.00  0.00     0.054 A 
BRANCH  64  65
ATOM     65  S   UNL A   1      50.623  26.122  35.850  1.00  0.00     0.124 S 
ATOM     66  O   UNL A   1      50.811  27.188  36.830  1.00  0.00    -0.237 OA
ATOM     67  O   UNL A   1      50.303  24.808  36.404  1.00  0.00    -0.237 OA
ATOM     68  O   UNL A   1      51.585  26.110  34.751  1.00  0.00    -0.744 OA
ENDBRANCH  64  65
ENDBRANCH  38  59
ENDBRANCH  12  13
ENDBRANCH   5   7
ENDBRANCH   2   3
ENDBRANCH   1   2
BRANCH   1  69
ATOM     69  C   UNL A   1      33.742  26.387  25.298  1.00  0.00     0.023 C 
BRANCH  69  70
ATOM     70  C   UNL A   1      32.741  26.017  24.211  1.00  0.00     0.116 C 
BRANCH  70  71
ATOM     71  N   UNL A   1      33.301  25.656  22.941  1.00  0.00    -0.356 N 
ATOM     72  C   UNL A   1      33.447  24.380  22.497  1.00  0.00     0.223 C 
ATOM     73  H   UNL A   1      33.599  26.384  22.350  1.00  0.00     0.163 HD
ATOM     74  O   UNL A   1      33.262  24.166  21.296  1.00  0.00    -0.275 OA
BRANCH  72  75
ATOM     75  C   UNL A   1      33.850  23.221  23.427  1.00  0.00     0.083 C 
BRANCH  75  76
ATOM     76  C   UNL A   1      35.204  23.354  24.206  1.00  0.00     0.018 C 
BRANCH  76  77
ATOM     77  C   UNL A   1      36.337  22.306  24.303  1.00  0.00     0.036 C 
BRANCH  77  78
ATOM     78  C   UNL A   1      37.479  22.548  25.261  1.00  0.00    -0.048 A 
ATOM     79  C   UNL A   1      38.426  21.552  25.542  1.00  0.00     0.004 A 
ATOM     80  C   UNL A   1      37.607  23.776  25.918  1.00  0.00     0.004 A 
ATOM     81  C   UNL A   1      39.567  21.828  26.297  1.00  0.00     0.000 A 
ATOM     82  C   UNL A   1      38.713  24.032  26.733  1.00  0.00     0.000 A 
ATOM     83  C   UNL A   1      39.717  23.077  26.882  1.00  0.00     0.000 A 
ENDBRANCH  77  78
ENDBRANCH  76  77
ENDBRANCH  75  76
BRANCH  75  84
ATOM     84  C   UNL A   1      32.721  22.358  24.064  1.00  0.00     0.017 C 
ATOM     85  C   UNL A   1      32.656  22.382  25.613  1.00  0.00     0.021 C 
ATOM     86  C   UNL A   1      32.594  20.895  23.671  1.00  0.00     0.141 C 
ATOM     87  C   UNL A   1      33.320  21.143  26.204  1.00  0.00     0.137 C 
ATOM     88  S   UNL A   1      33.204  19.872  24.977  1.00  0.00     0.150 S 
ATOM     89  O   UNL A   1      34.533  19.429  24.626  1.00  0.00    -0.229 OA
ATOM     90  O   UNL A   1      32.153  18.941  25.346  1.00  0.00    -0.229 OA
ENDBRANCH  75  84
ENDBRANCH  72  75
ENDBRANCH  70  71
ENDBRANCH  69  70
ENDBRANCH   1  69
TORSDOF 18
ENDMDL
MODEL 3
REMARK VINA RESULT:     -10.6      2.794      8.487
REMARK SMILES O=C(NCCCCNC(=O)[C@@H](CCc1ccccc1)[C@@H]1CCS(=O)(=O)C1)c1ccc(-c2c3nc(c(-c4ccc(S(=O)(=O)[O-])cc4)c4ccc([nH]4)c(-c4ccc(S(=O)(=O)[O-])cc4)c4nc(c(-c5ccc(S(=O)(=O)[O-])cc5)c5ccc2[nH]5)C=C4)C=C3)cc1
REMARK SMILES IDX 5 1 4 2 3 3 1 4 2 5 27 7 28 8 86 9 29 10 85 11 30 12 31 13
REMARK SMILES IDX 32 14 79 15 33 16 84 17 78 18 80 19 34 20 83 21 77 22 76 23
REMARK SMILES IDX 35 25 65 26 46 27 64 28 47 29 50 30 63 31 81 32 48 33 49 34
REMARK SMILES IDX 62 36 82 37 51 38 36 39 37 40 45 41 38 42 44 43 39 44 40 45
REMARK SMILES IDX 41 46 42 47 43 48 66 49 67 50 75 51 68 52 74 53 69 54 70 55
REMARK SMILES IDX 71 56 72 57 73 58 52 59 53 60 61 61 54 62 60 63 55 64 56 65
REMARK SMILES IDX 57 66 58 67 59 68 6 69 7 70 8 71 9 72 10 74 11 75 12 76
REMARK SMILES IDX 13 77 14 78 15 79 19 80 16 81 18 82 17 83 20 84 21 85 26 86
REMARK SMILES IDX 22 87 23 88 24 89 25 90
REMARK H PARENT 3 6 80 24 50 35 8 73
REMARK Flexibility Score: inf
ROOT
ATOM      1  C   UNL A   1      38.515  22.858  26.615  1.00  0.00     0.023 C 
ENDROOT
BRANCH   1   2
ATOM      2  C   UNL A   1      39.885  23.454  26.919  1.00  0.00     0.116 C 
BRANCH   2   3
ATOM      3  N   UNL A   1      40.423  24.340  25.894  1.00  0.00    -0.352 N 
ATOM      4  O   UNL A   1      41.438  26.225  25.131  1.00  0.00    -0.269 OA
ATOM      5  C   UNL A   1      41.007  25.579  26.079  1.00  0.00     0.251 C 
ATOM      6  H   UNL A   1      40.364  24.019  24.965  1.00  0.00     0.163 HD
BRANCH   5   7
ATOM      7  C   UNL A   1      41.026  26.133  27.449  1.00  0.00     0.039 A 
ATOM      8  C   UNL A   1      39.851  26.148  28.200  1.00  0.00     0.014 A 
ATOM      9  C   UNL A   1      42.161  26.821  27.881  1.00  0.00     0.014 A 
ATOM     10  C   UNL A   1      39.741  27.054  29.247  1.00  0.00     0.010 A 
ATOM     11  C   UNL A   1      42.082  27.622  29.023  1.00  0.00     0.010 A 
ATOM     12  C   UNL A   1      40.855  27.798  29.679  1.00  0.00    -0.014 A 
BRANCH  12  13
ATOM     13  C   UNL A   1      40.709  28.714  30.842  1.00  0.00     0.031 A 
ATOM     14  C   UNL A   1      41.632  28.642  32.035  1.00  0.00     0.074 A 
ATOM     15  C   UNL A   1      39.740  29.650  30.797  1.00  0.00     0.049 A 
ATOM     16  N   UNL A   1      41.635  29.384  33.116  1.00  0.00    -0.248 NA
ATOM     17  C   UNL A   1      42.675  27.604  32.026  1.00  0.00     0.031 C 
ATOM     18  C   UNL A   1      38.788  29.822  29.693  1.00  0.00     0.029 A 
ATOM     19  N   UNL A   1      39.409  30.649  31.673  1.00  0.00    -0.354 N 
ATOM     20  C   UNL A   1      42.647  28.880  33.928  1.00  0.00     0.074 A 
ATOM     21  C   UNL A   1      43.226  27.757  33.223  1.00  0.00     0.031 C 
ATOM     22  C   UNL A   1      38.037  30.907  29.923  1.00  0.00     0.029 A 
ATOM     23  C   UNL A   1      38.384  31.448  31.229  1.00  0.00     0.049 A 
ATOM     24  H   UNL A   1      39.863  30.781  32.538  1.00  0.00     0.167 HD
ATOM     25  C   UNL A   1      43.051  29.313  35.149  1.00  0.00     0.031 A 
ATOM     26  C   UNL A   1      37.764  32.491  31.813  1.00  0.00     0.031 A 
ATOM     27  C   UNL A   1      42.469  30.438  35.839  1.00  0.00     0.049 A 
ATOM     28  C   UNL A   1      38.210  32.924  33.176  1.00  0.00     0.074 A 
ATOM     29  C   UNL A   1      42.836  30.982  37.059  1.00  0.00     0.029 A 
ATOM     30  N   UNL A   1      41.396  31.187  35.378  1.00  0.00    -0.354 N 
ATOM     31  N   UNL A   1      39.186  32.450  33.913  1.00  0.00    -0.248 NA
ATOM     32  C   UNL A   1      37.468  34.032  33.787  1.00  0.00     0.031 C 
ATOM     33  C   UNL A   1      41.942  32.013  37.367  1.00  0.00     0.029 A 
ATOM     34  C   UNL A   1      41.066  32.165  36.303  1.00  0.00     0.049 A 
ATOM     35  H   UNL A   1      40.937  31.045  34.520  1.00  0.00     0.167 HD
ATOM     36  C   UNL A   1      39.195  33.224  35.067  1.00  0.00     0.074 A 
ATOM     37  C   UNL A   1      38.138  34.206  34.918  1.00  0.00     0.031 C 
ATOM     38  C   UNL A   1      40.006  33.131  36.149  1.00  0.00     0.031 A 
BRANCH  25  39
ATOM     39  C   UNL A   1      44.149  28.542  35.846  1.00  0.00    -0.014 A 
ATOM     40  C   UNL A   1      45.504  28.896  35.714  1.00  0.00     0.010 A 
ATOM     41  C   UNL A   1      43.809  27.470  36.693  1.00  0.00     0.010 A 
ATOM     42  C   UNL A   1      46.497  28.163  36.373  1.00  0.00     0.020 A 
ATOM     43  C   UNL A   1      44.795  26.754  37.379  1.00  0.00     0.020 A 
ATOM     44  C   UNL A   1      46.137  27.093  37.199  1.00  0.00     0.054 A 
BRANCH  44  45
ATOM     45  S   UNL A   1      47.446  26.164  38.045  1.00  0.00     0.124 S 
ATOM     46  O   UNL A   1      48.634  26.566  37.295  1.00  0.00    -0.237 OA
ATOM     47  O   UNL A   1      47.366  26.671  39.412  1.00  0.00    -0.237 OA
ATOM     48  O   UNL A   1      47.048  24.769  37.877  1.00  0.00    -0.744 OA
ENDBRANCH  44  45
ENDBRANCH  25  39
BRANCH  26  49
ATOM     49  C   UNL A   1      36.654  33.179  31.102  1.00  0.00    -0.014 A 
ATOM     50  C   UNL A   1      35.378  33.260  31.685  1.00  0.00     0.010 A 
ATOM     51  C   UNL A   1      36.876  33.786  29.851  1.00  0.00     0.010 A 
ATOM     52  C   UNL A   1      34.340  33.919  31.021  1.00  0.00     0.020 A 
ATOM     53  C   UNL A   1      35.851  34.477  29.203  1.00  0.00     0.020 A 
ATOM     54  C   UNL A   1      34.584  34.527  29.786  1.00  0.00     0.054 A 
BRANCH  54  55
ATOM     55  S   UNL A   1      33.233  35.414  28.967  1.00  0.00     0.124 S 
ATOM     56  O   UNL A   1      32.658  34.375  28.120  1.00  0.00    -0.237 OA
ATOM     57  O   UNL A   1      32.408  35.842  30.094  1.00  0.00    -0.237 OA
ATOM     58  O   UNL A   1      33.914  36.496  28.257  1.00  0.00    -0.744 OA
ENDBRANCH  54  55
ENDBRANCH  26  49
BRANCH  38  59
ATOM     59  C   UNL A   1      39.810  34.151  37.240  1.00  0.00    -0.014 A 
ATOM     60  C   UNL A   1      38.962  33.905  38.334  1.00  0.00     0.010 A 
ATOM     61  C   UNL A   1      40.505  35.372  37.174  1.00  0.00     0.010 A 
ATOM     62  C   UNL A   1      38.778  34.880  39.318  1.00  0.00     0.020 A 
ATOM     63  C   UNL A   1      40.352  36.335  38.172  1.00  0.00     0.020 A 
ATOM     64  C   UNL A   1      39.473  36.091  39.230  1.00  0.00     0.054 A 
BRANCH  64  65
ATOM     65  S   UNL A   1      39.237  37.330  40.532  1.00  0.00     0.124 S 
ATOM     66  O   UNL A   1      38.177  38.162  39.971  1.00  0.00    -0.237 OA
ATOM     67  O   UNL A   1      38.856  36.515  41.683  1.00  0.00    -0.237 OA
ATOM     68  O   UNL A   1      40.544  37.975  40.638  1.00  0.00    -0.744 OA
ENDBRANCH  64  65
ENDBRANCH  38  59
ENDBRANCH  12  13
ENDBRANCH   5   7
ENDBRANCH   2   3
ENDBRANCH   1   2
BRANCH   1  69
ATOM     69  C   UNL A   1      37.783  23.475  25.434  1.00  0.00     0.023 C 
BRANCH  69  70
ATOM     70  C   UNL A   1      36.316  23.756  25.730  1.00  0.00     0.116 C 
BRANCH  70  71
ATOM     71  N   UNL A   1      35.463  23.903  24.588  1.00  0.00    -0.356 N 
ATOM     72  C   UNL A   1      34.380  24.721  24.533  1.00  0.00     0.223 C 
ATOM     73  H   UNL A   1      35.678  23.373  23.786  1.00  0.00     0.163 HD
ATOM     74  O   UNL A   1      34.149  25.299  23.467  1.00  0.00    -0.275 OA
BRANCH  72  75
ATOM     75  C   UNL A   1      33.437  24.927  25.733  1.00  0.00     0.083 C 
BRANCH  75  76
ATOM     76  C   UNL A   1      33.017  26.397  26.082  1.00  0.00     0.018 C 
BRANCH  76  77
ATOM     77  C   UNL A   1      33.610  27.703  25.504  1.00  0.00     0.036 C 
BRANCH  77  78
ATOM     78  C   UNL A   1      33.802  28.888  26.421  1.00  0.00    -0.048 A 
ATOM     79  C   UNL A   1      34.953  29.024  27.213  1.00  0.00     0.004 A 
ATOM     80  C   UNL A   1      32.817  29.875  26.523  1.00  0.00     0.004 A 
ATOM     81  C   UNL A   1      35.203  30.192  27.934  1.00  0.00     0.000 A 
ATOM     82  C   UNL A   1      33.034  31.016  27.301  1.00  0.00     0.000 A 
ATOM     83  C   UNL A   1      34.246  31.197  27.966  1.00  0.00     0.000 A 
ENDBRANCH  77  78
ENDBRANCH  76  77
ENDBRANCH  75  76
BRANCH  75  84
ATOM     84  C   UNL A   1      32.455  23.777  26.107  1.00  0.00     0.017 C 
ATOM     85  C   UNL A   1      32.898  22.880  27.290  1.00  0.00     0.021 C 
ATOM     86  C   UNL A   1      31.982  22.823  25.022  1.00  0.00     0.141 C 
ATOM     87  C   UNL A   1      33.516  21.581  26.786  1.00  0.00     0.137 C 
ATOM     88  S   UNL A   1      32.816  21.272  25.189  1.00  0.00     0.150 S 
ATOM     89  O   UNL A   1      33.875  21.216  24.209  1.00  0.00    -0.229 OA
ATOM     90  O   UNL A   1      31.809  20.232  25.298  1.00  0.00    -0.229 OA
ENDBRANCH  75  84
ENDBRANCH  72  75
ENDBRANCH  70  71
ENDBRANCH  69  70
ENDBRANCH   1  69
TORSDOF 18
ENDMDL
