MODEL 1
REMARK VINA RESULT:      -8.5      0.000      0.000
REMARK SMILES CC(C)(C(=O)NCCCCNC(=O)c1ccc(-c2c3nc(c(-c4ccc(S(=O)(=O)[O-])cc4)c4ccc([nH]4)c(-c4ccc(S(=O)(=O)[O-])cc4)c4nc(c(-c5ccc(S(=O)(=O)[O-])cc5)c5ccc2[nH]5)C=C4)C=C3)cc1)c1ccc(C(=O)CCCCl)cc1
REMARK SMILES IDX 7 1 6 2 4 3 5 4 2 6 1 7 3 8 74 9 75 10 85 11 76 12 84 13
REMARK SMILES IDX 77 14 78 15 79 16 80 17 81 18 82 19 83 20 8 21 9 22 10 23
REMARK SMILES IDX 11 24 12 25 13 27 14 28 15 29 73 30 16 31 72 32 17 33 18 34
REMARK SMILES IDX 19 35 66 36 20 37 71 38 65 39 67 40 21 41 70 42 64 43 63 44
REMARK SMILES IDX 22 46 52 47 33 48 51 49 34 50 37 51 50 52 68 53 35 54 36 55
REMARK SMILES IDX 49 57 69 58 38 59 23 60 24 61 32 62 25 63 31 64 26 65 27 66
REMARK SMILES IDX 28 67 29 68 30 69 53 70 54 71 62 72 55 73 61 74 56 75 57 76
REMARK SMILES IDX 58 77 59 78 60 79 39 80 40 81 48 82 41 83 47 84 42 85 43 86
REMARK SMILES IDX 44 87 45 88 46 89
REMARK H PARENT 6 5 11 26 67 45 37 56
REMARK Flexibility Score: inf
ROOT
ATOM      1  C   UNL A   1      35.780  32.230  31.792  1.00  0.00     0.116 C 
ENDROOT
BRANCH   1   2
ATOM      2  N   UNL A   1      35.822  32.478  33.221  1.00  0.00    -0.355 N 
ATOM      3  C   UNL A   1      36.819  32.866  34.068  1.00  0.00     0.230 C 
ATOM      4  O   UNL A   1      36.434  33.152  35.207  1.00  0.00    -0.274 OA
ATOM      5  H   UNL A   1      34.957  32.338  33.670  1.00  0.00     0.163 HD
BRANCH   3   6
ATOM      6  C   UNL A   1      38.300  33.038  33.608  1.00  0.00     0.068 C 
ATOM      7  C   UNL A   1      38.405  33.517  32.148  1.00  0.00     0.026 C 
ATOM      8  C   UNL A   1      38.916  34.051  34.606  1.00  0.00     0.026 C 
BRANCH   6   9
ATOM      9  C   UNL A   1      39.144  31.726  33.637  1.00  0.00    -0.033 A 
ATOM     10  C   UNL A   1      38.577  30.508  33.212  1.00  0.00     0.005 A 
ATOM     11  C   UNL A   1      40.451  31.675  34.148  1.00  0.00     0.005 A 
ATOM     12  C   UNL A   1      39.324  29.329  33.169  1.00  0.00     0.012 A 
ATOM     13  C   UNL A   1      41.207  30.497  34.103  1.00  0.00     0.012 A 
ATOM     14  C   UNL A   1      40.662  29.335  33.560  1.00  0.00     0.018 A 
BRANCH  14  15
ATOM     15  C   UNL A   1      41.462  28.104  33.322  1.00  0.00     0.162 C 
ATOM     16  O   UNL A   1      41.942  27.903  32.206  1.00  0.00    -0.294 OA
BRANCH  15  17
ATOM     17  C   UNL A   1      41.764  27.166  34.477  1.00  0.00     0.082 C 
BRANCH  17  18
ATOM     18  C   UNL A   1      43.052  26.364  34.266  1.00  0.00     0.024 C 
BRANCH  18  19
ATOM     19  C   UNL A   1      43.345  25.277  35.298  1.00  0.00     0.110 C 
ATOM     20  Cl  UNL A   1      42.727  23.691  34.782  1.00  0.00    -0.127 Cl
ENDBRANCH  18  19
ENDBRANCH  17  18
ENDBRANCH  15  17
ENDBRANCH  14  15
ENDBRANCH   6   9
ENDBRANCH   3   6
ENDBRANCH   1   2
BRANCH   1  21
ATOM     21  C   UNL A   1      34.523  32.807  31.149  1.00  0.00     0.023 C 
BRANCH  21  22
ATOM     22  C   UNL A   1      34.784  33.732  29.961  1.00  0.00     0.023 C 
BRANCH  22  23
ATOM     23  C   UNL A   1      35.191  33.035  28.668  1.00  0.00     0.116 C 
BRANCH  23  24
ATOM     24  N   UNL A   1      34.257  31.996  28.261  1.00  0.00    -0.352 N 
ATOM     25  C   UNL A   1      34.500  30.665  28.014  1.00  0.00     0.251 C 
ATOM     26  H   UNL A   1      33.323  32.285  28.148  1.00  0.00     0.163 HD
ATOM     27  O   UNL A   1      33.614  29.953  27.559  1.00  0.00    -0.269 OA
BRANCH  25  28
ATOM     28  C   UNL A   1      35.849  30.118  28.268  1.00  0.00     0.039 A 
ATOM     29  C   UNL A   1      36.798  30.161  27.244  1.00  0.00     0.014 A 
ATOM     30  C   UNL A   1      36.182  29.599  29.522  1.00  0.00     0.014 A 
ATOM     31  C   UNL A   1      38.106  29.748  27.501  1.00  0.00     0.010 A 
ATOM     32  C   UNL A   1      37.503  29.256  29.795  1.00  0.00     0.010 A 
ATOM     33  C   UNL A   1      38.478  29.327  28.789  1.00  0.00    -0.014 A 
BRANCH  33  34
ATOM     34  C   UNL A   1      39.882  28.966  29.105  1.00  0.00     0.031 A 
ATOM     35  C   UNL A   1      40.799  29.979  29.734  1.00  0.00     0.074 A 
ATOM     36  C   UNL A   1      40.350  27.748  28.766  1.00  0.00     0.049 A 
ATOM     37  N   UNL A   1      42.070  29.870  30.029  1.00  0.00    -0.248 NA
ATOM     38  C   UNL A   1      40.221  31.297  30.047  1.00  0.00     0.031 C 
ATOM     39  C   UNL A   1      39.572  26.691  28.113  1.00  0.00     0.029 A 
ATOM     40  N   UNL A   1      41.597  27.193  28.917  1.00  0.00    -0.354 N 
ATOM     41  C   UNL A   1      42.445  31.106  30.543  1.00  0.00     0.074 A 
ATOM     42  C   UNL A   1      41.283  31.964  30.476  1.00  0.00     0.031 C 
ATOM     43  C   UNL A   1      40.350  25.609  27.948  1.00  0.00     0.029 A 
ATOM     44  C   UNL A   1      41.691  25.906  28.442  1.00  0.00     0.049 A 
ATOM     45  H   UNL A   1      42.353  27.673  29.326  1.00  0.00     0.167 HD
ATOM     46  C   UNL A   1      43.645  31.487  31.042  1.00  0.00     0.031 A 
ATOM     47  C   UNL A   1      42.739  25.060  28.404  1.00  0.00     0.031 A 
ATOM     48  C   UNL A   1      44.794  30.625  31.123  1.00  0.00     0.049 A 
ATOM     49  C   UNL A   1      44.062  25.509  28.961  1.00  0.00     0.074 A 
ATOM     50  C   UNL A   1      46.035  30.898  31.670  1.00  0.00     0.029 A 
ATOM     51  N   UNL A   1      44.845  29.326  30.642  1.00  0.00    -0.354 N 
ATOM     52  N   UNL A   1      44.379  26.659  29.508  1.00  0.00    -0.248 NA
ATOM     53  C   UNL A   1      45.167  24.542  28.908  1.00  0.00     0.031 C 
ATOM     54  C   UNL A   1      46.853  29.780  31.475  1.00  0.00     0.029 A 
ATOM     55  C   UNL A   1      46.103  28.791  30.858  1.00  0.00     0.049 A 
ATOM     56  H   UNL A   1      44.097  28.854  30.210  1.00  0.00     0.167 HD
ATOM     57  C   UNL A   1      45.711  26.542  29.890  1.00  0.00     0.074 A 
ATOM     58  C   UNL A   1      46.135  25.206  29.524  1.00  0.00     0.031 C 
ATOM     59  C   UNL A   1      46.510  27.458  30.490  1.00  0.00     0.031 A 
BRANCH  46  60
ATOM     60  C   UNL A   1      43.777  32.903  31.537  1.00  0.00    -0.014 A 
ATOM     61  C   UNL A   1      44.178  33.940  30.674  1.00  0.00     0.010 A 
ATOM     62  C   UNL A   1      43.453  33.210  32.872  1.00  0.00     0.010 A 
ATOM     63  C   UNL A   1      44.293  35.249  31.148  1.00  0.00     0.020 A 
ATOM     64  C   UNL A   1      43.539  34.524  33.341  1.00  0.00     0.020 A 
ATOM     65  C   UNL A   1      43.976  35.533  32.480  1.00  0.00     0.054 A 
BRANCH  65  66
ATOM     66  S   UNL A   1      44.110  37.246  33.059  1.00  0.00     0.124 S 
ATOM     67  O   UNL A   1      43.995  37.995  31.809  1.00  0.00    -0.237 OA
ATOM     68  O   UNL A   1      42.974  37.367  33.968  1.00  0.00    -0.237 OA
ATOM     69  O   UNL A   1      45.423  37.296  33.697  1.00  0.00    -0.744 OA
ENDBRANCH  65  66
ENDBRANCH  46  60
BRANCH  47  70
ATOM     70  C   UNL A   1      42.576  23.696  27.833  1.00  0.00    -0.014 A 
ATOM     71  C   UNL A   1      42.833  23.458  26.471  1.00  0.00     0.010 A 
ATOM     72  C   UNL A   1      42.170  22.624  28.649  1.00  0.00     0.010 A 
ATOM     73  C   UNL A   1      42.664  22.180  25.930  1.00  0.00     0.020 A 
ATOM     74  C   UNL A   1      42.027  21.339  28.117  1.00  0.00     0.020 A 
ATOM     75  C   UNL A   1      42.262  21.128  26.758  1.00  0.00     0.054 A 
BRANCH  75  76
ATOM     76  S   UNL A   1      42.094  19.468  26.044  1.00  0.00     0.124 S 
ATOM     77  O   UNL A   1      42.956  19.555  24.870  1.00  0.00    -0.237 OA
ATOM     78  O   UNL A   1      42.577  18.610  27.122  1.00  0.00    -0.237 OA
ATOM     79  O   UNL A   1      40.664  19.360  25.767  1.00  0.00    -0.744 OA
ENDBRANCH  75  76
ENDBRANCH  47  70
BRANCH  59  80
ATOM     80  C   UNL A   1      47.915  27.038  30.828  1.00  0.00    -0.014 A 
ATOM     81  C   UNL A   1      49.001  27.397  30.009  1.00  0.00     0.010 A 
ATOM     82  C   UNL A   1      48.157  26.320  32.013  1.00  0.00     0.010 A 
ATOM     83  C   UNL A   1      50.300  27.019  30.356  1.00  0.00     0.020 A 
ATOM     84  C   UNL A   1      49.458  25.966  32.378  1.00  0.00     0.020 A 
ATOM     85  C   UNL A   1      50.520  26.305  31.538  1.00  0.00     0.054 A 
BRANCH  85  86
ATOM     86  S   UNL A   1      52.222  25.866  31.990  1.00  0.00     0.124 S 
ATOM     87  O   UNL A   1      52.576  26.937  32.918  1.00  0.00    -0.237 OA
ATOM     88  O   UNL A   1      52.064  24.543  32.588  1.00  0.00    -0.237 OA
ATOM     89  O   UNL A   1      52.935  25.886  30.715  1.00  0.00    -0.744 OA
ENDBRANCH  85  86
ENDBRANCH  59  80
ENDBRANCH  33  34
ENDBRANCH  25  28
ENDBRANCH  23  24
ENDBRANCH  22  23
ENDBRANCH  21  22
ENDBRANCH   1  21
TORSDOF 19
ENDMDL
MODEL 2
REMARK VINA RESULT:      -8.0      0.794      8.316
REMARK SMILES CC(C)(C(=O)NCCCCNC(=O)c1ccc(-c2c3nc(c(-c4ccc(S(=O)(=O)[O-])cc4)c4ccc([nH]4)c(-c4ccc(S(=O)(=O)[O-])cc4)c4nc(c(-c5ccc(S(=O)(=O)[O-])cc5)c5ccc2[nH]5)C=C4)C=C3)cc1)c1ccc(C(=O)CCCCl)cc1
REMARK SMILES IDX 7 1 6 2 4 3 5 4 2 6 1 7 3 8 74 9 75 10 85 11 76 12 84 13
REMARK SMILES IDX 77 14 78 15 79 16 80 17 81 18 82 19 83 20 8 21 9 22 10 23
REMARK SMILES IDX 11 24 12 25 13 27 14 28 15 29 73 30 16 31 72 32 17 33 18 34
REMARK SMILES IDX 19 35 66 36 20 37 71 38 65 39 67 40 21 41 70 42 64 43 63 44
REMARK SMILES IDX 22 46 52 47 33 48 51 49 34 50 37 51 50 52 68 53 35 54 36 55
REMARK SMILES IDX 49 57 69 58 38 59 23 60 24 61 32 62 25 63 31 64 26 65 27 66
REMARK SMILES IDX 28 67 29 68 30 69 53 70 54 71 62 72 55 73 61 74 56 75 57 76
REMARK SMILES IDX 58 77 59 78 60 79 39 80 40 81 48 82 41 83 47 84 42 85 43 86
REMARK SMILES IDX 44 87 45 88 46 89
REMARK H PARENT 6 5 11 26 67 45 37 56
REMARK Flexibility Score: inf
ROOT
ATOM      1  C   UNL A   1      35.923  32.690  31.488  1.00  0.00     0.116 C 
ENDROOT
BRANCH   1   2
ATOM      2  N   UNL A   1      35.640  32.821  32.905  1.00  0.00    -0.355 N 
ATOM      3  C   UNL A   1      36.403  33.187  33.975  1.00  0.00     0.230 C 
ATOM      4  O   UNL A   1      35.764  33.358  35.019  1.00  0.00    -0.274 OA
ATOM      5  H   UNL A   1      34.710  32.601  33.142  1.00  0.00     0.163 HD
BRANCH   3   6
ATOM      6  C   UNL A   1      37.934  33.470  33.864  1.00  0.00     0.068 C 
ATOM      7  C   UNL A   1      38.291  34.247  32.582  1.00  0.00     0.026 C 
ATOM      8  C   UNL A   1      38.290  34.260  35.149  1.00  0.00     0.026 C 
BRANCH   6   9
ATOM      9  C   UNL A   1      38.826  32.193  33.793  1.00  0.00    -0.033 A 
ATOM     10  C   UNL A   1      40.185  32.255  34.163  1.00  0.00     0.005 A 
ATOM     11  C   UNL A   1      38.357  30.966  33.297  1.00  0.00     0.005 A 
ATOM     12  C   UNL A   1      40.993  31.117  34.168  1.00  0.00     0.012 A 
ATOM     13  C   UNL A   1      39.161  29.819  33.304  1.00  0.00     0.012 A 
ATOM     14  C   UNL A   1      40.465  29.882  33.794  1.00  0.00     0.018 A 
BRANCH  14  15
ATOM     15  C   UNL A   1      41.310  28.674  33.993  1.00  0.00     0.162 C 
ATOM     16  O   UNL A   1      40.824  27.559  33.802  1.00  0.00    -0.294 OA
BRANCH  15  17
ATOM     17  C   UNL A   1      42.782  28.831  34.328  1.00  0.00     0.082 C 
BRANCH  17  18
ATOM     18  C   UNL A   1      43.679  27.906  33.499  1.00  0.00     0.024 C 
BRANCH  18  19
ATOM     19  C   UNL A   1      44.278  26.711  34.237  1.00  0.00     0.110 C 
ATOM     20  Cl  UNL A   1      44.121  25.207  33.300  1.00  0.00    -0.127 Cl
ENDBRANCH  18  19
ENDBRANCH  17  18
ENDBRANCH  15  17
ENDBRANCH  14  15
ENDBRANCH   6   9
ENDBRANCH   3   6
ENDBRANCH   1   2
BRANCH   1  21
ATOM     21  C   UNL A   1      34.717  32.171  30.711  1.00  0.00     0.023 C 
BRANCH  21  22
ATOM     22  C   UNL A   1      34.329  33.018  29.498  1.00  0.00     0.023 C 
BRANCH  22  23
ATOM     23  C   UNL A   1      34.658  32.405  28.142  1.00  0.00     0.116 C 
BRANCH  23  24
ATOM     24  N   UNL A   1      34.076  31.084  27.957  1.00  0.00    -0.352 N 
ATOM     25  C   UNL A   1      34.699  29.857  27.962  1.00  0.00     0.251 C 
ATOM     26  H   UNL A   1      33.103  31.065  27.807  1.00  0.00     0.163 HD
ATOM     27  O   UNL A   1      34.071  28.849  27.667  1.00  0.00    -0.269 OA
BRANCH  25  28
ATOM     28  C   UNL A   1      36.137  29.779  28.293  1.00  0.00     0.039 A 
ATOM     29  C   UNL A   1      36.512  29.414  29.588  1.00  0.00     0.014 A 
ATOM     30  C   UNL A   1      37.106  30.028  27.318  1.00  0.00     0.014 A 
ATOM     31  C   UNL A   1      37.862  29.231  29.887  1.00  0.00     0.010 A 
ATOM     32  C   UNL A   1      38.445  29.774  27.599  1.00  0.00     0.010 A 
ATOM     33  C   UNL A   1      38.838  29.373  28.885  1.00  0.00    -0.014 A 
BRANCH  33  34
ATOM     34  C   UNL A   1      40.270  29.099  29.160  1.00  0.00     0.031 A 
ATOM     35  C   UNL A   1      40.862  27.760  28.814  1.00  0.00     0.074 A 
ATOM     36  C   UNL A   1      41.020  30.030  29.782  1.00  0.00     0.049 A 
ATOM     37  N   UNL A   1      42.073  27.313  29.030  1.00  0.00    -0.248 NA
ATOM     38  C   UNL A   1      39.970  26.785  28.164  1.00  0.00     0.031 C 
ATOM     39  C   UNL A   1      40.551  31.352  30.208  1.00  0.00     0.029 A 
ATOM     40  N   UNL A   1      42.337  30.006  30.171  1.00  0.00    -0.354 N 
ATOM     41  C   UNL A   1      42.082  26.004  28.562  1.00  0.00     0.074 A 
ATOM     42  C   UNL A   1      40.745  25.713  28.094  1.00  0.00     0.031 C 
ATOM     43  C   UNL A   1      41.571  32.021  30.770  1.00  0.00     0.029 A 
ATOM     44  C   UNL A   1      42.753  31.164  30.786  1.00  0.00     0.049 A 
ATOM     45  H   UNL A   1      42.927  29.232  30.025  1.00  0.00     0.167 HD
ATOM     46  C   UNL A   1      43.115  25.130  28.510  1.00  0.00     0.031 A 
ATOM     47  C   UNL A   1      43.949  31.499  31.306  1.00  0.00     0.031 A 
ATOM     48  C   UNL A   1      44.447  25.430  28.961  1.00  0.00     0.049 A 
ATOM     49  C   UNL A   1      45.079  30.508  31.239  1.00  0.00     0.074 A 
ATOM     50  C   UNL A   1      45.577  24.633  28.892  1.00  0.00     0.029 A 
ATOM     51  N   UNL A   1      44.830  26.617  29.566  1.00  0.00    -0.354 N 
ATOM     52  N   UNL A   1      45.087  29.300  30.729  1.00  0.00    -0.248 NA
ATOM     53  C   UNL A   1      46.366  30.930  31.809  1.00  0.00     0.031 C 
ATOM     54  C   UNL A   1      46.632  25.320  29.502  1.00  0.00     0.029 A 
ATOM     55  C   UNL A   1      46.173  26.567  29.897  1.00  0.00     0.049 A 
ATOM     56  H   UNL A   1      44.235  27.383  29.735  1.00  0.00     0.167 HD
ATOM     57  C   UNL A   1      46.386  28.829  30.889  1.00  0.00     0.074 A 
ATOM     58  C   UNL A   1      47.138  29.888  31.532  1.00  0.00     0.031 C 
ATOM     59  C   UNL A   1      46.908  27.630  30.535  1.00  0.00     0.031 A 
BRANCH  46  60
ATOM     60  C   UNL A   1      42.841  23.760  27.948  1.00  0.00    -0.014 A 
ATOM     61  C   UNL A   1      42.366  22.719  28.768  1.00  0.00     0.010 A 
ATOM     62  C   UNL A   1      43.018  23.520  26.572  1.00  0.00     0.010 A 
ATOM     63  C   UNL A   1      42.115  21.454  28.231  1.00  0.00     0.020 A 
ATOM     64  C   UNL A   1      42.740  22.263  26.027  1.00  0.00     0.020 A 
ATOM     65  C   UNL A   1      42.306  21.233  26.864  1.00  0.00     0.054 A 
BRANCH  65  66
ATOM     66  S   UNL A   1      41.947  19.588  26.191  1.00  0.00     0.124 S 
ATOM     67  O   UNL A   1      42.357  18.718  27.291  1.00  0.00    -0.237 OA
ATOM     68  O   UNL A   1      40.509  19.650  25.943  1.00  0.00    -0.237 OA
ATOM     69  O   UNL A   1      42.780  19.512  24.994  1.00  0.00    -0.744 OA
ENDBRANCH  65  66
ENDBRANCH  46  60
BRANCH  47  70
ATOM     70  C   UNL A   1      44.147  32.840  31.921  1.00  0.00    -0.014 A 
ATOM     71  C   UNL A   1      44.526  33.938  31.127  1.00  0.00     0.010 A 
ATOM     72  C   UNL A   1      43.953  33.030  33.301  1.00  0.00     0.010 A 
ATOM     73  C   UNL A   1      44.728  35.195  31.705  1.00  0.00     0.020 A 
ATOM     74  C   UNL A   1      44.127  34.291  33.878  1.00  0.00     0.020 A 
ATOM     75  C   UNL A   1      44.527  35.363  33.078  1.00  0.00     0.054 A 
BRANCH  75  76
ATOM     76  S   UNL A   1      44.751  37.013  33.798  1.00  0.00     0.124 S 
ATOM     77  O   UNL A   1      46.204  37.135  33.830  1.00  0.00    -0.237 OA
ATOM     78  O   UNL A   1      44.064  37.873  32.838  1.00  0.00    -0.237 OA
ATOM     79  O   UNL A   1      44.101  36.906  35.102  1.00  0.00    -0.744 OA
ENDBRANCH  75  76
ENDBRANCH  47  70
BRANCH  59  80
ATOM     80  C   UNL A   1      48.373  27.407  30.797  1.00  0.00    -0.014 A 
ATOM     81  C   UNL A   1      48.815  26.747  31.959  1.00  0.00     0.010 A 
ATOM     82  C   UNL A   1      49.318  27.815  29.838  1.00  0.00     0.010 A 
ATOM     83  C   UNL A   1      50.179  26.528  32.168  1.00  0.00     0.020 A 
ATOM     84  C   UNL A   1      50.679  27.571  30.031  1.00  0.00     0.020 A 
ATOM     85  C   UNL A   1      51.102  26.941  31.203  1.00  0.00     0.054 A 
BRANCH  85  86
ATOM     86  S   UNL A   1      52.864  26.603  31.478  1.00  0.00     0.124 S 
ATOM     87  O   UNL A   1      52.818  25.594  32.533  1.00  0.00    -0.237 OA
ATOM     88  O   UNL A   1      53.306  26.124  30.170  1.00  0.00    -0.237 OA
ATOM     89  O   UNL A   1      53.407  27.899  31.877  1.00  0.00    -0.744 OA
ENDBRANCH  85  86
ENDBRANCH  59  80
ENDBRANCH  33  34
ENDBRANCH  25  28
ENDBRANCH  23  24
ENDBRANCH  22  23
ENDBRANCH  21  22
ENDBRANCH   1  21
TORSDOF 19
ENDMDL
MODEL 3
REMARK VINA RESULT:      -7.9      4.863     10.447
REMARK SMILES CC(C)(C(=O)NCCCCNC(=O)c1ccc(-c2c3nc(c(-c4ccc(S(=O)(=O)[O-])cc4)c4ccc([nH]4)c(-c4ccc(S(=O)(=O)[O-])cc4)c4nc(c(-c5ccc(S(=O)(=O)[O-])cc5)c5ccc2[nH]5)C=C4)C=C3)cc1)c1ccc(C(=O)CCCCl)cc1
REMARK SMILES IDX 7 1 6 2 4 3 5 4 2 6 1 7 3 8 74 9 75 10 85 11 76 12 84 13
REMARK SMILES IDX 77 14 78 15 79 16 80 17 81 18 82 19 83 20 8 21 9 22 10 23
REMARK SMILES IDX 11 24 12 25 13 27 14 28 15 29 73 30 16 31 72 32 17 33 18 34
REMARK SMILES IDX 19 35 66 36 20 37 71 38 65 39 67 40 21 41 70 42 64 43 63 44
REMARK SMILES IDX 22 46 52 47 33 48 51 49 34 50 37 51 50 52 68 53 35 54 36 55
REMARK SMILES IDX 49 57 69 58 38 59 23 60 24 61 32 62 25 63 31 64 26 65 27 66
REMARK SMILES IDX 28 67 29 68 30 69 53 70 54 71 62 72 55 73 61 74 56 75 57 76
REMARK SMILES IDX 58 77 59 78 60 79 39 80 40 81 48 82 41 83 47 84 42 85 43 86
REMARK SMILES IDX 44 87 45 88 46 89
REMARK H PARENT 6 5 11 26 67 45 37 56
REMARK Flexibility Score: inf
ROOT
ATOM      1  C   UNL A   1      35.758  21.089  25.474  1.00  0.00     0.116 C 
ENDROOT
BRANCH   1   2
ATOM      2  N   UNL A   1      34.785  21.454  24.461  1.00  0.00    -0.355 N 
ATOM      3  C   UNL A   1      34.077  22.595  24.220  1.00  0.00     0.230 C 
ATOM      4  O   UNL A   1      33.468  22.596  23.145  1.00  0.00    -0.274 OA
ATOM      5  H   UNL A   1      34.600  20.732  23.817  1.00  0.00     0.163 HD
BRANCH   3   6
ATOM      6  C   UNL A   1      34.119  23.832  25.171  1.00  0.00     0.068 C 
ATOM      7  C   UNL A   1      33.638  23.489  26.593  1.00  0.00     0.026 C 
ATOM      8  C   UNL A   1      35.594  24.307  25.146  1.00  0.00     0.026 C 
BRANCH   6   9
ATOM      9  C   UNL A   1      33.201  25.015  24.736  1.00  0.00    -0.033 A 
ATOM     10  C   UNL A   1      31.876  25.097  25.208  1.00  0.00     0.005 A 
ATOM     11  C   UNL A   1      33.608  25.992  23.813  1.00  0.00     0.005 A 
ATOM     12  C   UNL A   1      31.050  26.174  24.885  1.00  0.00     0.012 A 
ATOM     13  C   UNL A   1      32.787  27.079  23.489  1.00  0.00     0.012 A 
ATOM     14  C   UNL A   1      31.525  27.201  24.070  1.00  0.00     0.018 A 
BRANCH  14  15
ATOM     15  C   UNL A   1      30.676  28.412  23.907  1.00  0.00     0.162 C 
ATOM     16  O   UNL A   1      29.668  28.351  23.204  1.00  0.00    -0.294 OA
BRANCH  15  17
ATOM     17  C   UNL A   1      31.004  29.672  24.688  1.00  0.00     0.082 C 
BRANCH  17  18
ATOM     18  C   UNL A   1      32.062  29.437  25.771  1.00  0.00     0.024 C 
BRANCH  18  19
ATOM     19  C   UNL A   1      32.081  30.440  26.922  1.00  0.00     0.110 C 
ATOM     20  Cl  UNL A   1      31.277  31.965  26.484  1.00  0.00    -0.127 Cl
ENDBRANCH  18  19
ENDBRANCH  17  18
ENDBRANCH  15  17
ENDBRANCH  14  15
ENDBRANCH   6   9
ENDBRANCH   3   6
ENDBRANCH   1   2
BRANCH   1  21
ATOM     21  C   UNL A   1      37.187  21.384  25.026  1.00  0.00     0.023 C 
BRANCH  21  22
ATOM     22  C   UNL A   1      38.155  20.210  25.176  1.00  0.00     0.023 C 
BRANCH  22  23
ATOM     23  C   UNL A   1      39.449  20.522  25.918  1.00  0.00     0.116 C 
BRANCH  23  24
ATOM     24  N   UNL A   1      40.357  19.387  25.984  1.00  0.00    -0.352 N 
ATOM     25  C   UNL A   1      41.720  19.381  26.168  1.00  0.00     0.251 C 
ATOM     26  H   UNL A   1      39.938  18.501  25.883  1.00  0.00     0.163 HD
ATOM     27  O   UNL A   1      42.347  18.334  26.075  1.00  0.00    -0.269 OA
BRANCH  25  28
ATOM     28  C   UNL A   1      42.417  20.654  26.442  1.00  0.00     0.039 A 
ATOM     29  C   UNL A   1      42.953  21.373  25.372  1.00  0.00     0.014 A 
ATOM     30  C   UNL A   1      42.508  21.150  27.745  1.00  0.00     0.014 A 
ATOM     31  C   UNL A   1      43.519  22.628  25.600  1.00  0.00     0.010 A 
ATOM     32  C   UNL A   1      43.007  22.431  27.960  1.00  0.00     0.010 A 
ATOM     33  C   UNL A   1      43.517  23.183  26.891  1.00  0.00    -0.014 A 
BRANCH  33  34
ATOM     34  C   UNL A   1      44.036  24.551  27.141  1.00  0.00     0.031 A 
ATOM     35  C   UNL A   1      43.099  25.645  27.575  1.00  0.00     0.074 A 
ATOM     36  C   UNL A   1      45.336  24.823  26.914  1.00  0.00     0.049 A 
ATOM     37  N   UNL A   1      43.353  26.912  27.785  1.00  0.00    -0.248 NA
ATOM     38  C   UNL A   1      41.688  25.275  27.773  1.00  0.00     0.031 C 
ATOM     39  C   UNL A   1      46.337  23.858  26.451  1.00  0.00     0.029 A 
ATOM     40  N   UNL A   1      46.041  25.995  27.036  1.00  0.00    -0.354 N 
ATOM     41  C   UNL A   1      42.135  27.491  28.119  1.00  0.00     0.074 A 
ATOM     42  C   UNL A   1      41.135  26.450  28.039  1.00  0.00     0.031 C 
ATOM     43  C   UNL A   1      47.529  24.470  26.357  1.00  0.00     0.029 A 
ATOM     44  C   UNL A   1      47.372  25.877  26.710  1.00  0.00     0.049 A 
ATOM     45  H   UNL A   1      45.631  26.842  27.328  1.00  0.00     0.167 HD
ATOM     46  C   UNL A   1      41.875  28.770  28.479  1.00  0.00     0.031 A 
ATOM     47  C   UNL A   1      48.356  26.798  26.694  1.00  0.00     0.031 A 
ATOM     48  C   UNL A   1      42.875  29.800  28.574  1.00  0.00     0.049 A 
ATOM     49  C   UNL A   1      48.039  28.213  27.094  1.00  0.00     0.074 A 
ATOM     50  C   UNL A   1      42.721  31.110  28.991  1.00  0.00     0.029 A 
ATOM     51  N   UNL A   1      44.212  29.637  28.248  1.00  0.00    -0.354 N 
ATOM     52  N   UNL A   1      46.893  28.726  27.475  1.00  0.00    -0.248 NA
ATOM     53  C   UNL A   1      49.152  29.173  27.073  1.00  0.00     0.031 C 
ATOM     54  C   UNL A   1      43.958  31.754  28.869  1.00  0.00     0.029 A 
ATOM     55  C   UNL A   1      44.892  30.829  28.431  1.00  0.00     0.049 A 
ATOM     56  H   UNL A   1      44.618  28.797  27.933  1.00  0.00     0.167 HD
ATOM     57  C   UNL A   1      47.154  30.060  27.767  1.00  0.00     0.074 A 
ATOM     58  C   UNL A   1      48.568  30.271  27.532  1.00  0.00     0.031 C 
ATOM     59  C   UNL A   1      46.300  31.023  28.194  1.00  0.00     0.031 A 
BRANCH  46  60
ATOM     60  C   UNL A   1      40.445  29.130  28.792  1.00  0.00    -0.014 A 
ATOM     61  C   UNL A   1      39.979  29.168  30.119  1.00  0.00     0.010 A 
ATOM     62  C   UNL A   1      39.568  29.477  27.748  1.00  0.00     0.010 A 
ATOM     63  C   UNL A   1      38.651  29.505  30.392  1.00  0.00     0.020 A 
ATOM     64  C   UNL A   1      38.247  29.843  28.021  1.00  0.00     0.020 A 
ATOM     65  C   UNL A   1      37.792  29.838  29.341  1.00  0.00     0.054 A 
BRANCH  65  66
ATOM     66  S   UNL A   1      36.081  30.297  29.728  1.00  0.00     0.124 S 
ATOM     67  O   UNL A   1      35.345  29.655  28.640  1.00  0.00    -0.237 OA
ATOM     68  O   UNL A   1      35.883  29.710  31.050  1.00  0.00    -0.237 OA
ATOM     69  O   UNL A   1      36.096  31.757  29.693  1.00  0.00    -0.744 OA
ENDBRANCH  65  66
ENDBRANCH  46  60
BRANCH  47  70
ATOM     70  C   UNL A   1      49.737  26.407  26.303  1.00  0.00    -0.014 A 
ATOM     71  C   UNL A   1      50.203  26.649  24.997  1.00  0.00     0.010 A 
ATOM     72  C   UNL A   1      50.598  25.797  27.234  1.00  0.00     0.010 A 
ATOM     73  C   UNL A   1      51.495  26.267  24.624  1.00  0.00     0.020 A 
ATOM     74  C   UNL A   1      51.900  25.439  26.871  1.00  0.00     0.020 A 
ATOM     75  C   UNL A   1      52.335  25.665  25.564  1.00  0.00     0.054 A 
BRANCH  75  76
ATOM     76  S   UNL A   1      54.023  25.220  25.069  1.00  0.00     0.124 S 
ATOM     77  O   UNL A   1      54.180  25.962  23.824  1.00  0.00    -0.237 OA
ATOM     78  O   UNL A   1      54.820  25.699  26.197  1.00  0.00    -0.237 OA
ATOM     79  O   UNL A   1      53.966  23.767  24.932  1.00  0.00    -0.744 OA
ENDBRANCH  75  76
ENDBRANCH  47  70
BRANCH  59  80
ATOM     80  C   UNL A   1      46.874  32.386  28.472  1.00  0.00    -0.014 A 
ATOM     81  C   UNL A   1      46.888  33.387  27.485  1.00  0.00     0.010 A 
ATOM     82  C   UNL A   1      47.356  32.684  29.759  1.00  0.00     0.010 A 
ATOM     83  C   UNL A   1      47.402  34.654  27.774  1.00  0.00     0.020 A 
ATOM     84  C   UNL A   1      47.844  33.958  30.060  1.00  0.00     0.020 A 
ATOM     85  C   UNL A   1      47.877  34.931  29.060  1.00  0.00     0.054 A 
BRANCH  85  86
ATOM     86  S   UNL A   1      48.496  36.598  29.422  1.00  0.00     0.124 S 
ATOM     87  O   UNL A   1      49.718  36.311  30.169  1.00  0.00    -0.237 OA
ATOM     88  O   UNL A   1      48.692  37.164  28.090  1.00  0.00    -0.237 OA
ATOM     89  O   UNL A   1      47.419  37.206  30.199  1.00  0.00    -0.744 OA
ENDBRANCH  85  86
ENDBRANCH  59  80
ENDBRANCH  33  34
ENDBRANCH  25  28
ENDBRANCH  23  24
ENDBRANCH  22  23
ENDBRANCH  21  22
ENDBRANCH   1  21
TORSDOF 19
ENDMDL
