MODEL 1
REMARK VINA RESULT:     -12.8      0.000      0.000
REMARK SMILES C[C@]1(Cn2c(=O)[nH]c3cc(C(=O)NCCCCNC(=O)c4ccc(-c5c6nc(c(-c7ccc(S(=O)(=O)[O-])cc7)c7ccc([nH]7)c(-c7ccc(S(=O)(=O)[O-])cc7)c7nc(c(-c8ccc(S(=O)(=O)[O-])cc8)c8ccc5[nH]8)C=C7)C=C6)cc4)ccc32)CCCO1
REMARK SMILES IDX 16 1 15 2 14 3 13 4 11 5 12 6 10 8 4 9 5 10 83 11 6 12 7 13
REMARK SMILES IDX 8 14 82 15 9 17 81 18 3 19 2 20 1 21 84 22 87 23 85 24 86 25
REMARK SMILES IDX 17 26 18 27 19 28 20 30 21 31 22 32 80 33 23 34 79 35 24 36
REMARK SMILES IDX 25 37 26 38 73 39 27 40 78 41 72 42 74 43 28 44 77 45 71 46
REMARK SMILES IDX 70 47 29 49 59 50 40 51 58 52 41 53 44 54 57 55 75 56 42 57
REMARK SMILES IDX 43 58 56 60 76 61 45 62 30 63 31 64 39 65 32 66 38 67 33 68
REMARK SMILES IDX 34 69 35 70 36 71 37 72 60 73 61 74 69 75 62 76 68 77 63 78
REMARK SMILES IDX 64 79 65 80 66 81 67 82 46 83 47 84 55 85 48 86 54 87 49 88
REMARK SMILES IDX 50 89 51 90 52 91 53 92
REMARK H PARENT 13 7 7 16 18 29 74 48 44 59
REMARK Flexibility Score: inf
ROOT
ATOM      1  C   UNL A   1      39.821  21.506  25.989  1.00  0.00     0.023 C 
ENDROOT
BRANCH   1   2
ATOM      2  C   UNL A   1      38.961  22.676  26.495  1.00  0.00     0.023 C 
BRANCH   2   3
ATOM      3  C   UNL A   1      37.717  22.944  25.645  1.00  0.00     0.116 C 
BRANCH   3   4
ATOM      4  N   UNL A   1      36.583  22.176  26.124  1.00  0.00    -0.352 N 
ATOM      5  C   UNL A   1      35.231  22.330  25.970  1.00  0.00     0.251 C 
ATOM      6  O   UNL A   1      34.501  21.441  26.408  1.00  0.00    -0.269 OA
ATOM      7  H   UNL A   1      36.835  21.393  26.666  1.00  0.00     0.163 HD
BRANCH   5   8
ATOM      8  C   UNL A   1      34.612  23.476  25.243  1.00  0.00     0.042 A 
ATOM      9  N   UNL A   1      32.966  26.385  22.771  1.00  0.00    -0.289 N 
ATOM     10  C   UNL A   1      32.483  25.564  21.725  1.00  0.00     0.326 A 
ATOM     11  C   UNL A   1      33.558  25.563  23.741  1.00  0.00     0.069 A 
ATOM     12  O   UNL A   1      31.857  25.898  20.742  1.00  0.00    -0.248 OA
ATOM     13  N   UNL A   1      32.849  24.245  22.059  1.00  0.00    -0.306 N 
ATOM     14  C   UNL A   1      33.514  24.251  23.277  1.00  0.00     0.067 A 
ATOM     15  C   UNL A   1      34.049  25.855  24.991  1.00  0.00     0.029 A 
ATOM     16  H   UNL A   1      32.661  23.447  21.514  1.00  0.00     0.171 HD
ATOM     17  C   UNL A   1      34.035  23.194  23.991  1.00  0.00     0.042 A 
ATOM     18  C   UNL A   1      34.545  24.791  25.754  1.00  0.00     0.016 A 
BRANCH   9  19
ATOM     19  C   UNL A   1      32.693  27.796  22.917  1.00  0.00     0.162 C 
BRANCH  19  20
ATOM     20  C   UNL A   1      31.324  28.212  23.510  1.00  0.00     0.083 C 
ATOM     21  C   UNL A   1      31.429  29.276  24.610  1.00  0.00     0.044 C 
ATOM     22  C   UNL A   1      30.284  28.609  22.459  1.00  0.00     0.039 C 
ATOM     23  O   UNL A   1      30.778  27.029  24.160  1.00  0.00    -0.373 OA
ATOM     24  C   UNL A   1      28.988  28.133  23.078  1.00  0.00     0.031 C 
ATOM     25  C   UNL A   1      29.417  26.849  23.749  1.00  0.00     0.161 C 
ENDBRANCH  19  20
ENDBRANCH   9  19
ENDBRANCH   5   8
ENDBRANCH   3   4
ENDBRANCH   2   3
ENDBRANCH   1   2
BRANCH   1  26
ATOM     26  C   UNL A   1      41.280  21.569  26.446  1.00  0.00     0.116 C 
BRANCH  26  27
ATOM     27  N   UNL A   1      42.122  22.344  25.556  1.00  0.00    -0.352 N 
ATOM     28  C   UNL A   1      42.504  23.653  25.477  1.00  0.00     0.251 C 
ATOM     29  H   UNL A   1      42.511  21.797  24.836  1.00  0.00     0.163 HD
ATOM     30  O   UNL A   1      43.366  23.911  24.632  1.00  0.00    -0.269 OA
BRANCH  28  31
ATOM     31  C   UNL A   1      41.904  24.766  26.257  1.00  0.00     0.039 A 
ATOM     32  C   UNL A   1      41.064  25.750  25.742  1.00  0.00     0.014 A 
ATOM     33  C   UNL A   1      42.329  24.872  27.595  1.00  0.00     0.014 A 
ATOM     34  C   UNL A   1      40.791  26.891  26.478  1.00  0.00     0.010 A 
ATOM     35  C   UNL A   1      42.032  25.997  28.350  1.00  0.00     0.010 A 
ATOM     36  C   UNL A   1      41.337  27.040  27.753  1.00  0.00    -0.014 A 
BRANCH  36  37
ATOM     37  C   UNL A   1      41.119  28.313  28.424  1.00  0.00     0.031 A 
ATOM     38  C   UNL A   1      42.196  29.322  28.217  1.00  0.00     0.074 A 
ATOM     39  C   UNL A   1      40.010  28.568  29.146  1.00  0.00     0.049 A 
ATOM     40  N   UNL A   1      42.969  29.861  29.103  1.00  0.00    -0.248 NA
ATOM     41  C   UNL A   1      42.541  29.666  26.830  1.00  0.00     0.031 C 
ATOM     42  C   UNL A   1      38.776  27.783  29.251  1.00  0.00     0.029 A 
ATOM     43  N   UNL A   1      39.723  29.675  29.876  1.00  0.00    -0.354 N 
ATOM     44  C   UNL A   1      43.801  30.737  28.409  1.00  0.00     0.074 A 
ATOM     45  C   UNL A   1      43.578  30.485  27.007  1.00  0.00     0.031 C 
ATOM     46  C   UNL A   1      37.797  28.559  29.775  1.00  0.00     0.029 A 
ATOM     47  C   UNL A   1      38.380  29.820  30.196  1.00  0.00     0.049 A 
ATOM     48  H   UNL A   1      40.411  30.322  30.157  1.00  0.00     0.167 HD
ATOM     49  C   UNL A   1      44.508  31.725  29.026  1.00  0.00     0.031 A 
ATOM     50  C   UNL A   1      37.792  30.931  30.707  1.00  0.00     0.031 A 
ATOM     51  C   UNL A   1      44.629  31.500  30.438  1.00  0.00     0.049 A 
ATOM     52  C   UNL A   1      38.873  31.726  31.344  1.00  0.00     0.074 A 
ATOM     53  C   UNL A   1      45.271  30.556  31.212  1.00  0.00     0.029 A 
ATOM     54  N   UNL A   1      43.713  32.108  31.264  1.00  0.00    -0.354 N 
ATOM     55  N   UNL A   1      39.551  31.316  32.380  1.00  0.00    -0.248 NA
ATOM     56  C   UNL A   1      39.510  32.762  30.545  1.00  0.00     0.031 C 
ATOM     57  C   UNL A   1      44.378  30.303  32.292  1.00  0.00     0.029 A 
ATOM     58  C   UNL A   1      43.280  31.156  32.152  1.00  0.00     0.049 A 
ATOM     59  H   UNL A   1      43.424  33.048  31.226  1.00  0.00     0.167 HD
ATOM     60  C   UNL A   1      40.854  31.727  32.138  1.00  0.00     0.074 A 
ATOM     61  C   UNL A   1      40.753  32.673  31.026  1.00  0.00     0.031 C 
ATOM     62  C   UNL A   1      41.926  31.070  32.669  1.00  0.00     0.031 A 
BRANCH  49  63
ATOM     63  C   UNL A   1      44.845  33.042  28.380  1.00  0.00    -0.014 A 
ATOM     64  C   UNL A   1      43.861  33.887  27.826  1.00  0.00     0.010 A 
ATOM     65  C   UNL A   1      46.138  33.583  28.536  1.00  0.00     0.010 A 
ATOM     66  C   UNL A   1      44.146  35.192  27.424  1.00  0.00     0.020 A 
ATOM     67  C   UNL A   1      46.425  34.908  28.174  1.00  0.00     0.020 A 
ATOM     68  C   UNL A   1      45.425  35.702  27.613  1.00  0.00     0.054 A 
BRANCH  68  69
ATOM     69  S   UNL A   1      45.721  37.433  27.180  1.00  0.00     0.124 S 
ATOM     70  O   UNL A   1      44.367  37.912  26.915  1.00  0.00    -0.237 OA
ATOM     71  O   UNL A   1      46.350  37.955  28.390  1.00  0.00    -0.237 OA
ATOM     72  O   UNL A   1      46.593  37.350  26.011  1.00  0.00    -0.744 OA
ENDBRANCH  68  69
ENDBRANCH  49  63
BRANCH  50  73
ATOM     73  C   UNL A   1      36.549  31.569  30.187  1.00  0.00    -0.014 A 
ATOM     74  C   UNL A   1      36.520  32.079  28.871  1.00  0.00     0.010 A 
ATOM     75  C   UNL A   1      35.523  31.965  31.066  1.00  0.00     0.010 A 
ATOM     76  C   UNL A   1      35.557  33.011  28.471  1.00  0.00     0.020 A 
ATOM     77  C   UNL A   1      34.550  32.900  30.669  1.00  0.00     0.020 A 
ATOM     78  C   UNL A   1      34.598  33.446  29.385  1.00  0.00     0.054 A 
BRANCH  78  79
ATOM     79  S   UNL A   1      33.488  34.796  28.888  1.00  0.00     0.124 S 
ATOM     80  O   UNL A   1      32.907  35.197  30.166  1.00  0.00    -0.237 OA
ATOM     81  O   UNL A   1      34.410  35.758  28.289  1.00  0.00    -0.237 OA
ATOM     82  O   UNL A   1      32.564  34.160  27.953  1.00  0.00    -0.744 OA
ENDBRANCH  78  79
ENDBRANCH  50  73
BRANCH  62  83
ATOM     83  C   UNL A   1      41.694  29.977  33.694  1.00  0.00    -0.014 A 
ATOM     84  C   UNL A   1      42.019  30.267  35.031  1.00  0.00     0.010 A 
ATOM     85  C   UNL A   1      41.433  28.634  33.345  1.00  0.00     0.010 A 
ATOM     86  C   UNL A   1      42.152  29.250  35.979  1.00  0.00     0.020 A 
ATOM     87  C   UNL A   1      41.541  27.608  34.300  1.00  0.00     0.020 A 
ATOM     88  C   UNL A   1      41.934  27.923  35.603  1.00  0.00     0.054 A 
BRANCH  88  89
ATOM     89  S   UNL A   1      42.238  26.627  36.839  1.00  0.00     0.124 S 
ATOM     90  O   UNL A   1      40.933  26.504  37.486  1.00  0.00    -0.237 OA
ATOM     91  O   UNL A   1      42.636  25.485  36.018  1.00  0.00    -0.237 OA
ATOM     92  O   UNL A   1      43.296  27.181  37.682  1.00  0.00    -0.744 OA
ENDBRANCH  88  89
ENDBRANCH  62  83
ENDBRANCH  36  37
ENDBRANCH  28  31
ENDBRANCH  26  27
ENDBRANCH   1  26
TORSDOF 16
ENDMDL
MODEL 2
REMARK VINA RESULT:     -12.6      2.890      9.591
REMARK SMILES C[C@]1(Cn2c(=O)[nH]c3cc(C(=O)NCCCCNC(=O)c4ccc(-c5c6nc(c(-c7ccc(S(=O)(=O)[O-])cc7)c7ccc([nH]7)c(-c7ccc(S(=O)(=O)[O-])cc7)c7nc(c(-c8ccc(S(=O)(=O)[O-])cc8)c8ccc5[nH]8)C=C7)C=C6)cc4)ccc32)CCCO1
REMARK SMILES IDX 16 1 15 2 14 3 13 4 11 5 12 6 10 8 4 9 5 10 83 11 6 12 7 13
REMARK SMILES IDX 8 14 82 15 9 17 81 18 3 19 2 20 1 21 84 22 87 23 85 24 86 25
REMARK SMILES IDX 17 26 18 27 19 28 20 30 21 31 22 32 80 33 23 34 79 35 24 36
REMARK SMILES IDX 25 37 26 38 73 39 27 40 78 41 72 42 74 43 28 44 77 45 71 46
REMARK SMILES IDX 70 47 29 49 59 50 40 51 58 52 41 53 44 54 57 55 75 56 42 57
REMARK SMILES IDX 43 58 56 60 76 61 45 62 30 63 31 64 39 65 32 66 38 67 33 68
REMARK SMILES IDX 34 69 35 70 36 71 37 72 60 73 61 74 69 75 62 76 68 77 63 78
REMARK SMILES IDX 64 79 65 80 66 81 67 82 46 83 47 84 55 85 48 86 54 87 49 88
REMARK SMILES IDX 50 89 51 90 52 91 53 92
REMARK H PARENT 13 7 7 16 18 29 74 48 44 59
REMARK Flexibility Score: inf
ROOT
ATOM      1  C   UNL A   1      33.313  29.194  27.436  1.00  0.00     0.023 C 
ENDROOT
BRANCH   1   2
ATOM      2  C   UNL A   1      32.034  29.427  26.615  1.00  0.00     0.023 C 
BRANCH   2   3
ATOM      3  C   UNL A   1      32.294  29.793  25.151  1.00  0.00     0.116 C 
BRANCH   3   4
ATOM      4  N   UNL A   1      31.072  29.724  24.372  1.00  0.00    -0.352 N 
ATOM      5  C   UNL A   1      30.405  28.678  23.791  1.00  0.00     0.251 C 
ATOM      6  O   UNL A   1      29.312  28.913  23.275  1.00  0.00    -0.269 OA
ATOM      7  H   UNL A   1      30.640  30.597  24.233  1.00  0.00     0.163 HD
BRANCH   5   8
ATOM      8  C   UNL A   1      30.901  27.271  23.815  1.00  0.00     0.042 A 
ATOM      9  N   UNL A   1      32.088  23.327  24.378  1.00  0.00    -0.289 N 
ATOM     10  C   UNL A   1      31.099  22.909  25.300  1.00  0.00     0.326 A 
ATOM     11  C   UNL A   1      31.842  24.666  24.042  1.00  0.00     0.069 A 
ATOM     12  O   UNL A   1      30.939  21.805  25.773  1.00  0.00    -0.248 OA
ATOM     13  N   UNL A   1      30.295  24.038  25.552  1.00  0.00    -0.306 N 
ATOM     14  C   UNL A   1      30.758  25.107  24.797  1.00  0.00     0.067 A 
ATOM     15  C   UNL A   1      32.427  25.480  23.102  1.00  0.00     0.029 A 
ATOM     16  H   UNL A   1      29.526  24.064  26.166  1.00  0.00     0.171 HD
ATOM     17  C   UNL A   1      30.272  26.393  24.716  1.00  0.00     0.042 A 
ATOM     18  C   UNL A   1      31.922  26.780  22.970  1.00  0.00     0.016 A 
BRANCH   9  19
ATOM     19  C   UNL A   1      33.043  22.459  23.729  1.00  0.00     0.162 C 
BRANCH  19  20
ATOM     20  C   UNL A   1      34.462  22.357  24.341  1.00  0.00     0.083 C 
ATOM     21  C   UNL A   1      34.805  20.956  24.865  1.00  0.00     0.044 C 
ATOM     22  C   UNL A   1      35.573  22.889  23.433  1.00  0.00     0.039 C 
ATOM     23  O   UNL A   1      34.473  23.226  25.509  1.00  0.00    -0.373 OA
ATOM     24  C   UNL A   1      36.559  23.473  24.422  1.00  0.00     0.031 C 
ATOM     25  C   UNL A   1      35.640  24.057  25.469  1.00  0.00     0.161 C 
ENDBRANCH  19  20
ENDBRANCH   9  19
ENDBRANCH   5   8
ENDBRANCH   3   4
ENDBRANCH   2   3
ENDBRANCH   1   2
BRANCH   1  26
ATOM     26  C   UNL A   1      34.321  30.342  27.346  1.00  0.00     0.116 C 
BRANCH  26  27
ATOM     27  N   UNL A   1      34.243  31.255  28.469  1.00  0.00    -0.352 N 
ATOM     28  C   UNL A   1      35.100  31.657  29.454  1.00  0.00     0.251 C 
ATOM     29  H   UNL A   1      33.362  31.690  28.539  1.00  0.00     0.163 HD
ATOM     30  O   UNL A   1      34.702  32.581  30.169  1.00  0.00    -0.269 OA
BRANCH  28  31
ATOM     31  C   UNL A   1      36.401  31.013  29.768  1.00  0.00     0.039 A 
ATOM     32  C   UNL A   1      37.655  31.573  29.536  1.00  0.00     0.014 A 
ATOM     33  C   UNL A   1      36.329  29.685  30.232  1.00  0.00     0.014 A 
ATOM     34  C   UNL A   1      38.794  30.788  29.599  1.00  0.00     0.010 A 
ATOM     35  C   UNL A   1      37.470  28.902  30.328  1.00  0.00     0.010 A 
ATOM     36  C   UNL A   1      38.686  29.436  29.925  1.00  0.00    -0.014 A 
BRANCH  36  37
ATOM     37  C   UNL A   1      39.899  28.636  29.851  1.00  0.00     0.031 A 
ATOM     38  C   UNL A   1      40.593  28.429  31.153  1.00  0.00     0.074 A 
ATOM     39  C   UNL A   1      40.338  28.097  28.697  1.00  0.00     0.049 A 
ATOM     40  N   UNL A   1      41.781  28.808  31.497  1.00  0.00    -0.248 NA
ATOM     41  C   UNL A   1      39.808  27.846  32.251  1.00  0.00     0.031 C 
ATOM     42  C   UNL A   1      39.660  28.012  27.399  1.00  0.00     0.029 A 
ATOM     43  N   UNL A   1      41.483  27.402  28.481  1.00  0.00    -0.354 N 
ATOM     44  C   UNL A   1      41.962  28.375  32.809  1.00  0.00     0.074 A 
ATOM     45  C   UNL A   1      40.677  27.901  33.260  1.00  0.00     0.031 C 
ATOM     46  C   UNL A   1      40.283  27.090  26.629  1.00  0.00     0.029 A 
ATOM     47  C   UNL A   1      41.490  26.657  27.309  1.00  0.00     0.049 A 
ATOM     48  H   UNL A   1      42.247  27.425  29.102  1.00  0.00     0.167 HD
ATOM     49  C   UNL A   1      43.189  28.287  33.392  1.00  0.00     0.031 A 
ATOM     50  C   UNL A   1      42.396  25.705  26.968  1.00  0.00     0.031 A 
ATOM     51  C   UNL A   1      44.177  29.056  32.690  1.00  0.00     0.049 A 
ATOM     52  C   UNL A   1      43.617  25.977  27.770  1.00  0.00     0.074 A 
ATOM     53  C   UNL A   1      44.375  30.404  32.476  1.00  0.00     0.029 A 
ATOM     54  N   UNL A   1      44.950  28.407  31.757  1.00  0.00    -0.354 N 
ATOM     55  N   UNL A   1      44.339  27.055  27.635  1.00  0.00    -0.248 NA
ATOM     56  C   UNL A   1      43.763  25.276  29.036  1.00  0.00     0.031 C 
ATOM     57  C   UNL A   1      44.843  30.494  31.135  1.00  0.00     0.029 A 
ATOM     58  C   UNL A   1      44.972  29.196  30.635  1.00  0.00     0.049 A 
ATOM     59  H   UNL A   1      45.403  27.541  31.873  1.00  0.00     0.167 HD
ATOM     60  C   UNL A   1      44.709  27.400  28.927  1.00  0.00     0.074 A 
ATOM     61  C   UNL A   1      44.383  26.227  29.740  1.00  0.00     0.031 C 
ATOM     62  C   UNL A   1      44.993  28.689  29.274  1.00  0.00     0.031 A 
BRANCH  49  63
ATOM     63  C   UNL A   1      43.547  27.269  34.442  1.00  0.00    -0.014 A 
ATOM     64  C   UNL A   1      43.754  25.908  34.135  1.00  0.00     0.010 A 
ATOM     65  C   UNL A   1      43.930  27.699  35.728  1.00  0.00     0.010 A 
ATOM     66  C   UNL A   1      44.290  25.013  35.062  1.00  0.00     0.020 A 
ATOM     67  C   UNL A   1      44.509  26.817  36.653  1.00  0.00     0.020 A 
ATOM     68  C   UNL A   1      44.679  25.476  36.313  1.00  0.00     0.054 A 
BRANCH  68  69
ATOM     69  S   UNL A   1      45.471  24.305  37.443  1.00  0.00     0.124 S 
ATOM     70  O   UNL A   1      46.868  24.729  37.383  1.00  0.00    -0.237 OA
ATOM     71  O   UNL A   1      44.784  24.574  38.703  1.00  0.00    -0.237 OA
ATOM     72  O   UNL A   1      45.187  23.004  36.844  1.00  0.00    -0.744 OA
ENDBRANCH  68  69
ENDBRANCH  49  63
BRANCH  50  73
ATOM     73  C   UNL A   1      42.069  24.338  26.474  1.00  0.00    -0.014 A 
ATOM     74  C   UNL A   1      41.008  23.614  27.061  1.00  0.00     0.010 A 
ATOM     75  C   UNL A   1      42.982  23.626  25.672  1.00  0.00     0.010 A 
ATOM     76  C   UNL A   1      40.908  22.226  26.922  1.00  0.00     0.020 A 
ATOM     77  C   UNL A   1      42.885  22.231  25.527  1.00  0.00     0.020 A 
ATOM     78  C   UNL A   1      41.870  21.536  26.186  1.00  0.00     0.054 A 
BRANCH  78  79
ATOM     79  S   UNL A   1      41.815  19.720  26.192  1.00  0.00     0.124 S 
ATOM     80  O   UNL A   1      40.413  19.457  25.881  1.00  0.00    -0.237 OA
ATOM     81  O   UNL A   1      42.766  19.372  25.140  1.00  0.00    -0.237 OA
ATOM     82  O   UNL A   1      42.232  19.364  27.546  1.00  0.00    -0.744 OA
ENDBRANCH  78  79
ENDBRANCH  50  73
BRANCH  62  83
ATOM     83  C   UNL A   1      45.085  29.747  28.192  1.00  0.00    -0.014 A 
ATOM     84  C   UNL A   1      46.355  30.291  27.929  1.00  0.00     0.010 A 
ATOM     85  C   UNL A   1      43.955  30.389  27.641  1.00  0.00     0.010 A 
ATOM     86  C   UNL A   1      46.496  31.475  27.202  1.00  0.00     0.020 A 
ATOM     87  C   UNL A   1      44.092  31.567  26.888  1.00  0.00     0.020 A 
ATOM     88  C   UNL A   1      45.362  32.120  26.704  1.00  0.00     0.054 A 
BRANCH  88  89
ATOM     89  S   UNL A   1      45.588  33.719  25.873  1.00  0.00     0.124 S 
ATOM     90  O   UNL A   1      47.043  33.805  25.758  1.00  0.00    -0.237 OA
ATOM     91  O   UNL A   1      44.874  33.530  24.611  1.00  0.00    -0.237 OA
ATOM     92  O   UNL A   1      44.981  34.684  26.787  1.00  0.00    -0.744 OA
ENDBRANCH  88  89
ENDBRANCH  62  83
ENDBRANCH  36  37
ENDBRANCH  28  31
ENDBRANCH  26  27
ENDBRANCH   1  26
TORSDOF 16
ENDMDL
MODEL 3
REMARK VINA RESULT:     -12.5      3.138      9.661
REMARK SMILES C[C@]1(Cn2c(=O)[nH]c3cc(C(=O)NCCCCNC(=O)c4ccc(-c5c6nc(c(-c7ccc(S(=O)(=O)[O-])cc7)c7ccc([nH]7)c(-c7ccc(S(=O)(=O)[O-])cc7)c7nc(c(-c8ccc(S(=O)(=O)[O-])cc8)c8ccc5[nH]8)C=C7)C=C6)cc4)ccc32)CCCO1
REMARK SMILES IDX 16 1 15 2 14 3 13 4 11 5 12 6 10 8 4 9 5 10 83 11 6 12 7 13
REMARK SMILES IDX 8 14 82 15 9 17 81 18 3 19 2 20 1 21 84 22 87 23 85 24 86 25
REMARK SMILES IDX 17 26 18 27 19 28 20 30 21 31 22 32 80 33 23 34 79 35 24 36
REMARK SMILES IDX 25 37 26 38 73 39 27 40 78 41 72 42 74 43 28 44 77 45 71 46
REMARK SMILES IDX 70 47 29 49 59 50 40 51 58 52 41 53 44 54 57 55 75 56 42 57
REMARK SMILES IDX 43 58 56 60 76 61 45 62 30 63 31 64 39 65 32 66 38 67 33 68
REMARK SMILES IDX 34 69 35 70 36 71 37 72 60 73 61 74 69 75 62 76 68 77 63 78
REMARK SMILES IDX 64 79 65 80 66 81 67 82 46 83 47 84 55 85 48 86 54 87 49 88
REMARK SMILES IDX 50 89 51 90 52 91 53 92
REMARK H PARENT 13 7 7 16 18 29 74 48 44 59
REMARK Flexibility Score: inf
ROOT
ATOM      1  C   UNL A   1      34.981  29.596  27.684  1.00  0.00     0.023 C 
ENDROOT
BRANCH   1   2
ATOM      2  C   UNL A   1      34.155  28.809  26.652  1.00  0.00     0.023 C 
BRANCH   2   3
ATOM      3  C   UNL A   1      32.796  28.338  27.175  1.00  0.00     0.116 C 
BRANCH   3   4
ATOM      4  N   UNL A   1      31.831  28.233  26.098  1.00  0.00    -0.352 N 
ATOM      5  C   UNL A   1      31.423  27.182  25.321  1.00  0.00     0.251 C 
ATOM      6  O   UNL A   1      30.489  27.373  24.543  1.00  0.00    -0.269 OA
ATOM      7  H   UNL A   1      31.383  29.083  25.883  1.00  0.00     0.163 HD
BRANCH   5   8
ATOM      8  C   UNL A   1      32.005  25.811  25.421  1.00  0.00     0.042 A 
ATOM      9  N   UNL A   1      33.906  22.117  25.261  1.00  0.00    -0.289 N 
ATOM     10  C   UNL A   1      35.114  22.498  24.631  1.00  0.00     0.326 A 
ATOM     11  C   UNL A   1      33.112  23.263  25.425  1.00  0.00     0.069 A 
ATOM     12  O   UNL A   1      36.075  21.803  24.378  1.00  0.00    -0.248 OA
ATOM     13  N   UNL A   1      35.004  23.877  24.368  1.00  0.00    -0.306 N 
ATOM     14  C   UNL A   1      33.780  24.335  24.839  1.00  0.00     0.067 A 
ATOM     15  C   UNL A   1      31.925  23.447  26.090  1.00  0.00     0.029 A 
ATOM     16  H   UNL A   1      35.686  24.429  23.923  1.00  0.00     0.171 HD
ATOM     17  C   UNL A   1      33.257  25.609  24.812  1.00  0.00     0.042 A 
ATOM     18  C   UNL A   1      31.393  24.742  26.113  1.00  0.00     0.016 A 
BRANCH   9  19
ATOM     19  C   UNL A   1      33.638  20.820  25.836  1.00  0.00     0.162 C 
BRANCH  19  20
ATOM     20  C   UNL A   1      33.211  19.678  24.881  1.00  0.00     0.083 C 
ATOM     21  C   UNL A   1      32.463  20.168  23.633  1.00  0.00     0.044 C 
ATOM     22  C   UNL A   1      34.347  18.726  24.500  1.00  0.00     0.039 C 
ATOM     23  O   UNL A   1      32.256  18.859  25.614  1.00  0.00    -0.373 OA
ATOM     24  C   UNL A   1      33.637  17.395  24.372  1.00  0.00     0.031 C 
ATOM     25  C   UNL A   1      32.618  17.479  25.484  1.00  0.00     0.161 C 
ENDBRANCH  19  20
ENDBRANCH   9  19
ENDBRANCH   5   8
ENDBRANCH   3   4
ENDBRANCH   2   3
ENDBRANCH   1   2
BRANCH   1  26
ATOM     26  C   UNL A   1      34.705  31.101  27.677  1.00  0.00     0.116 C 
BRANCH  26  27
ATOM     27  N   UNL A   1      34.497  31.646  29.004  1.00  0.00    -0.352 N 
ATOM     28  C   UNL A   1      35.256  31.763  30.134  1.00  0.00     0.251 C 
ATOM     29  H   UNL A   1      33.595  32.021  29.119  1.00  0.00     0.163 HD
ATOM     30  O   UNL A   1      34.761  32.431  31.047  1.00  0.00    -0.269 OA
BRANCH  28  31
ATOM     31  C   UNL A   1      36.558  31.087  30.362  1.00  0.00     0.039 A 
ATOM     32  C   UNL A   1      37.809  31.625  30.070  1.00  0.00     0.014 A 
ATOM     33  C   UNL A   1      36.484  29.752  30.805  1.00  0.00     0.014 A 
ATOM     34  C   UNL A   1      38.932  30.815  30.053  1.00  0.00     0.010 A 
ATOM     35  C   UNL A   1      37.611  28.944  30.822  1.00  0.00     0.010 A 
ATOM     36  C   UNL A   1      38.814  29.460  30.361  1.00  0.00    -0.014 A 
BRANCH  36  37
ATOM     37  C   UNL A   1      40.003  28.637  30.203  1.00  0.00     0.031 A 
ATOM     38  C   UNL A   1      40.787  28.424  31.452  1.00  0.00     0.074 A 
ATOM     39  C   UNL A   1      40.346  28.082  29.024  1.00  0.00     0.049 A 
ATOM     40  N   UNL A   1      42.004  28.782  31.705  1.00  0.00    -0.248 NA
ATOM     41  C   UNL A   1      40.074  27.862  32.609  1.00  0.00     0.031 C 
ATOM     42  C   UNL A   1      39.572  28.003  27.780  1.00  0.00     0.029 A 
ATOM     43  N   UNL A   1      41.459  27.364  28.729  1.00  0.00    -0.354 N 
ATOM     44  C   UNL A   1      42.272  28.353  33.003  1.00  0.00     0.074 A 
ATOM     45  C   UNL A   1      41.016  27.906  33.551  1.00  0.00     0.031 C 
ATOM     46  C   UNL A   1      40.120  27.065  26.972  1.00  0.00     0.029 A 
ATOM     47  C   UNL A   1      41.366  26.613  27.565  1.00  0.00     0.049 A 
ATOM     48  H   UNL A   1      42.266  27.376  29.293  1.00  0.00     0.167 HD
ATOM     49  C   UNL A   1      43.538  28.244  33.495  1.00  0.00     0.031 A 
ATOM     50  C   UNL A   1      42.226  25.642  27.165  1.00  0.00     0.031 A 
ATOM     51  C   UNL A   1      44.485  28.991  32.717  1.00  0.00     0.049 A 
ATOM     52  C   UNL A   1      43.507  25.895  27.873  1.00  0.00     0.074 A 
ATOM     53  C   UNL A   1      44.692  30.334  32.480  1.00  0.00     0.029 A 
ATOM     54  N   UNL A   1      45.175  28.322  31.735  1.00  0.00    -0.354 N 
ATOM     55  N   UNL A   1      44.238  26.958  27.678  1.00  0.00    -0.248 NA
ATOM     56  C   UNL A   1      43.733  25.199  29.131  1.00  0.00     0.031 C 
ATOM     57  C   UNL A   1      45.062  30.407  31.107  1.00  0.00     0.029 A 
ATOM     58  C   UNL A   1      45.129  29.103  30.608  1.00  0.00     0.049 A 
ATOM     59  H   UNL A   1      45.619  27.448  31.823  1.00  0.00     0.167 HD
ATOM     60  C   UNL A   1      44.708  27.303  28.937  1.00  0.00     0.074 A 
ATOM     61  C   UNL A   1      44.421  26.142  29.780  1.00  0.00     0.031 C 
ATOM     62  C   UNL A   1      45.040  28.588  29.253  1.00  0.00     0.031 A 
BRANCH  49  63
ATOM     63  C   UNL A   1      43.952  27.226  34.523  1.00  0.00    -0.014 A 
ATOM     64  C   UNL A   1      43.580  25.869  34.435  1.00  0.00     0.010 A 
ATOM     65  C   UNL A   1      44.938  27.558  35.474  1.00  0.00     0.010 A 
ATOM     66  C   UNL A   1      44.137  24.892  35.262  1.00  0.00     0.020 A 
ATOM     67  C   UNL A   1      45.535  26.578  36.282  1.00  0.00     0.020 A 
ATOM     68  C   UNL A   1      45.124  25.250  36.173  1.00  0.00     0.054 A 
BRANCH  68  69
ATOM     69  S   UNL A   1      45.896  23.936  37.148  1.00  0.00     0.124 S 
ATOM     70  O   UNL A   1      45.064  23.925  38.349  1.00  0.00    -0.237 OA
ATOM     71  O   UNL A   1      45.757  22.775  36.273  1.00  0.00    -0.237 OA
ATOM     72  O   UNL A   1      47.264  24.410  37.340  1.00  0.00    -0.744 OA
ENDBRANCH  68  69
ENDBRANCH  49  63
BRANCH  50  73
ATOM     73  C   UNL A   1      41.838  24.278  26.707  1.00  0.00    -0.014 A 
ATOM     74  C   UNL A   1      40.971  23.492  27.497  1.00  0.00     0.010 A 
ATOM     75  C   UNL A   1      42.559  23.632  25.684  1.00  0.00     0.010 A 
ATOM     76  C   UNL A   1      40.888  22.105  27.329  1.00  0.00     0.020 A 
ATOM     77  C   UNL A   1      42.477  22.239  25.508  1.00  0.00     0.020 A 
ATOM     78  C   UNL A   1      41.671  21.480  26.359  1.00  0.00     0.054 A 
BRANCH  78  79
ATOM     79  S   UNL A   1      41.681  19.665  26.304  1.00  0.00     0.124 S 
ATOM     80  O   UNL A   1      40.290  19.363  25.981  1.00  0.00    -0.237 OA
ATOM     81  O   UNL A   1      42.645  19.387  25.242  1.00  0.00    -0.237 OA
ATOM     82  O   UNL A   1      42.110  19.278  27.645  1.00  0.00    -0.744 OA
ENDBRANCH  78  79
ENDBRANCH  50  73
BRANCH  62  83
ATOM     83  C   UNL A   1      45.072  29.638  28.159  1.00  0.00    -0.014 A 
ATOM     84  C   UNL A   1      46.316  30.226  27.867  1.00  0.00     0.010 A 
ATOM     85  C   UNL A   1      43.909  30.232  27.625  1.00  0.00     0.010 A 
ATOM     86  C   UNL A   1      46.399  31.408  27.126  1.00  0.00     0.020 A 
ATOM     87  C   UNL A   1      43.988  31.407  26.858  1.00  0.00     0.020 A 
ATOM     88  C   UNL A   1      45.232  32.005  26.645  1.00  0.00     0.054 A 
BRANCH  88  89
ATOM     89  S   UNL A   1      45.382  33.602  25.794  1.00  0.00     0.124 S 
ATOM     90  O   UNL A   1      46.831  33.792  25.746  1.00  0.00    -0.237 OA
ATOM     91  O   UNL A   1      44.745  33.342  24.505  1.00  0.00    -0.237 OA
ATOM     92  O   UNL A   1      44.665  34.536  26.661  1.00  0.00    -0.744 OA
ENDBRANCH  88  89
ENDBRANCH  62  83
ENDBRANCH  36  37
ENDBRANCH  28  31
ENDBRANCH  26  27
ENDBRANCH   1  26
TORSDOF 16
ENDMDL
