MODEL 1
REMARK VINA RESULT:     -12.7      0.000      0.000
REMARK SMILES Cc1ccc(C)c(S(=O)(=O)N[C@H](CC2=c3ccccc3=NC2)C(=O)NCCCCNC(=O)c2ccc(-c3c4nc(c(-c5ccc(S(=O)(=O)[O-])cc5)c5ccc([nH]5)c(-c5ccc(S(=O)(=O)[O-])cc5)c5nc(c(-c6ccc(S(=O)(=O)[O-])cc6)c6ccc3[nH]6)C=C5)C=C4)cc2)c1
REMARK SMILES IDX 27 1 26 2 25 3 23 4 24 5 12 7 11 8 8 10 9 11 10 12 7 13 1 14
REMARK SMILES IDX 2 15 3 16 93 17 4 18 5 19 6 20 13 21 14 22 15 23 22 24 16 25
REMARK SMILES IDX 20 26 21 27 17 28 19 29 18 30 28 31 29 32 30 33 31 34 32 36
REMARK SMILES IDX 33 37 34 38 92 39 35 40 91 41 36 42 37 43 38 44 85 45 39 46
REMARK SMILES IDX 90 47 84 48 86 49 40 50 89 51 83 52 82 53 41 55 71 56 52 57
REMARK SMILES IDX 70 58 53 59 56 60 69 61 87 62 54 63 55 64 68 66 88 67 57 68
REMARK SMILES IDX 42 69 43 70 51 71 44 72 50 73 45 74 46 75 47 76 48 77 49 78
REMARK SMILES IDX 72 79 73 80 81 81 74 82 80 83 75 84 76 85 77 86 78 87 79 88
REMARK SMILES IDX 58 89 59 90 67 91 60 92 66 93 61 94 62 95 63 96 64 97 65 98
REMARK H PARENT 25 6 11 9 30 35 86 54 56 65
REMARK Flexibility Score: inf
ROOT
ATOM      1  C   UNL A   1      38.062  22.541  25.536  1.00  0.00     0.023 C 
ENDROOT
BRANCH   1   2
ATOM      2  C   UNL A   1      36.633  23.156  25.471  1.00  0.00     0.116 C 
BRANCH   2   3
ATOM      3  N   UNL A   1      35.570  22.452  24.763  1.00  0.00    -0.355 N 
ATOM      4  C   UNL A   1      34.302  22.764  24.335  1.00  0.00     0.238 C 
ATOM      5  O   UNL A   1      33.677  21.840  23.800  1.00  0.00    -0.273 OA
ATOM      6  H   UNL A   1      35.822  21.527  24.539  1.00  0.00     0.163 HD
BRANCH   4   7
ATOM      7  C   UNL A   1      33.602  24.128  24.547  1.00  0.00     0.163 C 
BRANCH   7   8
ATOM      8  N   UNL A   1      34.058  25.090  23.489  1.00  0.00    -0.198 NA
ATOM      9  H   UNL A   1      34.309  25.957  23.965  1.00  0.00     0.142 HD
BRANCH   8  10
ATOM     10  S   UNL A   1      32.998  25.507  22.228  1.00  0.00     0.241 S 
ATOM     11  O   UNL A   1      32.250  24.330  21.883  1.00  0.00    -0.207 OA
ATOM     12  O   UNL A   1      33.841  26.209  21.279  1.00  0.00    -0.207 OA
BRANCH  10  13
ATOM     13  C   UNL A   1      31.900  26.716  22.931  1.00  0.00     0.085 A 
ATOM     14  C   UNL A   1      28.217  26.791  23.877  1.00  0.00     0.044 C 
ATOM     15  C   UNL A   1      29.628  27.238  23.640  1.00  0.00    -0.050 A 
ATOM     16  C   UNL A   1      29.991  28.579  23.756  1.00  0.00     0.004 A 
ATOM     17  C   UNL A   1      30.604  26.311  23.275  1.00  0.00     0.025 A 
ATOM     18  C   UNL A   1      31.305  28.980  23.500  1.00  0.00     0.005 A 
ATOM     19  C   UNL A   1      32.282  28.060  23.077  1.00  0.00    -0.031 A 
ATOM     20  C   UNL A   1      33.674  28.583  22.838  1.00  0.00     0.046 C 
ENDBRANCH  10  13
ENDBRANCH   8  10
ENDBRANCH   7   8
BRANCH   7  21
ATOM     21  C   UNL A   1      33.659  24.799  25.981  1.00  0.00     0.063 C 
BRANCH  21  22
ATOM     22  C   UNL A   1      32.887  26.054  26.330  1.00  0.00    -0.037 C 
ATOM     23  C   UNL A   1      33.167  27.349  26.509  1.00  0.00     0.001 A 
ATOM     24  C   UNL A   1      31.476  25.834  26.709  1.00  0.00     0.174 C 
ATOM     25  C   UNL A   1      34.308  28.207  26.467  1.00  0.00     0.010 A 
ATOM     26  C   UNL A   1      31.867  27.906  26.960  1.00  0.00     0.065 A 
ATOM     27  N   UNL A   1      30.891  27.089  27.173  1.00  0.00    -0.280 NA
ATOM     28  C   UNL A   1      34.146  29.516  26.745  1.00  0.00     0.001 A 
ATOM     29  C   UNL A   1      31.742  29.352  27.160  1.00  0.00     0.028 A 
ATOM     30  C   UNL A   1      32.846  30.098  27.039  1.00  0.00     0.002 A 
ENDBRANCH  21  22
ENDBRANCH   7  21
ENDBRANCH   4   7
ENDBRANCH   2   3
ENDBRANCH   1   2
BRANCH   1  31
ATOM     31  C   UNL A   1      39.113  23.012  26.565  1.00  0.00     0.023 C 
BRANCH  31  32
ATOM     32  C   UNL A   1      40.292  22.113  26.932  1.00  0.00     0.116 C 
BRANCH  32  33
ATOM     33  N   UNL A   1      41.406  22.175  25.981  1.00  0.00    -0.352 N 
ATOM     34  C   UNL A   1      42.310  23.178  25.668  1.00  0.00     0.251 C 
ATOM     35  H   UNL A   1      41.539  21.345  25.469  1.00  0.00     0.163 HD
ATOM     36  O   UNL A   1      43.056  23.049  24.702  1.00  0.00    -0.269 OA
BRANCH  34  37
ATOM     37  C   UNL A   1      42.391  24.388  26.512  1.00  0.00     0.039 A 
ATOM     38  C   UNL A   1      43.096  24.515  27.709  1.00  0.00     0.014 A 
ATOM     39  C   UNL A   1      41.502  25.396  26.225  1.00  0.00     0.014 A 
ATOM     40  C   UNL A   1      42.768  25.605  28.543  1.00  0.00     0.010 A 
ATOM     41  C   UNL A   1      41.744  26.631  26.687  1.00  0.00     0.010 A 
ATOM     42  C   UNL A   1      41.903  26.587  28.042  1.00  0.00    -0.014 A 
BRANCH  42  43
ATOM     43  C   UNL A   1      41.497  27.822  28.669  1.00  0.00     0.031 A 
ATOM     44  C   UNL A   1      42.436  28.912  28.338  1.00  0.00     0.074 A 
ATOM     45  C   UNL A   1      40.265  28.086  29.151  1.00  0.00     0.049 A 
ATOM     46  N   UNL A   1      43.522  29.154  28.988  1.00  0.00    -0.248 NA
ATOM     47  C   UNL A   1      42.375  29.552  27.007  1.00  0.00     0.031 C 
ATOM     48  C   UNL A   1      39.049  27.273  29.197  1.00  0.00     0.029 A 
ATOM     49  N   UNL A   1      39.852  29.255  29.697  1.00  0.00    -0.354 N 
ATOM     50  C   UNL A   1      44.127  30.180  28.290  1.00  0.00     0.074 A 
ATOM     51  C   UNL A   1      43.585  30.115  26.960  1.00  0.00     0.031 C 
ATOM     52  C   UNL A   1      37.994  28.041  29.583  1.00  0.00     0.029 A 
ATOM     53  C   UNL A   1      38.494  29.351  29.970  1.00  0.00     0.049 A 
ATOM     54  H   UNL A   1      40.476  29.992  29.889  1.00  0.00     0.167 HD
ATOM     55  C   UNL A   1      44.754  31.193  28.944  1.00  0.00     0.031 A 
ATOM     56  C   UNL A   1      37.869  30.431  30.513  1.00  0.00     0.031 A 
ATOM     57  C   UNL A   1      44.812  30.923  30.365  1.00  0.00     0.049 A 
ATOM     58  C   UNL A   1      38.934  31.210  31.210  1.00  0.00     0.074 A 
ATOM     59  C   UNL A   1      45.381  29.928  31.134  1.00  0.00     0.029 A 
ATOM     60  N   UNL A   1      43.803  31.471  31.130  1.00  0.00    -0.354 N 
ATOM     61  N   UNL A   1      39.603  30.759  32.238  1.00  0.00    -0.248 NA
ATOM     62  C   UNL A   1      39.586  32.275  30.463  1.00  0.00     0.031 C 
ATOM     63  C   UNL A   1      44.406  29.626  32.130  1.00  0.00     0.029 A 
ATOM     64  C   UNL A   1      43.332  30.512  31.994  1.00  0.00     0.049 A 
ATOM     65  H   UNL A   1      43.473  32.397  31.068  1.00  0.00     0.167 HD
ATOM     66  C   UNL A   1      40.914  31.160  32.017  1.00  0.00     0.074 A 
ATOM     67  C   UNL A   1      40.825  32.159  30.949  1.00  0.00     0.031 C 
ATOM     68  C   UNL A   1      41.972  30.451  32.513  1.00  0.00     0.031 A 
BRANCH  55  69
ATOM     69  C   UNL A   1      44.962  32.566  28.371  1.00  0.00    -0.014 A 
ATOM     70  C   UNL A   1      43.929  33.494  28.132  1.00  0.00     0.010 A 
ATOM     71  C   UNL A   1      46.281  33.029  28.210  1.00  0.00     0.010 A 
ATOM     72  C   UNL A   1      44.182  34.799  27.715  1.00  0.00     0.020 A 
ATOM     73  C   UNL A   1      46.550  34.351  27.833  1.00  0.00     0.020 A 
ATOM     74  C   UNL A   1      45.496  35.222  27.572  1.00  0.00     0.054 A 
BRANCH  74  75
ATOM     75  S   UNL A   1      45.783  36.931  27.071  1.00  0.00     0.124 S 
ATOM     76  O   UNL A   1      46.596  36.757  25.869  1.00  0.00    -0.237 OA
ATOM     77  O   UNL A   1      44.427  37.425  26.850  1.00  0.00    -0.237 OA
ATOM     78  O   UNL A   1      46.480  37.510  28.218  1.00  0.00    -0.744 OA
ENDBRANCH  74  75
ENDBRANCH  55  69
BRANCH  56  79
ATOM     79  C   UNL A   1      36.607  31.094  30.073  1.00  0.00    -0.014 A 
ATOM     80  C   UNL A   1      36.472  31.552  28.748  1.00  0.00     0.010 A 
ATOM     81  C   UNL A   1      35.697  31.593  31.031  1.00  0.00     0.010 A 
ATOM     82  C   UNL A   1      35.540  32.548  28.413  1.00  0.00     0.020 A 
ATOM     83  C   UNL A   1      34.757  32.588  30.701  1.00  0.00     0.020 A 
ATOM     84  C   UNL A   1      34.717  33.091  29.400  1.00  0.00     0.054 A 
BRANCH  84  85
ATOM     85  S   UNL A   1      33.673  34.521  28.979  1.00  0.00     0.124 S 
ATOM     86  O   UNL A   1      34.648  35.459  28.426  1.00  0.00    -0.237 OA
ATOM     87  O   UNL A   1      32.728  33.960  28.016  1.00  0.00    -0.237 OA
ATOM     88  O   UNL A   1      33.088  34.916  30.257  1.00  0.00    -0.744 OA
ENDBRANCH  84  85
ENDBRANCH  56  79
BRANCH  68  89
ATOM     89  C   UNL A   1      41.714  29.371  33.553  1.00  0.00    -0.014 A 
ATOM     90  C   UNL A   1      41.904  29.733  34.899  1.00  0.00     0.010 A 
ATOM     91  C   UNL A   1      41.504  28.008  33.256  1.00  0.00     0.010 A 
ATOM     92  C   UNL A   1      41.948  28.774  35.911  1.00  0.00     0.020 A 
ATOM     93  C   UNL A   1      41.519  27.037  34.276  1.00  0.00     0.020 A 
ATOM     94  C   UNL A   1      41.771  27.427  35.595  1.00  0.00     0.054 A 
BRANCH  94  95
ATOM     95  S   UNL A   1      41.915  26.216  36.940  1.00  0.00     0.124 S 
ATOM     96  O   UNL A   1      42.323  25.007  36.227  1.00  0.00    -0.237 OA
ATOM     97  O   UNL A   1      42.940  26.808  37.798  1.00  0.00    -0.237 OA
ATOM     98  O   UNL A   1      40.575  26.169  37.522  1.00  0.00    -0.744 OA
ENDBRANCH  94  95
ENDBRANCH  68  89
ENDBRANCH  42  43
ENDBRANCH  34  37
ENDBRANCH  32  33
ENDBRANCH  31  32
ENDBRANCH   1  31
TORSDOF 19
ENDMDL
MODEL 2
REMARK VINA RESULT:     -11.8      3.105      8.462
REMARK SMILES Cc1ccc(C)c(S(=O)(=O)N[C@H](CC2=c3ccccc3=NC2)C(=O)NCCCCNC(=O)c2ccc(-c3c4nc(c(-c5ccc(S(=O)(=O)[O-])cc5)c5ccc([nH]5)c(-c5ccc(S(=O)(=O)[O-])cc5)c5nc(c(-c6ccc(S(=O)(=O)[O-])cc6)c6ccc3[nH]6)C=C5)C=C4)cc2)c1
REMARK SMILES IDX 27 1 26 2 25 3 23 4 24 5 12 7 11 8 8 10 9 11 10 12 7 13 1 14
REMARK SMILES IDX 2 15 3 16 93 17 4 18 5 19 6 20 13 21 14 22 15 23 22 24 16 25
REMARK SMILES IDX 20 26 21 27 17 28 19 29 18 30 28 31 29 32 30 33 31 34 32 36
REMARK SMILES IDX 33 37 34 38 92 39 35 40 91 41 36 42 37 43 38 44 85 45 39 46
REMARK SMILES IDX 90 47 84 48 86 49 40 50 89 51 83 52 82 53 41 55 71 56 52 57
REMARK SMILES IDX 70 58 53 59 56 60 69 61 87 62 54 63 55 64 68 66 88 67 57 68
REMARK SMILES IDX 42 69 43 70 51 71 44 72 50 73 45 74 46 75 47 76 48 77 49 78
REMARK SMILES IDX 72 79 73 80 81 81 74 82 80 83 75 84 76 85 77 86 78 87 79 88
REMARK SMILES IDX 58 89 59 90 67 91 60 92 66 93 61 94 62 95 63 96 64 97 65 98
REMARK H PARENT 25 6 11 9 30 35 86 54 56 65
REMARK Flexibility Score: inf
ROOT
ATOM      1  C   UNL A   1      32.757  29.812  27.315  1.00  0.00     0.023 C 
ENDROOT
BRANCH   1   2
ATOM      2  C   UNL A   1      32.834  28.727  26.203  1.00  0.00     0.116 C 
BRANCH   2   3
ATOM      3  N   UNL A   1      31.614  28.264  25.552  1.00  0.00    -0.355 N 
ATOM      4  C   UNL A   1      31.192  27.088  24.979  1.00  0.00     0.238 C 
ATOM      5  O   UNL A   1      30.065  27.118  24.469  1.00  0.00    -0.273 OA
ATOM      6  H   UNL A   1      30.924  28.965  25.513  1.00  0.00     0.163 HD
BRANCH   4   7
ATOM      7  C   UNL A   1      32.043  25.801  24.861  1.00  0.00     0.163 C 
BRANCH   7   8
ATOM      8  N   UNL A   1      31.944  25.022  26.139  1.00  0.00    -0.198 NA
ATOM      9  H   UNL A   1      32.897  24.789  26.420  1.00  0.00     0.142 HD
BRANCH   8  10
ATOM     10  S   UNL A   1      31.053  23.575  26.168  1.00  0.00     0.241 S 
ATOM     11  O   UNL A   1      30.002  23.693  25.195  1.00  0.00    -0.207 OA
ATOM     12  O   UNL A   1      30.798  23.348  27.577  1.00  0.00    -0.207 OA
BRANCH  10  13
ATOM     13  C   UNL A   1      32.198  22.319  25.645  1.00  0.00     0.085 A 
ATOM     14  C   UNL A   1      32.345  19.825  22.778  1.00  0.00     0.044 C 
ATOM     15  C   UNL A   1      32.699  20.560  24.035  1.00  0.00    -0.050 A 
ATOM     16  C   UNL A   1      33.741  20.130  24.855  1.00  0.00     0.004 A 
ATOM     17  C   UNL A   1      31.968  21.684  24.418  1.00  0.00     0.025 A 
ATOM     18  C   UNL A   1      34.035  20.812  26.040  1.00  0.00     0.005 A 
ATOM     19  C   UNL A   1      33.267  21.914  26.460  1.00  0.00    -0.031 A 
ATOM     20  C   UNL A   1      33.668  22.591  27.744  1.00  0.00     0.046 C 
ENDBRANCH  10  13
ENDBRANCH   8  10
ENDBRANCH   7   8
BRANCH   7  21
ATOM     21  C   UNL A   1      33.550  25.924  24.392  1.00  0.00     0.063 C 
BRANCH  21  22
ATOM     22  C   UNL A   1      34.409  24.720  24.066  1.00  0.00    -0.037 C 
ATOM     23  C   UNL A   1      35.447  24.087  24.624  1.00  0.00     0.001 A 
ATOM     24  C   UNL A   1      34.170  24.122  22.736  1.00  0.00     0.174 C 
ATOM     25  C   UNL A   1      36.270  24.210  25.784  1.00  0.00     0.010 A 
ATOM     26  C   UNL A   1      35.790  23.061  23.607  1.00  0.00     0.065 A 
ATOM     27  N   UNL A   1      35.159  23.080  22.481  1.00  0.00    -0.280 NA
ATOM     28  C   UNL A   1      37.273  23.327  25.965  1.00  0.00     0.001 A 
ATOM     29  C   UNL A   1      36.834  22.079  23.909  1.00  0.00     0.028 A 
ATOM     30  C   UNL A   1      37.518  22.224  25.049  1.00  0.00     0.002 A 
ENDBRANCH  21  22
ENDBRANCH   7  21
ENDBRANCH   4   7
ENDBRANCH   2   3
ENDBRANCH   1   2
BRANCH   1  31
ATOM     31  C   UNL A   1      31.812  31.031  27.210  1.00  0.00     0.023 C 
BRANCH  31  32
ATOM     32  C   UNL A   1      32.209  32.246  26.375  1.00  0.00     0.116 C 
BRANCH  32  33
ATOM     33  N   UNL A   1      32.158  33.514  27.109  1.00  0.00    -0.352 N 
ATOM     34  C   UNL A   1      32.884  33.998  28.187  1.00  0.00     0.251 C 
ATOM     35  H   UNL A   1      31.480  34.143  26.771  1.00  0.00     0.163 HD
ATOM     36  O   UNL A   1      32.538  35.037  28.740  1.00  0.00    -0.269 OA
BRANCH  34  37
ATOM     37  C   UNL A   1      34.087  33.276  28.649  1.00  0.00     0.039 A 
ATOM     38  C   UNL A   1      34.203  32.531  29.823  1.00  0.00     0.014 A 
ATOM     39  C   UNL A   1      35.262  33.561  27.997  1.00  0.00     0.014 A 
ATOM     40  C   UNL A   1      35.505  32.223  30.270  1.00  0.00     0.010 A 
ATOM     41  C   UNL A   1      36.292  32.709  28.105  1.00  0.00     0.010 A 
ATOM     42  C   UNL A   1      36.584  32.512  29.424  1.00  0.00    -0.014 A 
BRANCH  42  43
ATOM     43  C   UNL A   1      37.981  32.212  29.625  1.00  0.00     0.031 A 
ATOM     44  C   UNL A   1      38.260  30.793  29.327  1.00  0.00     0.074 A 
ATOM     45  C   UNL A   1      38.976  33.121  29.681  1.00  0.00     0.049 A 
ATOM     46  N   UNL A   1      38.122  29.834  30.176  1.00  0.00    -0.248 NA
ATOM     47  C   UNL A   1      38.351  30.344  27.921  1.00  0.00     0.031 C 
ATOM     48  C   UNL A   1      38.960  34.580  29.575  1.00  0.00     0.029 A 
ATOM     49  N   UNL A   1      40.297  32.855  29.818  1.00  0.00    -0.354 N 
ATOM     50  C   UNL A   1      38.396  28.688  29.459  1.00  0.00     0.074 A 
ATOM     51  C   UNL A   1      38.171  29.031  28.081  1.00  0.00     0.031 C 
ATOM     52  C   UNL A   1      40.234  35.050  29.477  1.00  0.00     0.029 A 
ATOM     53  C   UNL A   1      41.152  33.941  29.682  1.00  0.00     0.049 A 
ATOM     54  H   UNL A   1      40.632  31.948  30.003  1.00  0.00     0.167 HD
ATOM     55  C   UNL A   1      39.104  27.670  30.016  1.00  0.00     0.031 A 
ATOM     56  C   UNL A   1      42.509  33.898  29.780  1.00  0.00     0.031 A 
ATOM     57  C   UNL A   1      39.339  27.921  31.421  1.00  0.00     0.049 A 
ATOM     58  C   UNL A   1      42.823  32.658  30.548  1.00  0.00     0.074 A 
ATOM     59  C   UNL A   1      38.520  28.097  32.518  1.00  0.00     0.029 A 
ATOM     60  N   UNL A   1      40.542  28.517  31.740  1.00  0.00    -0.354 N 
ATOM     61  N   UNL A   1      42.473  32.472  31.793  1.00  0.00    -0.248 NA
ATOM     62  C   UNL A   1      43.088  31.446  29.788  1.00  0.00     0.031 C 
ATOM     63  C   UNL A   1      39.108  29.168  33.253  1.00  0.00     0.029 A 
ATOM     64  C   UNL A   1      40.309  29.533  32.635  1.00  0.00     0.049 A 
ATOM     65  H   UNL A   1      41.423  28.258  31.385  1.00  0.00     0.167 HD
ATOM     66  C   UNL A   1      42.054  31.149  31.853  1.00  0.00     0.074 A 
ATOM     67  C   UNL A   1      42.533  30.548  30.607  1.00  0.00     0.031 C 
ATOM     68  C   UNL A   1      41.124  30.735  32.764  1.00  0.00     0.031 A 
BRANCH  55  69
ATOM     69  C   UNL A   1      39.897  26.664  29.229  1.00  0.00    -0.014 A 
ATOM     70  C   UNL A   1      39.330  25.610  28.485  1.00  0.00     0.010 A 
ATOM     71  C   UNL A   1      41.282  26.871  29.084  1.00  0.00     0.010 A 
ATOM     72  C   UNL A   1      40.096  24.776  27.673  1.00  0.00     0.020 A 
ATOM     73  C   UNL A   1      42.055  26.068  28.238  1.00  0.00     0.020 A 
ATOM     74  C   UNL A   1      41.457  25.014  27.551  1.00  0.00     0.054 A 
BRANCH  74  75
ATOM     75  S   UNL A   1      42.407  23.939  26.456  1.00  0.00     0.124 S 
ATOM     76  O   UNL A   1      41.475  22.835  26.240  1.00  0.00    -0.237 OA
ATOM     77  O   UNL A   1      42.644  24.800  25.301  1.00  0.00    -0.237 OA
ATOM     78  O   UNL A   1      43.593  23.611  27.244  1.00  0.00    -0.744 OA
ENDBRANCH  74  75
ENDBRANCH  55  69
BRANCH  56  79
ATOM     79  C   UNL A   1      43.525  34.512  28.876  1.00  0.00    -0.014 A 
ATOM     80  C   UNL A   1      43.251  34.668  27.504  1.00  0.00     0.010 A 
ATOM     81  C   UNL A   1      44.873  34.606  29.286  1.00  0.00     0.010 A 
ATOM     82  C   UNL A   1      44.287  34.802  26.564  1.00  0.00     0.020 A 
ATOM     83  C   UNL A   1      45.916  34.745  28.350  1.00  0.00     0.020 A 
ATOM     84  C   UNL A   1      45.616  34.797  26.989  1.00  0.00     0.054 A 
BRANCH  84  85
ATOM     85  S   UNL A   1      46.934  34.760  25.734  1.00  0.00     0.124 S 
ATOM     86  O   UNL A   1      46.173  34.615  24.496  1.00  0.00    -0.237 OA
ATOM     87  O   UNL A   1      47.591  36.052  25.917  1.00  0.00    -0.237 OA
ATOM     88  O   UNL A   1      47.740  33.601  26.108  1.00  0.00    -0.744 OA
ENDBRANCH  84  85
ENDBRANCH  56  79
BRANCH  68  89
ATOM     89  C   UNL A   1      40.746  31.664  33.908  1.00  0.00    -0.014 A 
ATOM     90  C   UNL A   1      40.013  32.815  33.570  1.00  0.00     0.010 A 
ATOM     91  C   UNL A   1      41.248  31.559  35.223  1.00  0.00     0.010 A 
ATOM     92  C   UNL A   1      39.834  33.857  34.480  1.00  0.00     0.020 A 
ATOM     93  C   UNL A   1      41.045  32.594  36.157  1.00  0.00     0.020 A 
ATOM     94  C   UNL A   1      40.364  33.751  35.766  1.00  0.00     0.054 A 
BRANCH  94  95
ATOM     95  S   UNL A   1      40.166  35.168  36.883  1.00  0.00     0.124 S 
ATOM     96  O   UNL A   1      39.465  34.573  38.018  1.00  0.00    -0.237 OA
ATOM     97  O   UNL A   1      41.548  35.566  37.146  1.00  0.00    -0.237 OA
ATOM     98  O   UNL A   1      39.384  36.128  36.107  1.00  0.00    -0.744 OA
ENDBRANCH  94  95
ENDBRANCH  68  89
ENDBRANCH  42  43
ENDBRANCH  34  37
ENDBRANCH  32  33
ENDBRANCH  31  32
ENDBRANCH   1  31
TORSDOF 19
ENDMDL
MODEL 3
REMARK VINA RESULT:     -11.7      1.721      3.275
REMARK SMILES Cc1ccc(C)c(S(=O)(=O)N[C@H](CC2=c3ccccc3=NC2)C(=O)NCCCCNC(=O)c2ccc(-c3c4nc(c(-c5ccc(S(=O)(=O)[O-])cc5)c5ccc([nH]5)c(-c5ccc(S(=O)(=O)[O-])cc5)c5nc(c(-c6ccc(S(=O)(=O)[O-])cc6)c6ccc3[nH]6)C=C5)C=C4)cc2)c1
REMARK SMILES IDX 27 1 26 2 25 3 23 4 24 5 12 7 11 8 8 10 9 11 10 12 7 13 1 14
REMARK SMILES IDX 2 15 3 16 93 17 4 18 5 19 6 20 13 21 14 22 15 23 22 24 16 25
REMARK SMILES IDX 20 26 21 27 17 28 19 29 18 30 28 31 29 32 30 33 31 34 32 36
REMARK SMILES IDX 33 37 34 38 92 39 35 40 91 41 36 42 37 43 38 44 85 45 39 46
REMARK SMILES IDX 90 47 84 48 86 49 40 50 89 51 83 52 82 53 41 55 71 56 52 57
REMARK SMILES IDX 70 58 53 59 56 60 69 61 87 62 54 63 55 64 68 66 88 67 57 68
REMARK SMILES IDX 42 69 43 70 51 71 44 72 50 73 45 74 46 75 47 76 48 77 49 78
REMARK SMILES IDX 72 79 73 80 81 81 74 82 80 83 75 84 76 85 77 86 78 87 79 88
REMARK SMILES IDX 58 89 59 90 67 91 60 92 66 93 61 94 62 95 63 96 64 97 65 98
REMARK H PARENT 25 6 11 9 30 35 86 54 56 65
REMARK Flexibility Score: inf
ROOT
ATOM      1  C   UNL A   1      38.780  23.550  26.783  1.00  0.00     0.023 C 
ENDROOT
BRANCH   1   2
ATOM      2  C   UNL A   1      37.419  23.891  26.109  1.00  0.00     0.116 C 
BRANCH   2   3
ATOM      3  N   UNL A   1      37.202  23.565  24.704  1.00  0.00    -0.355 N 
ATOM      4  C   UNL A   1      36.108  23.438  23.883  1.00  0.00     0.238 C 
ATOM      5  O   UNL A   1      36.349  23.081  22.723  1.00  0.00    -0.273 OA
ATOM      6  H   UNL A   1      38.047  23.393  24.227  1.00  0.00     0.163 HD
BRANCH   4   7
ATOM      7  C   UNL A   1      34.637  23.624  24.327  1.00  0.00     0.163 C 
BRANCH   7   8
ATOM      8  N   UNL A   1      33.836  22.427  23.905  1.00  0.00    -0.198 NA
ATOM      9  H   UNL A   1      33.033  22.776  23.382  1.00  0.00     0.142 HD
BRANCH   8  10
ATOM     10  S   UNL A   1      33.231  21.368  25.089  1.00  0.00     0.241 S 
ATOM     11  O   UNL A   1      31.941  21.857  25.490  1.00  0.00    -0.207 OA
ATOM     12  O   UNL A   1      34.335  21.211  26.016  1.00  0.00    -0.207 OA
BRANCH  10  13
ATOM     13  C   UNL A   1      33.035  19.810  24.256  1.00  0.00     0.085 A 
ATOM     14  C   UNL A   1      34.304  16.269  24.820  1.00  0.00     0.044 C 
ATOM     15  C   UNL A   1      33.623  17.446  24.190  1.00  0.00    -0.050 A 
ATOM     16  C   UNL A   1      33.063  17.360  22.916  1.00  0.00     0.004 A 
ATOM     17  C   UNL A   1      33.559  18.663  24.867  1.00  0.00     0.025 A 
ATOM     18  C   UNL A   1      32.460  18.478  22.332  1.00  0.00     0.005 A 
ATOM     19  C   UNL A   1      32.440  19.724  22.987  1.00  0.00    -0.031 A 
ATOM     20  C   UNL A   1      31.756  20.867  22.285  1.00  0.00     0.046 C 
ENDBRANCH  10  13
ENDBRANCH   8  10
ENDBRANCH   7   8
BRANCH   7  21
ATOM     21  C   UNL A   1      33.889  24.966  23.943  1.00  0.00     0.063 C 
BRANCH  21  22
ATOM     22  C   UNL A   1      33.027  25.734  24.923  1.00  0.00    -0.037 C 
ATOM     23  C   UNL A   1      33.157  26.828  25.681  1.00  0.00     0.001 A 
ATOM     24  C   UNL A   1      31.747  25.084  25.274  1.00  0.00     0.174 C 
ATOM     25  C   UNL A   1      34.146  27.820  25.958  1.00  0.00     0.010 A 
ATOM     26  C   UNL A   1      31.893  26.839  26.460  1.00  0.00     0.065 A 
ATOM     27  N   UNL A   1      31.089  25.837  26.337  1.00  0.00    -0.280 NA
ATOM     28  C   UNL A   1      33.861  28.791  26.849  1.00  0.00     0.001 A 
ATOM     29  C   UNL A   1      31.610  27.972  27.345  1.00  0.00     0.028 A 
ATOM     30  C   UNL A   1      32.565  28.895  27.502  1.00  0.00     0.002 A 
ENDBRANCH  21  22
ENDBRANCH   7  21
ENDBRANCH   4   7
ENDBRANCH   2   3
ENDBRANCH   1   2
BRANCH   1  31
ATOM     31  C   UNL A   1      39.648  22.358  26.325  1.00  0.00     0.023 C 
BRANCH  31  32
ATOM     32  C   UNL A   1      41.055  22.165  26.888  1.00  0.00     0.116 C 
BRANCH  32  33
ATOM     33  N   UNL A   1      42.123  22.376  25.907  1.00  0.00    -0.352 N 
ATOM     34  C   UNL A   1      42.918  23.473  25.616  1.00  0.00     0.251 C 
ATOM     35  H   UNL A   1      42.313  21.587  25.349  1.00  0.00     0.163 HD
ATOM     36  O   UNL A   1      43.637  23.460  24.621  1.00  0.00    -0.269 OA
BRANCH  34  37
ATOM     37  C   UNL A   1      42.918  24.644  26.516  1.00  0.00     0.039 A 
ATOM     38  C   UNL A   1      43.609  24.759  27.723  1.00  0.00     0.014 A 
ATOM     39  C   UNL A   1      41.968  25.605  26.272  1.00  0.00     0.014 A 
ATOM     40  C   UNL A   1      43.208  25.784  28.605  1.00  0.00     0.010 A 
ATOM     41  C   UNL A   1      42.128  26.830  26.793  1.00  0.00     0.010 A 
ATOM     42  C   UNL A   1      42.284  26.732  28.146  1.00  0.00    -0.014 A 
BRANCH  42  43
ATOM     43  C   UNL A   1      41.797  27.907  28.829  1.00  0.00     0.031 A 
ATOM     44  C   UNL A   1      42.707  29.050  28.619  1.00  0.00     0.074 A 
ATOM     45  C   UNL A   1      40.533  28.093  29.259  1.00  0.00     0.049 A 
ATOM     46  N   UNL A   1      43.748  29.289  29.340  1.00  0.00    -0.248 NA
ATOM     47  C   UNL A   1      42.688  29.774  27.329  1.00  0.00     0.031 C 
ATOM     48  C   UNL A   1      39.350  27.234  29.188  1.00  0.00     0.029 A 
ATOM     49  N   UNL A   1      40.045  29.207  29.856  1.00  0.00    -0.354 N 
ATOM     50  C   UNL A   1      44.345  30.379  28.742  1.00  0.00     0.074 A 
ATOM     51  C   UNL A   1      43.875  30.383  27.384  1.00  0.00     0.031 C 
ATOM     52  C   UNL A   1      38.246  27.936  29.565  1.00  0.00     0.029 A 
ATOM     53  C   UNL A   1      38.672  29.235  30.061  1.00  0.00     0.049 A 
ATOM     54  H   UNL A   1      40.628  29.952  30.128  1.00  0.00     0.167 HD
ATOM     55  C   UNL A   1      44.897  31.370  29.493  1.00  0.00     0.031 A 
ATOM     56  C   UNL A   1      37.978  30.253  30.638  1.00  0.00     0.031 A 
ATOM     57  C   UNL A   1      44.893  31.009  30.895  1.00  0.00     0.049 A 
ATOM     58  C   UNL A   1      38.973  31.022  31.440  1.00  0.00     0.074 A 
ATOM     59  C   UNL A   1      45.462  29.987  31.628  1.00  0.00     0.029 A 
ATOM     60  N   UNL A   1      43.825  31.468  31.638  1.00  0.00    -0.354 N 
ATOM     61  N   UNL A   1      39.606  30.529  32.471  1.00  0.00    -0.248 NA
ATOM     62  C   UNL A   1      39.619  32.158  30.798  1.00  0.00     0.031 C 
ATOM     63  C   UNL A   1      44.451  29.584  32.549  1.00  0.00     0.029 A 
ATOM     64  C   UNL A   1      43.350  30.437  32.412  1.00  0.00     0.049 A 
ATOM     65  H   UNL A   1      43.462  32.383  31.617  1.00  0.00     0.167 HD
ATOM     66  C   UNL A   1      40.910  30.993  32.347  1.00  0.00     0.074 A 
ATOM     67  C   UNL A   1      40.835  32.055  31.342  1.00  0.00     0.031 C 
ATOM     68  C   UNL A   1      41.968  30.292  32.853  1.00  0.00     0.031 A 
BRANCH  55  69
ATOM     69  C   UNL A   1      45.079  32.785  29.021  1.00  0.00    -0.014 A 
ATOM     70  C   UNL A   1      46.194  33.589  29.329  1.00  0.00     0.010 A 
ATOM     71  C   UNL A   1      44.167  33.297  28.080  1.00  0.00     0.010 A 
ATOM     72  C   UNL A   1      46.379  34.851  28.769  1.00  0.00     0.020 A 
ATOM     73  C   UNL A   1      44.363  34.546  27.478  1.00  0.00     0.020 A 
ATOM     74  C   UNL A   1      45.461  35.322  27.841  1.00  0.00     0.054 A 
BRANCH  74  75
ATOM     75  S   UNL A   1      45.758  36.943  27.106  1.00  0.00     0.124 S 
ATOM     76  O   UNL A   1      44.496  37.628  27.378  1.00  0.00    -0.237 OA
ATOM     77  O   UNL A   1      46.911  37.422  27.862  1.00  0.00    -0.237 OA
ATOM     78  O   UNL A   1      46.014  36.639  25.701  1.00  0.00    -0.744 OA
ENDBRANCH  74  75
ENDBRANCH  55  69
BRANCH  56  79
ATOM     79  C   UNL A   1      36.714  30.896  30.174  1.00  0.00    -0.014 A 
ATOM     80  C   UNL A   1      36.528  31.192  28.810  1.00  0.00     0.010 A 
ATOM     81  C   UNL A   1      35.863  31.538  31.101  1.00  0.00     0.010 A 
ATOM     82  C   UNL A   1      35.608  32.168  28.394  1.00  0.00     0.020 A 
ATOM     83  C   UNL A   1      34.936  32.514  30.691  1.00  0.00     0.020 A 
ATOM     84  C   UNL A   1      34.847  32.854  29.341  1.00  0.00     0.054 A 
BRANCH  84  85
ATOM     85  S   UNL A   1      33.822  34.255  28.790  1.00  0.00     0.124 S 
ATOM     86  O   UNL A   1      32.966  33.630  27.784  1.00  0.00    -0.237 OA
ATOM     87  O   UNL A   1      33.147  34.664  30.019  1.00  0.00    -0.237 OA
ATOM     88  O   UNL A   1      34.793  35.215  28.271  1.00  0.00    -0.744 OA
ENDBRANCH  84  85
ENDBRANCH  56  79
BRANCH  68  89
ATOM     89  C   UNL A   1      41.701  29.137  33.806  1.00  0.00    -0.014 A 
ATOM     90  C   UNL A   1      41.548  29.464  35.165  1.00  0.00     0.010 A 
ATOM     91  C   UNL A   1      41.801  27.773  33.458  1.00  0.00     0.010 A 
ATOM     92  C   UNL A   1      41.557  28.480  36.155  1.00  0.00     0.020 A 
ATOM     93  C   UNL A   1      41.781  26.773  34.450  1.00  0.00     0.020 A 
ATOM     94  C   UNL A   1      41.689  27.139  35.796  1.00  0.00     0.054 A 
BRANCH  94  95
ATOM     95  S   UNL A   1      41.770  25.910  37.129  1.00  0.00     0.124 S 
ATOM     96  O   UNL A   1      40.424  25.975  37.694  1.00  0.00    -0.237 OA
ATOM     97  O   UNL A   1      42.083  24.675  36.411  1.00  0.00    -0.237 OA
ATOM     98  O   UNL A   1      42.832  26.401  38.004  1.00  0.00    -0.744 OA
ENDBRANCH  94  95
ENDBRANCH  68  89
ENDBRANCH  42  43
ENDBRANCH  34  37
ENDBRANCH  32  33
ENDBRANCH  31  32
ENDBRANCH   1  31
TORSDOF 19
ENDMDL
