MODEL 1
REMARK VINA RESULT:     -11.3      0.000      0.000
REMARK SMILES COc1ccc(-c2ccc(C(=O)NCc3ccc(C(=O)NCCCCNC(=O)c4ccc(-c5c6nc(c(-c7ccc(S(=O)(=O)[O-])cc7)c7ccc([nH]7)c(-c7ccc(S(=O)(=O)[O-])cc7)c7nc(c(-c8ccc(S(=O)(=O)[O-])cc8)c8ccc5[nH]8)C=C7)C=C6)cc4)cc3)o2)c([N+](=O)[O-])c1
REMARK SMILES IDX 22 1 21 2 19 3 20 4 18 6 15 7 16 8 90 9 17 10 89 11 14 12
REMARK SMILES IDX 13 13 11 14 12 15 10 17 7 18 8 19 91 20 9 21 6 22 3 23 4 24
REMARK SMILES IDX 96 25 5 26 92 27 2 28 1 29 93 30 94 31 95 32 23 33 24 34
REMARK SMILES IDX 25 35 26 36 27 37 28 39 29 40 30 41 88 42 31 43 87 44 32 45
REMARK SMILES IDX 33 46 34 47 81 48 35 49 86 50 80 51 82 52 36 53 85 54 79 55
REMARK SMILES IDX 78 56 37 58 67 59 48 60 66 61 49 62 52 63 65 64 83 65 50 66
REMARK SMILES IDX 51 67 64 69 84 70 53 71 38 72 39 73 47 74 40 75 46 76 41 77
REMARK SMILES IDX 42 78 43 79 44 80 45 81 68 82 69 83 77 84 70 85 76 86 71 87
REMARK SMILES IDX 72 88 73 89 74 90 75 91 54 92 55 93 63 94 56 95 62 96 57 97
REMARK SMILES IDX 58 98 59 99 60 100 61 101
REMARK H PARENT 21 5 13 16 26 38 82 57 52 68
REMARK Flexibility Score: inf
ROOT
ATOM      1  C   UNL A   1      39.396  21.633  26.114  1.00  0.00     0.116 C 
ENDROOT
BRANCH   1   2
ATOM      2  N   UNL A   1      38.962  23.012  26.231  1.00  0.00    -0.352 N 
ATOM      3  C   UNL A   1      37.749  23.616  26.022  1.00  0.00     0.251 C 
ATOM      4  O   UNL A   1      37.660  24.819  26.276  1.00  0.00    -0.269 OA
ATOM      5  H   UNL A   1      39.672  23.631  26.515  1.00  0.00     0.163 HD
BRANCH   3   6
ATOM      6  C   UNL A   1      36.533  22.896  25.545  1.00  0.00     0.039 A 
ATOM      7  C   UNL A   1      34.152  21.515  24.836  1.00  0.00    -0.029 A 
ATOM      8  C   UNL A   1      34.626  21.501  26.155  1.00  0.00     0.006 A 
ATOM      9  C   UNL A   1      34.887  22.233  23.882  1.00  0.00     0.006 A 
ATOM     10  C   UNL A   1      35.797  22.184  26.504  1.00  0.00     0.014 A 
ATOM     11  C   UNL A   1      36.045  22.935  24.239  1.00  0.00     0.014 A 
BRANCH   7  12
ATOM     12  C   UNL A   1      32.885  20.762  24.501  1.00  0.00     0.152 C 
BRANCH  12  13
ATOM     13  N   UNL A   1      31.775  21.080  25.370  1.00  0.00    -0.345 N 
ATOM     14  C   UNL A   1      30.947  22.173  25.446  1.00  0.00     0.287 C 
ATOM     15  O   UNL A   1      30.037  22.087  26.274  1.00  0.00    -0.266 OA
ATOM     16  H   UNL A   1      31.574  20.382  26.034  1.00  0.00     0.164 HD
BRANCH  14  17
ATOM     17  C   UNL A   1      31.141  23.349  24.615  1.00  0.00     0.192 A 
ATOM     18  C   UNL A   1      31.350  25.540  24.347  1.00  0.00     0.142 A 
ATOM     19  C   UNL A   1      31.454  24.990  23.092  1.00  0.00     0.052 A 
ATOM     20  O   UNL A   1      31.173  24.560  25.271  1.00  0.00    -0.451 OA
ATOM     21  C   UNL A   1      31.353  23.586  23.267  1.00  0.00     0.057 A 
BRANCH  18  22
ATOM     22  C   UNL A   1      31.433  26.894  24.864  1.00  0.00     0.095 A 
ATOM     23  C   UNL A   1      31.881  29.531  25.810  1.00  0.00     0.125 A 
ATOM     24  C   UNL A   1      32.481  28.434  26.433  1.00  0.00     0.047 A 
ATOM     25  C   UNL A   1      31.028  29.315  24.731  1.00  0.00     0.132 A 
ATOM     26  C   UNL A   1      32.257  27.132  25.973  1.00  0.00     0.023 A 
ATOM     27  C   UNL A   1      30.812  28.001  24.270  1.00  0.00     0.284 A 
BRANCH  23  28
ATOM     28  O   UNL A   1      32.221  30.743  26.340  1.00  0.00    -0.497 OA
ATOM     29  C   UNL A   1      33.355  30.788  27.197  1.00  0.00     0.278 C 
ENDBRANCH  23  28
BRANCH  27  30
ATOM     30  N   UNL A   1      29.904  27.835  23.144  1.00  0.00     0.063 N 
ATOM     31  O   UNL A   1      30.342  28.043  22.006  1.00  0.00    -0.258 OA
ATOM     32  O   UNL A   1      28.756  27.446  23.404  1.00  0.00    -0.258 OA
ENDBRANCH  27  30
ENDBRANCH  18  22
ENDBRANCH  14  17
ENDBRANCH  12  13
ENDBRANCH   7  12
ENDBRANCH   3   6
ENDBRANCH   1   2
BRANCH   1  33
ATOM     33  C   UNL A   1      40.694  21.401  26.890  1.00  0.00     0.023 C 
BRANCH  33  34
ATOM     34  C   UNL A   1      40.939  22.391  28.032  1.00  0.00     0.023 C 
BRANCH  34  35
ATOM     35  C   UNL A   1      42.135  23.322  27.845  1.00  0.00     0.116 C 
BRANCH  35  36
ATOM     36  N   UNL A   1      42.173  23.949  26.533  1.00  0.00    -0.352 N 
ATOM     37  C   UNL A   1      41.868  25.247  26.193  1.00  0.00     0.251 C 
ATOM     38  H   UNL A   1      42.455  23.368  25.791  1.00  0.00     0.163 HD
ATOM     39  O   UNL A   1      41.856  25.589  25.018  1.00  0.00    -0.269 OA
BRANCH  37  40
ATOM     40  C   UNL A   1      41.515  26.209  27.258  1.00  0.00     0.039 A 
ATOM     41  C   UNL A   1      40.373  25.971  28.027  1.00  0.00     0.014 A 
ATOM     42  C   UNL A   1      42.328  27.315  27.521  1.00  0.00     0.014 A 
ATOM     43  C   UNL A   1      40.090  26.799  29.114  1.00  0.00     0.010 A 
ATOM     44  C   UNL A   1      42.074  28.106  28.638  1.00  0.00     0.010 A 
ATOM     45  C   UNL A   1      40.961  27.847  29.453  1.00  0.00    -0.014 A 
BRANCH  45  46
ATOM     46  C   UNL A   1      40.753  28.657  30.678  1.00  0.00     0.031 A 
ATOM     47  C   UNL A   1      39.706  29.736  30.706  1.00  0.00     0.074 A 
ATOM     48  C   UNL A   1      41.565  28.473  31.739  1.00  0.00     0.049 A 
ATOM     49  N   UNL A   1      39.443  30.603  31.649  1.00  0.00    -0.248 NA
ATOM     50  C   UNL A   1      38.858  29.869  29.510  1.00  0.00     0.031 C 
ATOM     51  C   UNL A   1      42.642  27.483  31.822  1.00  0.00     0.029 A 
ATOM     52  N   UNL A   1      41.619  29.121  32.948  1.00  0.00    -0.354 N 
ATOM     53  C   UNL A   1      38.411  31.394  31.158  1.00  0.00     0.074 A 
ATOM     54  C   UNL A   1      38.122  30.928  29.819  1.00  0.00     0.031 C 
ATOM     55  C   UNL A   1      43.239  27.580  33.021  1.00  0.00     0.029 A 
ATOM     56  C   UNL A   1      42.617  28.663  33.776  1.00  0.00     0.049 A 
ATOM     57  H   UNL A   1      41.002  29.846  33.199  1.00  0.00     0.167 HD
ATOM     58  C   UNL A   1      37.752  32.405  31.774  1.00  0.00     0.031 A 
ATOM     59  C   UNL A   1      42.999  29.076  34.999  1.00  0.00     0.031 A 
ATOM     60  C   UNL A   1      38.037  32.861  33.109  1.00  0.00     0.049 A 
ATOM     61  C   UNL A   1      42.266  30.215  35.652  1.00  0.00     0.074 A 
ATOM     62  C   UNL A   1      37.391  33.845  33.837  1.00  0.00     0.029 A 
ATOM     63  N   UNL A   1      39.049  32.365  33.917  1.00  0.00    -0.354 N 
ATOM     64  N   UNL A   1      41.255  30.914  35.192  1.00  0.00    -0.248 NA
ATOM     65  C   UNL A   1      42.722  30.620  36.989  1.00  0.00     0.031 C 
ATOM     66  C   UNL A   1      38.042  33.977  35.068  1.00  0.00     0.029 A 
ATOM     67  C   UNL A   1      39.061  33.039  35.126  1.00  0.00     0.049 A 
ATOM     68  H   UNL A   1      39.668  31.641  33.667  1.00  0.00     0.167 HD
ATOM     69  C   UNL A   1      40.941  31.826  36.194  1.00  0.00     0.074 A 
ATOM     70  C   UNL A   1      41.856  31.578  37.289  1.00  0.00     0.031 C 
ATOM     71  C   UNL A   1      39.981  32.783  36.205  1.00  0.00     0.031 A 
BRANCH  58  72
ATOM     72  C   UNL A   1      36.655  33.091  31.005  1.00  0.00    -0.014 A 
ATOM     73  C   UNL A   1      36.955  33.959  29.940  1.00  0.00     0.010 A 
ATOM     74  C   UNL A   1      35.309  32.825  31.316  1.00  0.00     0.010 A 
ATOM     75  C   UNL A   1      35.928  34.574  29.220  1.00  0.00     0.020 A 
ATOM     76  C   UNL A   1      34.279  33.420  30.581  1.00  0.00     0.020 A 
ATOM     77  C   UNL A   1      34.596  34.304  29.547  1.00  0.00     0.054 A 
BRANCH  77  78
ATOM     78  S   UNL A   1      33.284  35.092  28.575  1.00  0.00     0.124 S 
ATOM     79  O   UNL A   1      34.054  35.894  27.627  1.00  0.00    -0.237 OA
ATOM     80  O   UNL A   1      32.577  33.950  28.002  1.00  0.00    -0.237 OA
ATOM     81  O   UNL A   1      32.528  35.855  29.565  1.00  0.00    -0.744 OA
ENDBRANCH  77  78
ENDBRANCH  58  72
BRANCH  59  82
ATOM     82  C   UNL A   1      44.137  28.411  35.691  1.00  0.00    -0.014 A 
ATOM     83  C   UNL A   1      43.916  27.292  36.512  1.00  0.00     0.010 A 
ATOM     84  C   UNL A   1      45.448  28.896  35.533  1.00  0.00     0.010 A 
ATOM     85  C   UNL A   1      44.981  26.684  37.183  1.00  0.00     0.020 A 
ATOM     86  C   UNL A   1      46.519  28.274  36.181  1.00  0.00     0.020 A 
ATOM     87  C   UNL A   1      46.277  27.180  37.014  1.00  0.00     0.054 A 
BRANCH  87  88
ATOM     88  S   UNL A   1      47.651  26.353  37.863  1.00  0.00     0.124 S 
ATOM     89  O   UNL A   1      47.880  25.194  37.006  1.00  0.00    -0.237 OA
ATOM     90  O   UNL A   1      48.696  27.372  37.843  1.00  0.00    -0.237 OA
ATOM     91  O   UNL A   1      47.105  26.058  39.185  1.00  0.00    -0.744 OA
ENDBRANCH  87  88
ENDBRANCH  59  82
BRANCH  71  92
ATOM     92  C   UNL A   1      39.857  33.620  37.449  1.00  0.00    -0.014 A 
ATOM     93  C   UNL A   1      40.604  34.800  37.606  1.00  0.00     0.010 A 
ATOM     94  C   UNL A   1      38.943  33.245  38.450  1.00  0.00     0.010 A 
ATOM     95  C   UNL A   1      40.461  35.577  38.760  1.00  0.00     0.020 A 
ATOM     96  C   UNL A   1      38.778  34.032  39.593  1.00  0.00     0.020 A 
ATOM     97  C   UNL A   1      39.550  35.186  39.746  1.00  0.00     0.054 A 
BRANCH  97  98
ATOM     98  S   UNL A   1      39.350  36.234  41.214  1.00  0.00     0.124 S 
ATOM     99  O   UNL A   1      38.710  37.421  40.655  1.00  0.00    -0.237 OA
ATOM    100  O   UNL A   1      38.507  35.415  42.081  1.00  0.00    -0.237 OA
ATOM    101  O   UNL A   1      40.718  36.428  41.689  1.00  0.00    -0.744 OA
ENDBRANCH  97  98
ENDBRANCH  71  92
ENDBRANCH  45  46
ENDBRANCH  37  40
ENDBRANCH  35  36
ENDBRANCH  34  35
ENDBRANCH  33  34
ENDBRANCH   1  33
TORSDOF 20
ENDMDL
MODEL 2
REMARK VINA RESULT:     -11.3      2.961      9.045
REMARK SMILES COc1ccc(-c2ccc(C(=O)NCc3ccc(C(=O)NCCCCNC(=O)c4ccc(-c5c6nc(c(-c7ccc(S(=O)(=O)[O-])cc7)c7ccc([nH]7)c(-c7ccc(S(=O)(=O)[O-])cc7)c7nc(c(-c8ccc(S(=O)(=O)[O-])cc8)c8ccc5[nH]8)C=C7)C=C6)cc4)cc3)o2)c([N+](=O)[O-])c1
REMARK SMILES IDX 22 1 21 2 19 3 20 4 18 6 15 7 16 8 90 9 17 10 89 11 14 12
REMARK SMILES IDX 13 13 11 14 12 15 10 17 7 18 8 19 91 20 9 21 6 22 3 23 4 24
REMARK SMILES IDX 96 25 5 26 92 27 2 28 1 29 93 30 94 31 95 32 23 33 24 34
REMARK SMILES IDX 25 35 26 36 27 37 28 39 29 40 30 41 88 42 31 43 87 44 32 45
REMARK SMILES IDX 33 46 34 47 81 48 35 49 86 50 80 51 82 52 36 53 85 54 79 55
REMARK SMILES IDX 78 56 37 58 67 59 48 60 66 61 49 62 52 63 65 64 83 65 50 66
REMARK SMILES IDX 51 67 64 69 84 70 53 71 38 72 39 73 47 74 40 75 46 76 41 77
REMARK SMILES IDX 42 78 43 79 44 80 45 81 68 82 69 83 77 84 70 85 76 86 71 87
REMARK SMILES IDX 72 88 73 89 74 90 75 91 54 92 55 93 63 94 56 95 62 96 57 97
REMARK SMILES IDX 58 98 59 99 60 100 61 101
REMARK H PARENT 21 5 13 16 26 38 82 57 52 68
REMARK Flexibility Score: inf
ROOT
ATOM      1  C   UNL A   1      38.018  23.736  26.293  1.00  0.00     0.116 C 
ENDROOT
BRANCH   1   2
ATOM      2  N   UNL A   1      36.868  22.857  26.366  1.00  0.00    -0.352 N 
ATOM      3  C   UNL A   1      35.578  22.988  25.920  1.00  0.00     0.251 C 
ATOM      4  O   UNL A   1      34.823  22.024  26.066  1.00  0.00    -0.269 OA
ATOM      5  H   UNL A   1      37.047  22.003  26.823  1.00  0.00     0.163 HD
BRANCH   3   6
ATOM      6  C   UNL A   1      35.054  24.207  25.240  1.00  0.00     0.039 A 
ATOM      7  C   UNL A   1      33.996  26.408  23.785  1.00  0.00    -0.029 A 
ATOM      8  C   UNL A   1      34.301  25.200  23.142  1.00  0.00     0.006 A 
ATOM      9  C   UNL A   1      34.226  26.493  25.166  1.00  0.00     0.006 A 
ATOM     10  C   UNL A   1      34.819  24.116  23.860  1.00  0.00     0.014 A 
ATOM     11  C   UNL A   1      34.722  25.398  25.885  1.00  0.00     0.014 A 
BRANCH   7  12
ATOM     12  C   UNL A   1      33.442  27.554  22.972  1.00  0.00     0.152 C 
BRANCH  12  13
ATOM     13  N   UNL A   1      32.642  28.478  23.744  1.00  0.00    -0.345 N 
ATOM     14  C   UNL A   1      31.413  28.356  24.343  1.00  0.00     0.287 C 
ATOM     15  O   UNL A   1      31.046  29.335  24.998  1.00  0.00    -0.266 OA
ATOM     16  H   UNL A   1      33.056  29.363  23.863  1.00  0.00     0.164 HD
BRANCH  14  17
ATOM     17  C   UNL A   1      30.600  27.159  24.204  1.00  0.00     0.192 A 
ATOM     18  C   UNL A   1      30.360  24.956  24.154  1.00  0.00     0.142 A 
ATOM     19  C   UNL A   1      29.106  25.482  23.952  1.00  0.00     0.052 A 
ATOM     20  O   UNL A   1      31.264  25.956  24.318  1.00  0.00    -0.451 OA
ATOM     21  C   UNL A   1      29.255  26.891  24.018  1.00  0.00     0.057 A 
BRANCH  18  22
ATOM     22  C   UNL A   1      30.880  23.605  24.266  1.00  0.00     0.095 A 
ATOM     23  C   UNL A   1      32.145  21.067  24.372  1.00  0.00     0.125 A 
ATOM     24  C   UNL A   1      31.894  21.693  23.148  1.00  0.00     0.047 A 
ATOM     25  C   UNL A   1      31.736  21.690  25.549  1.00  0.00     0.132 A 
ATOM     26  C   UNL A   1      31.265  22.941  23.092  1.00  0.00     0.023 A 
ATOM     27  C   UNL A   1      31.108  22.949  25.484  1.00  0.00     0.284 A 
BRANCH  23  28
ATOM     28  O   UNL A   1      32.800  19.873  24.277  1.00  0.00    -0.497 OA
ATOM     29  C   UNL A   1      32.855  19.061  25.444  1.00  0.00     0.278 C 
ENDBRANCH  23  28
BRANCH  27  30
ATOM     30  N   UNL A   1      30.695  23.549  26.745  1.00  0.00     0.063 N 
ATOM     31  O   UNL A   1      29.620  23.187  27.239  1.00  0.00    -0.258 OA
ATOM     32  O   UNL A   1      31.480  24.356  27.264  1.00  0.00    -0.258 OA
ENDBRANCH  27  30
ENDBRANCH  18  22
ENDBRANCH  14  17
ENDBRANCH  12  13
ENDBRANCH   7  12
ENDBRANCH   3   6
ENDBRANCH   1   2
BRANCH   1  33
ATOM     33  C   UNL A   1      39.319  22.953  26.478  1.00  0.00     0.023 C 
BRANCH  33  34
ATOM     34  C   UNL A   1      39.324  21.565  25.830  1.00  0.00     0.023 C 
BRANCH  34  35
ATOM     35  C   UNL A   1      40.060  20.481  26.614  1.00  0.00     0.116 C 
BRANCH  35  36
ATOM     36  N   UNL A   1      41.303  20.063  25.985  1.00  0.00    -0.352 N 
ATOM     37  C   UNL A   1      42.525  20.695  25.996  1.00  0.00     0.251 C 
ATOM     38  H   UNL A   1      41.266  19.215  25.487  1.00  0.00     0.163 HD
ATOM     39  O   UNL A   1      43.451  20.256  25.327  1.00  0.00    -0.269 OA
BRANCH  37  40
ATOM     40  C   UNL A   1      42.692  21.931  26.789  1.00  0.00     0.039 A 
ATOM     41  C   UNL A   1      43.086  23.101  26.134  1.00  0.00     0.014 A 
ATOM     42  C   UNL A   1      42.424  21.942  28.160  1.00  0.00     0.014 A 
ATOM     43  C   UNL A   1      43.132  24.304  26.841  1.00  0.00     0.010 A 
ATOM     44  C   UNL A   1      42.417  23.152  28.850  1.00  0.00     0.010 A 
ATOM     45  C   UNL A   1      42.756  24.345  28.194  1.00  0.00    -0.014 A 
BRANCH  45  46
ATOM     46  C   UNL A   1      42.671  25.630  28.932  1.00  0.00     0.031 A 
ATOM     47  C   UNL A   1      43.771  26.041  29.871  1.00  0.00     0.074 A 
ATOM     48  C   UNL A   1      41.562  26.388  28.814  1.00  0.00     0.049 A 
ATOM     49  N   UNL A   1      43.828  27.077  30.667  1.00  0.00    -0.248 NA
ATOM     50  C   UNL A   1      44.949  25.162  29.938  1.00  0.00     0.031 C 
ATOM     51  C   UNL A   1      40.410  26.079  27.962  1.00  0.00     0.029 A 
ATOM     52  N   UNL A   1      41.215  27.568  29.423  1.00  0.00    -0.354 N 
ATOM     53  C   UNL A   1      45.039  26.969  31.340  1.00  0.00     0.074 A 
ATOM     54  C   UNL A   1      45.668  25.747  30.887  1.00  0.00     0.031 C 
ATOM     55  C   UNL A   1      39.492  27.052  28.093  1.00  0.00     0.029 A 
ATOM     56  C   UNL A   1      39.970  28.029  29.064  1.00  0.00     0.049 A 
ATOM     57  H   UNL A   1      41.802  28.039  30.057  1.00  0.00     0.167 HD
ATOM     58  C   UNL A   1      45.586  27.821  32.241  1.00  0.00     0.031 A 
ATOM     59  C   UNL A   1      39.282  29.110  29.480  1.00  0.00     0.031 A 
ATOM     60  C   UNL A   1      44.963  29.040  32.683  1.00  0.00     0.049 A 
ATOM     61  C   UNL A   1      39.903  30.028  30.498  1.00  0.00     0.074 A 
ATOM     62  C   UNL A   1      45.460  29.992  33.555  1.00  0.00     0.029 A 
ATOM     63  N   UNL A   1      43.706  29.475  32.290  1.00  0.00    -0.354 N 
ATOM     64  N   UNL A   1      41.075  29.937  31.081  1.00  0.00    -0.248 NA
ATOM     65  C   UNL A   1      39.110  31.194  30.911  1.00  0.00     0.031 C 
ATOM     66  C   UNL A   1      44.486  30.981  33.726  1.00  0.00     0.029 A 
ATOM     67  C   UNL A   1      43.402  30.670  32.920  1.00  0.00     0.049 A 
ATOM     68  H   UNL A   1      43.117  29.004  31.657  1.00  0.00     0.167 HD
ATOM     69  C   UNL A   1      41.168  31.047  31.914  1.00  0.00     0.074 A 
ATOM     70  C   UNL A   1      39.943  31.802  31.744  1.00  0.00     0.031 C 
ATOM     71  C   UNL A   1      42.177  31.408  32.744  1.00  0.00     0.031 A 
BRANCH  58  72
ATOM     72  C   UNL A   1      46.932  27.461  32.811  1.00  0.00    -0.014 A 
ATOM     73  C   UNL A   1      48.114  27.990  32.262  1.00  0.00     0.010 A 
ATOM     74  C   UNL A   1      47.013  26.627  33.941  1.00  0.00     0.010 A 
ATOM     75  C   UNL A   1      49.356  27.666  32.813  1.00  0.00     0.020 A 
ATOM     76  C   UNL A   1      48.253  26.319  34.509  1.00  0.00     0.020 A 
ATOM     77  C   UNL A   1      49.418  26.829  33.931  1.00  0.00     0.054 A 
BRANCH  77  78
ATOM     78  S   UNL A   1      51.042  26.451  34.644  1.00  0.00     0.124 S 
ATOM     79  O   UNL A   1      51.545  27.783  34.970  1.00  0.00    -0.237 OA
ATOM     80  O   UNL A   1      50.703  25.610  35.789  1.00  0.00    -0.237 OA
ATOM     81  O   UNL A   1      51.746  25.768  33.562  1.00  0.00    -0.744 OA
ENDBRANCH  77  78
ENDBRANCH  58  72
BRANCH  59  82
ATOM     82  C   UNL A   1      37.924  29.386  28.939  1.00  0.00    -0.014 A 
ATOM     83  C   UNL A   1      37.761  29.814  27.610  1.00  0.00     0.010 A 
ATOM     84  C   UNL A   1      36.787  29.223  29.750  1.00  0.00     0.010 A 
ATOM     85  C   UNL A   1      36.487  30.100  27.109  1.00  0.00     0.020 A 
ATOM     86  C   UNL A   1      35.510  29.482  29.244  1.00  0.00     0.020 A 
ATOM     87  C   UNL A   1      35.369  29.933  27.931  1.00  0.00     0.054 A 
BRANCH  87  88
ATOM     88  S   UNL A   1      33.721  30.270  27.250  1.00  0.00     0.124 S 
ATOM     89  O   UNL A   1      32.921  29.214  27.860  1.00  0.00    -0.237 OA
ATOM     90  O   UNL A   1      33.453  31.624  27.725  1.00  0.00    -0.237 OA
ATOM     91  O   UNL A   1      33.920  30.153  25.807  1.00  0.00    -0.744 OA
ENDBRANCH  87  88
ENDBRANCH  59  82
BRANCH  71  92
ATOM     92  C   UNL A   1      42.009  32.688  33.517  1.00  0.00    -0.014 A 
ATOM     93  C   UNL A   1      41.496  32.682  34.826  1.00  0.00     0.010 A 
ATOM     94  C   UNL A   1      42.417  33.905  32.943  1.00  0.00     0.010 A 
ATOM     95  C   UNL A   1      41.366  33.878  35.537  1.00  0.00     0.020 A 
ATOM     96  C   UNL A   1      42.313  35.099  33.661  1.00  0.00     0.020 A 
ATOM     97  C   UNL A   1      41.774  35.078  34.949  1.00  0.00     0.054 A 
BRANCH  97  98
ATOM     98  S   UNL A   1      41.636  36.612  35.909  1.00  0.00     0.124 S 
ATOM     99  O   UNL A   1      42.132  36.198  37.217  1.00  0.00    -0.237 OA
ATOM    100  O   UNL A   1      42.499  37.532  35.171  1.00  0.00    -0.237 OA
ATOM    101  O   UNL A   1      40.210  36.927  35.854  1.00  0.00    -0.744 OA
ENDBRANCH  97  98
ENDBRANCH  71  92
ENDBRANCH  45  46
ENDBRANCH  37  40
ENDBRANCH  35  36
ENDBRANCH  34  35
ENDBRANCH  33  34
ENDBRANCH   1  33
TORSDOF 20
ENDMDL
MODEL 3
REMARK VINA RESULT:     -11.2      2.348      8.151
REMARK SMILES COc1ccc(-c2ccc(C(=O)NCc3ccc(C(=O)NCCCCNC(=O)c4ccc(-c5c6nc(c(-c7ccc(S(=O)(=O)[O-])cc7)c7ccc([nH]7)c(-c7ccc(S(=O)(=O)[O-])cc7)c7nc(c(-c8ccc(S(=O)(=O)[O-])cc8)c8ccc5[nH]8)C=C7)C=C6)cc4)cc3)o2)c([N+](=O)[O-])c1
REMARK SMILES IDX 22 1 21 2 19 3 20 4 18 6 15 7 16 8 90 9 17 10 89 11 14 12
REMARK SMILES IDX 13 13 11 14 12 15 10 17 7 18 8 19 91 20 9 21 6 22 3 23 4 24
REMARK SMILES IDX 96 25 5 26 92 27 2 28 1 29 93 30 94 31 95 32 23 33 24 34
REMARK SMILES IDX 25 35 26 36 27 37 28 39 29 40 30 41 88 42 31 43 87 44 32 45
REMARK SMILES IDX 33 46 34 47 81 48 35 49 86 50 80 51 82 52 36 53 85 54 79 55
REMARK SMILES IDX 78 56 37 58 67 59 48 60 66 61 49 62 52 63 65 64 83 65 50 66
REMARK SMILES IDX 51 67 64 69 84 70 53 71 38 72 39 73 47 74 40 75 46 76 41 77
REMARK SMILES IDX 42 78 43 79 44 80 45 81 68 82 69 83 77 84 70 85 76 86 71 87
REMARK SMILES IDX 72 88 73 89 74 90 75 91 54 92 55 93 63 94 56 95 62 96 57 97
REMARK SMILES IDX 58 98 59 99 60 100 61 101
REMARK H PARENT 21 5 13 16 26 38 82 57 52 68
REMARK Flexibility Score: inf
ROOT
ATOM      1  C   UNL A   1      34.506  28.808  26.513  1.00  0.00     0.116 C 
ENDROOT
BRANCH   1   2
ATOM      2  N   UNL A   1      33.128  28.751  26.064  1.00  0.00    -0.352 N 
ATOM      3  C   UNL A   1      32.248  27.710  25.921  1.00  0.00     0.251 C 
ATOM      4  O   UNL A   1      31.095  27.981  25.579  1.00  0.00    -0.269 OA
ATOM      5  H   UNL A   1      32.753  29.627  25.815  1.00  0.00     0.163 HD
BRANCH   3   6
ATOM      6  C   UNL A   1      32.596  26.285  26.192  1.00  0.00     0.039 A 
ATOM      7  C   UNL A   1      33.460  23.621  26.675  1.00  0.00    -0.029 A 
ATOM      8  C   UNL A   1      34.279  24.530  25.990  1.00  0.00     0.006 A 
ATOM      9  C   UNL A   1      32.207  24.070  27.116  1.00  0.00     0.006 A 
ATOM     10  C   UNL A   1      33.853  25.842  25.755  1.00  0.00     0.014 A 
ATOM     11  C   UNL A   1      31.794  25.391  26.900  1.00  0.00     0.014 A 
BRANCH   7  12
ATOM     12  C   UNL A   1      33.956  22.213  26.905  1.00  0.00     0.152 C 
BRANCH  12  13
ATOM     13  N   UNL A   1      33.072  21.195  26.385  1.00  0.00    -0.345 N 
ATOM     14  C   UNL A   1      32.516  21.003  25.144  1.00  0.00     0.287 C 
ATOM     15  O   UNL A   1      31.852  19.970  25.018  1.00  0.00    -0.266 OA
ATOM     16  H   UNL A   1      32.821  20.508  27.044  1.00  0.00     0.164 HD
BRANCH  14  17
ATOM     17  C   UNL A   1      32.691  21.956  24.062  1.00  0.00     0.192 A 
ATOM     18  C   UNL A   1      32.135  23.814  22.986  1.00  0.00     0.142 A 
ATOM     19  C   UNL A   1      33.185  23.266  22.287  1.00  0.00     0.052 A 
ATOM     20  O   UNL A   1      31.838  23.040  24.062  1.00  0.00    -0.451 OA
ATOM     21  C   UNL A   1      33.561  22.096  22.995  1.00  0.00     0.057 A 
BRANCH  18  22
ATOM     22  C   UNL A   1      31.347  25.023  22.836  1.00  0.00     0.095 A 
ATOM     23  C   UNL A   1      29.844  27.429  22.830  1.00  0.00     0.125 A 
ATOM     24  C   UNL A   1      29.404  26.312  23.543  1.00  0.00     0.047 A 
ATOM     25  C   UNL A   1      31.019  27.343  22.088  1.00  0.00     0.132 A 
ATOM     26  C   UNL A   1      30.140  25.122  23.543  1.00  0.00     0.023 A 
ATOM     27  C   UNL A   1      31.757  26.142  22.098  1.00  0.00     0.284 A 
BRANCH  23  28
ATOM     28  O   UNL A   1      29.047  28.532  22.952  1.00  0.00    -0.497 OA
ATOM     29  C   UNL A   1      29.560  29.767  22.469  1.00  0.00     0.278 C 
ENDBRANCH  23  28
BRANCH  27  30
ATOM     30  N   UNL A   1      32.974  26.106  21.298  1.00  0.00     0.063 N 
ATOM     31  O   UNL A   1      32.898  25.678  20.140  1.00  0.00    -0.258 OA
ATOM     32  O   UNL A   1      34.002  26.555  21.825  1.00  0.00    -0.258 OA
ENDBRANCH  27  30
ENDBRANCH  18  22
ENDBRANCH  14  17
ENDBRANCH  12  13
ENDBRANCH   7  12
ENDBRANCH   3   6
ENDBRANCH   1   2
BRANCH   1  33
ATOM     33  C   UNL A   1      34.659  29.779  27.686  1.00  0.00     0.023 C 
BRANCH  33  34
ATOM     34  C   UNL A   1      33.610  30.893  27.732  1.00  0.00     0.023 C 
BRANCH  34  35
ATOM     35  C   UNL A   1      34.102  32.272  27.298  1.00  0.00     0.116 C 
BRANCH  35  36
ATOM     36  N   UNL A   1      33.306  33.362  27.841  1.00  0.00    -0.352 N 
ATOM     37  C   UNL A   1      33.471  34.037  29.028  1.00  0.00     0.251 C 
ATOM     38  H   UNL A   1      32.549  33.655  27.284  1.00  0.00     0.163 HD
ATOM     39  O   UNL A   1      32.646  34.868  29.383  1.00  0.00    -0.269 OA
BRANCH  37  40
ATOM     40  C   UNL A   1      34.631  33.718  29.886  1.00  0.00     0.039 A 
ATOM     41  C   UNL A   1      34.458  32.824  30.945  1.00  0.00     0.014 A 
ATOM     42  C   UNL A   1      35.889  34.267  29.621  1.00  0.00     0.014 A 
ATOM     43  C   UNL A   1      35.565  32.415  31.690  1.00  0.00     0.010 A 
ATOM     44  C   UNL A   1      37.000  33.817  30.330  1.00  0.00     0.010 A 
ATOM     45  C   UNL A   1      36.850  32.876  31.361  1.00  0.00    -0.014 A 
BRANCH  45  46
ATOM     46  C   UNL A   1      38.056  32.357  32.053  1.00  0.00     0.031 A 
ATOM     47  C   UNL A   1      38.854  31.235  31.449  1.00  0.00     0.074 A 
ATOM     48  C   UNL A   1      38.384  32.846  33.266  1.00  0.00     0.049 A 
ATOM     49  N   UNL A   1      39.877  30.592  31.948  1.00  0.00    -0.248 NA
ATOM     50  C   UNL A   1      38.433  30.762  30.120  1.00  0.00     0.031 C 
ATOM     51  C   UNL A   1      37.668  33.911  33.974  1.00  0.00     0.029 A 
ATOM     52  N   UNL A   1      39.398  32.503  34.125  1.00  0.00    -0.354 N 
ATOM     53  C   UNL A   1      40.216  29.630  31.004  1.00  0.00     0.074 A 
ATOM     54  C   UNL A   1      39.265  29.748  29.920  1.00  0.00     0.031 C 
ATOM     55  C   UNL A   1      38.273  34.142  35.151  1.00  0.00     0.029 A 
ATOM     56  C   UNL A   1      39.392  33.218  35.300  1.00  0.00     0.049 A 
ATOM     57  H   UNL A   1      40.066  31.809  33.920  1.00  0.00     0.167 HD
ATOM     58  C   UNL A   1      41.238  28.740  31.031  1.00  0.00     0.031 A 
ATOM     59  C   UNL A   1      40.189  33.132  36.382  1.00  0.00     0.031 A 
ATOM     60  C   UNL A   1      42.186  28.630  32.107  1.00  0.00     0.049 A 
ATOM     61  C   UNL A   1      41.302  32.120  36.396  1.00  0.00     0.074 A 
ATOM     62  C   UNL A   1      43.285  27.794  32.202  1.00  0.00     0.029 A 
ATOM     63  N   UNL A   1      42.151  29.378  33.274  1.00  0.00    -0.354 N 
ATOM     64  N   UNL A   1      41.640  31.256  35.468  1.00  0.00    -0.248 NA
ATOM     65  C   UNL A   1      42.143  32.074  37.600  1.00  0.00     0.031 C 
ATOM     66  C   UNL A   1      43.888  28.002  33.447  1.00  0.00     0.029 A 
ATOM     67  C   UNL A   1      43.194  29.006  34.106  1.00  0.00     0.049 A 
ATOM     68  H   UNL A   1      41.483  30.071  33.481  1.00  0.00     0.167 HD
ATOM     69  C   UNL A   1      42.746  30.579  35.969  1.00  0.00     0.074 A 
ATOM     70  C   UNL A   1      43.030  31.146  37.271  1.00  0.00     0.031 C 
ATOM     71  C   UNL A   1      43.462  29.577  35.400  1.00  0.00     0.031 A 
BRANCH  58  72
ATOM     72  C   UNL A   1      41.381  27.810  29.856  1.00  0.00    -0.014 A 
ATOM     73  C   UNL A   1      40.340  26.933  29.499  1.00  0.00     0.010 A 
ATOM     74  C   UNL A   1      42.546  27.849  29.069  1.00  0.00     0.010 A 
ATOM     75  C   UNL A   1      40.475  26.089  28.395  1.00  0.00     0.020 A 
ATOM     76  C   UNL A   1      42.675  27.022  27.949  1.00  0.00     0.020 A 
ATOM     77  C   UNL A   1      41.644  26.136  27.628  1.00  0.00     0.054 A 
BRANCH  77  78
ATOM     78  S   UNL A   1      41.779  25.051  26.181  1.00  0.00     0.124 S 
ATOM     79  O   UNL A   1      43.199  24.709  26.195  1.00  0.00    -0.237 OA
ATOM     80  O   UNL A   1      40.867  23.959  26.512  1.00  0.00    -0.237 OA
ATOM     81  O   UNL A   1      41.353  25.898  25.070  1.00  0.00    -0.744 OA
ENDBRANCH  77  78
ENDBRANCH  58  72
BRANCH  59  82
ATOM     82  C   UNL A   1      39.963  34.026  37.549  1.00  0.00    -0.014 A 
ATOM     83  C   UNL A   1      39.121  33.625  38.602  1.00  0.00     0.010 A 
ATOM     84  C   UNL A   1      40.585  35.285  37.614  1.00  0.00     0.010 A 
ATOM     85  C   UNL A   1      38.887  34.476  39.685  1.00  0.00     0.020 A 
ATOM     86  C   UNL A   1      40.375  36.128  38.709  1.00  0.00     0.020 A 
ATOM     87  C   UNL A   1      39.515  35.724  39.732  1.00  0.00     0.054 A 
BRANCH  87  88
ATOM     88  S   UNL A   1      39.229  36.798  41.166  1.00  0.00     0.124 S 
ATOM     89  O   UNL A   1      40.591  37.074  41.611  1.00  0.00    -0.237 OA
ATOM     90  O   UNL A   1      38.513  37.927  40.579  1.00  0.00    -0.237 OA
ATOM     91  O   UNL A   1      38.433  35.963  42.062  1.00  0.00    -0.744 OA
ENDBRANCH  87  88
ENDBRANCH  59  82
BRANCH  71  92
ATOM     92  C   UNL A   1      44.636  29.045  36.175  1.00  0.00    -0.014 A 
ATOM     93  C   UNL A   1      44.494  27.949  37.045  1.00  0.00     0.010 A 
ATOM     94  C   UNL A   1      45.907  29.617  35.992  1.00  0.00     0.010 A 
ATOM     95  C   UNL A   1      45.601  27.454  37.741  1.00  0.00     0.020 A 
ATOM     96  C   UNL A   1      47.021  29.109  36.666  1.00  0.00     0.020 A 
ATOM     97  C   UNL A   1      46.856  28.038  37.548  1.00  0.00     0.054 A 
BRANCH  97  98
ATOM     98  S   UNL A   1      48.285  27.350  38.430  1.00  0.00     0.124 S 
ATOM     99  O   UNL A   1      47.867  25.969  38.654  1.00  0.00    -0.237 OA
ATOM    100  O   UNL A   1      49.372  27.530  37.471  1.00  0.00    -0.237 OA
ATOM    101  O   UNL A   1      48.379  28.175  39.632  1.00  0.00    -0.744 OA
ENDBRANCH  97  98
ENDBRANCH  71  92
ENDBRANCH  45  46
ENDBRANCH  37  40
ENDBRANCH  35  36
ENDBRANCH  34  35
ENDBRANCH  33  34
ENDBRANCH   1  33
TORSDOF 20
ENDMDL
