MODEL 1
REMARK VINA RESULT:     -11.1      0.000      0.000
REMARK SMILES CC1(C)CCC[C@@]1(CC(=O)NCCCCNC(=O)c1ccc(-c2c3nc(c(-c4ccc(S(=O)(=O)[O-])cc4)c4ccc([nH]4)c(-c4ccc(S(=O)(=O)[O-])cc4)c4nc(c(-c5ccc(S(=O)(=O)[O-])cc5)c5ccc2[nH]5)C=C4)C=C3)cc1)[NH+]1CCCCC1
REMARK SMILES IDX 14 1 13 2 12 3 11 4 9 5 10 6 8 8 7 9 1 10 2 11 3 12 4 13
REMARK SMILES IDX 5 14 6 15 79 16 80 17 84 18 81 20 83 21 82 22 15 23 16 24
REMARK SMILES IDX 17 25 18 27 19 28 20 29 78 30 21 31 77 32 22 33 23 34 24 35
REMARK SMILES IDX 71 36 25 37 76 38 70 39 72 40 26 41 75 42 69 43 68 44 27 46
REMARK SMILES IDX 57 47 38 48 56 49 39 50 42 51 55 52 73 53 40 54 41 55 54 57
REMARK SMILES IDX 74 58 43 59 28 60 29 61 37 62 30 63 36 64 31 65 32 66 33 67
REMARK SMILES IDX 34 68 35 69 58 70 59 71 67 72 60 73 66 74 61 75 62 76 63 77
REMARK SMILES IDX 64 78 65 79 44 80 45 81 53 82 46 83 52 84 47 85 48 86 49 87
REMARK SMILES IDX 50 88 51 89
REMARK H PARENT 11 7 79 19 16 26 72 45 42 56
REMARK Flexibility Score: inf
ROOT
ATOM      1  C   UNL A   1      32.126  28.063  27.186  1.00  0.00     0.023 C 
ENDROOT
BRANCH   1   2
ATOM      2  C   UNL A   1      31.637  27.887  25.761  1.00  0.00     0.023 C 
BRANCH   2   3
ATOM      3  C   UNL A   1      30.616  26.761  25.566  1.00  0.00     0.116 C 
BRANCH   3   4
ATOM      4  N   UNL A   1      30.866  25.693  26.511  1.00  0.00    -0.356 N 
ATOM      5  C   UNL A   1      31.328  24.424  26.342  1.00  0.00     0.226 C 
ATOM      6  O   UNL A   1      31.451  23.761  27.374  1.00  0.00    -0.275 OA
ATOM      7  H   UNL A   1      30.666  25.928  27.446  1.00  0.00     0.163 HD
BRANCH   5   8
ATOM      8  C   UNL A   1      31.798  23.895  24.977  1.00  0.00     0.169 C 
BRANCH   8   9
ATOM      9  C   UNL A   1      33.170  23.109  24.778  1.00  0.00     0.112 C 
ATOM     10  C   UNL A   1      34.874  24.244  26.473  1.00  0.00     0.018 C 
ATOM     11  C   UNL A   1      34.408  24.143  25.013  1.00  0.00     0.020 C 
ATOM     12  C   UNL A   1      34.130  25.601  24.543  1.00  0.00     0.018 C 
ATOM     13  C   UNL A   1      35.547  23.624  24.105  1.00  0.00     0.013 C 
ATOM     14  C   UNL A   1      34.854  23.045  22.889  1.00  0.00     0.007 C 
ATOM     15  C   UNL A   1      33.406  22.788  23.289  1.00  0.00     0.070 C 
BRANCH   9  16
ATOM     16  N   UNL A   1      33.270  21.907  25.685  1.00  0.00    -0.329 N 
ATOM     17  C   UNL A   1      34.540  21.204  25.899  1.00  0.00     0.262 C 
ATOM     18  C   UNL A   1      32.226  20.872  25.588  1.00  0.00     0.262 C 
ATOM     19  H   UNL A   1      33.125  22.507  26.497  1.00  0.00     0.348 HD
ATOM     20  C   UNL A   1      34.921  20.172  24.833  1.00  0.00     0.062 C 
ATOM     21  C   UNL A   1      32.416  19.933  24.397  1.00  0.00     0.062 C 
ATOM     22  C   UNL A   1      33.773  19.235  24.462  1.00  0.00     0.012 C 
ENDBRANCH   9  16
ENDBRANCH   8   9
ENDBRANCH   5   8
ENDBRANCH   3   4
ENDBRANCH   2   3
ENDBRANCH   1   2
BRANCH   1  23
ATOM     23  C   UNL A   1      33.508  28.675  27.295  1.00  0.00     0.116 C 
BRANCH  23  24
ATOM     24  N   UNL A   1      33.498  30.062  27.751  1.00  0.00    -0.352 N 
ATOM     25  C   UNL A   1      34.529  30.769  28.327  1.00  0.00     0.251 C 
ATOM     26  H   UNL A   1      32.652  30.551  27.632  1.00  0.00     0.163 HD
ATOM     27  O   UNL A   1      34.354  31.904  28.757  1.00  0.00    -0.269 OA
BRANCH  25  28
ATOM     28  C   UNL A   1      35.838  30.102  28.449  1.00  0.00     0.039 A 
ATOM     29  C   UNL A   1      36.743  30.173  27.389  1.00  0.00     0.014 A 
ATOM     30  C   UNL A   1      36.207  29.541  29.673  1.00  0.00     0.014 A 
ATOM     31  C   UNL A   1      38.057  29.753  27.590  1.00  0.00     0.010 A 
ATOM     32  C   UNL A   1      37.539  29.237  29.903  1.00  0.00     0.010 A 
ATOM     33  C   UNL A   1      38.475  29.327  28.862  1.00  0.00    -0.014 A 
BRANCH  33  34
ATOM     34  C   UNL A   1      39.879  28.933  29.133  1.00  0.00     0.031 A 
ATOM     35  C   UNL A   1      40.820  29.942  29.736  1.00  0.00     0.074 A 
ATOM     36  C   UNL A   1      40.326  27.718  28.760  1.00  0.00     0.049 A 
ATOM     37  N   UNL A   1      42.106  29.847  29.948  1.00  0.00    -0.248 NA
ATOM     38  C   UNL A   1      40.246  31.246  30.108  1.00  0.00     0.031 C 
ATOM     39  C   UNL A   1      39.528  26.678  28.106  1.00  0.00     0.029 A 
ATOM     40  N   UNL A   1      41.572  27.155  28.872  1.00  0.00    -0.354 N 
ATOM     41  C   UNL A   1      42.496  31.088  30.438  1.00  0.00     0.074 A 
ATOM     42  C   UNL A   1      41.328  31.937  30.432  1.00  0.00     0.031 C 
ATOM     43  C   UNL A   1      40.295  25.593  27.906  1.00  0.00     0.029 A 
ATOM     44  C   UNL A   1      41.646  25.871  28.384  1.00  0.00     0.049 A 
ATOM     45  H   UNL A   1      42.342  27.625  29.267  1.00  0.00     0.167 HD
ATOM     46  C   UNL A   1      43.712  31.479  30.885  1.00  0.00     0.031 A 
ATOM     47  C   UNL A   1      42.686  25.016  28.329  1.00  0.00     0.031 A 
ATOM     48  C   UNL A   1      44.859  30.616  30.933  1.00  0.00     0.049 A 
ATOM     49  C   UNL A   1      44.015  25.453  28.880  1.00  0.00     0.074 A 
ATOM     50  C   UNL A   1      46.121  30.888  31.430  1.00  0.00     0.029 A 
ATOM     51  N   UNL A   1      44.876  29.305  30.481  1.00  0.00    -0.354 N 
ATOM     52  N   UNL A   1      44.352  26.612  29.395  1.00  0.00    -0.248 NA
ATOM     53  C   UNL A   1      45.100  24.462  28.860  1.00  0.00     0.031 C 
ATOM     54  C   UNL A   1      46.911  29.746  31.251  1.00  0.00     0.029 A 
ATOM     55  C   UNL A   1      46.128  28.753  30.683  1.00  0.00     0.049 A 
ATOM     56  H   UNL A   1      44.110  28.837  30.076  1.00  0.00     0.167 HD
ATOM     57  C   UNL A   1      45.681  26.483  29.779  1.00  0.00     0.074 A 
ATOM     58  C   UNL A   1      46.081  25.129  29.452  1.00  0.00     0.031 C 
ATOM     59  C   UNL A   1      46.498  27.402  30.352  1.00  0.00     0.031 A 
BRANCH  46  60
ATOM     60  C   UNL A   1      43.844  32.898  31.367  1.00  0.00    -0.014 A 
ATOM     61  C   UNL A   1      43.716  33.212  32.734  1.00  0.00     0.010 A 
ATOM     62  C   UNL A   1      44.092  33.933  30.448  1.00  0.00     0.010 A 
ATOM     63  C   UNL A   1      43.780  34.538  33.164  1.00  0.00     0.020 A 
ATOM     64  C   UNL A   1      44.186  35.258  30.879  1.00  0.00     0.020 A 
ATOM     65  C   UNL A   1      44.007  35.555  32.232  1.00  0.00     0.054 A 
BRANCH  65  66
ATOM     66  S   UNL A   1      44.090  37.270  32.818  1.00  0.00     0.124 S 
ATOM     67  O   UNL A   1      44.065  38.016  31.563  1.00  0.00    -0.237 OA
ATOM     68  O   UNL A   1      42.890  37.387  33.641  1.00  0.00    -0.237 OA
ATOM     69  O   UNL A   1      45.351  37.323  33.551  1.00  0.00    -0.744 OA
ENDBRANCH  65  66
ENDBRANCH  46  60
BRANCH  47  70
ATOM     70  C   UNL A   1      42.498  23.652  27.764  1.00  0.00    -0.014 A 
ATOM     71  C   UNL A   1      42.736  23.411  26.399  1.00  0.00     0.010 A 
ATOM     72  C   UNL A   1      42.107  22.583  28.589  1.00  0.00     0.010 A 
ATOM     73  C   UNL A   1      42.572  22.129  25.866  1.00  0.00     0.020 A 
ATOM     74  C   UNL A   1      41.964  21.294  28.065  1.00  0.00     0.020 A 
ATOM     75  C   UNL A   1      42.188  21.078  26.704  1.00  0.00     0.054 A 
BRANCH  75  76
ATOM     76  S   UNL A   1      42.041  19.410  26.004  1.00  0.00     0.124 S 
ATOM     77  O   UNL A   1      40.611  19.319  25.732  1.00  0.00    -0.237 OA
ATOM     78  O   UNL A   1      42.905  19.481  24.828  1.00  0.00    -0.237 OA
ATOM     79  O   UNL A   1      42.533  18.547  27.076  1.00  0.00    -0.744 OA
ENDBRANCH  75  76
ENDBRANCH  47  70
BRANCH  59  80
ATOM     80  C   UNL A   1      47.896  26.965  30.689  1.00  0.00    -0.014 A 
ATOM     81  C   UNL A   1      48.957  27.175  29.792  1.00  0.00     0.010 A 
ATOM     82  C   UNL A   1      48.159  26.398  31.949  1.00  0.00     0.010 A 
ATOM     83  C   UNL A   1      50.257  26.801  30.141  1.00  0.00     0.020 A 
ATOM     84  C   UNL A   1      49.460  26.044  32.309  1.00  0.00     0.020 A 
ATOM     85  C   UNL A   1      50.500  26.236  31.397  1.00  0.00     0.054 A 
BRANCH  85  86
ATOM     86  S   UNL A   1      52.202  25.804  31.847  1.00  0.00     0.124 S 
ATOM     87  O   UNL A   1      52.474  26.738  32.936  1.00  0.00    -0.237 OA
ATOM     88  O   UNL A   1      52.085  24.400  32.237  1.00  0.00    -0.237 OA
ATOM     89  O   UNL A   1      52.956  26.040  30.617  1.00  0.00    -0.744 OA
ENDBRANCH  85  86
ENDBRANCH  59  80
ENDBRANCH  33  34
ENDBRANCH  25  28
ENDBRANCH  23  24
ENDBRANCH   1  23
TORSDOF 16
ENDMDL
MODEL 2
REMARK VINA RESULT:     -10.7      1.247      1.944
REMARK SMILES CC1(C)CCC[C@@]1(CC(=O)NCCCCNC(=O)c1ccc(-c2c3nc(c(-c4ccc(S(=O)(=O)[O-])cc4)c4ccc([nH]4)c(-c4ccc(S(=O)(=O)[O-])cc4)c4nc(c(-c5ccc(S(=O)(=O)[O-])cc5)c5ccc2[nH]5)C=C4)C=C3)cc1)[NH+]1CCCCC1
REMARK SMILES IDX 14 1 13 2 12 3 11 4 9 5 10 6 8 8 7 9 1 10 2 11 3 12 4 13
REMARK SMILES IDX 5 14 6 15 79 16 80 17 84 18 81 20 83 21 82 22 15 23 16 24
REMARK SMILES IDX 17 25 18 27 19 28 20 29 78 30 21 31 77 32 22 33 23 34 24 35
REMARK SMILES IDX 71 36 25 37 76 38 70 39 72 40 26 41 75 42 69 43 68 44 27 46
REMARK SMILES IDX 57 47 38 48 56 49 39 50 42 51 55 52 73 53 40 54 41 55 54 57
REMARK SMILES IDX 74 58 43 59 28 60 29 61 37 62 30 63 36 64 31 65 32 66 33 67
REMARK SMILES IDX 34 68 35 69 58 70 59 71 67 72 60 73 66 74 61 75 62 76 63 77
REMARK SMILES IDX 64 78 65 79 44 80 45 81 53 82 46 83 52 84 47 85 48 86 49 87
REMARK SMILES IDX 50 88 51 89
REMARK H PARENT 11 7 79 19 16 26 72 45 42 56
REMARK Flexibility Score: inf
ROOT
ATOM      1  C   UNL A   1      32.677  28.916  25.614  1.00  0.00     0.023 C 
ENDROOT
BRANCH   1   2
ATOM      2  C   UNL A   1      33.157  28.882  24.175  1.00  0.00     0.023 C 
BRANCH   2   3
ATOM      3  C   UNL A   1      32.099  28.446  23.155  1.00  0.00     0.116 C 
BRANCH   3   4
ATOM      4  N   UNL A   1      32.711  27.650  22.112  1.00  0.00    -0.356 N 
ATOM      5  C   UNL A   1      32.750  26.306  21.904  1.00  0.00     0.226 C 
ATOM      6  O   UNL A   1      33.349  25.942  20.889  1.00  0.00    -0.275 OA
ATOM      7  H   UNL A   1      33.187  28.178  21.429  1.00  0.00     0.163 HD
BRANCH   5   8
ATOM      8  C   UNL A   1      31.983  25.314  22.792  1.00  0.00     0.169 C 
BRANCH   8   9
ATOM      9  C   UNL A   1      32.654  24.549  24.018  1.00  0.00     0.112 C 
ATOM     10  C   UNL A   1      30.636  23.396  25.307  1.00  0.00     0.018 C 
ATOM     11  C   UNL A   1      31.623  24.572  25.280  1.00  0.00     0.020 C 
ATOM     12  C   UNL A   1      30.762  25.865  25.389  1.00  0.00     0.018 C 
ATOM     13  C   UNL A   1      32.523  24.566  26.538  1.00  0.00     0.013 C 
ATOM     14  C   UNL A   1      33.755  25.356  26.150  1.00  0.00     0.007 C 
ATOM     15  C   UNL A   1      33.796  25.387  24.627  1.00  0.00     0.070 C 
BRANCH   9  16
ATOM     16  N   UNL A   1      33.057  23.141  23.654  1.00  0.00    -0.329 N 
ATOM     17  C   UNL A   1      33.341  22.130  24.679  1.00  0.00     0.262 C 
ATOM     18  C   UNL A   1      34.057  22.954  22.589  1.00  0.00     0.262 C 
ATOM     19  H   UNL A   1      32.112  22.958  23.315  1.00  0.00     0.348 HD
ATOM     20  C   UNL A   1      34.752  22.158  25.273  1.00  0.00     0.062 C 
ATOM     21  C   UNL A   1      35.491  23.195  23.060  1.00  0.00     0.062 C 
ATOM     22  C   UNL A   1      35.850  22.265  24.217  1.00  0.00     0.012 C 
ENDBRANCH   9  16
ENDBRANCH   8   9
ENDBRANCH   5   8
ENDBRANCH   3   4
ENDBRANCH   2   3
ENDBRANCH   1   2
BRANCH   1  23
ATOM     23  C   UNL A   1      33.787  29.093  26.631  1.00  0.00     0.116 C 
BRANCH  23  24
ATOM     24  N   UNL A   1      33.672  30.319  27.414  1.00  0.00    -0.352 N 
ATOM     25  C   UNL A   1      34.594  30.857  28.282  1.00  0.00     0.251 C 
ATOM     26  H   UNL A   1      32.834  30.824  27.307  1.00  0.00     0.163 HD
ATOM     27  O   UNL A   1      34.327  31.846  28.955  1.00  0.00    -0.269 OA
BRANCH  25  28
ATOM     28  C   UNL A   1      35.897  30.179  28.410  1.00  0.00     0.039 A 
ATOM     29  C   UNL A   1      36.814  30.257  27.361  1.00  0.00     0.014 A 
ATOM     30  C   UNL A   1      36.249  29.600  29.631  1.00  0.00     0.014 A 
ATOM     31  C   UNL A   1      38.123  29.824  27.570  1.00  0.00     0.010 A 
ATOM     32  C   UNL A   1      37.576  29.282  29.871  1.00  0.00     0.010 A 
ATOM     33  C   UNL A   1      38.524  29.379  28.841  1.00  0.00    -0.014 A 
BRANCH  33  34
ATOM     34  C   UNL A   1      39.922  28.971  29.122  1.00  0.00     0.031 A 
ATOM     35  C   UNL A   1      40.870  29.971  29.729  1.00  0.00     0.074 A 
ATOM     36  C   UNL A   1      40.359  27.751  28.755  1.00  0.00     0.049 A 
ATOM     37  N   UNL A   1      42.153  29.864  29.949  1.00  0.00    -0.248 NA
ATOM     38  C   UNL A   1      40.306  31.282  30.094  1.00  0.00     0.031 C 
ATOM     39  C   UNL A   1      39.554  26.717  28.097  1.00  0.00     0.029 A 
ATOM     40  N   UNL A   1      41.599  27.175  28.876  1.00  0.00    -0.354 N 
ATOM     41  C   UNL A   1      42.553  31.102  30.439  1.00  0.00     0.074 A 
ATOM     42  C   UNL A   1      41.393  31.962  30.424  1.00  0.00     0.031 C 
ATOM     43  C   UNL A   1      40.312  25.624  27.904  1.00  0.00     0.029 A 
ATOM     44  C   UNL A   1      41.662  25.889  28.390  1.00  0.00     0.049 A 
ATOM     45  H   UNL A   1      42.371  27.638  29.275  1.00  0.00     0.167 HD
ATOM     46  C   UNL A   1      43.770  31.481  30.894  1.00  0.00     0.031 A 
ATOM     47  C   UNL A   1      42.694  25.024  28.344  1.00  0.00     0.031 A 
ATOM     48  C   UNL A   1      44.907  30.607  30.951  1.00  0.00     0.049 A 
ATOM     49  C   UNL A   1      44.024  25.448  28.903  1.00  0.00     0.074 A 
ATOM     50  C   UNL A   1      46.169  30.866  31.456  1.00  0.00     0.029 A 
ATOM     51  N   UNL A   1      44.914  29.295  30.502  1.00  0.00    -0.354 N 
ATOM     52  N   UNL A   1      44.369  26.605  29.417  1.00  0.00    -0.248 NA
ATOM     53  C   UNL A   1      45.098  24.446  28.891  1.00  0.00     0.031 C 
ATOM     54  C   UNL A   1      46.948  29.717  31.284  1.00  0.00     0.029 A 
ATOM     55  C   UNL A   1      46.159  28.731  30.713  1.00  0.00     0.049 A 
ATOM     56  H   UNL A   1      44.146  28.834  30.093  1.00  0.00     0.167 HD
ATOM     57  C   UNL A   1      45.694  26.463  29.810  1.00  0.00     0.074 A 
ATOM     58  C   UNL A   1      46.083  25.105  29.489  1.00  0.00     0.031 C 
ATOM     59  C   UNL A   1      46.517  27.375  30.387  1.00  0.00     0.031 A 
BRANCH  46  60
ATOM     60  C   UNL A   1      43.913  32.900  31.374  1.00  0.00    -0.014 A 
ATOM     61  C   UNL A   1      43.639  33.241  32.712  1.00  0.00     0.010 A 
ATOM     62  C   UNL A   1      44.320  33.906  30.481  1.00  0.00     0.010 A 
ATOM     63  C   UNL A   1      43.716  34.570  33.134  1.00  0.00     0.020 A 
ATOM     64  C   UNL A   1      44.428  35.233  30.907  1.00  0.00     0.020 A 
ATOM     65  C   UNL A   1      44.103  35.560  32.226  1.00  0.00     0.054 A 
BRANCH  65  66
ATOM     66  S   UNL A   1      44.200  37.277  32.800  1.00  0.00     0.124 S 
ATOM     67  O   UNL A   1      44.002  38.019  31.558  1.00  0.00    -0.237 OA
ATOM     68  O   UNL A   1      43.103  37.358  33.761  1.00  0.00    -0.237 OA
ATOM     69  O   UNL A   1      45.537  37.373  33.378  1.00  0.00    -0.744 OA
ENDBRANCH  65  66
ENDBRANCH  46  60
BRANCH  47  70
ATOM     70  C   UNL A   1      42.496  23.661  27.781  1.00  0.00    -0.014 A 
ATOM     71  C   UNL A   1      42.665  23.431  26.404  1.00  0.00     0.010 A 
ATOM     72  C   UNL A   1      42.163  22.582  28.618  1.00  0.00     0.010 A 
ATOM     73  C   UNL A   1      42.492  22.150  25.871  1.00  0.00     0.020 A 
ATOM     74  C   UNL A   1      42.011  21.294  28.093  1.00  0.00     0.020 A 
ATOM     75  C   UNL A   1      42.166  21.089  26.721  1.00  0.00     0.054 A 
BRANCH  75  76
ATOM     76  S   UNL A   1      42.006  19.423  26.018  1.00  0.00     0.124 S 
ATOM     77  O   UNL A   1      42.849  19.511  24.831  1.00  0.00    -0.237 OA
ATOM     78  O   UNL A   1      42.515  18.574  27.094  1.00  0.00    -0.237 OA
ATOM     79  O   UNL A   1      40.573  19.298  25.764  1.00  0.00    -0.744 OA
ENDBRANCH  75  76
ENDBRANCH  47  70
BRANCH  59  80
ATOM     80  C   UNL A   1      47.908  26.924  30.734  1.00  0.00    -0.014 A 
ATOM     81  C   UNL A   1      48.968  27.080  29.825  1.00  0.00     0.010 A 
ATOM     82  C   UNL A   1      48.167  26.400  32.013  1.00  0.00     0.010 A 
ATOM     83  C   UNL A   1      50.262  26.694  30.182  1.00  0.00     0.020 A 
ATOM     84  C   UNL A   1      49.463  26.035  32.381  1.00  0.00     0.020 A 
ATOM     85  C   UNL A   1      50.502  26.173  31.457  1.00  0.00     0.054 A 
BRANCH  85  86
ATOM     86  S   UNL A   1      52.197  25.725  31.916  1.00  0.00     0.124 S 
ATOM     87  O   UNL A   1      52.927  26.000  30.682  1.00  0.00    -0.237 OA
ATOM     88  O   UNL A   1      52.479  26.630  33.028  1.00  0.00    -0.237 OA
ATOM     89  O   UNL A   1      52.096  24.313  32.281  1.00  0.00    -0.744 OA
ENDBRANCH  85  86
ENDBRANCH  59  80
ENDBRANCH  33  34
ENDBRANCH  25  28
ENDBRANCH  23  24
ENDBRANCH   1  23
TORSDOF 16
ENDMDL
MODEL 3
REMARK VINA RESULT:     -10.6      0.884      2.066
REMARK SMILES CC1(C)CCC[C@@]1(CC(=O)NCCCCNC(=O)c1ccc(-c2c3nc(c(-c4ccc(S(=O)(=O)[O-])cc4)c4ccc([nH]4)c(-c4ccc(S(=O)(=O)[O-])cc4)c4nc(c(-c5ccc(S(=O)(=O)[O-])cc5)c5ccc2[nH]5)C=C4)C=C3)cc1)[NH+]1CCCCC1
REMARK SMILES IDX 14 1 13 2 12 3 11 4 9 5 10 6 8 8 7 9 1 10 2 11 3 12 4 13
REMARK SMILES IDX 5 14 6 15 79 16 80 17 84 18 81 20 83 21 82 22 15 23 16 24
REMARK SMILES IDX 17 25 18 27 19 28 20 29 78 30 21 31 77 32 22 33 23 34 24 35
REMARK SMILES IDX 71 36 25 37 76 38 70 39 72 40 26 41 75 42 69 43 68 44 27 46
REMARK SMILES IDX 57 47 38 48 56 49 39 50 42 51 55 52 73 53 40 54 41 55 54 57
REMARK SMILES IDX 74 58 43 59 28 60 29 61 37 62 30 63 36 64 31 65 32 66 33 67
REMARK SMILES IDX 34 68 35 69 58 70 59 71 67 72 60 73 66 74 61 75 62 76 63 77
REMARK SMILES IDX 64 78 65 79 44 80 45 81 53 82 46 83 52 84 47 85 48 86 49 87
REMARK SMILES IDX 50 88 51 89
REMARK H PARENT 11 7 79 19 16 26 72 45 42 56
REMARK Flexibility Score: inf
ROOT
ATOM      1  C   UNL A   1      32.139  28.194  27.246  1.00  0.00     0.023 C 
ENDROOT
BRANCH   1   2
ATOM      2  C   UNL A   1      32.079  27.132  26.165  1.00  0.00     0.023 C 
BRANCH   2   3
ATOM      3  C   UNL A   1      30.778  26.321  26.132  1.00  0.00     0.116 C 
BRANCH   3   4
ATOM      4  N   UNL A   1      30.933  25.102  26.897  1.00  0.00    -0.356 N 
ATOM      5  C   UNL A   1      30.989  23.796  26.518  1.00  0.00     0.226 C 
ATOM      6  O   UNL A   1      31.151  22.984  27.431  1.00  0.00    -0.275 OA
ATOM      7  H   UNL A   1      31.011  25.243  27.868  1.00  0.00     0.163 HD
BRANCH   5   8
ATOM      8  C   UNL A   1      30.993  23.367  25.042  1.00  0.00     0.169 C 
BRANCH   8   9
ATOM      9  C   UNL A   1      32.316  23.330  24.153  1.00  0.00     0.112 C 
ATOM     10  C   UNL A   1      32.279  20.960  22.951  1.00  0.00     0.018 C 
ATOM     11  C   UNL A   1      32.868  21.798  24.096  1.00  0.00     0.020 C 
ATOM     12  C   UNL A   1      32.636  20.978  25.399  1.00  0.00     0.018 C 
ATOM     13  C   UNL A   1      34.403  21.926  23.954  1.00  0.00     0.013 C 
ATOM     14  C   UNL A   1      34.774  23.166  24.738  1.00  0.00     0.007 C 
ATOM     15  C   UNL A   1      33.496  23.982  24.901  1.00  0.00     0.070 C 
BRANCH   9  16
ATOM     16  N   UNL A   1      32.085  23.891  22.771  1.00  0.00    -0.329 N 
ATOM     17  C   UNL A   1      33.165  24.520  22.003  1.00  0.00     0.262 C 
ATOM     18  C   UNL A   1      30.876  24.700  22.539  1.00  0.00     0.262 C 
ATOM     19  H   UNL A   1      31.976  22.944  22.406  1.00  0.00     0.348 HD
ATOM     20  C   UNL A   1      33.448  25.989  22.325  1.00  0.00     0.062 C 
ATOM     21  C   UNL A   1      31.004  26.134  23.051  1.00  0.00     0.062 C 
ATOM     22  C   UNL A   1      32.185  26.846  22.395  1.00  0.00     0.012 C 
ENDBRANCH   9  16
ENDBRANCH   8   9
ENDBRANCH   5   8
ENDBRANCH   3   4
ENDBRANCH   2   3
ENDBRANCH   1   2
BRANCH   1  23
ATOM     23  C   UNL A   1      33.531  28.732  27.507  1.00  0.00     0.116 C 
BRANCH  23  24
ATOM     24  N   UNL A   1      33.552  30.144  27.876  1.00  0.00    -0.352 N 
ATOM     25  C   UNL A   1      34.609  30.873  28.372  1.00  0.00     0.251 C 
ATOM     26  H   UNL A   1      32.708  30.636  27.754  1.00  0.00     0.163 HD
ATOM     27  O   UNL A   1      34.461  32.034  28.736  1.00  0.00    -0.269 OA
BRANCH  25  28
ATOM     28  C   UNL A   1      35.914  30.198  28.492  1.00  0.00     0.039 A 
ATOM     29  C   UNL A   1      36.794  30.215  27.410  1.00  0.00     0.014 A 
ATOM     30  C   UNL A   1      36.307  29.685  29.730  1.00  0.00     0.014 A 
ATOM     31  C   UNL A   1      38.109  29.789  27.598  1.00  0.00     0.010 A 
ATOM     32  C   UNL A   1      37.641  29.377  29.942  1.00  0.00     0.010 A 
ATOM     33  C   UNL A   1      38.553  29.413  28.877  1.00  0.00    -0.014 A 
BRANCH  33  34
ATOM     34  C   UNL A   1      39.959  29.017  29.132  1.00  0.00     0.031 A 
ATOM     35  C   UNL A   1      40.911  30.026  29.715  1.00  0.00     0.074 A 
ATOM     36  C   UNL A   1      40.397  27.797  28.762  1.00  0.00     0.049 A 
ATOM     37  N   UNL A   1      42.200  29.928  29.910  1.00  0.00    -0.248 NA
ATOM     38  C   UNL A   1      40.346  31.335  30.085  1.00  0.00     0.031 C 
ATOM     39  C   UNL A   1      39.586  26.755  28.125  1.00  0.00     0.029 A 
ATOM     40  N   UNL A   1      41.643  27.230  28.861  1.00  0.00    -0.354 N 
ATOM     41  C   UNL A   1      42.601  31.171  30.386  1.00  0.00     0.074 A 
ATOM     42  C   UNL A   1      41.435  32.024  30.390  1.00  0.00     0.031 C 
ATOM     43  C   UNL A   1      40.348  25.666  27.922  1.00  0.00     0.029 A 
ATOM     44  C   UNL A   1      41.706  25.943  28.380  1.00  0.00     0.049 A 
ATOM     45  H   UNL A   1      42.419  27.701  29.242  1.00  0.00     0.167 HD
ATOM     46  C   UNL A   1      43.824  31.561  30.815  1.00  0.00     0.031 A 
ATOM     47  C   UNL A   1      42.742  25.085  28.318  1.00  0.00     0.031 A 
ATOM     48  C   UNL A   1      44.968  30.695  30.853  1.00  0.00     0.049 A 
ATOM     49  C   UNL A   1      44.080  25.520  28.848  1.00  0.00     0.074 A 
ATOM     50  C   UNL A   1      46.238  30.965  31.332  1.00  0.00     0.029 A 
ATOM     51  N   UNL A   1      44.975  29.381  30.410  1.00  0.00    -0.354 N 
ATOM     52  N   UNL A   1      44.427  26.682  29.350  1.00  0.00    -0.248 NA
ATOM     53  C   UNL A   1      45.161  24.526  28.820  1.00  0.00     0.031 C 
ATOM     54  C   UNL A   1      47.021  29.820  31.151  1.00  0.00     0.029 A 
ATOM     55  C   UNL A   1      46.227  28.826  30.600  1.00  0.00     0.049 A 
ATOM     56  H   UNL A   1      44.202  28.912  30.019  1.00  0.00     0.167 HD
ATOM     57  C   UNL A   1      45.761  26.551  29.717  1.00  0.00     0.074 A 
ATOM     58  C   UNL A   1      46.152  25.194  29.395  1.00  0.00     0.031 C 
ATOM     59  C   UNL A   1      46.588  27.471  30.273  1.00  0.00     0.031 A 
BRANCH  46  60
ATOM     60  C   UNL A   1      43.966  32.983  31.286  1.00  0.00    -0.014 A 
ATOM     61  C   UNL A   1      44.307  34.012  30.387  1.00  0.00     0.010 A 
ATOM     62  C   UNL A   1      43.764  33.298  32.641  1.00  0.00     0.010 A 
ATOM     63  C   UNL A   1      44.496  35.317  30.844  1.00  0.00     0.020 A 
ATOM     64  C   UNL A   1      43.922  34.609  33.097  1.00  0.00     0.020 A 
ATOM     65  C   UNL A   1      44.309  35.607  32.199  1.00  0.00     0.054 A 
BRANCH  65  66
ATOM     66  S   UNL A   1      44.556  37.312  32.766  1.00  0.00     0.124 S 
ATOM     67  O   UNL A   1      43.304  37.578  33.468  1.00  0.00    -0.237 OA
ATOM     68  O   UNL A   1      45.739  37.200  33.615  1.00  0.00    -0.237 OA
ATOM     69  O   UNL A   1      44.750  38.062  31.528  1.00  0.00    -0.744 OA
ENDBRANCH  65  66
ENDBRANCH  46  60
BRANCH  47  70
ATOM     70  C   UNL A   1      42.542  23.717  27.765  1.00  0.00    -0.014 A 
ATOM     71  C   UNL A   1      42.782  23.461  26.403  1.00  0.00     0.010 A 
ATOM     72  C   UNL A   1      42.138  22.660  28.599  1.00  0.00     0.010 A 
ATOM     73  C   UNL A   1      42.606  22.176  25.881  1.00  0.00     0.020 A 
ATOM     74  C   UNL A   1      41.984  21.368  28.086  1.00  0.00     0.020 A 
ATOM     75  C   UNL A   1      42.209  21.136  26.727  1.00  0.00     0.054 A 
BRANCH  75  76
ATOM     76  S   UNL A   1      42.048  19.463  26.042  1.00  0.00     0.124 S 
ATOM     77  O   UNL A   1      40.613  19.375  25.792  1.00  0.00    -0.237 OA
ATOM     78  O   UNL A   1      42.895  19.523  24.853  1.00  0.00    -0.237 OA
ATOM     79  O   UNL A   1      42.553  18.608  27.113  1.00  0.00    -0.744 OA
ENDBRANCH  75  76
ENDBRANCH  47  70
BRANCH  59  80
ATOM     80  C   UNL A   1      47.989  27.032  30.594  1.00  0.00    -0.014 A 
ATOM     81  C   UNL A   1      49.054  27.305  29.719  1.00  0.00     0.010 A 
ATOM     82  C   UNL A   1      48.251  26.396  31.822  1.00  0.00     0.010 A 
ATOM     83  C   UNL A   1      50.355  26.926  30.055  1.00  0.00     0.020 A 
ATOM     84  C   UNL A   1      49.554  26.037  32.171  1.00  0.00     0.020 A 
ATOM     85  C   UNL A   1      50.597  26.293  31.278  1.00  0.00     0.054 A 
BRANCH  85  86
ATOM     86  S   UNL A   1      52.301  25.855  31.715  1.00  0.00     0.124 S 
ATOM     87  O   UNL A   1      52.989  26.003  30.436  1.00  0.00    -0.237 OA
ATOM     88  O   UNL A   1      52.640  26.852  32.729  1.00  0.00    -0.237 OA
ATOM     89  O   UNL A   1      52.190  24.485  32.211  1.00  0.00    -0.744 OA
ENDBRANCH  85  86
ENDBRANCH  59  80
ENDBRANCH  33  34
ENDBRANCH  25  28
ENDBRANCH  23  24
ENDBRANCH   1  23
TORSDOF 16
ENDMDL
