MODEL 1
REMARK VINA RESULT:     -10.1      0.000      0.000
REMARK SMILES CC(C)(C)C(=O)NCc1ccc(C(=O)NCCCCNC(=O)c2ccc(-c3c4nc(c(-c5ccc(S(=O)(=O)[O-])cc5)c5ccc([nH]5)c(-c5ccc(S(=O)(=O)[O-])cc5)c5nc(c(-c6ccc(S(=O)(=O)[O-])cc6)c6ccc3[nH]6)C=C5)C=C4)cc2)o1
REMARK SMILES IDX 17 1 16 2 15 3 13 4 14 5 12 7 9 8 10 9 83 10 11 11 8 12 7 13
REMARK SMILES IDX 5 14 6 15 2 17 1 18 3 19 4 20 18 21 19 22 20 23 21 24 22 26
REMARK SMILES IDX 23 27 24 28 82 29 25 30 81 31 26 32 27 33 28 34 75 35 29 36
REMARK SMILES IDX 80 37 74 38 76 39 30 40 79 41 73 42 72 43 31 45 61 46 42 47
REMARK SMILES IDX 60 48 43 49 46 50 59 51 77 52 44 53 45 54 58 56 78 57 47 58
REMARK SMILES IDX 32 59 33 60 41 61 34 62 40 63 35 64 36 65 37 66 38 67 39 68
REMARK SMILES IDX 62 69 63 70 71 71 64 72 70 73 65 74 66 75 67 76 68 77 69 78
REMARK SMILES IDX 48 79 49 80 57 81 50 82 56 83 51 84 52 85 53 86 54 87 55 88
REMARK H PARENT 15 6 7 16 20 25 76 44 46 55
REMARK Flexibility Score: inf
ROOT
ATOM      1  C   UNL A   1      32.743  26.990  26.330  1.00  0.00     0.023 C 
ENDROOT
BRANCH   1   2
ATOM      2  C   UNL A   1      31.242  26.935  26.048  1.00  0.00     0.116 C 
BRANCH   2   3
ATOM      3  N   UNL A   1      30.630  25.807  26.711  1.00  0.00    -0.349 N 
ATOM      4  C   UNL A   1      30.472  24.499  26.313  1.00  0.00     0.286 C 
ATOM      5  O   UNL A   1      29.933  23.755  27.134  1.00  0.00    -0.266 OA
ATOM      6  H   UNL A   1      30.261  26.009  27.601  1.00  0.00     0.163 HD
BRANCH   4   7
ATOM      7  C   UNL A   1      30.932  24.032  25.016  1.00  0.00     0.191 A 
ATOM      8  C   UNL A   1      32.287  22.812  23.751  1.00  0.00     0.124 A 
ATOM      9  C   UNL A   1      31.463  23.496  22.886  1.00  0.00     0.048 A 
ATOM     10  O   UNL A   1      31.979  23.136  25.034  1.00  0.00    -0.454 OA
ATOM     11  C   UNL A   1      30.573  24.240  23.695  1.00  0.00     0.056 A 
BRANCH   8  12
ATOM     12  C   UNL A   1      33.389  21.835  23.575  1.00  0.00     0.191 C 
BRANCH  12  13
ATOM     13  N   UNL A   1      34.014  21.598  24.860  1.00  0.00    -0.348 N 
ATOM     14  C   UNL A   1      35.161  22.062  25.417  1.00  0.00     0.225 C 
ATOM     15  O   UNL A   1      35.528  21.482  26.444  1.00  0.00    -0.275 OA
ATOM     16  H   UNL A   1      33.511  20.983  25.441  1.00  0.00     0.163 HD
BRANCH  14  17
ATOM     17  C   UNL A   1      35.953  23.253  24.839  1.00  0.00     0.041 C 
ATOM     18  C   UNL A   1      36.259  22.949  23.353  1.00  0.00     0.021 C 
ATOM     19  C   UNL A   1      37.302  23.399  25.558  1.00  0.00     0.021 C 
ATOM     20  C   UNL A   1      35.152  24.561  24.872  1.00  0.00     0.021 C 
ENDBRANCH  14  17
ENDBRANCH  12  13
ENDBRANCH   8  12
ENDBRANCH   4   7
ENDBRANCH   2   3
ENDBRANCH   1   2
BRANCH   1  21
ATOM     21  C   UNL A   1      33.174  28.233  27.116  1.00  0.00     0.023 C 
BRANCH  21  22
ATOM     22  C   UNL A   1      33.923  29.285  26.301  1.00  0.00     0.116 C 
BRANCH  22  23
ATOM     23  N   UNL A   1      33.692  30.644  26.769  1.00  0.00    -0.352 N 
ATOM     24  C   UNL A   1      34.419  31.369  27.681  1.00  0.00     0.251 C 
ATOM     25  H   UNL A   1      32.912  31.103  26.381  1.00  0.00     0.163 HD
ATOM     26  O   UNL A   1      34.014  32.464  28.060  1.00  0.00    -0.269 OA
BRANCH  24  27
ATOM     27  C   UNL A   1      35.666  30.798  28.228  1.00  0.00     0.039 A 
ATOM     28  C   UNL A   1      36.886  31.355  27.843  1.00  0.00     0.014 A 
ATOM     29  C   UNL A   1      35.625  29.748  29.150  1.00  0.00     0.014 A 
ATOM     30  C   UNL A   1      38.064  30.903  28.438  1.00  0.00     0.010 A 
ATOM     31  C   UNL A   1      36.791  29.354  29.799  1.00  0.00     0.010 A 
ATOM     32  C   UNL A   1      38.023  29.928  29.451  1.00  0.00    -0.014 A 
BRANCH  32  33
ATOM     33  C   UNL A   1      39.260  29.524  30.167  1.00  0.00     0.031 A 
ATOM     34  C   UNL A   1      39.674  30.226  31.432  1.00  0.00     0.074 A 
ATOM     35  C   UNL A   1      40.033  28.548  29.649  1.00  0.00     0.049 A 
ATOM     36  N   UNL A   1      40.718  30.006  32.189  1.00  0.00    -0.248 NA
ATOM     37  C   UNL A   1      38.821  31.332  31.894  1.00  0.00     0.031 C 
ATOM     38  C   UNL A   1      39.765  27.828  28.401  1.00  0.00     0.029 A 
ATOM     39  N   UNL A   1      41.200  27.990  30.108  1.00  0.00    -0.354 N 
ATOM     40  C   UNL A   1      40.652  30.947  33.210  1.00  0.00     0.074 A 
ATOM     41  C   UNL A   1      39.498  31.777  32.944  1.00  0.00     0.031 C 
ATOM     42  C   UNL A   1      40.716  26.899  28.216  1.00  0.00     0.029 A 
ATOM     43  C   UNL A   1      41.683  26.983  29.305  1.00  0.00     0.049 A 
ATOM     44  H   UNL A   1      41.648  28.283  30.934  1.00  0.00     0.167 HD
ATOM     45  C   UNL A   1      41.464  31.093  34.283  1.00  0.00     0.031 A 
ATOM     46  C   UNL A   1      42.783  26.215  29.429  1.00  0.00     0.031 A 
ATOM     47  C   UNL A   1      42.611  30.263  34.544  1.00  0.00     0.049 A 
ATOM     48  C   UNL A   1      43.676  26.405  30.624  1.00  0.00     0.074 A 
ATOM     49  C   UNL A   1      43.465  30.295  35.634  1.00  0.00     0.029 A 
ATOM     50  N   UNL A   1      43.070  29.258  33.706  1.00  0.00    -0.354 N 
ATOM     51  N   UNL A   1      43.549  27.249  31.621  1.00  0.00    -0.248 NA
ATOM     52  C   UNL A   1      44.852  25.530  30.717  1.00  0.00     0.031 C 
ATOM     53  C   UNL A   1      44.476  29.351  35.423  1.00  0.00     0.029 A 
ATOM     54  C   UNL A   1      44.213  28.683  34.238  1.00  0.00     0.049 A 
ATOM     55  H   UNL A   1      42.646  28.991  32.859  1.00  0.00     0.167 HD
ATOM     56  C   UNL A   1      44.617  26.988  32.474  1.00  0.00     0.074 A 
ATOM     57  C   UNL A   1      45.363  25.895  31.885  1.00  0.00     0.031 C 
ATOM     58  C   UNL A   1      44.952  27.601  33.637  1.00  0.00     0.031 A 
BRANCH  45  59
ATOM     59  C   UNL A   1      41.144  32.198  35.257  1.00  0.00    -0.014 A 
ATOM     60  C   UNL A   1      40.426  31.942  36.440  1.00  0.00     0.010 A 
ATOM     61  C   UNL A   1      41.609  33.503  35.011  1.00  0.00     0.010 A 
ATOM     62  C   UNL A   1      40.147  32.976  37.338  1.00  0.00     0.020 A 
ATOM     63  C   UNL A   1      41.359  34.534  35.923  1.00  0.00     0.020 A 
ATOM     64  C   UNL A   1      40.616  34.265  37.074  1.00  0.00     0.054 A 
BRANCH  64  65
ATOM     65  S   UNL A   1      40.266  35.579  38.274  1.00  0.00     0.124 S 
ATOM     66  O   UNL A   1      39.963  36.711  37.402  1.00  0.00    -0.237 OA
ATOM     67  O   UNL A   1      39.130  35.038  39.016  1.00  0.00    -0.237 OA
ATOM     68  O   UNL A   1      41.507  35.695  39.036  1.00  0.00    -0.744 OA
ENDBRANCH  64  65
ENDBRANCH  45  59
BRANCH  46  69
ATOM     69  C   UNL A   1      43.093  25.184  28.398  1.00  0.00    -0.014 A 
ATOM     70  C   UNL A   1      42.615  23.868  28.531  1.00  0.00     0.010 A 
ATOM     71  C   UNL A   1      43.866  25.518  27.271  1.00  0.00     0.010 A 
ATOM     72  C   UNL A   1      42.925  22.900  27.570  1.00  0.00     0.020 A 
ATOM     73  C   UNL A   1      44.151  24.562  26.292  1.00  0.00     0.020 A 
ATOM     74  C   UNL A   1      43.689  23.255  26.455  1.00  0.00     0.054 A 
BRANCH  74  75
ATOM     75  S   UNL A   1      44.039  21.994  25.199  1.00  0.00     0.124 S 
ATOM     76  O   UNL A   1      43.092  20.942  25.553  1.00  0.00    -0.237 OA
ATOM     77  O   UNL A   1      43.763  22.704  23.953  1.00  0.00    -0.237 OA
ATOM     78  O   UNL A   1      45.447  21.670  25.424  1.00  0.00    -0.744 OA
ENDBRANCH  74  75
ENDBRANCH  46  69
BRANCH  58  79
ATOM     79  C   UNL A   1      46.164  27.083  34.365  1.00  0.00    -0.014 A 
ATOM     80  C   UNL A   1      47.438  27.645  34.161  1.00  0.00     0.010 A 
ATOM     81  C   UNL A   1      46.021  26.035  35.293  1.00  0.00     0.010 A 
ATOM     82  C   UNL A   1      48.551  27.139  34.837  1.00  0.00     0.020 A 
ATOM     83  C   UNL A   1      47.125  25.549  35.996  1.00  0.00     0.020 A 
ATOM     84  C   UNL A   1      48.387  26.091  35.749  1.00  0.00     0.054 A 
BRANCH  84  85
ATOM     85  S   UNL A   1      49.845  25.466  36.628  1.00  0.00     0.124 S 
ATOM     86  O   UNL A   1      50.781  25.225  35.534  1.00  0.00    -0.237 OA
ATOM     87  O   UNL A   1      50.186  26.578  37.513  1.00  0.00    -0.237 OA
ATOM     88  O   UNL A   1      49.355  24.267  37.305  1.00  0.00    -0.744 OA
ENDBRANCH  84  85
ENDBRANCH  58  79
ENDBRANCH  32  33
ENDBRANCH  24  27
ENDBRANCH  22  23
ENDBRANCH  21  22
ENDBRANCH   1  21
TORSDOF 17
ENDMDL
MODEL 2
REMARK VINA RESULT:     -10.0      3.397      9.721
REMARK SMILES CC(C)(C)C(=O)NCc1ccc(C(=O)NCCCCNC(=O)c2ccc(-c3c4nc(c(-c5ccc(S(=O)(=O)[O-])cc5)c5ccc([nH]5)c(-c5ccc(S(=O)(=O)[O-])cc5)c5nc(c(-c6ccc(S(=O)(=O)[O-])cc6)c6ccc3[nH]6)C=C5)C=C4)cc2)o1
REMARK SMILES IDX 17 1 16 2 15 3 13 4 14 5 12 7 9 8 10 9 83 10 11 11 8 12 7 13
REMARK SMILES IDX 5 14 6 15 2 17 1 18 3 19 4 20 18 21 19 22 20 23 21 24 22 26
REMARK SMILES IDX 23 27 24 28 82 29 25 30 81 31 26 32 27 33 28 34 75 35 29 36
REMARK SMILES IDX 80 37 74 38 76 39 30 40 79 41 73 42 72 43 31 45 61 46 42 47
REMARK SMILES IDX 60 48 43 49 46 50 59 51 77 52 44 53 45 54 58 56 78 57 47 58
REMARK SMILES IDX 32 59 33 60 41 61 34 62 40 63 35 64 36 65 37 66 38 67 39 68
REMARK SMILES IDX 62 69 63 70 71 71 64 72 70 73 65 74 66 75 67 76 68 77 69 78
REMARK SMILES IDX 48 79 49 80 57 81 50 82 56 83 51 84 52 85 53 86 54 87 55 88
REMARK H PARENT 15 6 7 16 20 25 76 44 46 55
REMARK Flexibility Score: inf
ROOT
ATOM      1  C   UNL A   1      44.266  23.110  28.505  1.00  0.00     0.023 C 
ENDROOT
BRANCH   1   2
ATOM      2  C   UNL A   1      42.816  22.835  28.900  1.00  0.00     0.116 C 
BRANCH   2   3
ATOM      3  N   UNL A   1      42.359  21.576  28.361  1.00  0.00    -0.349 N 
ATOM      4  C   UNL A   1      41.248  21.260  27.614  1.00  0.00     0.286 C 
ATOM      5  O   UNL A   1      41.158  20.081  27.267  1.00  0.00    -0.266 OA
ATOM      6  H   UNL A   1      42.945  20.810  28.564  1.00  0.00     0.163 HD
BRANCH   4   7
ATOM      7  C   UNL A   1      40.261  22.262  27.247  1.00  0.00     0.191 A 
ATOM      8  C   UNL A   1      38.521  22.937  26.047  1.00  0.00     0.124 A 
ATOM      9  C   UNL A   1      38.872  23.999  26.849  1.00  0.00     0.048 A 
ATOM     10  O   UNL A   1      39.358  21.891  26.275  1.00  0.00    -0.454 OA
ATOM     11  C   UNL A   1      39.954  23.553  27.644  1.00  0.00     0.056 A 
BRANCH   8  12
ATOM     12  C   UNL A   1      37.461  22.712  25.034  1.00  0.00     0.191 C 
BRANCH  12  13
ATOM     13  N   UNL A   1      37.310  21.287  24.824  1.00  0.00    -0.348 N 
ATOM     14  C   UNL A   1      36.256  20.448  24.979  1.00  0.00     0.225 C 
ATOM     15  O   UNL A   1      36.522  19.242  24.938  1.00  0.00    -0.275 OA
ATOM     16  H   UNL A   1      38.130  20.841  24.509  1.00  0.00     0.163 HD
BRANCH  14  17
ATOM     17  C   UNL A   1      34.807  20.945  25.164  1.00  0.00     0.041 C 
ATOM     18  C   UNL A   1      34.551  22.068  24.130  1.00  0.00     0.021 C 
ATOM     19  C   UNL A   1      34.626  21.564  26.557  1.00  0.00     0.021 C 
ATOM     20  C   UNL A   1      33.771  19.846  24.896  1.00  0.00     0.021 C 
ENDBRANCH  14  17
ENDBRANCH  12  13
ENDBRANCH   8  12
ENDBRANCH   4   7
ENDBRANCH   2   3
ENDBRANCH   1   2
BRANCH   1  21
ATOM     21  C   UNL A   1      44.477  23.236  26.992  1.00  0.00     0.023 C 
BRANCH  21  22
ATOM     22  C   UNL A   1      44.888  24.626  26.511  1.00  0.00     0.116 C 
BRANCH  22  23
ATOM     23  N   UNL A   1      43.997  25.168  25.496  1.00  0.00    -0.352 N 
ATOM     24  C   UNL A   1      42.993  26.093  25.646  1.00  0.00     0.251 C 
ATOM     25  H   UNL A   1      44.130  24.826  24.583  1.00  0.00     0.163 HD
ATOM     26  O   UNL A   1      42.248  26.352  24.706  1.00  0.00    -0.269 OA
BRANCH  24  27
ATOM     27  C   UNL A   1      42.798  26.740  26.959  1.00  0.00     0.039 A 
ATOM     28  C   UNL A   1      43.476  27.929  27.232  1.00  0.00     0.014 A 
ATOM     29  C   UNL A   1      41.914  26.197  27.897  1.00  0.00     0.014 A 
ATOM     30  C   UNL A   1      43.215  28.610  28.420  1.00  0.00     0.010 A 
ATOM     31  C   UNL A   1      41.597  26.919  29.044  1.00  0.00     0.010 A 
ATOM     32  C   UNL A   1      42.242  28.133  29.317  1.00  0.00    -0.014 A 
BRANCH  32  33
ATOM     33  C   UNL A   1      41.878  28.912  30.528  1.00  0.00     0.031 A 
ATOM     34  C   UNL A   1      42.679  28.772  31.795  1.00  0.00     0.074 A 
ATOM     35  C   UNL A   1      40.795  29.714  30.496  1.00  0.00     0.049 A 
ATOM     36  N   UNL A   1      42.509  29.373  32.945  1.00  0.00    -0.248 NA
ATOM     37  C   UNL A   1      43.801  27.820  31.777  1.00  0.00     0.031 C 
ATOM     38  C   UNL A   1      39.907  29.892  29.344  1.00  0.00     0.029 A 
ATOM     39  N   UNL A   1      40.256  30.533  31.458  1.00  0.00    -0.354 N 
ATOM     40  C   UNL A   1      43.493  28.869  33.786  1.00  0.00     0.074 A 
ATOM     41  C   UNL A   1      44.220  27.871  33.033  1.00  0.00     0.031 C 
ATOM     42  C   UNL A   1      38.961  30.794  29.652  1.00  0.00     0.029 A 
ATOM     43  C   UNL A   1      39.147  31.226  31.033  1.00  0.00     0.049 A 
ATOM     44  H   UNL A   1      40.629  30.615  32.364  1.00  0.00     0.167 HD
ATOM     45  C   UNL A   1      43.780  29.220  35.062  1.00  0.00     0.031 A 
ATOM     46  C   UNL A   1      38.363  32.109  31.683  1.00  0.00     0.031 A 
ATOM     47  C   UNL A   1      43.054  30.216  35.806  1.00  0.00     0.049 A 
ATOM     48  C   UNL A   1      38.696  32.472  33.104  1.00  0.00     0.074 A 
ATOM     49  C   UNL A   1      43.302  30.683  37.086  1.00  0.00     0.029 A 
ATOM     50  N   UNL A   1      41.934  30.891  35.344  1.00  0.00    -0.354 N 
ATOM     51  N   UNL A   1      39.682  32.042  33.856  1.00  0.00    -0.248 NA
ATOM     52  C   UNL A   1      37.819  33.451  33.760  1.00  0.00     0.031 C 
ATOM     53  C   UNL A   1      42.295  31.594  37.420  1.00  0.00     0.029 A 
ATOM     54  C   UNL A   1      41.462  31.749  36.324  1.00  0.00     0.049 A 
ATOM     55  H   UNL A   1      41.535  30.779  34.451  1.00  0.00     0.167 HD
ATOM     56  C   UNL A   1      39.558  32.718  35.065  1.00  0.00     0.074 A 
ATOM     57  C   UNL A   1      38.416  33.600  34.933  1.00  0.00     0.031 C 
ATOM     58  C   UNL A   1      40.317  32.615  36.184  1.00  0.00     0.031 A 
BRANCH  45  59
ATOM     59  C   UNL A   1      44.929  28.517  35.738  1.00  0.00    -0.014 A 
ATOM     60  C   UNL A   1      46.238  29.031  35.675  1.00  0.00     0.010 A 
ATOM     61  C   UNL A   1      44.691  27.352  36.490  1.00  0.00     0.010 A 
ATOM     62  C   UNL A   1      47.290  28.374  36.318  1.00  0.00     0.020 A 
ATOM     63  C   UNL A   1      45.736  26.708  37.160  1.00  0.00     0.020 A 
ATOM     64  C   UNL A   1      47.032  27.216  37.057  1.00  0.00     0.054 A 
BRANCH  64  65
ATOM     65  S   UNL A   1      48.413  26.404  37.906  1.00  0.00     0.124 S 
ATOM     66  O   UNL A   1      47.721  25.412  38.726  1.00  0.00    -0.237 OA
ATOM     67  O   UNL A   1      49.196  25.864  36.798  1.00  0.00    -0.237 OA
ATOM     68  O   UNL A   1      49.052  27.488  38.648  1.00  0.00    -0.744 OA
ENDBRANCH  64  65
ENDBRANCH  45  59
BRANCH  46  69
ATOM     69  C   UNL A   1      37.195  32.720  30.990  1.00  0.00    -0.014 A 
ATOM     70  C   UNL A   1      37.356  33.857  30.177  1.00  0.00     0.010 A 
ATOM     71  C   UNL A   1      35.911  32.164  31.137  1.00  0.00     0.010 A 
ATOM     72  C   UNL A   1      36.253  34.438  29.544  1.00  0.00     0.020 A 
ATOM     73  C   UNL A   1      34.812  32.722  30.479  1.00  0.00     0.020 A 
ATOM     74  C   UNL A   1      34.987  33.864  29.697  1.00  0.00     0.054 A 
BRANCH  74  75
ATOM     75  S   UNL A   1      33.579  34.609  28.829  1.00  0.00     0.124 S 
ATOM     76  O   UNL A   1      32.696  34.969  29.935  1.00  0.00    -0.237 OA
ATOM     77  O   UNL A   1      34.200  35.727  28.123  1.00  0.00    -0.237 OA
ATOM     78  O   UNL A   1      33.098  33.529  27.970  1.00  0.00    -0.744 OA
ENDBRANCH  74  75
ENDBRANCH  46  69
BRANCH  58  79
ATOM     79  C   UNL A   1      39.955  33.500  37.347  1.00  0.00    -0.014 A 
ATOM     80  C   UNL A   1      40.513  34.784  37.494  1.00  0.00     0.010 A 
ATOM     81  C   UNL A   1      39.015  33.053  38.294  1.00  0.00     0.010 A 
ATOM     82  C   UNL A   1      40.173  35.583  38.588  1.00  0.00     0.020 A 
ATOM     83  C   UNL A   1      38.645  33.862  39.371  1.00  0.00     0.020 A 
ATOM     84  C   UNL A   1      39.242  35.114  39.522  1.00  0.00     0.054 A 
BRANCH  84  85
ATOM     85  S   UNL A   1      38.803  36.180  40.922  1.00  0.00     0.124 S 
ATOM     86  O   UNL A   1      40.055  36.232  41.670  1.00  0.00    -0.237 OA
ATOM     87  O   UNL A   1      38.410  37.425  40.266  1.00  0.00    -0.237 OA
ATOM     88  O   UNL A   1      37.715  35.458  41.579  1.00  0.00    -0.744 OA
ENDBRANCH  84  85
ENDBRANCH  58  79
ENDBRANCH  32  33
ENDBRANCH  24  27
ENDBRANCH  22  23
ENDBRANCH  21  22
ENDBRANCH   1  21
TORSDOF 17
ENDMDL
MODEL 3
REMARK VINA RESULT:     -10.0      3.045      8.623
REMARK SMILES CC(C)(C)C(=O)NCc1ccc(C(=O)NCCCCNC(=O)c2ccc(-c3c4nc(c(-c5ccc(S(=O)(=O)[O-])cc5)c5ccc([nH]5)c(-c5ccc(S(=O)(=O)[O-])cc5)c5nc(c(-c6ccc(S(=O)(=O)[O-])cc6)c6ccc3[nH]6)C=C5)C=C4)cc2)o1
REMARK SMILES IDX 17 1 16 2 15 3 13 4 14 5 12 7 9 8 10 9 83 10 11 11 8 12 7 13
REMARK SMILES IDX 5 14 6 15 2 17 1 18 3 19 4 20 18 21 19 22 20 23 21 24 22 26
REMARK SMILES IDX 23 27 24 28 82 29 25 30 81 31 26 32 27 33 28 34 75 35 29 36
REMARK SMILES IDX 80 37 74 38 76 39 30 40 79 41 73 42 72 43 31 45 61 46 42 47
REMARK SMILES IDX 60 48 43 49 46 50 59 51 77 52 44 53 45 54 58 56 78 57 47 58
REMARK SMILES IDX 32 59 33 60 41 61 34 62 40 63 35 64 36 65 37 66 38 67 39 68
REMARK SMILES IDX 62 69 63 70 71 71 64 72 70 73 65 74 66 75 67 76 68 77 69 78
REMARK SMILES IDX 48 79 49 80 57 81 50 82 56 83 51 84 52 85 53 86 54 87 55 88
REMARK H PARENT 15 6 7 16 20 25 76 44 46 55
REMARK Flexibility Score: inf
ROOT
ATOM      1  C   UNL A   1      33.573  27.000  25.026  1.00  0.00     0.023 C 
ENDROOT
BRANCH   1   2
ATOM      2  C   UNL A   1      32.235  26.907  24.297  1.00  0.00     0.116 C 
BRANCH   2   3
ATOM      3  N   UNL A   1      31.143  26.755  25.230  1.00  0.00    -0.349 N 
ATOM      4  C   UNL A   1      30.658  25.647  25.886  1.00  0.00     0.286 C 
ATOM      5  O   UNL A   1      29.724  25.854  26.662  1.00  0.00    -0.266 OA
ATOM      6  H   UNL A   1      30.662  27.590  25.433  1.00  0.00     0.163 HD
BRANCH   4   7
ATOM      7  C   UNL A   1      31.231  24.326  25.683  1.00  0.00     0.191 A 
ATOM      8  C   UNL A   1      32.670  22.722  26.215  1.00  0.00     0.124 A 
ATOM      9  C   UNL A   1      31.955  22.257  25.134  1.00  0.00     0.048 A 
ATOM     10  O   UNL A   1      32.245  23.970  26.545  1.00  0.00    -0.454 OA
ATOM     11  C   UNL A   1      31.009  23.263  24.824  1.00  0.00     0.056 A 
BRANCH   8  12
ATOM     12  C   UNL A   1      33.756  22.162  27.055  1.00  0.00     0.191 C 
BRANCH  12  13
ATOM     13  N   UNL A   1      34.935  22.989  26.908  1.00  0.00    -0.348 N 
ATOM     14  C   UNL A   1      36.004  22.916  26.076  1.00  0.00     0.225 C 
ATOM     15  O   UNL A   1      36.957  23.648  26.365  1.00  0.00    -0.275 OA
ATOM     16  H   UNL A   1      34.968  23.751  27.531  1.00  0.00     0.163 HD
BRANCH  14  17
ATOM     17  C   UNL A   1      36.037  22.009  24.829  1.00  0.00     0.041 C 
ATOM     18  C   UNL A   1      35.217  22.701  23.713  1.00  0.00     0.021 C 
ATOM     19  C   UNL A   1      35.355  20.666  25.124  1.00  0.00     0.021 C 
ATOM     20  C   UNL A   1      37.457  21.814  24.283  1.00  0.00     0.021 C 
ENDBRANCH  14  17
ENDBRANCH  12  13
ENDBRANCH   8  12
ENDBRANCH   4   7
ENDBRANCH   2   3
ENDBRANCH   1   2
BRANCH   1  21
ATOM     21  C   UNL A   1      33.861  28.389  25.607  1.00  0.00     0.023 C 
BRANCH  21  22
ATOM     22  C   UNL A   1      33.753  28.489  27.127  1.00  0.00     0.116 C 
BRANCH  22  23
ATOM     23  N   UNL A   1      33.614  29.858  27.603  1.00  0.00    -0.352 N 
ATOM     24  C   UNL A   1      34.538  30.630  28.263  1.00  0.00     0.251 C 
ATOM     25  H   UNL A   1      32.744  30.284  27.431  1.00  0.00     0.163 HD
ATOM     26  O   UNL A   1      34.217  31.728  28.709  1.00  0.00    -0.269 OA
BRANCH  24  27
ATOM     27  C   UNL A   1      35.904  30.108  28.464  1.00  0.00     0.039 A 
ATOM     28  C   UNL A   1      36.810  30.167  27.404  1.00  0.00     0.014 A 
ATOM     29  C   UNL A   1      36.300  29.605  29.707  1.00  0.00     0.014 A 
ATOM     30  C   UNL A   1      38.135  29.783  27.612  1.00  0.00     0.010 A 
ATOM     31  C   UNL A   1      37.639  29.299  29.933  1.00  0.00     0.010 A 
ATOM     32  C   UNL A   1      38.570  29.386  28.889  1.00  0.00    -0.014 A 
BRANCH  32  33
ATOM     33  C   UNL A   1      40.002  29.085  29.144  1.00  0.00     0.031 A 
ATOM     34  C   UNL A   1      40.578  27.743  28.779  1.00  0.00     0.074 A 
ATOM     35  C   UNL A   1      40.774  30.012  29.748  1.00  0.00     0.049 A 
ATOM     36  N   UNL A   1      41.803  27.307  28.925  1.00  0.00    -0.248 NA
ATOM     37  C   UNL A   1      39.656  26.756  28.194  1.00  0.00     0.031 C 
ATOM     38  C   UNL A   1      40.319  31.330  30.198  1.00  0.00     0.029 A 
ATOM     39  N   UNL A   1      42.105  29.990  30.083  1.00  0.00    -0.354 N 
ATOM     40  C   UNL A   1      41.797  25.997  28.461  1.00  0.00     0.074 A 
ATOM     41  C   UNL A   1      40.436  25.690  28.081  1.00  0.00     0.031 C 
ATOM     42  C   UNL A   1      41.360  32.003  30.712  1.00  0.00     0.029 A 
ATOM     43  C   UNL A   1      42.545  31.153  30.670  1.00  0.00     0.049 A 
ATOM     44  H   UNL A   1      42.688  29.214  29.920  1.00  0.00     0.167 HD
ATOM     45  C   UNL A   1      42.835  25.136  28.339  1.00  0.00     0.031 A 
ATOM     46  C   UNL A   1      43.765  31.498  31.126  1.00  0.00     0.031 A 
ATOM     47  C   UNL A   1      44.189  25.448  28.718  1.00  0.00     0.049 A 
ATOM     48  C   UNL A   1      44.898  30.519  30.991  1.00  0.00     0.074 A 
ATOM     49  C   UNL A   1      45.321  24.662  28.582  1.00  0.00     0.029 A 
ATOM     50  N   UNL A   1      44.593  26.633  29.312  1.00  0.00    -0.354 N 
ATOM     51  N   UNL A   1      44.888  29.313  30.473  1.00  0.00    -0.248 NA
ATOM     52  C   UNL A   1      46.211  30.952  31.489  1.00  0.00     0.031 C 
ATOM     53  C   UNL A   1      46.398  25.349  29.152  1.00  0.00     0.029 A 
ATOM     54  C   UNL A   1      45.952  26.590  29.578  1.00  0.00     0.049 A 
ATOM     55  H   UNL A   1      44.002  27.395  29.514  1.00  0.00     0.167 HD
ATOM     56  C   UNL A   1      46.198  28.853  30.561  1.00  0.00     0.074 A 
ATOM     57  C   UNL A   1      46.974  29.920  31.159  1.00  0.00     0.031 C 
ATOM     58  C   UNL A   1      46.711  27.655  30.184  1.00  0.00     0.031 A 
BRANCH  45  59
ATOM     59  C   UNL A   1      42.545  23.768  27.778  1.00  0.00    -0.014 A 
ATOM     60  C   UNL A   1      42.435  23.557  26.391  1.00  0.00     0.010 A 
ATOM     61  C   UNL A   1      42.430  22.666  28.646  1.00  0.00     0.010 A 
ATOM     62  C   UNL A   1      42.178  22.280  25.886  1.00  0.00     0.020 A 
ATOM     63  C   UNL A   1      42.204  21.381  28.142  1.00  0.00     0.020 A 
ATOM     64  C   UNL A   1      42.064  21.200  26.765  1.00  0.00     0.054 A 
BRANCH  64  65
ATOM     65  S   UNL A   1      41.762  19.549  26.077  1.00  0.00     0.124 S 
ATOM     66  O   UNL A   1      40.358  19.639  25.684  1.00  0.00    -0.237 OA
ATOM     67  O   UNL A   1      42.719  19.482  24.976  1.00  0.00    -0.237 OA
ATOM     68  O   UNL A   1      42.038  18.650  27.195  1.00  0.00    -0.744 OA
ENDBRANCH  64  65
ENDBRANCH  45  59
BRANCH  46  69
ATOM     69  C   UNL A   1      43.981  32.839  31.739  1.00  0.00    -0.014 A 
ATOM     70  C   UNL A   1      44.345  33.942  30.946  1.00  0.00     0.010 A 
ATOM     71  C   UNL A   1      43.818  33.020  33.125  1.00  0.00     0.010 A 
ATOM     72  C   UNL A   1      44.564  35.194  31.530  1.00  0.00     0.020 A 
ATOM     73  C   UNL A   1      44.004  34.276  33.707  1.00  0.00     0.020 A 
ATOM     74  C   UNL A   1      44.389  35.353  32.908  1.00  0.00     0.054 A 
BRANCH  74  75
ATOM     75  S   UNL A   1      44.635  36.997  33.635  1.00  0.00     0.124 S 
ATOM     76  O   UNL A   1      46.088  37.135  33.589  1.00  0.00    -0.237 OA
ATOM     77  O   UNL A   1      43.886  37.859  32.725  1.00  0.00    -0.237 OA
ATOM     78  O   UNL A   1      44.061  36.867  34.973  1.00  0.00    -0.744 OA
ENDBRANCH  74  75
ENDBRANCH  46  69
BRANCH  58  79
ATOM     79  C   UNL A   1      48.190  27.446  30.382  1.00  0.00    -0.014 A 
ATOM     80  C   UNL A   1      48.698  26.888  31.570  1.00  0.00     0.010 A 
ATOM     81  C   UNL A   1      49.083  27.784  29.349  1.00  0.00     0.010 A 
ATOM     82  C   UNL A   1      50.075  26.716  31.737  1.00  0.00     0.020 A 
ATOM     83  C   UNL A   1      50.457  27.581  29.499  1.00  0.00     0.020 A 
ATOM     84  C   UNL A   1      50.946  27.067  30.701  1.00  0.00     0.054 A 
BRANCH  84  85
ATOM     85  S   UNL A   1      52.726  26.813  30.936  1.00  0.00     0.124 S 
ATOM     86  O   UNL A   1      53.203  26.707  29.560  1.00  0.00    -0.237 OA
ATOM     87  O   UNL A   1      53.130  28.023  31.649  1.00  0.00    -0.237 OA
ATOM     88  O   UNL A   1      52.801  25.582  31.719  1.00  0.00    -0.744 OA
ENDBRANCH  84  85
ENDBRANCH  58  79
ENDBRANCH  32  33
ENDBRANCH  24  27
ENDBRANCH  22  23
ENDBRANCH  21  22
ENDBRANCH   1  21
TORSDOF 17
ENDMDL
