MODEL 1
REMARK VINA RESULT:     -12.6      0.000      0.000
REMARK SMILES O=C(NCCCCNC(=O)[C@H]1[C@H]2CC[C@H](C2)[C@@H]1C(=O)Nc1sc2c(c1C(=O)NC1CCCCC1)CCCC2)c1ccc(-c2c3nc(c(-c4ccc(S(=O)(=O)[O-])cc4)c4ccc([nH]4)c(-c4ccc(S(=O)(=O)[O-])cc4)c4nc(c(-c5ccc(S(=O)(=O)[O-])cc5)c5ccc2[nH]5)C=C4)C=C3)cc1
REMARK SMILES IDX 6 1 5 2 4 3 3 4 1 5 2 6 39 8 40 9 98 10 41 11 97 12 42 13
REMARK SMILES IDX 43 14 44 15 91 16 45 17 96 18 90 19 92 20 46 21 95 22 89 23
REMARK SMILES IDX 88 24 47 26 77 27 58 28 76 29 59 30 62 31 75 32 93 33 60 34
REMARK SMILES IDX 61 35 74 37 94 38 63 39 48 40 49 41 57 42 50 43 56 44 51 45
REMARK SMILES IDX 52 46 53 47 54 48 55 49 78 50 79 51 87 52 80 53 86 54 81 55
REMARK SMILES IDX 82 56 83 57 84 58 85 59 64 60 65 61 73 62 66 63 72 64 67 65
REMARK SMILES IDX 68 66 69 67 70 68 71 69 7 70 8 71 9 72 10 74 11 75 12 76
REMARK SMILES IDX 17 77 13 78 16 79 15 80 14 81 18 82 19 83 20 84 21 86 22 87
REMARK SMILES IDX 25 88 23 89 24 90 38 91 35 92 37 93 36 94 26 95 27 96 28 97
REMARK SMILES IDX 29 99 30 100 34 101 31 102 33 103 32 104
REMARK H PARENT 3 7 92 25 62 36 8 73 20 85 28 98
REMARK Flexibility Score: inf
ROOT
ATOM      1  C   UNL A   1      31.722  28.214  25.947  1.00  0.00     0.023 C 
ENDROOT
BRANCH   1   2
ATOM      2  C   UNL A   1      33.019  27.526  26.383  1.00  0.00     0.023 C 
BRANCH   2   3
ATOM      3  C   UNL A   1      34.269  28.393  26.292  1.00  0.00     0.116 C 
BRANCH   3   4
ATOM      4  N   UNL A   1      34.013  29.767  26.691  1.00  0.00    -0.352 N 
ATOM      5  O   UNL A   1      34.272  31.640  27.921  1.00  0.00    -0.269 OA
ATOM      6  C   UNL A   1      34.733  30.564  27.544  1.00  0.00     0.251 C 
ATOM      7  H   UNL A   1      33.213  30.182  26.295  1.00  0.00     0.163 HD
BRANCH   6   8
ATOM      8  C   UNL A   1      36.056  30.114  28.023  1.00  0.00     0.039 A 
ATOM      9  C   UNL A   1      37.183  30.213  27.200  1.00  0.00     0.014 A 
ATOM     10  C   UNL A   1      36.171  29.594  29.314  1.00  0.00     0.014 A 
ATOM     11  C   UNL A   1      38.399  29.686  27.623  1.00  0.00     0.010 A 
ATOM     12  C   UNL A   1      37.410  29.137  29.766  1.00  0.00     0.010 A 
ATOM     13  C   UNL A   1      38.529  29.159  28.917  1.00  0.00    -0.014 A 
BRANCH  13  14
ATOM     14  C   UNL A   1      39.854  28.703  29.405  1.00  0.00     0.031 A 
ATOM     15  C   UNL A   1      40.744  29.617  30.198  1.00  0.00     0.074 A 
ATOM     16  C   UNL A   1      40.270  27.461  29.088  1.00  0.00     0.049 A 
ATOM     17  N   UNL A   1      41.960  29.406  30.636  1.00  0.00    -0.248 NA
ATOM     18  C   UNL A   1      40.205  30.943  30.534  1.00  0.00     0.031 C 
ATOM     19  C   UNL A   1      39.494  26.486  28.317  1.00  0.00     0.029 A 
ATOM     20  N   UNL A   1      41.446  26.811  29.359  1.00  0.00    -0.354 N 
ATOM     21  C   UNL A   1      42.344  30.579  31.275  1.00  0.00     0.074 A 
ATOM     22  C   UNL A   1      41.238  31.505  31.147  1.00  0.00     0.031 C 
ATOM     23  C   UNL A   1      40.212  25.362  28.183  1.00  0.00     0.029 A 
ATOM     24  C   UNL A   1      41.520  25.559  28.798  1.00  0.00     0.049 A 
ATOM     25  H   UNL A   1      42.167  27.203  29.904  1.00  0.00     0.167 HD
ATOM     26  C   UNL A   1      43.511  30.855  31.906  1.00  0.00     0.031 A 
ATOM     27  C   UNL A   1      42.537  24.679  28.738  1.00  0.00     0.031 A 
ATOM     28  C   UNL A   1      44.611  29.929  32.006  1.00  0.00     0.049 A 
ATOM     29  C   UNL A   1      43.838  25.019  29.403  1.00  0.00     0.074 A 
ATOM     30  C   UNL A   1      45.819  30.097  32.658  1.00  0.00     0.029 A 
ATOM     31  N   UNL A   1      44.645  28.671  31.420  1.00  0.00    -0.354 N 
ATOM     32  N   UNL A   1      44.165  26.113  30.050  1.00  0.00    -0.248 NA
ATOM     33  C   UNL A   1      44.903  24.012  29.339  1.00  0.00     0.031 C 
ATOM     34  C   UNL A   1      46.611  28.972  32.407  1.00  0.00     0.029 A 
ATOM     35  C   UNL A   1      45.867  28.066  31.665  1.00  0.00     0.049 A 
ATOM     36  H   UNL A   1      43.909  28.267  30.905  1.00  0.00     0.167 HD
ATOM     37  C   UNL A   1      45.468  25.915  30.492  1.00  0.00     0.074 A 
ATOM     38  C   UNL A   1      45.865  24.596  30.043  1.00  0.00     0.031 C 
ATOM     39  C   UNL A   1      46.255  26.752  31.212  1.00  0.00     0.031 A 
BRANCH  26  40
ATOM     40  C   UNL A   1      43.677  32.238  32.488  1.00  0.00    -0.014 A 
ATOM     41  C   UNL A   1      43.330  32.525  33.820  1.00  0.00     0.010 A 
ATOM     42  C   UNL A   1      44.202  33.268  31.685  1.00  0.00     0.010 A 
ATOM     43  C   UNL A   1      43.437  33.829  34.316  1.00  0.00     0.020 A 
ATOM     44  C   UNL A   1      44.344  34.565  32.187  1.00  0.00     0.020 A 
ATOM     45  C   UNL A   1      43.933  34.843  33.491  1.00  0.00     0.054 A 
BRANCH  45  46
ATOM     46  S   UNL A   1      44.033  36.531  34.149  1.00  0.00     0.124 S 
ATOM     47  O   UNL A   1      45.381  36.928  33.749  1.00  0.00    -0.237 OA
ATOM     48  O   UNL A   1      42.946  37.212  33.451  1.00  0.00    -0.237 OA
ATOM     49  O   UNL A   1      43.837  36.357  35.586  1.00  0.00    -0.744 OA
ENDBRANCH  45  46
ENDBRANCH  26  40
BRANCH  27  50
ATOM     50  C   UNL A   1      42.344  23.407  27.991  1.00  0.00    -0.014 A 
ATOM     51  C   UNL A   1      42.918  23.222  26.723  1.00  0.00     0.010 A 
ATOM     52  C   UNL A   1      41.657  22.336  28.596  1.00  0.00     0.010 A 
ATOM     53  C   UNL A   1      42.817  21.986  26.077  1.00  0.00     0.020 A 
ATOM     54  C   UNL A   1      41.579  21.091  27.967  1.00  0.00     0.020 A 
ATOM     55  C   UNL A   1      42.158  20.925  26.708  1.00  0.00     0.054 A 
BRANCH  55  56
ATOM     56  S   UNL A   1      42.130  19.305  25.894  1.00  0.00     0.124 S 
ATOM     57  O   UNL A   1      40.706  19.123  25.628  1.00  0.00    -0.237 OA
ATOM     58  O   UNL A   1      42.969  19.529  24.719  1.00  0.00    -0.237 OA
ATOM     59  O   UNL A   1      42.701  18.406  26.894  1.00  0.00    -0.744 OA
ENDBRANCH  55  56
ENDBRANCH  27  50
BRANCH  39  60
ATOM     60  C   UNL A   1      47.624  26.262  31.605  1.00  0.00    -0.014 A 
ATOM     61  C   UNL A   1      47.864  25.687  32.864  1.00  0.00     0.010 A 
ATOM     62  C   UNL A   1      48.661  26.287  30.653  1.00  0.00     0.010 A 
ATOM     63  C   UNL A   1      49.118  25.147  33.165  1.00  0.00     0.020 A 
ATOM     64  C   UNL A   1      49.906  25.725  30.940  1.00  0.00     0.020 A 
ATOM     65  C   UNL A   1      50.128  25.160  32.197  1.00  0.00     0.054 A 
BRANCH  65  66
ATOM     66  S   UNL A   1      51.715  24.369  32.580  1.00  0.00     0.124 S 
ATOM     67  O   UNL A   1      52.638  25.099  31.714  1.00  0.00    -0.237 OA
ATOM     68  O   UNL A   1      51.862  24.624  34.011  1.00  0.00    -0.237 OA
ATOM     69  O   UNL A   1      51.501  22.969  32.222  1.00  0.00    -0.744 OA
ENDBRANCH  65  66
ENDBRANCH  39  60
ENDBRANCH  13  14
ENDBRANCH   6   8
ENDBRANCH   3   4
ENDBRANCH   2   3
ENDBRANCH   1   2
BRANCH   1  70
ATOM     70  C   UNL A   1      30.779  27.334  25.130  1.00  0.00     0.116 C 
BRANCH  70  71
ATOM     71  N   UNL A   1      30.291  28.047  23.970  1.00  0.00    -0.356 N 
ATOM     72  C   UNL A   1      30.426  27.796  22.647  1.00  0.00     0.224 C 
ATOM     73  H   UNL A   1      29.772  28.857  24.178  1.00  0.00     0.163 HD
ATOM     74  O   UNL A   1      29.901  28.607  21.883  1.00  0.00    -0.275 OA
BRANCH  72  75
ATOM     75  C   UNL A   1      31.111  26.525  22.168  1.00  0.00     0.094 C 
ATOM     76  C   UNL A   1      32.409  26.885  21.370  1.00  0.00     0.002 C 
ATOM     77  C   UNL A   1      31.646  25.560  23.256  1.00  0.00     0.094 C 
ATOM     78  C   UNL A   1      33.526  27.557  22.192  1.00  0.00     0.005 C 
ATOM     79  C   UNL A   1      33.012  25.506  21.245  1.00  0.00     0.009 C 
ATOM     80  C   UNL A   1      33.081  25.268  22.758  1.00  0.00     0.002 C 
ATOM     81  C   UNL A   1      33.977  26.455  23.159  1.00  0.00     0.005 C 
BRANCH  77  82
ATOM     82  C   UNL A   1      30.763  24.351  23.652  1.00  0.00     0.229 C 
ATOM     83  O   UNL A   1      29.585  24.360  23.257  1.00  0.00    -0.274 OA
ATOM     84  N   UNL A   1      31.130  23.222  24.325  1.00  0.00    -0.317 N 
ATOM     85  H   UNL A   1      30.408  22.591  24.548  1.00  0.00     0.170 HD
BRANCH  84  86
ATOM     86  C   UNL A   1      32.390  22.870  24.727  1.00  0.00     0.108 A 
ATOM     87  S   UNL A   1      32.942  23.597  26.171  1.00  0.00    -0.122 S 
ATOM     88  C   UNL A   1      33.197  21.790  24.360  1.00  0.00     0.078 A 
ATOM     89  C   UNL A   1      34.527  23.137  25.766  1.00  0.00     0.011 A 
ATOM     90  C   UNL A   1      34.536  22.203  24.734  1.00  0.00    -0.019 A 
ATOM     91  C   UNL A   1      35.720  23.816  26.372  1.00  0.00     0.047 C 
ATOM     92  C   UNL A   1      35.831  21.896  24.064  1.00  0.00     0.037 C 
ATOM     93  C   UNL A   1      36.993  23.542  25.556  1.00  0.00     0.006 C 
ATOM     94  C   UNL A   1      37.021  22.117  25.004  1.00  0.00     0.005 C 
BRANCH  88  95
ATOM     95  C   UNL A   1      32.635  20.714  23.528  1.00  0.00     0.254 C 
ATOM     96  O   UNL A   1      32.008  20.999  22.499  1.00  0.00    -0.269 OA
ATOM     97  N   UNL A   1      32.596  19.378  23.825  1.00  0.00    -0.349 N 
ATOM     98  H   UNL A   1      31.908  18.937  23.277  1.00  0.00     0.164 HD
BRANCH  97  99
ATOM     99  C   UNL A   1      33.244  18.388  24.692  1.00  0.00     0.082 C 
ATOM    100  C   UNL A   1      32.227  17.309  25.087  1.00  0.00     0.025 C 
ATOM    101  C   UNL A   1      34.647  17.937  24.277  1.00  0.00     0.025 C 
ATOM    102  C   UNL A   1      32.836  16.146  25.855  1.00  0.00     0.002 C 
ATOM    103  C   UNL A   1      35.131  16.632  24.919  1.00  0.00     0.002 C 
ATOM    104  C   UNL A   1      34.060  15.573  25.161  1.00  0.00     0.000 C 
ENDBRANCH  97  99
ENDBRANCH  88  95
ENDBRANCH  84  86
ENDBRANCH  77  82
ENDBRANCH  72  75
ENDBRANCH  70  71
ENDBRANCH   1  70
TORSDOF 18
ENDMDL
MODEL 2
REMARK VINA RESULT:     -12.6      3.422      4.644
REMARK SMILES O=C(NCCCCNC(=O)[C@H]1[C@H]2CC[C@H](C2)[C@@H]1C(=O)Nc1sc2c(c1C(=O)NC1CCCCC1)CCCC2)c1ccc(-c2c3nc(c(-c4ccc(S(=O)(=O)[O-])cc4)c4ccc([nH]4)c(-c4ccc(S(=O)(=O)[O-])cc4)c4nc(c(-c5ccc(S(=O)(=O)[O-])cc5)c5ccc2[nH]5)C=C4)C=C3)cc1
REMARK SMILES IDX 6 1 5 2 4 3 3 4 1 5 2 6 39 8 40 9 98 10 41 11 97 12 42 13
REMARK SMILES IDX 43 14 44 15 91 16 45 17 96 18 90 19 92 20 46 21 95 22 89 23
REMARK SMILES IDX 88 24 47 26 77 27 58 28 76 29 59 30 62 31 75 32 93 33 60 34
REMARK SMILES IDX 61 35 74 37 94 38 63 39 48 40 49 41 57 42 50 43 56 44 51 45
REMARK SMILES IDX 52 46 53 47 54 48 55 49 78 50 79 51 87 52 80 53 86 54 81 55
REMARK SMILES IDX 82 56 83 57 84 58 85 59 64 60 65 61 73 62 66 63 72 64 67 65
REMARK SMILES IDX 68 66 69 67 70 68 71 69 7 70 8 71 9 72 10 74 11 75 12 76
REMARK SMILES IDX 17 77 13 78 16 79 15 80 14 81 18 82 19 83 20 84 21 86 22 87
REMARK SMILES IDX 25 88 23 89 24 90 38 91 35 92 37 93 36 94 26 95 27 96 28 97
REMARK SMILES IDX 29 99 30 100 34 101 31 102 33 103 32 104
REMARK H PARENT 3 7 92 25 62 36 8 73 20 85 28 98
REMARK Flexibility Score: inf
ROOT
ATOM      1  C   UNL A   1      33.673  30.588  27.237  1.00  0.00     0.023 C 
ENDROOT
BRANCH   1   2
ATOM      2  C   UNL A   1      35.007  30.100  27.811  1.00  0.00     0.023 C 
BRANCH   2   3
ATOM      3  C   UNL A   1      35.802  31.153  28.573  1.00  0.00     0.116 C 
BRANCH   3   4
ATOM      4  N   UNL A   1      35.672  31.002  30.012  1.00  0.00    -0.352 N 
ATOM      5  O   UNL A   1      36.188  30.201  32.057  1.00  0.00    -0.269 OA
ATOM      6  C   UNL A   1      36.539  30.412  30.897  1.00  0.00     0.251 C 
ATOM      7  H   UNL A   1      34.850  31.373  30.406  1.00  0.00     0.163 HD
BRANCH   6   8
ATOM      8  C   UNL A   1      37.888  30.015  30.445  1.00  0.00     0.039 A 
ATOM      9  C   UNL A   1      38.856  29.605  31.368  1.00  0.00     0.014 A 
ATOM     10  C   UNL A   1      38.184  30.047  29.081  1.00  0.00     0.014 A 
ATOM     11  C   UNL A   1      40.153  29.339  30.938  1.00  0.00     0.010 A 
ATOM     12  C   UNL A   1      39.465  29.705  28.645  1.00  0.00     0.010 A 
ATOM     13  C   UNL A   1      40.466  29.369  29.571  1.00  0.00    -0.014 A 
BRANCH  13  14
ATOM     14  C   UNL A   1      41.820  28.974  29.109  1.00  0.00     0.031 A 
ATOM     15  C   UNL A   1      42.930  29.982  29.014  1.00  0.00     0.074 A 
ATOM     16  C   UNL A   1      42.031  27.698  28.731  1.00  0.00     0.049 A 
ATOM     17  N   UNL A   1      44.147  29.825  28.561  1.00  0.00    -0.248 NA
ATOM     18  C   UNL A   1      42.632  31.345  29.479  1.00  0.00     0.031 C 
ATOM     19  C   UNL A   1      41.026  26.632  28.772  1.00  0.00     0.029 A 
ATOM     20  N   UNL A   1      43.147  27.084  28.225  1.00  0.00    -0.354 N 
ATOM     21  C   UNL A   1      44.754  31.071  28.658  1.00  0.00     0.074 A 
ATOM     22  C   UNL A   1      43.761  31.978  29.194  1.00  0.00     0.031 C 
ATOM     23  C   UNL A   1      41.573  25.496  28.319  1.00  0.00     0.029 A 
ATOM     24  C   UNL A   1      42.941  25.767  27.892  1.00  0.00     0.049 A 
ATOM     25  H   UNL A   1      44.012  27.541  28.113  1.00  0.00     0.167 HD
ATOM     26  C   UNL A   1      46.021  31.424  28.328  1.00  0.00     0.031 A 
ATOM     27  C   UNL A   1      43.742  24.880  27.270  1.00  0.00     0.031 A 
ATOM     28  C   UNL A   1      46.991  30.513  27.775  1.00  0.00     0.049 A 
ATOM     29  C   UNL A   1      45.125  25.300  26.870  1.00  0.00     0.074 A 
ATOM     30  C   UNL A   1      48.312  30.760  27.446  1.00  0.00     0.029 A 
ATOM     31  N   UNL A   1      46.741  29.187  27.450  1.00  0.00    -0.354 N 
ATOM     32  N   UNL A   1      45.702  26.469  27.020  1.00  0.00    -0.248 NA
ATOM     33  C   UNL A   1      45.969  24.287  26.226  1.00  0.00     0.031 C 
ATOM     34  C   UNL A   1      48.838  29.606  26.856  1.00  0.00     0.029 A 
ATOM     35  C   UNL A   1      47.871  28.613  26.890  1.00  0.00     0.049 A 
ATOM     36  H   UNL A   1      45.885  28.721  27.596  1.00  0.00     0.167 HD
ATOM     37  C   UNL A   1      46.986  26.325  26.510  1.00  0.00     0.074 A 
ATOM     38  C   UNL A   1      47.103  24.955  26.054  1.00  0.00     0.031 C 
ATOM     39  C   UNL A   1      47.977  27.247  26.437  1.00  0.00     0.031 A 
BRANCH  26  40
ATOM     40  C   UNL A   1      46.409  32.872  28.504  1.00  0.00    -0.014 A 
ATOM     41  C   UNL A   1      46.994  33.340  29.695  1.00  0.00     0.010 A 
ATOM     42  C   UNL A   1      46.192  33.779  27.451  1.00  0.00     0.010 A 
ATOM     43  C   UNL A   1      47.288  34.698  29.854  1.00  0.00     0.020 A 
ATOM     44  C   UNL A   1      46.516  35.132  27.593  1.00  0.00     0.020 A 
ATOM     45  C   UNL A   1      47.036  35.587  28.805  1.00  0.00     0.054 A 
BRANCH  45  46
ATOM     46  S   UNL A   1      47.398  37.348  29.049  1.00  0.00     0.124 S 
ATOM     47  O   UNL A   1      46.125  37.968  28.692  1.00  0.00    -0.237 OA
ATOM     48  O   UNL A   1      47.750  37.410  30.465  1.00  0.00    -0.237 OA
ATOM     49  O   UNL A   1      48.498  37.609  28.123  1.00  0.00    -0.744 OA
ENDBRANCH  45  46
ENDBRANCH  26  40
BRANCH  27  50
ATOM     50  C   UNL A   1      43.216  23.519  26.976  1.00  0.00    -0.014 A 
ATOM     51  C   UNL A   1      43.025  23.091  25.653  1.00  0.00     0.010 A 
ATOM     52  C   UNL A   1      42.993  22.612  28.030  1.00  0.00     0.010 A 
ATOM     53  C   UNL A   1      42.629  21.776  25.388  1.00  0.00     0.020 A 
ATOM     54  C   UNL A   1      42.627  21.290  27.769  1.00  0.00     0.020 A 
ATOM     55  C   UNL A   1      42.444  20.881  26.447  1.00  0.00     0.054 A 
BRANCH  55  56
ATOM     56  S   UNL A   1      42.032  19.155  26.071  1.00  0.00     0.124 S 
ATOM     57  O   UNL A   1      42.846  18.900  24.886  1.00  0.00    -0.237 OA
ATOM     58  O   UNL A   1      42.448  18.460  27.286  1.00  0.00    -0.237 OA
ATOM     59  O   UNL A   1      40.589  19.187  25.844  1.00  0.00    -0.744 OA
ENDBRANCH  55  56
ENDBRANCH  27  50
BRANCH  39  60
ATOM     60  C   UNL A   1      49.305  26.807  25.879  1.00  0.00    -0.014 A 
ATOM     61  C   UNL A   1      49.692  27.127  24.567  1.00  0.00     0.010 A 
ATOM     62  C   UNL A   1      50.221  26.150  26.722  1.00  0.00     0.010 A 
ATOM     63  C   UNL A   1      50.970  26.796  24.107  1.00  0.00     0.020 A 
ATOM     64  C   UNL A   1      51.508  25.841  26.277  1.00  0.00     0.020 A 
ATOM     65  C   UNL A   1      51.874  26.164  24.970  1.00  0.00     0.054 A 
BRANCH  65  66
ATOM     66  S   UNL A   1      53.556  25.831  24.379  1.00  0.00     0.124 S 
ATOM     67  O   UNL A   1      53.407  25.972  22.933  1.00  0.00    -0.237 OA
ATOM     68  O   UNL A   1      54.338  26.877  25.035  1.00  0.00    -0.237 OA
ATOM     69  O   UNL A   1      53.827  24.474  24.848  1.00  0.00    -0.744 OA
ENDBRANCH  65  66
ENDBRANCH  39  60
ENDBRANCH  13  14
ENDBRANCH   6   8
ENDBRANCH   3   4
ENDBRANCH   2   3
ENDBRANCH   1   2
BRANCH   1  70
ATOM     70  C   UNL A   1      33.043  29.653  26.207  1.00  0.00     0.116 C 
BRANCH  70  71
ATOM     71  N   UNL A   1      33.781  28.411  26.126  1.00  0.00    -0.356 N 
ATOM     72  C   UNL A   1      33.507  27.251  25.486  1.00  0.00     0.224 C 
ATOM     73  H   UNL A   1      34.630  28.409  26.625  1.00  0.00     0.163 HD
ATOM     74  O   UNL A   1      34.334  26.350  25.617  1.00  0.00    -0.275 OA
BRANCH  72  75
ATOM     75  C   UNL A   1      32.285  27.135  24.587  1.00  0.00     0.094 C 
ATOM     76  C   UNL A   1      32.540  27.886  23.238  1.00  0.00     0.002 C 
ATOM     77  C   UNL A   1      31.894  25.715  24.109  1.00  0.00     0.094 C 
ATOM     78  C   UNL A   1      33.647  27.289  22.347  1.00  0.00     0.005 C 
ATOM     79  C   UNL A   1      31.337  27.413  22.460  1.00  0.00     0.009 C 
ATOM     80  C   UNL A   1      31.688  25.926  22.590  1.00  0.00     0.002 C 
ATOM     81  C   UNL A   1      33.072  25.934  21.915  1.00  0.00     0.005 C 
BRANCH  77  82
ATOM     82  C   UNL A   1      30.784  24.966  24.887  1.00  0.00     0.229 C 
ATOM     83  O   UNL A   1      29.806  25.635  25.259  1.00  0.00    -0.274 OA
ATOM     84  N   UNL A   1      30.700  23.632  25.162  1.00  0.00    -0.317 N 
ATOM     85  H   UNL A   1      29.950  23.349  25.734  1.00  0.00     0.170 HD
BRANCH  84  86
ATOM     86  C   UNL A   1      31.541  22.642  24.731  1.00  0.00     0.108 A 
ATOM     87  S   UNL A   1      31.357  22.166  23.100  1.00  0.00    -0.122 S 
ATOM     88  C   UNL A   1      32.737  22.161  25.269  1.00  0.00     0.078 A 
ATOM     89  C   UNL A   1      32.247  20.758  23.438  1.00  0.00     0.011 A 
ATOM     90  C   UNL A   1      32.899  20.853  24.664  1.00  0.00    -0.019 A 
ATOM     91  C   UNL A   1      32.162  19.545  22.559  1.00  0.00     0.047 C 
ATOM     92  C   UNL A   1      33.497  19.620  25.249  1.00  0.00     0.037 C 
ATOM     93  C   UNL A   1      32.692  18.296  23.278  1.00  0.00     0.006 C 
ATOM     94  C   UNL A   1      33.896  18.614  24.164  1.00  0.00     0.005 C 
BRANCH  88  95
ATOM     95  C   UNL A   1      33.360  22.869  26.399  1.00  0.00     0.254 C 
ATOM     96  O   UNL A   1      32.663  23.228  27.357  1.00  0.00    -0.269 OA
ATOM     97  N   UNL A   1      34.649  23.324  26.476  1.00  0.00    -0.349 N 
ATOM     98  H   UNL A   1      34.714  24.017  27.172  1.00  0.00     0.164 HD
BRANCH  97  99
ATOM     99  C   UNL A   1      35.966  23.119  25.861  1.00  0.00     0.082 C 
ATOM    100  C   UNL A   1      36.998  24.025  26.543  1.00  0.00     0.025 C 
ATOM    101  C   UNL A   1      36.361  21.668  25.573  1.00  0.00     0.025 C 
ATOM    102  C   UNL A   1      38.428  23.774  26.090  1.00  0.00     0.002 C 
ATOM    103  C   UNL A   1      37.856  21.432  25.337  1.00  0.00     0.002 C 
ATOM    104  C   UNL A   1      38.805  22.304  26.154  1.00  0.00     0.000 C 
ENDBRANCH  97  99
ENDBRANCH  88  95
ENDBRANCH  84  86
ENDBRANCH  77  82
ENDBRANCH  72  75
ENDBRANCH  70  71
ENDBRANCH   1  70
TORSDOF 18
ENDMDL
MODEL 3
REMARK VINA RESULT:     -12.6      3.746      5.028
REMARK SMILES O=C(NCCCCNC(=O)[C@H]1[C@H]2CC[C@H](C2)[C@@H]1C(=O)Nc1sc2c(c1C(=O)NC1CCCCC1)CCCC2)c1ccc(-c2c3nc(c(-c4ccc(S(=O)(=O)[O-])cc4)c4ccc([nH]4)c(-c4ccc(S(=O)(=O)[O-])cc4)c4nc(c(-c5ccc(S(=O)(=O)[O-])cc5)c5ccc2[nH]5)C=C4)C=C3)cc1
REMARK SMILES IDX 6 1 5 2 4 3 3 4 1 5 2 6 39 8 40 9 98 10 41 11 97 12 42 13
REMARK SMILES IDX 43 14 44 15 91 16 45 17 96 18 90 19 92 20 46 21 95 22 89 23
REMARK SMILES IDX 88 24 47 26 77 27 58 28 76 29 59 30 62 31 75 32 93 33 60 34
REMARK SMILES IDX 61 35 74 37 94 38 63 39 48 40 49 41 57 42 50 43 56 44 51 45
REMARK SMILES IDX 52 46 53 47 54 48 55 49 78 50 79 51 87 52 80 53 86 54 81 55
REMARK SMILES IDX 82 56 83 57 84 58 85 59 64 60 65 61 73 62 66 63 72 64 67 65
REMARK SMILES IDX 68 66 69 67 70 68 71 69 7 70 8 71 9 72 10 74 11 75 12 76
REMARK SMILES IDX 17 77 13 78 16 79 15 80 14 81 18 82 19 83 20 84 21 86 22 87
REMARK SMILES IDX 25 88 23 89 24 90 38 91 35 92 37 93 36 94 26 95 27 96 28 97
REMARK SMILES IDX 29 99 30 100 34 101 31 102 33 103 32 104
REMARK H PARENT 3 7 92 25 62 36 8 73 20 85 28 98
REMARK Flexibility Score: inf
ROOT
ATOM      1  C   UNL A   1      31.761  30.739  26.045  1.00  0.00     0.023 C 
ENDROOT
BRANCH   1   2
ATOM      2  C   UNL A   1      31.664  32.053  26.827  1.00  0.00     0.023 C 
BRANCH   2   3
ATOM      3  C   UNL A   1      33.001  32.654  27.242  1.00  0.00     0.116 C 
BRANCH   3   4
ATOM      4  N   UNL A   1      32.879  34.051  27.623  1.00  0.00    -0.352 N 
ATOM      5  O   UNL A   1      33.130  35.856  28.954  1.00  0.00    -0.269 OA
ATOM      6  C   UNL A   1      33.490  34.718  28.655  1.00  0.00     0.251 C 
ATOM      7  H   UNL A   1      32.276  34.593  27.065  1.00  0.00     0.163 HD
BRANCH   6   8
ATOM      8  C   UNL A   1      34.569  34.056  29.417  1.00  0.00     0.039 A 
ATOM      9  C   UNL A   1      34.267  33.178  30.464  1.00  0.00     0.014 A 
ATOM     10  C   UNL A   1      35.897  34.311  29.073  1.00  0.00     0.014 A 
ATOM     11  C   UNL A   1      35.292  32.648  31.240  1.00  0.00     0.010 A 
ATOM     12  C   UNL A   1      36.926  33.716  29.806  1.00  0.00     0.010 A 
ATOM     13  C   UNL A   1      36.632  32.896  30.908  1.00  0.00    -0.014 A 
BRANCH  13  14
ATOM     14  C   UNL A   1      37.722  32.238  31.670  1.00  0.00     0.031 A 
ATOM     15  C   UNL A   1      38.151  32.756  33.013  1.00  0.00     0.074 A 
ATOM     16  C   UNL A   1      38.357  31.185  31.117  1.00  0.00     0.049 A 
ATOM     17  N   UNL A   1      39.132  32.348  33.777  1.00  0.00    -0.248 NA
ATOM     18  C   UNL A   1      37.387  33.884  33.566  1.00  0.00     0.031 C 
ATOM     19  C   UNL A   1      38.032  30.598  29.814  1.00  0.00     0.029 A 
ATOM     20  N   UNL A   1      39.411  30.434  31.567  1.00  0.00    -0.354 N 
ATOM     21  C   UNL A   1      39.123  33.184  34.888  1.00  0.00     0.074 A 
ATOM     22  C   UNL A   1      38.052  34.137  34.684  1.00  0.00     0.031 C 
ATOM     23  C   UNL A   1      38.864  29.575  29.575  1.00  0.00     0.029 A 
ATOM     24  C   UNL A   1      39.822  29.477  30.671  1.00  0.00     0.049 A 
ATOM     25  H   UNL A   1      39.832  30.566  32.447  1.00  0.00     0.167 HD
ATOM     26  C   UNL A   1      39.937  33.159  35.972  1.00  0.00     0.031 A 
ATOM     27  C   UNL A   1      40.876  28.640  30.697  1.00  0.00     0.031 A 
ATOM     28  C   UNL A   1      41.013  32.218  36.149  1.00  0.00     0.049 A 
ATOM     29  C   UNL A   1      41.793  28.657  31.884  1.00  0.00     0.074 A 
ATOM     30  C   UNL A   1      41.868  32.083  37.228  1.00  0.00     0.029 A 
ATOM     31  N   UNL A   1      41.398  31.266  35.214  1.00  0.00    -0.354 N 
ATOM     32  N   UNL A   1      41.737  29.418  32.951  1.00  0.00    -0.248 NA
ATOM     33  C   UNL A   1      42.908  27.703  31.879  1.00  0.00     0.031 C 
ATOM     34  C   UNL A   1      42.812  31.099  36.917  1.00  0.00     0.029 A 
ATOM     35  C   UNL A   1      42.499  30.564  35.676  1.00  0.00     0.049 A 
ATOM     36  H   UNL A   1      40.953  31.111  34.349  1.00  0.00     0.167 HD
ATOM     37  C   UNL A   1      42.796  29.018  33.757  1.00  0.00     0.074 A 
ATOM     38  C   UNL A   1      43.471  27.944  33.056  1.00  0.00     0.031 C 
ATOM     39  C   UNL A   1      43.165  29.496  34.970  1.00  0.00     0.031 A 
BRANCH  26  40
ATOM     40  C   UNL A   1      39.726  34.220  37.024  1.00  0.00    -0.014 A 
ATOM     41  C   UNL A   1      40.296  35.501  36.906  1.00  0.00     0.010 A 
ATOM     42  C   UNL A   1      38.933  33.931  38.150  1.00  0.00     0.010 A 
ATOM     43  C   UNL A   1      40.134  36.446  37.925  1.00  0.00     0.020 A 
ATOM     44  C   UNL A   1      38.741  34.884  39.155  1.00  0.00     0.020 A 
ATOM     45  C   UNL A   1      39.367  36.126  39.048  1.00  0.00     0.054 A 
BRANCH  45  46
ATOM     46  S   UNL A   1      39.199  37.359  40.369  1.00  0.00     0.124 S 
ATOM     47  O   UNL A   1      38.152  38.227  39.837  1.00  0.00    -0.237 OA
ATOM     48  O   UNL A   1      38.814  36.546  41.520  1.00  0.00    -0.237 OA
ATOM     49  O   UNL A   1      40.526  37.964  40.451  1.00  0.00    -0.744 OA
ENDBRANCH  45  46
ENDBRANCH  26  40
BRANCH  27  50
ATOM     50  C   UNL A   1      41.112  27.744  29.532  1.00  0.00    -0.014 A 
ATOM     51  C   UNL A   1      42.065  28.070  28.554  1.00  0.00     0.010 A 
ATOM     52  C   UNL A   1      40.442  26.508  29.453  1.00  0.00     0.010 A 
ATOM     53  C   UNL A   1      42.350  27.171  27.521  1.00  0.00     0.020 A 
ATOM     54  C   UNL A   1      40.746  25.595  28.440  1.00  0.00     0.020 A 
ATOM     55  C   UNL A   1      41.698  25.935  27.478  1.00  0.00     0.054 A 
BRANCH  55  56
ATOM     56  S   UNL A   1      42.161  24.747  26.188  1.00  0.00     0.124 S 
ATOM     57  O   UNL A   1      43.345  24.117  26.767  1.00  0.00    -0.237 OA
ATOM     58  O   UNL A   1      40.975  23.900  26.100  1.00  0.00    -0.237 OA
ATOM     59  O   UNL A   1      42.407  25.586  25.018  1.00  0.00    -0.744 OA
ENDBRANCH  55  56
ENDBRANCH  27  50
BRANCH  39  60
ATOM     60  C   UNL A   1      44.335  28.840  35.656  1.00  0.00    -0.014 A 
ATOM     61  C   UNL A   1      45.641  29.339  35.518  1.00  0.00     0.010 A 
ATOM     62  C   UNL A   1      44.100  27.767  36.536  1.00  0.00     0.010 A 
ATOM     63  C   UNL A   1      46.692  28.774  36.247  1.00  0.00     0.020 A 
ATOM     64  C   UNL A   1      45.142  27.218  37.287  1.00  0.00     0.020 A 
ATOM     65  C   UNL A   1      46.434  27.724  37.135  1.00  0.00     0.054 A 
BRANCH  65  66
ATOM     66  S   UNL A   1      47.798  27.073  38.138  1.00  0.00     0.124 S 
ATOM     67  O   UNL A   1      48.123  25.830  37.442  1.00  0.00    -0.237 OA
ATOM     68  O   UNL A   1      48.801  28.130  38.038  1.00  0.00    -0.237 OA
ATOM     69  O   UNL A   1      47.206  26.908  39.464  1.00  0.00    -0.744 OA
ENDBRANCH  65  66
ENDBRANCH  39  60
ENDBRANCH  13  14
ENDBRANCH   6   8
ENDBRANCH   3   4
ENDBRANCH   2   3
ENDBRANCH   1   2
BRANCH   1  70
ATOM     70  C   UNL A   1      31.619  29.480  26.898  1.00  0.00     0.116 C 
BRANCH  70  71
ATOM     71  N   UNL A   1      32.655  28.524  26.573  1.00  0.00    -0.356 N 
ATOM     72  C   UNL A   1      32.583  27.241  26.148  1.00  0.00     0.224 C 
ATOM     73  H   UNL A   1      33.572  28.866  26.680  1.00  0.00     0.163 HD
ATOM     74  O   UNL A   1      33.657  26.669  25.965  1.00  0.00    -0.275 OA
BRANCH  72  75
ATOM     75  C   UNL A   1      31.237  26.606  25.834  1.00  0.00     0.094 C 
ATOM     76  C   UNL A   1      30.554  27.361  24.646  1.00  0.00     0.002 C 
ATOM     77  C   UNL A   1      31.249  25.140  25.334  1.00  0.00     0.094 C 
ATOM     78  C   UNL A   1      31.279  27.254  23.289  1.00  0.00     0.005 C 
ATOM     79  C   UNL A   1      29.413  26.410  24.372  1.00  0.00     0.009 C 
ATOM     80  C   UNL A   1      30.323  25.208  24.097  1.00  0.00     0.002 C 
ATOM     81  C   UNL A   1      31.139  25.772  22.919  1.00  0.00     0.005 C 
BRANCH  77  82
ATOM     82  C   UNL A   1      30.986  24.018  26.368  1.00  0.00     0.229 C 
ATOM     83  O   UNL A   1      29.849  23.967  26.868  1.00  0.00    -0.274 OA
ATOM     84  N   UNL A   1      31.826  23.015  26.758  1.00  0.00    -0.317 N 
ATOM     85  H   UNL A   1      31.505  22.432  27.484  1.00  0.00     0.170 HD
BRANCH  84  86
ATOM     86  C   UNL A   1      33.064  22.727  26.252  1.00  0.00     0.108 A 
ATOM     87  S   UNL A   1      34.368  22.873  27.347  1.00  0.00    -0.122 S 
ATOM     88  C   UNL A   1      33.442  22.031  25.102  1.00  0.00     0.078 A 
ATOM     89  C   UNL A   1      35.440  22.871  26.029  1.00  0.00     0.011 A 
ATOM     90  C   UNL A   1      34.808  22.456  24.862  1.00  0.00    -0.019 A 
ATOM     91  C   UNL A   1      36.833  23.416  26.150  1.00  0.00     0.047 C 
ATOM     92  C   UNL A   1      35.512  22.653  23.563  1.00  0.00     0.037 C 
ATOM     93  C   UNL A   1      37.444  23.701  24.769  1.00  0.00     0.006 C 
ATOM     94  C   UNL A   1      37.034  22.651  23.737  1.00  0.00     0.005 C 
BRANCH  88  95
ATOM     95  C   UNL A   1      32.421  21.319  24.317  1.00  0.00     0.254 C 
ATOM     96  O   UNL A   1      31.493  21.953  23.799  1.00  0.00    -0.269 OA
ATOM     97  N   UNL A   1      32.280  19.963  24.187  1.00  0.00    -0.349 N 
ATOM     98  H   UNL A   1      31.366  19.753  23.888  1.00  0.00     0.164 HD
BRANCH  97  99
ATOM     99  C   UNL A   1      33.044  18.720  24.347  1.00  0.00     0.082 C 
ATOM    100  C   UNL A   1      32.646  18.041  25.664  1.00  0.00     0.025 C 
ATOM    101  C   UNL A   1      33.185  17.845  23.099  1.00  0.00     0.025 C 
ATOM    102  C   UNL A   1      33.262  16.662  25.851  1.00  0.00     0.002 C 
ATOM    103  C   UNL A   1      33.599  16.393  23.362  1.00  0.00     0.002 C 
ATOM    104  C   UNL A   1      33.053  15.767  24.642  1.00  0.00     0.000 C 
ENDBRANCH  97  99
ENDBRANCH  88  95
ENDBRANCH  84  86
ENDBRANCH  77  82
ENDBRANCH  72  75
ENDBRANCH  70  71
ENDBRANCH   1  70
TORSDOF 18
ENDMDL
