MODEL 1
REMARK VINA RESULT:     -12.7      0.000      0.000
REMARK SMILES O=C(CCN1C(=O)/C(=C/c2c3ccccc3cc3ccccc23)SC1=S)NCCCCNC(=O)c1ccc(-c2c3nc(c(-c4ccc(S(=O)(=O)[O-])cc4)c4ccc([nH]4)c(-c4ccc(S(=O)(=O)[O-])cc4)c4nc(c(-c5ccc(S(=O)(=O)[O-])cc5)c5ccc2[nH]5)C=C4)C=C3)cc1
REMARK SMILES IDX 29 1 28 2 27 3 1 4 2 5 3 7 4 8 5 9 6 10 25 11 7 12 8 13
REMARK SMILES IDX 24 14 26 15 9 16 10 17 11 18 23 19 12 20 16 21 18 22 22 23
REMARK SMILES IDX 13 24 15 25 17 26 19 27 21 28 14 29 20 30 30 31 31 32 32 33
REMARK SMILES IDX 33 34 34 36 35 37 36 38 94 39 37 40 93 41 38 42 39 43 40 44
REMARK SMILES IDX 87 45 41 46 92 47 86 48 88 49 42 50 91 51 85 52 84 53 43 55
REMARK SMILES IDX 73 56 54 57 72 58 55 59 58 60 71 61 89 62 56 63 57 64 70 66
REMARK SMILES IDX 90 67 59 68 44 69 45 70 53 71 46 72 52 73 47 74 48 75 49 76
REMARK SMILES IDX 50 77 51 78 74 79 75 80 83 81 76 82 82 83 77 84 78 85 79 86
REMARK SMILES IDX 80 87 81 88 60 89 61 90 69 91 62 92 68 93 63 94 64 95 65 96
REMARK SMILES IDX 66 97 67 98
REMARK H PARENT 27 6 32 35 88 54 58 65
REMARK Flexibility Score: inf
ROOT
ATOM      1  C   UNL A   1      34.262  28.875  26.629  1.00  0.00     0.023 C 
ENDROOT
BRANCH   1   2
ATOM      2  C   UNL A   1      33.612  28.808  25.245  1.00  0.00     0.116 C 
BRANCH   2   3
ATOM      3  N   UNL A   1      32.449  27.941  25.237  1.00  0.00    -0.356 N 
ATOM      4  O   UNL A   1      31.737  28.441  23.113  1.00  0.00    -0.275 OA
ATOM      5  C   UNL A   1      31.591  27.831  24.167  1.00  0.00     0.221 C 
ATOM      6  H   UNL A   1      32.264  27.402  26.040  1.00  0.00     0.163 HD
BRANCH   5   7
ATOM      7  C   UNL A   1      30.386  26.948  24.415  1.00  0.00     0.122 C 
BRANCH   7   8
ATOM      8  C   UNL A   1      30.290  25.711  23.518  1.00  0.00     0.137 C 
BRANCH   8   9
ATOM      9  N   UNL A   1      31.462  24.827  23.477  1.00  0.00    -0.292 N 
ATOM     10  C   UNL A   1      31.780  24.092  24.611  1.00  0.00     0.266 C 
ATOM     11  C   UNL A   1      32.396  24.760  22.465  1.00  0.00     0.148 C 
ATOM     12  O   UNL A   1      31.194  24.131  25.689  1.00  0.00    -0.268 OA
ATOM     13  C   UNL A   1      32.988  23.261  24.364  1.00  0.00     0.081 C 
ATOM     14  S   UNL A   1      33.376  23.323  22.695  1.00  0.00    -0.054 SA
ATOM     15  S   UNL A   1      32.601  25.770  21.159  1.00  0.00    -0.052 S 
ATOM     16  C   UNL A   1      33.647  22.638  25.350  1.00  0.00     0.030 C 
BRANCH  16  17
ATOM     17  C   UNL A   1      34.806  21.719  25.210  1.00  0.00    -0.009 A 
ATOM     18  C   UNL A   1      34.644  20.345  24.827  1.00  0.00    -0.010 A 
ATOM     19  C   UNL A   1      36.099  22.249  25.529  1.00  0.00    -0.010 A 
ATOM     20  C   UNL A   1      33.412  19.729  24.490  1.00  0.00     0.009 A 
ATOM     21  C   UNL A   1      35.786  19.516  24.811  1.00  0.00    -0.017 A 
ATOM     22  C   UNL A   1      37.225  21.411  25.383  1.00  0.00    -0.017 A 
ATOM     23  C   UNL A   1      36.337  23.566  26.010  1.00  0.00     0.009 A 
ATOM     24  C   UNL A   1      33.287  18.345  24.343  1.00  0.00     0.001 A 
ATOM     25  C   UNL A   1      35.657  18.126  24.647  1.00  0.00     0.009 A 
ATOM     26  C   UNL A   1      37.055  20.075  25.002  1.00  0.00     0.017 A 
ATOM     27  C   UNL A   1      38.510  21.895  25.679  1.00  0.00     0.009 A 
ATOM     28  C   UNL A   1      37.616  24.020  26.339  1.00  0.00     0.001 A 
ATOM     29  C   UNL A   1      34.409  17.539  24.457  1.00  0.00     0.001 A 
ATOM     30  C   UNL A   1      38.706  23.182  26.170  1.00  0.00     0.001 A 
ENDBRANCH  16  17
ENDBRANCH   8   9
ENDBRANCH   7   8
ENDBRANCH   5   7
ENDBRANCH   2   3
ENDBRANCH   1   2
BRANCH   1  31
ATOM     31  C   UNL A   1      34.185  30.231  27.344  1.00  0.00     0.023 C 
BRANCH  31  32
ATOM     32  C   UNL A   1      35.471  30.716  28.013  1.00  0.00     0.116 C 
BRANCH  32  33
ATOM     33  N   UNL A   1      35.371  30.751  29.463  1.00  0.00    -0.352 N 
ATOM     34  C   UNL A   1      36.294  30.426  30.432  1.00  0.00     0.251 C 
ATOM     35  H   UNL A   1      34.502  31.057  29.807  1.00  0.00     0.163 HD
ATOM     36  O   UNL A   1      35.930  30.392  31.606  1.00  0.00    -0.269 OA
BRANCH  34  37
ATOM     37  C   UNL A   1      37.703  30.101  30.095  1.00  0.00     0.039 A 
ATOM     38  C   UNL A   1      38.571  29.691  31.118  1.00  0.00     0.014 A 
ATOM     39  C   UNL A   1      38.199  30.241  28.801  1.00  0.00     0.014 A 
ATOM     40  C   UNL A   1      39.907  29.360  30.833  1.00  0.00     0.010 A 
ATOM     41  C   UNL A   1      39.508  29.853  28.516  1.00  0.00     0.010 A 
ATOM     42  C   UNL A   1      40.383  29.411  29.517  1.00  0.00    -0.014 A 
BRANCH  42  43
ATOM     43  C   UNL A   1      41.753  28.970  29.132  1.00  0.00     0.031 A 
ATOM     44  C   UNL A   1      42.902  29.943  29.100  1.00  0.00     0.074 A 
ATOM     45  C   UNL A   1      41.944  27.717  28.679  1.00  0.00     0.049 A 
ATOM     46  N   UNL A   1      44.101  29.796  28.588  1.00  0.00    -0.248 NA
ATOM     47  C   UNL A   1      42.659  31.269  29.683  1.00  0.00     0.031 C 
ATOM     48  C   UNL A   1      40.916  26.678  28.607  1.00  0.00     0.029 A 
ATOM     49  N   UNL A   1      43.070  27.108  28.180  1.00  0.00    -0.354 N 
ATOM     50  C   UNL A   1      44.730  31.031  28.718  1.00  0.00     0.074 A 
ATOM     51  C   UNL A   1      43.782  31.907  29.376  1.00  0.00     0.031 C 
ATOM     52  C   UNL A   1      41.465  25.554  28.120  1.00  0.00     0.029 A 
ATOM     53  C   UNL A   1      42.869  25.800  27.806  1.00  0.00     0.049 A 
ATOM     54  H   UNL A   1      43.938  27.565  28.096  1.00  0.00     0.167 HD
ATOM     55  C   UNL A   1      45.970  31.402  28.310  1.00  0.00     0.031 A 
ATOM     56  C   UNL A   1      43.714  24.897  27.272  1.00  0.00     0.031 A 
ATOM     57  C   UNL A   1      46.945  30.499  27.748  1.00  0.00     0.049 A 
ATOM     58  C   UNL A   1      45.140  25.284  26.991  1.00  0.00     0.074 A 
ATOM     59  C   UNL A   1      48.260  30.763  27.394  1.00  0.00     0.029 A 
ATOM     60  N   UNL A   1      46.732  29.153  27.494  1.00  0.00    -0.354 N 
ATOM     61  N   UNL A   1      45.711  26.457  27.108  1.00  0.00    -0.248 NA
ATOM     62  C   UNL A   1      46.037  24.217  26.522  1.00  0.00     0.031 C 
ATOM     63  C   UNL A   1      48.833  29.583  26.907  1.00  0.00     0.029 A 
ATOM     64  C   UNL A   1      47.892  28.573  27.004  1.00  0.00     0.049 A 
ATOM     65  H   UNL A   1      45.883  28.678  27.640  1.00  0.00     0.167 HD
ATOM     66  C   UNL A   1      47.042  26.265  26.749  1.00  0.00     0.074 A 
ATOM     67  C   UNL A   1      47.193  24.861  26.429  1.00  0.00     0.031 C 
ATOM     68  C   UNL A   1      48.044  27.175  26.689  1.00  0.00     0.031 A 
BRANCH  55  69
ATOM     69  C   UNL A   1      46.355  32.859  28.430  1.00  0.00    -0.014 A 
ATOM     70  C   UNL A   1      47.023  33.360  29.559  1.00  0.00     0.010 A 
ATOM     71  C   UNL A   1      46.102  33.729  27.350  1.00  0.00     0.010 A 
ATOM     72  C   UNL A   1      47.384  34.710  29.631  1.00  0.00     0.020 A 
ATOM     73  C   UNL A   1      46.495  35.070  27.400  1.00  0.00     0.020 A 
ATOM     74  C   UNL A   1      47.116  35.558  28.552  1.00  0.00     0.054 A 
BRANCH  74  75
ATOM     75  S   UNL A   1      47.625  37.296  28.654  1.00  0.00     0.124 S 
ATOM     76  O   UNL A   1      48.793  37.316  27.775  1.00  0.00    -0.237 OA
ATOM     77  O   UNL A   1      46.452  38.007  28.152  1.00  0.00    -0.237 OA
ATOM     78  O   UNL A   1      47.908  37.492  30.073  1.00  0.00    -0.744 OA
ENDBRANCH  74  75
ENDBRANCH  55  69
BRANCH  56  79
ATOM     79  C   UNL A   1      43.239  23.513  27.019  1.00  0.00    -0.014 A 
ATOM     80  C   UNL A   1      43.040  23.070  25.699  1.00  0.00     0.010 A 
ATOM     81  C   UNL A   1      43.022  22.621  28.085  1.00  0.00     0.010 A 
ATOM     82  C   UNL A   1      42.622  21.762  25.448  1.00  0.00     0.020 A 
ATOM     83  C   UNL A   1      42.628  21.304  27.836  1.00  0.00     0.020 A 
ATOM     84  C   UNL A   1      42.423  20.885  26.518  1.00  0.00     0.054 A 
BRANCH  84  85
ATOM     85  S   UNL A   1      41.949  19.170  26.164  1.00  0.00     0.124 S 
ATOM     86  O   UNL A   1      42.328  18.490  27.398  1.00  0.00    -0.237 OA
ATOM     87  O   UNL A   1      40.514  19.285  25.917  1.00  0.00    -0.237 OA
ATOM     88  O   UNL A   1      42.750  18.832  24.988  1.00  0.00    -0.744 OA
ENDBRANCH  84  85
ENDBRANCH  56  79
BRANCH  68  89
ATOM     89  C   UNL A   1      49.413  26.681  26.298  1.00  0.00    -0.014 A 
ATOM     90  C   UNL A   1      49.906  26.846  24.991  1.00  0.00     0.010 A 
ATOM     91  C   UNL A   1      50.237  26.081  27.269  1.00  0.00     0.010 A 
ATOM     92  C   UNL A   1      51.183  26.388  24.655  1.00  0.00     0.020 A 
ATOM     93  C   UNL A   1      51.522  25.643  26.942  1.00  0.00     0.020 A 
ATOM     94  C   UNL A   1      51.984  25.786  25.632  1.00  0.00     0.054 A 
BRANCH  94  95
ATOM     95  S   UNL A   1      53.649  25.230  25.178  1.00  0.00     0.124 S 
ATOM     96  O   UNL A   1      53.741  25.650  23.783  1.00  0.00    -0.237 OA
ATOM     97  O   UNL A   1      54.500  25.963  26.112  1.00  0.00    -0.237 OA
ATOM     98  O   UNL A   1      53.603  23.785  25.390  1.00  0.00    -0.744 OA
ENDBRANCH  94  95
ENDBRANCH  68  89
ENDBRANCH  42  43
ENDBRANCH  34  37
ENDBRANCH  32  33
ENDBRANCH  31  32
ENDBRANCH   1  31
TORSDOF 17
ENDMDL
MODEL 2
REMARK VINA RESULT:     -12.5      0.564      2.245
REMARK SMILES O=C(CCN1C(=O)/C(=C/c2c3ccccc3cc3ccccc23)SC1=S)NCCCCNC(=O)c1ccc(-c2c3nc(c(-c4ccc(S(=O)(=O)[O-])cc4)c4ccc([nH]4)c(-c4ccc(S(=O)(=O)[O-])cc4)c4nc(c(-c5ccc(S(=O)(=O)[O-])cc5)c5ccc2[nH]5)C=C4)C=C3)cc1
REMARK SMILES IDX 29 1 28 2 27 3 1 4 2 5 3 7 4 8 5 9 6 10 25 11 7 12 8 13
REMARK SMILES IDX 24 14 26 15 9 16 10 17 11 18 23 19 12 20 16 21 18 22 22 23
REMARK SMILES IDX 13 24 15 25 17 26 19 27 21 28 14 29 20 30 30 31 31 32 32 33
REMARK SMILES IDX 33 34 34 36 35 37 36 38 94 39 37 40 93 41 38 42 39 43 40 44
REMARK SMILES IDX 87 45 41 46 92 47 86 48 88 49 42 50 91 51 85 52 84 53 43 55
REMARK SMILES IDX 73 56 54 57 72 58 55 59 58 60 71 61 89 62 56 63 57 64 70 66
REMARK SMILES IDX 90 67 59 68 44 69 45 70 53 71 46 72 52 73 47 74 48 75 49 76
REMARK SMILES IDX 50 77 51 78 74 79 75 80 83 81 76 82 82 83 77 84 78 85 79 86
REMARK SMILES IDX 80 87 81 88 60 89 61 90 69 91 62 92 68 93 63 94 64 95 65 96
REMARK SMILES IDX 66 97 67 98
REMARK H PARENT 27 6 32 35 88 54 58 65
REMARK Flexibility Score: inf
ROOT
ATOM      1  C   UNL A   1      34.264  28.155  26.218  1.00  0.00     0.023 C 
ENDROOT
BRANCH   1   2
ATOM      2  C   UNL A   1      33.265  28.472  25.102  1.00  0.00     0.116 C 
BRANCH   2   3
ATOM      3  N   UNL A   1      32.158  27.536  25.088  1.00  0.00    -0.356 N 
ATOM      4  O   UNL A   1      30.796  28.728  23.676  1.00  0.00    -0.275 OA
ATOM      5  C   UNL A   1      30.998  27.743  24.378  1.00  0.00     0.221 C 
ATOM      6  H   UNL A   1      32.241  26.707  25.614  1.00  0.00     0.163 HD
BRANCH   5   7
ATOM      7  C   UNL A   1      29.933  26.686  24.590  1.00  0.00     0.122 C 
BRANCH   7   8
ATOM      8  C   UNL A   1      29.925  25.553  23.560  1.00  0.00     0.137 C 
BRANCH   8   9
ATOM      9  N   UNL A   1      31.095  24.665  23.540  1.00  0.00    -0.292 N 
ATOM     10  C   UNL A   1      31.259  23.759  24.579  1.00  0.00     0.266 C 
ATOM     11  C   UNL A   1      32.157  24.738  22.664  1.00  0.00     0.148 C 
ATOM     12  O   UNL A   1      30.533  23.641  25.561  1.00  0.00    -0.268 OA
ATOM     13  C   UNL A   1      32.492  22.955  24.370  1.00  0.00     0.081 C 
ATOM     14  S   UNL A   1      33.102  23.267  22.798  1.00  0.00    -0.054 SA
ATOM     15  S   UNL A   1      32.534  25.934  21.571  1.00  0.00    -0.052 S 
ATOM     16  C   UNL A   1      33.014  22.175  25.327  1.00  0.00     0.030 C 
BRANCH  16  17
ATOM     17  C   UNL A   1      34.184  21.268  25.201  1.00  0.00    -0.009 A 
ATOM     18  C   UNL A   1      35.525  21.718  25.443  1.00  0.00    -0.010 A 
ATOM     19  C   UNL A   1      33.922  19.925  24.771  1.00  0.00    -0.010 A 
ATOM     20  C   UNL A   1      35.886  23.021  25.872  1.00  0.00     0.009 A 
ATOM     21  C   UNL A   1      36.586  20.818  25.207  1.00  0.00    -0.017 A 
ATOM     22  C   UNL A   1      35.007  19.029  24.665  1.00  0.00    -0.017 A 
ATOM     23  C   UNL A   1      32.639  19.425  24.416  1.00  0.00     0.009 A 
ATOM     24  C   UNL A   1      37.211  23.464  25.875  1.00  0.00     0.001 A 
ATOM     25  C   UNL A   1      37.919  21.265  25.227  1.00  0.00     0.009 A 
ATOM     26  C   UNL A   1      36.310  19.479  24.909  1.00  0.00     0.017 A 
ATOM     27  C   UNL A   1      34.791  17.703  24.253  1.00  0.00     0.009 A 
ATOM     28  C   UNL A   1      32.446  18.116  23.970  1.00  0.00     0.001 A 
ATOM     29  C   UNL A   1      38.227  22.591  25.517  1.00  0.00     0.001 A 
ATOM     30  C   UNL A   1      33.526  17.252  23.891  1.00  0.00     0.001 A 
ENDBRANCH  16  17
ENDBRANCH   8   9
ENDBRANCH   7   8
ENDBRANCH   5   7
ENDBRANCH   2   3
ENDBRANCH   1   2
BRANCH   1  31
ATOM     31  C   UNL A   1      34.148  29.011  27.487  1.00  0.00     0.023 C 
BRANCH  31  32
ATOM     32  C   UNL A   1      35.171  30.138  27.636  1.00  0.00     0.116 C 
BRANCH  32  33
ATOM     33  N   UNL A   1      35.212  30.683  28.984  1.00  0.00    -0.352 N 
ATOM     34  C   UNL A   1      36.210  30.652  29.932  1.00  0.00     0.251 C 
ATOM     35  H   UNL A   1      34.393  31.151  29.263  1.00  0.00     0.163 HD
ATOM     36  O   UNL A   1      35.960  31.055  31.066  1.00  0.00    -0.269 OA
BRANCH  34  37
ATOM     37  C   UNL A   1      37.567  30.132  29.625  1.00  0.00     0.039 A 
ATOM     38  C   UNL A   1      38.002  30.109  28.291  1.00  0.00     0.014 A 
ATOM     39  C   UNL A   1      38.398  29.619  30.617  1.00  0.00     0.014 A 
ATOM     40  C   UNL A   1      39.285  29.639  27.965  1.00  0.00     0.010 A 
ATOM     41  C   UNL A   1      39.691  29.210  30.293  1.00  0.00     0.010 A 
ATOM     42  C   UNL A   1      40.157  29.209  28.973  1.00  0.00    -0.014 A 
BRANCH  42  43
ATOM     43  C   UNL A   1      41.566  28.802  28.707  1.00  0.00     0.031 A 
ATOM     44  C   UNL A   1      42.682  29.813  28.713  1.00  0.00     0.074 A 
ATOM     45  C   UNL A   1      41.831  27.538  28.327  1.00  0.00     0.049 A 
ATOM     46  N   UNL A   1      43.919  29.688  28.294  1.00  0.00    -0.248 NA
ATOM     47  C   UNL A   1      42.353  31.154  29.214  1.00  0.00     0.031 C 
ATOM     48  C   UNL A   1      40.846  26.460  28.230  1.00  0.00     0.029 A 
ATOM     49  N   UNL A   1      43.010  26.949  27.937  1.00  0.00    -0.354 N 
ATOM     50  C   UNL A   1      44.495  30.949  28.412  1.00  0.00     0.074 A 
ATOM     51  C   UNL A   1      43.474  31.818  28.959  1.00  0.00     0.031 C 
ATOM     52  C   UNL A   1      41.466  25.336  27.835  1.00  0.00     0.029 A 
ATOM     53  C   UNL A   1      42.880  25.620  27.611  1.00  0.00     0.049 A 
ATOM     54  H   UNL A   1      43.867  27.433  27.895  1.00  0.00     0.167 HD
ATOM     55  C   UNL A   1      45.749  31.348  28.076  1.00  0.00     0.031 A 
ATOM     56  C   UNL A   1      43.791  24.726  27.180  1.00  0.00     0.031 A 
ATOM     57  C   UNL A   1      46.792  30.457  27.627  1.00  0.00     0.049 A 
ATOM     58  C   UNL A   1      45.220  25.152  26.985  1.00  0.00     0.074 A 
ATOM     59  C   UNL A   1      48.119  30.753  27.356  1.00  0.00     0.029 A 
ATOM     60  N   UNL A   1      46.643  29.094  27.421  1.00  0.00    -0.354 N 
ATOM     61  N   UNL A   1      45.742  26.349  27.088  1.00  0.00    -0.248 NA
ATOM     62  C   UNL A   1      46.183  24.099  26.630  1.00  0.00     0.031 C 
ATOM     63  C   UNL A   1      48.765  29.575  26.966  1.00  0.00     0.029 A 
ATOM     64  C   UNL A   1      47.854  28.536  27.041  1.00  0.00     0.049 A 
ATOM     65  H   UNL A   1      45.801  28.596  27.528  1.00  0.00     0.167 HD
ATOM     66  C   UNL A   1      47.101  26.190  26.833  1.00  0.00     0.074 A 
ATOM     67  C   UNL A   1      47.322  24.780  26.590  1.00  0.00     0.031 C 
ATOM     68  C   UNL A   1      48.075  27.132  26.803  1.00  0.00     0.031 A 
BRANCH  55  69
ATOM     69  C   UNL A   1      46.075  32.821  28.155  1.00  0.00    -0.014 A 
ATOM     70  C   UNL A   1      45.851  33.691  27.075  1.00  0.00     0.010 A 
ATOM     71  C   UNL A   1      46.551  33.357  29.369  1.00  0.00     0.010 A 
ATOM     72  C   UNL A   1      46.143  35.055  27.187  1.00  0.00     0.020 A 
ATOM     73  C   UNL A   1      46.809  34.725  29.499  1.00  0.00     0.020 A 
ATOM     74  C   UNL A   1      46.623  35.563  28.398  1.00  0.00     0.054 A 
BRANCH  74  75
ATOM     75  S   UNL A   1      46.962  37.341  28.530  1.00  0.00     0.124 S 
ATOM     76  O   UNL A   1      47.079  37.515  29.976  1.00  0.00    -0.237 OA
ATOM     77  O   UNL A   1      48.205  37.490  27.778  1.00  0.00    -0.237 OA
ATOM     78  O   UNL A   1      45.790  37.963  27.919  1.00  0.00    -0.744 OA
ENDBRANCH  74  75
ENDBRANCH  55  69
BRANCH  56  79
ATOM     79  C   UNL A   1      43.382  23.316  26.959  1.00  0.00    -0.014 A 
ATOM     80  C   UNL A   1      43.049  22.502  28.056  1.00  0.00     0.010 A 
ATOM     81  C   UNL A   1      43.282  22.791  25.658  1.00  0.00     0.010 A 
ATOM     82  C   UNL A   1      42.635  21.183  27.859  1.00  0.00     0.020 A 
ATOM     83  C   UNL A   1      42.844  21.480  25.455  1.00  0.00     0.020 A 
ATOM     84  C   UNL A   1      42.530  20.682  26.559  1.00  0.00     0.054 A 
BRANCH  84  85
ATOM     85  S   UNL A   1      41.921  18.989  26.323  1.00  0.00     0.124 S 
ATOM     86  O   UNL A   1      41.971  18.458  27.681  1.00  0.00    -0.237 OA
ATOM     87  O   UNL A   1      40.583  19.210  25.777  1.00  0.00    -0.237 OA
ATOM     88  O   UNL A   1      42.880  18.410  25.385  1.00  0.00    -0.744 OA
ENDBRANCH  84  85
ENDBRANCH  56  79
BRANCH  68  89
ATOM     89  C   UNL A   1      49.483  26.672  26.534  1.00  0.00    -0.014 A 
ATOM     90  C   UNL A   1      50.028  26.698  25.237  1.00  0.00     0.010 A 
ATOM     91  C   UNL A   1      50.291  26.247  27.605  1.00  0.00     0.010 A 
ATOM     92  C   UNL A   1      51.342  26.275  25.014  1.00  0.00     0.020 A 
ATOM     93  C   UNL A   1      51.611  25.845  27.389  1.00  0.00     0.020 A 
ATOM     94  C   UNL A   1      52.125  25.848  26.091  1.00  0.00     0.054 A 
BRANCH  94  95
ATOM     95  S   UNL A   1      53.837  25.335  25.779  1.00  0.00     0.124 S 
ATOM     96  O   UNL A   1      53.692  23.896  25.581  1.00  0.00    -0.237 OA
ATOM     97  O   UNL A   1      54.190  26.101  24.586  1.00  0.00    -0.237 OA
ATOM     98  O   UNL A   1      54.544  25.728  26.995  1.00  0.00    -0.744 OA
ENDBRANCH  94  95
ENDBRANCH  68  89
ENDBRANCH  42  43
ENDBRANCH  34  37
ENDBRANCH  32  33
ENDBRANCH  31  32
ENDBRANCH   1  31
TORSDOF 17
ENDMDL
MODEL 3
REMARK VINA RESULT:     -12.5      5.925     11.903
REMARK SMILES O=C(CCN1C(=O)/C(=C/c2c3ccccc3cc3ccccc23)SC1=S)NCCCCNC(=O)c1ccc(-c2c3nc(c(-c4ccc(S(=O)(=O)[O-])cc4)c4ccc([nH]4)c(-c4ccc(S(=O)(=O)[O-])cc4)c4nc(c(-c5ccc(S(=O)(=O)[O-])cc5)c5ccc2[nH]5)C=C4)C=C3)cc1
REMARK SMILES IDX 29 1 28 2 27 3 1 4 2 5 3 7 4 8 5 9 6 10 25 11 7 12 8 13
REMARK SMILES IDX 24 14 26 15 9 16 10 17 11 18 23 19 12 20 16 21 18 22 22 23
REMARK SMILES IDX 13 24 15 25 17 26 19 27 21 28 14 29 20 30 30 31 31 32 32 33
REMARK SMILES IDX 33 34 34 36 35 37 36 38 94 39 37 40 93 41 38 42 39 43 40 44
REMARK SMILES IDX 87 45 41 46 92 47 86 48 88 49 42 50 91 51 85 52 84 53 43 55
REMARK SMILES IDX 73 56 54 57 72 58 55 59 58 60 71 61 89 62 56 63 57 64 70 66
REMARK SMILES IDX 90 67 59 68 44 69 45 70 53 71 46 72 52 73 47 74 48 75 49 76
REMARK SMILES IDX 50 77 51 78 74 79 75 80 83 81 76 82 82 83 77 84 78 85 79 86
REMARK SMILES IDX 80 87 81 88 60 89 61 90 69 91 62 92 68 93 63 94 64 95 65 96
REMARK SMILES IDX 66 97 67 98
REMARK H PARENT 27 6 32 35 88 54 58 65
REMARK Flexibility Score: inf
ROOT
ATOM      1  C   UNL A   1      39.152  22.696  25.837  1.00  0.00     0.023 C 
ENDROOT
BRANCH   1   2
ATOM      2  C   UNL A   1      37.887  23.505  26.133  1.00  0.00     0.116 C 
BRANCH   2   3
ATOM      3  N   UNL A   1      36.918  23.403  25.059  1.00  0.00    -0.356 N 
ATOM      4  O   UNL A   1      35.734  21.631  25.911  1.00  0.00    -0.275 OA
ATOM      5  C   UNL A   1      35.916  22.461  25.028  1.00  0.00     0.221 C 
ATOM      6  H   UNL A   1      36.980  24.043  24.313  1.00  0.00     0.163 HD
BRANCH   5   7
ATOM      7  C   UNL A   1      35.083  22.470  23.762  1.00  0.00     0.122 C 
BRANCH   7   8
ATOM      8  C   UNL A   1      33.577  22.638  23.974  1.00  0.00     0.137 C 
BRANCH   8   9
ATOM      9  N   UNL A   1      33.127  23.901  24.574  1.00  0.00    -0.292 N 
ATOM     10  C   UNL A   1      33.375  25.085  23.893  1.00  0.00     0.266 C 
ATOM     11  C   UNL A   1      32.611  24.061  25.842  1.00  0.00     0.148 C 
ATOM     12  O   UNL A   1      33.981  25.199  22.831  1.00  0.00    -0.268 OA
ATOM     13  C   UNL A   1      32.839  26.241  24.659  1.00  0.00     0.081 C 
ATOM     14  S   UNL A   1      31.888  25.656  25.961  1.00  0.00    -0.054 SA
ATOM     15  S   UNL A   1      32.560  22.973  27.099  1.00  0.00    -0.052 S 
ATOM     16  C   UNL A   1      33.141  27.510  24.353  1.00  0.00     0.030 C 
BRANCH  16  17
ATOM     17  C   UNL A   1      32.599  28.737  24.991  1.00  0.00    -0.009 A 
ATOM     18  C   UNL A   1      31.370  29.339  24.559  1.00  0.00    -0.010 A 
ATOM     19  C   UNL A   1      33.387  29.334  26.029  1.00  0.00    -0.010 A 
ATOM     20  C   UNL A   1      30.520  28.827  23.546  1.00  0.00     0.009 A 
ATOM     21  C   UNL A   1      30.975  30.557  25.153  1.00  0.00    -0.017 A 
ATOM     22  C   UNL A   1      32.891  30.486  26.674  1.00  0.00    -0.017 A 
ATOM     23  C   UNL A   1      34.661  28.861  26.450  1.00  0.00     0.009 A 
ATOM     24  C   UNL A   1      29.460  29.568  23.017  1.00  0.00     0.001 A 
ATOM     25  C   UNL A   1      29.898  31.292  24.628  1.00  0.00     0.009 A 
ATOM     26  C   UNL A   1      31.687  31.060  26.247  1.00  0.00     0.017 A 
ATOM     27  C   UNL A   1      33.631  31.097  27.700  1.00  0.00     0.009 A 
ATOM     28  C   UNL A   1      35.403  29.502  27.444  1.00  0.00     0.001 A 
ATOM     29  C   UNL A   1      29.171  30.820  23.538  1.00  0.00     0.001 A 
ATOM     30  C   UNL A   1      34.884  30.622  28.073  1.00  0.00     0.001 A 
ENDBRANCH  16  17
ENDBRANCH   8   9
ENDBRANCH   7   8
ENDBRANCH   5   7
ENDBRANCH   2   3
ENDBRANCH   1   2
BRANCH   1  31
ATOM     31  C   UNL A   1      39.966  22.249  27.059  1.00  0.00     0.023 C 
BRANCH  31  32
ATOM     32  C   UNL A   1      41.189  23.100  27.404  1.00  0.00     0.116 C 
BRANCH  32  33
ATOM     33  N   UNL A   1      41.730  23.797  26.248  1.00  0.00    -0.352 N 
ATOM     34  C   UNL A   1      41.891  25.144  26.010  1.00  0.00     0.251 C 
ATOM     35  H   UNL A   1      42.031  23.211  25.518  1.00  0.00     0.163 HD
ATOM     36  O   UNL A   1      42.236  25.509  24.888  1.00  0.00    -0.269 OA
BRANCH  34  37
ATOM     37  C   UNL A   1      41.642  26.161  27.063  1.00  0.00     0.039 A 
ATOM     38  C   UNL A   1      40.670  25.904  28.042  1.00  0.00     0.014 A 
ATOM     39  C   UNL A   1      42.309  27.383  27.077  1.00  0.00     0.014 A 
ATOM     40  C   UNL A   1      40.419  26.836  29.063  1.00  0.00     0.010 A 
ATOM     41  C   UNL A   1      42.097  28.277  28.126  1.00  0.00     0.010 A 
ATOM     42  C   UNL A   1      41.155  28.026  29.131  1.00  0.00    -0.014 A 
BRANCH  42  43
ATOM     43  C   UNL A   1      41.014  29.004  30.247  1.00  0.00     0.031 A 
ATOM     44  C   UNL A   1      41.915  28.943  31.452  1.00  0.00     0.074 A 
ATOM     45  C   UNL A   1      39.986  29.873  30.242  1.00  0.00     0.049 A 
ATOM     46  N   UNL A   1      41.804  29.561  32.604  1.00  0.00    -0.248 NA
ATOM     47  C   UNL A   1      43.068  28.037  31.368  1.00  0.00     0.031 C 
ATOM     48  C   UNL A   1      39.005  30.015  29.166  1.00  0.00     0.029 A 
ATOM     49  N   UNL A   1      39.587  30.792  31.182  1.00  0.00    -0.354 N 
ATOM     50  C   UNL A   1      42.827  29.064  33.407  1.00  0.00     0.074 A 
ATOM     51  C   UNL A   1      43.556  28.108  32.600  1.00  0.00     0.031 C 
ATOM     52  C   UNL A   1      38.134  30.984  29.494  1.00  0.00     0.029 A 
ATOM     53  C   UNL A   1      38.467  31.502  30.817  1.00  0.00     0.049 A 
ATOM     54  H   UNL A   1      40.057  30.929  32.036  1.00  0.00     0.167 HD
ATOM     55  C   UNL A   1      43.115  29.363  34.700  1.00  0.00     0.031 A 
ATOM     56  C   UNL A   1      37.783  32.463  31.468  1.00  0.00     0.031 A 
ATOM     57  C   UNL A   1      42.449  30.388  35.466  1.00  0.00     0.049 A 
ATOM     58  C   UNL A   1      38.232  32.903  32.834  1.00  0.00     0.074 A 
ATOM     59  C   UNL A   1      42.736  30.828  36.749  1.00  0.00     0.029 A 
ATOM     60  N   UNL A   1      41.393  31.163  35.012  1.00  0.00    -0.354 N 
ATOM     61  N   UNL A   1      39.190  32.414  33.582  1.00  0.00    -0.248 NA
ATOM     62  C   UNL A   1      37.514  34.037  33.435  1.00  0.00     0.031 C 
ATOM     63  C   UNL A   1      41.840  31.852  37.078  1.00  0.00     0.029 A 
ATOM     64  C   UNL A   1      41.028  32.084  35.982  1.00  0.00     0.049 A 
ATOM     65  H   UNL A   1      40.964  31.072  34.131  1.00  0.00     0.167 HD
ATOM     66  C   UNL A   1      39.205  33.195  34.734  1.00  0.00     0.074 A 
ATOM     67  C   UNL A   1      38.174  34.199  34.575  1.00  0.00     0.031 C 
ATOM     68  C   UNL A   1      40.004  33.086  35.823  1.00  0.00     0.031 A 
BRANCH  55  69
ATOM     69  C   UNL A   1      44.189  28.558  35.396  1.00  0.00    -0.014 A 
ATOM     70  C   UNL A   1      45.517  29.009  35.480  1.00  0.00     0.010 A 
ATOM     71  C   UNL A   1      43.839  27.356  36.042  1.00  0.00     0.010 A 
ATOM     72  C   UNL A   1      46.484  28.251  36.150  1.00  0.00     0.020 A 
ATOM     73  C   UNL A   1      44.793  26.613  36.745  1.00  0.00     0.020 A 
ATOM     74  C   UNL A   1      46.117  27.056  36.776  1.00  0.00     0.054 A 
BRANCH  74  75
ATOM     75  S   UNL A   1      47.381  26.109  37.668  1.00  0.00     0.124 S 
ATOM     76  O   UNL A   1      46.826  24.757  37.626  1.00  0.00    -0.237 OA
ATOM     77  O   UNL A   1      48.577  26.320  36.856  1.00  0.00    -0.237 OA
ATOM     78  O   UNL A   1      47.413  26.731  38.989  1.00  0.00    -0.744 OA
ENDBRANCH  74  75
ENDBRANCH  55  69
BRANCH  56  79
ATOM     79  C   UNL A   1      36.627  33.114  30.802  1.00  0.00    -0.014 A 
ATOM     80  C   UNL A   1      35.343  33.009  31.366  1.00  0.00     0.010 A 
ATOM     81  C   UNL A   1      36.804  33.873  29.632  1.00  0.00     0.010 A 
ATOM     82  C   UNL A   1      34.253  33.641  30.764  1.00  0.00     0.020 A 
ATOM     83  C   UNL A   1      35.720  34.528  29.042  1.00  0.00     0.020 A 
ATOM     84  C   UNL A   1      34.449  34.401  29.609  1.00  0.00     0.054 A 
BRANCH  84  85
ATOM     85  S   UNL A   1      33.031  35.272  28.886  1.00  0.00     0.124 S 
ATOM     86  O   UNL A   1      32.558  34.311  27.896  1.00  0.00    -0.237 OA
ATOM     87  O   UNL A   1      32.161  35.470  30.044  1.00  0.00    -0.237 OA
ATOM     88  O   UNL A   1      33.622  36.494  28.345  1.00  0.00    -0.744 OA
ENDBRANCH  84  85
ENDBRANCH  56  79
BRANCH  68  89
ATOM     89  C   UNL A   1      39.827  34.099  36.923  1.00  0.00    -0.014 A 
ATOM     90  C   UNL A   1      39.029  33.828  38.048  1.00  0.00     0.010 A 
ATOM     91  C   UNL A   1      40.509  35.328  36.849  1.00  0.00     0.010 A 
ATOM     92  C   UNL A   1      38.888  34.781  39.061  1.00  0.00     0.020 A 
ATOM     93  C   UNL A   1      40.388  36.274  37.870  1.00  0.00     0.020 A 
ATOM     94  C   UNL A   1      39.566  36.001  38.965  1.00  0.00     0.054 A 
BRANCH  94  95
ATOM     95  S   UNL A   1      39.392  37.207  40.308  1.00  0.00     0.124 S 
ATOM     96  O   UNL A   1      38.596  36.466  41.282  1.00  0.00    -0.237 OA
ATOM     97  O   UNL A   1      40.778  37.463  40.694  1.00  0.00    -0.237 OA
ATOM     98  O   UNL A   1      38.711  38.335  39.676  1.00  0.00    -0.744 OA
ENDBRANCH  94  95
ENDBRANCH  68  89
ENDBRANCH  42  43
ENDBRANCH  34  37
ENDBRANCH  32  33
ENDBRANCH  31  32
ENDBRANCH   1  31
TORSDOF 17
ENDMDL
