MODEL 1
REMARK VINA RESULT:     -11.2      0.000      0.000
REMARK SMILES O=C(C[C@@H]1C(=O)NC(=S)N1c1ccccc1)NCCCCNC(=O)c1ccc(-c2c3nc(c(-c4ccc(S(=O)(=O)[O-])cc4)c4ccc([nH]4)c(-c4ccc(S(=O)(=O)[O-])cc4)c4nc(c(-c5ccc(S(=O)(=O)[O-])cc5)c5ccc2[nH]5)C=C4)C=C3)cc1
REMARK SMILES IDX 20 1 19 2 18 3 17 4 1 5 2 6 3 8 4 9 5 10 10 11 6 12 7 13
REMARK SMILES IDX 8 14 9 16 11 17 12 18 16 19 13 20 15 21 14 22 21 23 22 24
REMARK SMILES IDX 23 25 24 27 25 28 26 29 84 30 27 31 83 32 28 33 29 34 30 35
REMARK SMILES IDX 77 36 31 37 82 38 76 39 78 40 32 41 81 42 75 43 74 44 33 46
REMARK SMILES IDX 63 47 44 48 62 49 45 50 48 51 61 52 79 53 46 54 47 55 60 57
REMARK SMILES IDX 80 58 49 59 34 60 35 61 43 62 36 63 42 64 37 65 38 66 39 67
REMARK SMILES IDX 40 68 41 69 64 70 65 71 73 72 66 73 72 74 67 75 68 76 69 77
REMARK SMILES IDX 70 78 71 79 50 80 51 81 59 82 52 83 58 84 53 85 54 86 55 87
REMARK SMILES IDX 56 88 57 89
REMARK H PARENT 17 7 7 15 22 26 78 45 48 56
REMARK Flexibility Score: inf
ROOT
ATOM      1  C   UNL A   1      33.849  28.094  25.782  1.00  0.00     0.023 C 
ENDROOT
BRANCH   1   2
ATOM      2  C   UNL A   1      33.165  26.881  25.150  1.00  0.00     0.023 C 
BRANCH   2   3
ATOM      3  C   UNL A   1      33.931  25.572  25.287  1.00  0.00     0.116 C 
BRANCH   3   4
ATOM      4  N   UNL A   1      33.089  24.472  25.708  1.00  0.00    -0.356 N 
ATOM      5  O   UNL A   1      33.317  23.229  23.791  1.00  0.00    -0.275 OA
ATOM      6  C   UNL A   1      32.934  23.336  24.952  1.00  0.00     0.222 C 
ATOM      7  H   UNL A   1      32.610  24.540  26.565  1.00  0.00     0.163 HD
BRANCH   6   8
ATOM      8  C   UNL A   1      32.269  22.188  25.665  1.00  0.00     0.135 C 
BRANCH   8   9
ATOM      9  C   UNL A   1      33.172  21.080  26.242  1.00  0.00     0.188 C 
ATOM     10  C   UNL A   1      34.057  21.810  27.257  1.00  0.00     0.249 C 
ATOM     11  N   UNL A   1      34.223  20.489  25.402  1.00  0.00    -0.306 N 
ATOM     12  O   UNL A   1      33.667  22.382  28.267  1.00  0.00    -0.272 OA
ATOM     13  N   UNL A   1      35.328  21.857  26.790  1.00  0.00    -0.301 N 
ATOM     14  C   UNL A   1      35.463  21.107  25.665  1.00  0.00     0.180 C 
ATOM     15  H   UNL A   1      36.057  22.367  27.210  1.00  0.00     0.172 HD
ATOM     16  S   UNL A   1      36.890  21.113  24.816  1.00  0.00    -0.040 S 
BRANCH  11  17
ATOM     17  C   UNL A   1      33.988  19.344  24.573  1.00  0.00     0.044 A 
ATOM     18  C   UNL A   1      32.870  19.266  23.731  1.00  0.00     0.026 A 
ATOM     19  C   UNL A   1      34.859  18.247  24.559  1.00  0.00     0.026 A 
ATOM     20  C   UNL A   1      32.551  18.095  23.033  1.00  0.00     0.002 A 
ATOM     21  C   UNL A   1      34.521  17.053  23.910  1.00  0.00     0.002 A 
ATOM     22  C   UNL A   1      33.354  16.970  23.162  1.00  0.00     0.000 A 
ENDBRANCH  11  17
ENDBRANCH   8   9
ENDBRANCH   6   8
ENDBRANCH   3   4
ENDBRANCH   2   3
ENDBRANCH   1   2
BRANCH   1  23
ATOM     23  C   UNL A   1      33.429  28.406  27.216  1.00  0.00     0.116 C 
BRANCH  23  24
ATOM     24  N   UNL A   1      33.375  29.833  27.488  1.00  0.00    -0.352 N 
ATOM     25  C   UNL A   1      34.324  30.655  28.047  1.00  0.00     0.251 C 
ATOM     26  H   UNL A   1      32.532  30.276  27.235  1.00  0.00     0.163 HD
ATOM     27  O   UNL A   1      34.031  31.811  28.342  1.00  0.00    -0.269 OA
BRANCH  25  28
ATOM     28  C   UNL A   1      35.686  30.144  28.323  1.00  0.00     0.039 A 
ATOM     29  C   UNL A   1      36.632  30.158  27.294  1.00  0.00     0.014 A 
ATOM     30  C   UNL A   1      36.036  29.656  29.584  1.00  0.00     0.014 A 
ATOM     31  C   UNL A   1      37.945  29.751  27.552  1.00  0.00     0.010 A 
ATOM     32  C   UNL A   1      37.363  29.329  29.860  1.00  0.00     0.010 A 
ATOM     33  C   UNL A   1      38.334  29.374  28.848  1.00  0.00    -0.014 A 
BRANCH  33  34
ATOM     34  C   UNL A   1      39.749  29.037  29.161  1.00  0.00     0.031 A 
ATOM     35  C   UNL A   1      40.654  30.058  29.799  1.00  0.00     0.074 A 
ATOM     36  C   UNL A   1      40.239  27.828  28.819  1.00  0.00     0.049 A 
ATOM     37  N   UNL A   1      41.923  29.959  30.106  1.00  0.00    -0.248 NA
ATOM     38  C   UNL A   1      40.062  31.369  30.115  1.00  0.00     0.031 C 
ATOM     39  C   UNL A   1      39.479  26.759  28.167  1.00  0.00     0.029 A 
ATOM     40  N   UNL A   1      41.496  27.293  28.970  1.00  0.00    -0.354 N 
ATOM     41  C   UNL A   1      42.284  31.195  30.632  1.00  0.00     0.074 A 
ATOM     42  C   UNL A   1      41.115  32.042  30.560  1.00  0.00     0.031 C 
ATOM     43  C   UNL A   1      40.274  25.689  28.005  1.00  0.00     0.029 A 
ATOM     44  C   UNL A   1      41.612  26.007  28.494  1.00  0.00     0.049 A 
ATOM     45  H   UNL A   1      42.244  27.784  29.381  1.00  0.00     0.167 HD
ATOM     46  C   UNL A   1      43.476  31.584  31.144  1.00  0.00     0.031 A 
ATOM     47  C   UNL A   1      42.673  25.178  28.449  1.00  0.00     0.031 A 
ATOM     48  C   UNL A   1      44.639  30.737  31.220  1.00  0.00     0.049 A 
ATOM     49  C   UNL A   1      43.993  25.644  28.999  1.00  0.00     0.074 A 
ATOM     50  C   UNL A   1      45.875  31.024  31.774  1.00  0.00     0.029 A 
ATOM     51  N   UNL A   1      44.715  29.446  30.719  1.00  0.00    -0.354 N 
ATOM     52  N   UNL A   1      44.295  26.793  29.557  1.00  0.00    -0.248 NA
ATOM     53  C   UNL A   1      45.116  24.698  28.922  1.00  0.00     0.031 C 
ATOM     54  C   UNL A   1      46.718  29.931  31.550  1.00  0.00     0.029 A 
ATOM     55  C   UNL A   1      45.986  28.935  30.922  1.00  0.00     0.049 A 
ATOM     56  H   UNL A   1      43.975  28.964  30.285  1.00  0.00     0.167 HD
ATOM     57  C   UNL A   1      45.632  26.693  29.926  1.00  0.00     0.074 A 
ATOM     58  C   UNL A   1      46.076  25.369  29.541  1.00  0.00     0.031 C 
ATOM     59  C   UNL A   1      46.420  27.616  30.534  1.00  0.00     0.031 A 
BRANCH  46  60
ATOM     60  C   UNL A   1      43.592  33.000  31.651  1.00  0.00    -0.014 A 
ATOM     61  C   UNL A   1      43.390  33.310  33.008  1.00  0.00     0.010 A 
ATOM     62  C   UNL A   1      43.956  34.031  30.763  1.00  0.00     0.010 A 
ATOM     63  C   UNL A   1      43.508  34.628  33.459  1.00  0.00     0.020 A 
ATOM     64  C   UNL A   1      44.106  35.344  31.217  1.00  0.00     0.020 A 
ATOM     65  C   UNL A   1      43.863  35.637  32.559  1.00  0.00     0.054 A 
BRANCH  65  66
ATOM     66  S   UNL A   1      44.030  37.333  33.179  1.00  0.00     0.124 S 
ATOM     67  O   UNL A   1      44.044  38.107  31.940  1.00  0.00    -0.237 OA
ATOM     68  O   UNL A   1      42.836  37.491  34.005  1.00  0.00    -0.237 OA
ATOM     69  O   UNL A   1      45.294  37.313  33.914  1.00  0.00    -0.744 OA
ENDBRANCH  65  66
ENDBRANCH  46  60
BRANCH  47  70
ATOM     70  C   UNL A   1      42.529  23.813  27.869  1.00  0.00    -0.014 A 
ATOM     71  C   UNL A   1      42.808  23.580  26.511  1.00  0.00     0.010 A 
ATOM     72  C   UNL A   1      42.116  22.735  28.674  1.00  0.00     0.010 A 
ATOM     73  C   UNL A   1      42.659  22.302  25.964  1.00  0.00     0.020 A 
ATOM     74  C   UNL A   1      41.994  21.450  28.138  1.00  0.00     0.020 A 
ATOM     75  C   UNL A   1      42.256  21.244  26.783  1.00  0.00     0.054 A 
BRANCH  75  76
ATOM     76  S   UNL A   1      42.114  19.585  26.061  1.00  0.00     0.124 S 
ATOM     77  O   UNL A   1      43.011  19.675  24.914  1.00  0.00    -0.237 OA
ATOM     78  O   UNL A   1      42.565  18.727  27.153  1.00  0.00    -0.237 OA
ATOM     79  O   UNL A   1      40.692  19.474  25.737  1.00  0.00    -0.744 OA
ENDBRANCH  75  76
ENDBRANCH  47  70
BRANCH  59  80
ATOM     80  C   UNL A   1      47.836  27.217  30.860  1.00  0.00    -0.014 A 
ATOM     81  C   UNL A   1      48.133  26.388  31.955  1.00  0.00     0.010 A 
ATOM     82  C   UNL A   1      48.883  27.639  30.018  1.00  0.00     0.010 A 
ATOM     83  C   UNL A   1      49.454  26.014  32.221  1.00  0.00     0.020 A 
ATOM     84  C   UNL A   1      50.200  27.240  30.262  1.00  0.00     0.020 A 
ATOM     85  C   UNL A   1      50.478  26.441  31.371  1.00  0.00     0.054 A 
BRANCH  85  86
ATOM     86  S   UNL A   1      52.177  25.904  31.712  1.00  0.00     0.124 S 
ATOM     87  O   UNL A   1      52.624  26.903  32.679  1.00  0.00    -0.237 OA
ATOM     88  O   UNL A   1      51.984  24.556  32.244  1.00  0.00    -0.237 OA
ATOM     89  O   UNL A   1      52.830  25.964  30.408  1.00  0.00    -0.744 OA
ENDBRANCH  85  86
ENDBRANCH  59  80
ENDBRANCH  33  34
ENDBRANCH  25  28
ENDBRANCH  23  24
ENDBRANCH   1  23
TORSDOF 16
ENDMDL
MODEL 2
REMARK VINA RESULT:     -11.1      1.403      2.303
REMARK SMILES O=C(C[C@@H]1C(=O)NC(=S)N1c1ccccc1)NCCCCNC(=O)c1ccc(-c2c3nc(c(-c4ccc(S(=O)(=O)[O-])cc4)c4ccc([nH]4)c(-c4ccc(S(=O)(=O)[O-])cc4)c4nc(c(-c5ccc(S(=O)(=O)[O-])cc5)c5ccc2[nH]5)C=C4)C=C3)cc1
REMARK SMILES IDX 20 1 19 2 18 3 17 4 1 5 2 6 3 8 4 9 5 10 10 11 6 12 7 13
REMARK SMILES IDX 8 14 9 16 11 17 12 18 16 19 13 20 15 21 14 22 21 23 22 24
REMARK SMILES IDX 23 25 24 27 25 28 26 29 84 30 27 31 83 32 28 33 29 34 30 35
REMARK SMILES IDX 77 36 31 37 82 38 76 39 78 40 32 41 81 42 75 43 74 44 33 46
REMARK SMILES IDX 63 47 44 48 62 49 45 50 48 51 61 52 79 53 46 54 47 55 60 57
REMARK SMILES IDX 80 58 49 59 34 60 35 61 43 62 36 63 42 64 37 65 38 66 39 67
REMARK SMILES IDX 40 68 41 69 64 70 65 71 73 72 66 73 72 74 67 75 68 76 69 77
REMARK SMILES IDX 70 78 71 79 50 80 51 81 59 82 52 83 58 84 53 85 54 86 55 87
REMARK SMILES IDX 56 88 57 89
REMARK H PARENT 17 7 7 15 22 26 78 45 48 56
REMARK Flexibility Score: inf
ROOT
ATOM      1  C   UNL A   1      34.076  27.826  26.144  1.00  0.00     0.023 C 
ENDROOT
BRANCH   1   2
ATOM      2  C   UNL A   1      33.288  27.891  24.835  1.00  0.00     0.023 C 
BRANCH   2   3
ATOM      3  C   UNL A   1      32.427  26.668  24.546  1.00  0.00     0.116 C 
BRANCH   3   4
ATOM      4  N   UNL A   1      33.197  25.548  24.046  1.00  0.00    -0.356 N 
ATOM      5  O   UNL A   1      31.409  24.162  23.660  1.00  0.00    -0.275 OA
ATOM      6  C   UNL A   1      32.604  24.415  23.547  1.00  0.00     0.222 C 
ATOM      7  H   UNL A   1      34.180  25.600  24.065  1.00  0.00     0.163 HD
BRANCH   6   8
ATOM      8  C   UNL A   1      33.534  23.488  22.809  1.00  0.00     0.135 C 
BRANCH   8   9
ATOM      9  C   UNL A   1      34.020  22.223  23.543  1.00  0.00     0.188 C 
ATOM     10  C   UNL A   1      32.739  21.419  23.789  1.00  0.00     0.249 C 
ATOM     11  N   UNL A   1      34.497  22.326  24.929  1.00  0.00    -0.306 N 
ATOM     12  O   UNL A   1      32.007  20.954  22.924  1.00  0.00    -0.272 OA
ATOM     13  N   UNL A   1      32.454  21.426  25.115  1.00  0.00    -0.301 N 
ATOM     14  C   UNL A   1      33.465  21.988  25.828  1.00  0.00     0.180 C 
ATOM     15  H   UNL A   1      31.625  21.071  25.508  1.00  0.00     0.172 HD
ATOM     16  S   UNL A   1      33.300  22.246  27.460  1.00  0.00    -0.040 S 
BRANCH  11  17
ATOM     17  C   UNL A   1      35.871  22.582  25.249  1.00  0.00     0.044 A 
ATOM     18  C   UNL A   1      36.850  21.588  25.122  1.00  0.00     0.026 A 
ATOM     19  C   UNL A   1      36.305  23.834  25.702  1.00  0.00     0.026 A 
ATOM     20  C   UNL A   1      38.162  21.781  25.572  1.00  0.00     0.002 A 
ATOM     21  C   UNL A   1      37.599  24.020  26.206  1.00  0.00     0.002 A 
ATOM     22  C   UNL A   1      38.523  22.985  26.159  1.00  0.00     0.000 A 
ENDBRANCH  11  17
ENDBRANCH   8   9
ENDBRANCH   6   8
ENDBRANCH   3   4
ENDBRANCH   2   3
ENDBRANCH   1   2
BRANCH   1  23
ATOM     23  C   UNL A   1      33.328  28.315  27.381  1.00  0.00     0.116 C 
BRANCH  23  24
ATOM     24  N   UNL A   1      33.324  29.764  27.500  1.00  0.00    -0.352 N 
ATOM     25  C   UNL A   1      34.314  30.610  27.942  1.00  0.00     0.251 C 
ATOM     26  H   UNL A   1      32.487  30.205  27.224  1.00  0.00     0.163 HD
ATOM     27  O   UNL A   1      34.064  31.799  28.120  1.00  0.00    -0.269 OA
BRANCH  25  28
ATOM     28  C   UNL A   1      35.668  30.087  28.235  1.00  0.00     0.039 A 
ATOM     29  C   UNL A   1      36.628  30.097  27.219  1.00  0.00     0.014 A 
ATOM     30  C   UNL A   1      35.996  29.591  29.499  1.00  0.00     0.014 A 
ATOM     31  C   UNL A   1      37.934  29.680  27.493  1.00  0.00     0.010 A 
ATOM     32  C   UNL A   1      37.317  29.253  29.792  1.00  0.00     0.010 A 
ATOM     33  C   UNL A   1      38.302  29.294  28.793  1.00  0.00    -0.014 A 
BRANCH  33  34
ATOM     34  C   UNL A   1      39.710  28.946  29.125  1.00  0.00     0.031 A 
ATOM     35  C   UNL A   1      40.615  29.958  29.776  1.00  0.00     0.074 A 
ATOM     36  C   UNL A   1      40.195  27.733  28.787  1.00  0.00     0.049 A 
ATOM     37  N   UNL A   1      41.879  29.848  30.100  1.00  0.00    -0.248 NA
ATOM     38  C   UNL A   1      40.030  31.274  30.086  1.00  0.00     0.031 C 
ATOM     39  C   UNL A   1      39.435  26.671  28.122  1.00  0.00     0.029 A 
ATOM     40  N   UNL A   1      41.445  27.188  28.954  1.00  0.00    -0.354 N 
ATOM     41  C   UNL A   1      42.243  31.080  30.632  1.00  0.00     0.074 A 
ATOM     42  C   UNL A   1      41.082  31.937  30.546  1.00  0.00     0.031 C 
ATOM     43  C   UNL A   1      40.223  25.595  27.969  1.00  0.00     0.029 A 
ATOM     44  C   UNL A   1      41.557  25.902  28.477  1.00  0.00     0.049 A 
ATOM     45  H   UNL A   1      42.191  27.672  29.375  1.00  0.00     0.167 HD
ATOM     46  C   UNL A   1      43.432  31.459  31.161  1.00  0.00     0.031 A 
ATOM     47  C   UNL A   1      42.611  25.063  28.444  1.00  0.00     0.031 A 
ATOM     48  C   UNL A   1      44.586  30.602  31.250  1.00  0.00     0.049 A 
ATOM     49  C   UNL A   1      43.928  25.518  29.013  1.00  0.00     0.074 A 
ATOM     50  C   UNL A   1      45.817  30.878  31.822  1.00  0.00     0.029 A 
ATOM     51  N   UNL A   1      44.658  29.312  30.749  1.00  0.00    -0.354 N 
ATOM     52  N   UNL A   1      44.232  26.663  29.577  1.00  0.00    -0.248 NA
ATOM     53  C   UNL A   1      45.044  24.563  28.949  1.00  0.00     0.031 C 
ATOM     54  C   UNL A   1      46.653  29.778  31.607  1.00  0.00     0.029 A 
ATOM     55  C   UNL A   1      45.922  28.790  30.968  1.00  0.00     0.049 A 
ATOM     56  H   UNL A   1      43.920  28.836  30.304  1.00  0.00     0.167 HD
ATOM     57  C   UNL A   1      45.563  26.552  29.963  1.00  0.00     0.074 A 
ATOM     58  C   UNL A   1      46.001  25.225  29.582  1.00  0.00     0.031 C 
ATOM     59  C   UNL A   1      46.351  27.467  30.583  1.00  0.00     0.031 A 
BRANCH  46  60
ATOM     60  C   UNL A   1      43.552  32.873  31.672  1.00  0.00    -0.014 A 
ATOM     61  C   UNL A   1      43.980  33.919  30.835  1.00  0.00     0.010 A 
ATOM     62  C   UNL A   1      43.185  33.168  32.999  1.00  0.00     0.010 A 
ATOM     63  C   UNL A   1      44.079  35.224  31.326  1.00  0.00     0.020 A 
ATOM     64  C   UNL A   1      43.253  34.477  33.484  1.00  0.00     0.020 A 
ATOM     65  C   UNL A   1      43.716  35.494  32.649  1.00  0.00     0.054 A 
BRANCH  65  66
ATOM     66  S   UNL A   1      43.834  37.201  33.250  1.00  0.00     0.124 S 
ATOM     67  O   UNL A   1      45.127  37.192  33.930  1.00  0.00    -0.237 OA
ATOM     68  O   UNL A   1      43.779  37.980  32.016  1.00  0.00    -0.237 OA
ATOM     69  O   UNL A   1      42.672  37.343  34.126  1.00  0.00    -0.744 OA
ENDBRANCH  65  66
ENDBRANCH  46  60
BRANCH  47  70
ATOM     70  C   UNL A   1      42.464  23.701  27.860  1.00  0.00    -0.014 A 
ATOM     71  C   UNL A   1      42.704  23.479  26.493  1.00  0.00     0.010 A 
ATOM     72  C   UNL A   1      42.087  22.614  28.670  1.00  0.00     0.010 A 
ATOM     73  C   UNL A   1      42.551  22.203  25.942  1.00  0.00     0.020 A 
ATOM     74  C   UNL A   1      41.963  21.330  28.130  1.00  0.00     0.020 A 
ATOM     75  C   UNL A   1      42.185  21.136  26.766  1.00  0.00     0.054 A 
BRANCH  75  76
ATOM     76  S   UNL A   1      42.038  19.480  26.038  1.00  0.00     0.124 S 
ATOM     77  O   UNL A   1      42.892  19.590  24.860  1.00  0.00    -0.237 OA
ATOM     78  O   UNL A   1      42.539  18.621  27.107  1.00  0.00    -0.237 OA
ATOM     79  O   UNL A   1      40.607  19.352  25.765  1.00  0.00    -0.744 OA
ENDBRANCH  75  76
ENDBRANCH  47  70
BRANCH  59  80
ATOM     80  C   UNL A   1      47.759  27.057  30.927  1.00  0.00    -0.014 A 
ATOM     81  C   UNL A   1      48.036  26.230  32.029  1.00  0.00     0.010 A 
ATOM     82  C   UNL A   1      48.820  27.464  30.095  1.00  0.00     0.010 A 
ATOM     83  C   UNL A   1      49.349  25.844  32.313  1.00  0.00     0.020 A 
ATOM     84  C   UNL A   1      50.130  27.054  30.356  1.00  0.00     0.020 A 
ATOM     85  C   UNL A   1      50.387  26.257  31.472  1.00  0.00     0.054 A 
BRANCH  85  86
ATOM     86  S   UNL A   1      52.076  25.705  31.835  1.00  0.00     0.124 S 
ATOM     87  O   UNL A   1      52.740  25.888  30.547  1.00  0.00    -0.237 OA
ATOM     88  O   UNL A   1      52.492  26.624  32.893  1.00  0.00    -0.237 OA
ATOM     89  O   UNL A   1      51.906  24.317  32.257  1.00  0.00    -0.744 OA
ENDBRANCH  85  86
ENDBRANCH  59  80
ENDBRANCH  33  34
ENDBRANCH  25  28
ENDBRANCH  23  24
ENDBRANCH   1  23
TORSDOF 16
ENDMDL
MODEL 3
REMARK VINA RESULT:     -11.1      3.926     10.440
REMARK SMILES O=C(C[C@@H]1C(=O)NC(=S)N1c1ccccc1)NCCCCNC(=O)c1ccc(-c2c3nc(c(-c4ccc(S(=O)(=O)[O-])cc4)c4ccc([nH]4)c(-c4ccc(S(=O)(=O)[O-])cc4)c4nc(c(-c5ccc(S(=O)(=O)[O-])cc5)c5ccc2[nH]5)C=C4)C=C3)cc1
REMARK SMILES IDX 20 1 19 2 18 3 17 4 1 5 2 6 3 8 4 9 5 10 10 11 6 12 7 13
REMARK SMILES IDX 8 14 9 16 11 17 12 18 16 19 13 20 15 21 14 22 21 23 22 24
REMARK SMILES IDX 23 25 24 27 25 28 26 29 84 30 27 31 83 32 28 33 29 34 30 35
REMARK SMILES IDX 77 36 31 37 82 38 76 39 78 40 32 41 81 42 75 43 74 44 33 46
REMARK SMILES IDX 63 47 44 48 62 49 45 50 48 51 61 52 79 53 46 54 47 55 60 57
REMARK SMILES IDX 80 58 49 59 34 60 35 61 43 62 36 63 42 64 37 65 38 66 39 67
REMARK SMILES IDX 40 68 41 69 64 70 65 71 73 72 66 73 72 74 67 75 68 76 69 77
REMARK SMILES IDX 70 78 71 79 50 80 51 81 59 82 52 83 58 84 53 85 54 86 55 87
REMARK SMILES IDX 56 88 57 89
REMARK H PARENT 17 7 7 15 22 26 78 45 48 56
REMARK Flexibility Score: inf
ROOT
ATOM      1  C   UNL A   1      40.955  20.621  25.976  1.00  0.00     0.023 C 
ENDROOT
BRANCH   1   2
ATOM      2  C   UNL A   1      40.936  19.102  26.152  1.00  0.00     0.023 C 
BRANCH   2   3
ATOM      3  C   UNL A   1      42.287  18.482  26.486  1.00  0.00     0.116 C 
BRANCH   3   4
ATOM      4  N   UNL A   1      43.381  19.421  26.352  1.00  0.00    -0.356 N 
ATOM      5  O   UNL A   1      44.374  18.398  24.552  1.00  0.00    -0.275 OA
ATOM      6  C   UNL A   1      44.285  19.351  25.320  1.00  0.00     0.222 C 
ATOM      7  H   UNL A   1      43.482  20.134  27.023  1.00  0.00     0.163 HD
BRANCH   6   8
ATOM      8  C   UNL A   1      45.167  20.562  25.170  1.00  0.00     0.135 C 
BRANCH   8   9
ATOM      9  C   UNL A   1      44.490  21.946  25.145  1.00  0.00     0.188 C 
ATOM     10  C   UNL A   1      44.835  22.505  23.760  1.00  0.00     0.249 C 
ATOM     11  N   UNL A   1      45.028  23.033  25.973  1.00  0.00    -0.306 N 
ATOM     12  O   UNL A   1      44.491  22.025  22.687  1.00  0.00    -0.272 OA
ATOM     13  N   UNL A   1      45.709  23.532  23.898  1.00  0.00    -0.301 N 
ATOM     14  C   UNL A   1      45.876  23.858  25.207  1.00  0.00     0.180 C 
ATOM     15  H   UNL A   1      46.162  23.982  23.150  1.00  0.00     0.172 HD
ATOM     16  S   UNL A   1      47.005  24.991  25.654  1.00  0.00    -0.040 S 
BRANCH  11  17
ATOM     17  C   UNL A   1      44.588  23.261  27.319  1.00  0.00     0.044 A 
ATOM     18  C   UNL A   1      43.241  23.121  27.682  1.00  0.00     0.026 A 
ATOM     19  C   UNL A   1      45.476  23.631  28.337  1.00  0.00     0.026 A 
ATOM     20  C   UNL A   1      42.778  23.485  28.952  1.00  0.00     0.002 A 
ATOM     21  C   UNL A   1      45.015  24.049  29.592  1.00  0.00     0.002 A 
ATOM     22  C   UNL A   1      43.661  23.995  29.893  1.00  0.00     0.000 A 
ENDBRANCH  11  17
ENDBRANCH   8   9
ENDBRANCH   6   8
ENDBRANCH   3   4
ENDBRANCH   2   3
ENDBRANCH   1   2
BRANCH   1  23
ATOM     23  C   UNL A   1      40.065  21.401  26.939  1.00  0.00     0.116 C 
BRANCH  23  24
ATOM     24  N   UNL A   1      38.859  21.909  26.307  1.00  0.00    -0.352 N 
ATOM     25  C   UNL A   1      38.362  23.190  26.267  1.00  0.00     0.251 C 
ATOM     26  H   UNL A   1      38.316  21.234  25.837  1.00  0.00     0.163 HD
ATOM     27  O   UNL A   1      37.239  23.395  25.814  1.00  0.00    -0.269 OA
BRANCH  25  28
ATOM     28  C   UNL A   1      39.162  24.318  26.797  1.00  0.00     0.039 A 
ATOM     29  C   UNL A   1      39.945  25.064  25.911  1.00  0.00     0.014 A 
ATOM     30  C   UNL A   1      39.144  24.645  28.155  1.00  0.00     0.014 A 
ATOM     31  C   UNL A   1      40.648  26.179  26.375  1.00  0.00     0.010 A 
ATOM     32  C   UNL A   1      39.779  25.804  28.600  1.00  0.00     0.010 A 
ATOM     33  C   UNL A   1      40.538  26.586  27.716  1.00  0.00    -0.014 A 
BRANCH  33  34
ATOM     34  C   UNL A   1      41.197  27.828  28.202  1.00  0.00     0.031 A 
ATOM     35  C   UNL A   1      42.696  27.965  28.157  1.00  0.00     0.074 A 
ATOM     36  C   UNL A   1      40.450  28.814  28.739  1.00  0.00     0.049 A 
ATOM     37  N   UNL A   1      43.447  28.954  28.573  1.00  0.00    -0.248 NA
ATOM     38  C   UNL A   1      43.453  26.837  27.589  1.00  0.00     0.031 C 
ATOM     39  C   UNL A   1      38.991  28.795  28.873  1.00  0.00     0.029 A 
ATOM     40  N   UNL A   1      40.813  30.026  29.276  1.00  0.00    -0.354 N 
ATOM     41  C   UNL A   1      44.759  28.560  28.335  1.00  0.00     0.074 A 
ATOM     42  C   UNL A   1      44.706  27.225  27.782  1.00  0.00     0.031 C 
ATOM     43  C   UNL A   1      38.583  29.951  29.422  1.00  0.00     0.029 A 
ATOM     44  C   UNL A   1      39.750  30.774  29.725  1.00  0.00     0.049 A 
ATOM     45  H   UNL A   1      41.748  30.330  29.333  1.00  0.00     0.167 HD
ATOM     46  C   UNL A   1      45.905  29.253  28.542  1.00  0.00     0.031 A 
ATOM     47  C   UNL A   1      39.713  31.983  30.320  1.00  0.00     0.031 A 
ATOM     48  C   UNL A   1      45.957  30.584  29.089  1.00  0.00     0.049 A 
ATOM     49  C   UNL A   1      41.002  32.720  30.565  1.00  0.00     0.074 A 
ATOM     50  C   UNL A   1      47.065  31.390  29.283  1.00  0.00     0.029 A 
ATOM     51  N   UNL A   1      44.858  31.302  29.539  1.00  0.00    -0.354 N 
ATOM     52  N   UNL A   1      42.228  32.359  30.267  1.00  0.00    -0.248 NA
ATOM     53  C   UNL A   1      40.901  34.033  31.219  1.00  0.00     0.031 C 
ATOM     54  C   UNL A   1      46.646  32.567  29.909  1.00  0.00     0.029 A 
ATOM     55  C   UNL A   1      45.266  32.527  30.039  1.00  0.00     0.049 A 
ATOM     56  H   UNL A   1      43.926  30.987  29.505  1.00  0.00     0.167 HD
ATOM     57  C   UNL A   1      43.039  33.415  30.667  1.00  0.00     0.074 A 
ATOM     58  C   UNL A   1      42.165  34.432  31.214  1.00  0.00     0.031 C 
ATOM     59  C   UNL A   1      44.389  33.533  30.584  1.00  0.00     0.031 A 
BRANCH  46  60
ATOM     60  C   UNL A   1      47.206  28.576  28.191  1.00  0.00    -0.014 A 
ATOM     61  C   UNL A   1      47.839  27.698  29.089  1.00  0.00     0.010 A 
ATOM     62  C   UNL A   1      47.780  28.784  26.923  1.00  0.00     0.010 A 
ATOM     63  C   UNL A   1      49.042  27.075  28.742  1.00  0.00     0.020 A 
ATOM     64  C   UNL A   1      48.966  28.139  26.561  1.00  0.00     0.020 A 
ATOM     65  C   UNL A   1      49.599  27.302  27.480  1.00  0.00     0.054 A 
BRANCH  65  66
ATOM     66  S   UNL A   1      51.148  26.463  27.051  1.00  0.00     0.124 S 
ATOM     67  O   UNL A   1      51.351  26.893  25.670  1.00  0.00    -0.237 OA
ATOM     68  O   UNL A   1      52.089  27.010  28.024  1.00  0.00    -0.237 OA
ATOM     69  O   UNL A   1      50.834  25.045  27.220  1.00  0.00    -0.744 OA
ENDBRANCH  65  66
ENDBRANCH  46  60
BRANCH  47  70
ATOM     70  C   UNL A   1      38.407  32.579  30.718  1.00  0.00    -0.014 A 
ATOM     71  C   UNL A   1      37.641  33.306  29.790  1.00  0.00     0.010 A 
ATOM     72  C   UNL A   1      37.918  32.420  32.028  1.00  0.00     0.010 A 
ATOM     73  C   UNL A   1      36.423  33.879  30.167  1.00  0.00     0.020 A 
ATOM     74  C   UNL A   1      36.686  32.964  32.402  1.00  0.00     0.020 A 
ATOM     75  C   UNL A   1      35.951  33.701  31.471  1.00  0.00     0.054 A 
BRANCH  75  76
ATOM     76  S   UNL A   1      34.345  34.413  31.924  1.00  0.00     0.124 S 
ATOM     77  O   UNL A   1      33.806  33.400  32.825  1.00  0.00    -0.237 OA
ATOM     78  O   UNL A   1      34.727  35.678  32.547  1.00  0.00    -0.237 OA
ATOM     79  O   UNL A   1      33.655  34.543  30.641  1.00  0.00    -0.744 OA
ENDBRANCH  75  76
ENDBRANCH  47  70
BRANCH  59  80
ATOM     80  C   UNL A   1      45.007  34.822  31.060  1.00  0.00    -0.014 A 
ATOM     81  C   UNL A   1      45.201  35.909  30.190  1.00  0.00     0.010 A 
ATOM     82  C   UNL A   1      45.350  34.964  32.418  1.00  0.00     0.010 A 
ATOM     83  C   UNL A   1      45.755  37.103  30.663  1.00  0.00     0.020 A 
ATOM     84  C   UNL A   1      45.874  36.166  32.901  1.00  0.00     0.020 A 
ATOM     85  C   UNL A   1      46.085  37.224  32.016  1.00  0.00     0.054 A 
BRANCH  85  86
ATOM     86  S   UNL A   1      46.760  38.798  32.612  1.00  0.00     0.124 S 
ATOM     87  O   UNL A   1      45.654  39.322  33.409  1.00  0.00    -0.237 OA
ATOM     88  O   UNL A   1      47.935  38.374  33.371  1.00  0.00    -0.237 OA
ATOM     89  O   UNL A   1      47.051  39.539  31.387  1.00  0.00    -0.744 OA
ENDBRANCH  85  86
ENDBRANCH  59  80
ENDBRANCH  33  34
ENDBRANCH  25  28
ENDBRANCH  23  24
ENDBRANCH   1  23
TORSDOF 16
ENDMDL
