MODEL 1
REMARK VINA RESULT:     -12.6      0.000      0.000
REMARK SMILES C[C@@]1(C(=O)c2ccccc2N)[C@H](C(=O)NCCCCNC(=O)c2ccc(-c3c4nc(c(-c5ccc(S(=O)(=O)[O-])cc5)c5ccc([nH]5)c(-c5ccc(S(=O)(=O)[O-])cc5)c5nc(c(-c6ccc(S(=O)(=O)[O-])cc6)c6ccc3[nH]6)C=C5)C=C4)cc2)[C@@H]1C(=O)N1CCOCC1
REMARK SMILES IDX 17 1 16 2 15 3 13 4 14 5 12 7 1 8 2 9 83 10 3 11 4 12 5 13
REMARK SMILES IDX 6 14 10 15 7 16 9 17 8 18 11 19 84 22 85 23 86 24 87 25
REMARK SMILES IDX 91 26 88 27 90 28 89 29 18 30 19 31 20 32 21 33 22 35 23 36
REMARK SMILES IDX 24 37 82 38 25 39 81 40 26 41 27 42 28 43 75 44 29 45 80 46
REMARK SMILES IDX 74 47 76 48 30 49 79 50 73 51 72 52 31 54 61 55 42 56 60 57
REMARK SMILES IDX 43 58 46 59 59 60 77 61 44 62 45 63 58 65 78 66 47 67 32 68
REMARK SMILES IDX 33 69 41 70 34 71 40 72 35 73 36 74 37 75 38 76 39 77 62 78
REMARK SMILES IDX 63 79 71 80 64 81 70 82 65 83 66 84 67 85 68 86 69 87 48 88
REMARK SMILES IDX 49 89 57 90 50 91 56 92 51 93 52 94 53 95 54 96 55 97
REMARK H PARENT 15 6 11 20 11 21 20 34 76 53 46 64
REMARK Flexibility Score: inf
ROOT
ATOM      1  C   UNL A   1      33.198  30.114  26.938  1.00  0.00     0.023 C 
ENDROOT
BRANCH   1   2
ATOM      2  C   UNL A   1      32.431  29.936  25.632  1.00  0.00     0.116 C 
BRANCH   2   3
ATOM      3  N   UNL A   1      33.163  29.114  24.701  1.00  0.00    -0.356 N 
ATOM      4  C   UNL A   1      33.202  27.784  24.416  1.00  0.00     0.224 C 
ATOM      5  O   UNL A   1      34.027  27.452  23.562  1.00  0.00    -0.275 OA
ATOM      6  H   UNL A   1      33.779  29.637  24.141  1.00  0.00     0.163 HD
BRANCH   4   7
ATOM      7  C   UNL A   1      32.320  26.702  24.929  1.00  0.00     0.106 C 
ATOM      8  C   UNL A   1      29.843  25.981  25.183  1.00  0.00     0.022 C 
ATOM      9  C   UNL A   1      31.047  26.147  24.234  1.00  0.00     0.056 C 
ATOM     10  C   UNL A   1      32.226  25.257  24.625  1.00  0.00     0.106 C 
BRANCH   9  11
ATOM     11  C   UNL A   1      30.649  26.946  23.005  1.00  0.00     0.172 C 
ATOM     12  O   UNL A   1      31.164  26.540  21.957  1.00  0.00    -0.293 OA
BRANCH  11  13
ATOM     13  C   UNL A   1      29.773  28.147  22.841  1.00  0.00     0.041 A 
ATOM     14  C   UNL A   1      28.414  27.889  23.169  1.00  0.00     0.014 A 
ATOM     15  C   UNL A   1      30.097  29.430  22.371  1.00  0.00     0.042 A 
ATOM     16  C   UNL A   1      27.422  28.870  23.102  1.00  0.00     0.001 A 
ATOM     17  C   UNL A   1      29.082  30.416  22.328  1.00  0.00     0.026 A 
ATOM     18  C   UNL A   1      27.766  30.151  22.710  1.00  0.00     0.002 A 
BRANCH  15  19
ATOM     19  N   UNL A   1      31.307  29.765  21.758  1.00  0.00    -0.398 N 
ATOM     20  H   UNL A   1      31.337  29.947  20.791  1.00  0.00     0.156 HD
ATOM     21  H   UNL A   1      32.131  29.822  22.295  1.00  0.00     0.156 HD
ENDBRANCH  15  19
ENDBRANCH  11  13
ENDBRANCH   9  11
BRANCH  10  22
ATOM     22  C   UNL A   1      33.070  24.444  23.757  1.00  0.00     0.227 C 
ATOM     23  O   UNL A   1      32.617  24.085  22.665  1.00  0.00    -0.275 OA
ATOM     24  N   UNL A   1      34.274  23.965  24.224  1.00  0.00    -0.338 N 
ATOM     25  C   UNL A   1      34.519  23.666  25.639  1.00  0.00     0.148 C 
ATOM     26  C   UNL A   1      35.117  23.227  23.279  1.00  0.00     0.148 C 
ATOM     27  C   UNL A   1      36.010  23.571  25.970  1.00  0.00     0.181 C 
ATOM     28  C   UNL A   1      36.579  23.226  23.712  1.00  0.00     0.181 C 
ATOM     29  O   UNL A   1      36.704  22.720  25.048  1.00  0.00    -0.378 OA
ENDBRANCH  10  22
ENDBRANCH   4   7
ENDBRANCH   2   3
ENDBRANCH   1   2
BRANCH   1  30
ATOM     30  C   UNL A   1      34.609  29.557  26.960  1.00  0.00     0.023 C 
BRANCH  30  31
ATOM     31  C   UNL A   1      35.581  30.297  27.871  1.00  0.00     0.116 C 
BRANCH  31  32
ATOM     32  N   UNL A   1      35.444  30.003  29.298  1.00  0.00    -0.352 N 
ATOM     33  C   UNL A   1      36.428  29.864  30.253  1.00  0.00     0.251 C 
ATOM     34  H   UNL A   1      34.521  29.889  29.620  1.00  0.00     0.163 HD
ATOM     35  O   UNL A   1      36.143  29.577  31.411  1.00  0.00    -0.269 OA
BRANCH  33  36
ATOM     36  C   UNL A   1      37.839  30.004  29.839  1.00  0.00     0.039 A 
ATOM     37  C   UNL A   1      38.819  30.161  30.820  1.00  0.00     0.014 A 
ATOM     38  C   UNL A   1      38.193  29.803  28.505  1.00  0.00     0.014 A 
ATOM     39  C   UNL A   1      40.161  29.967  30.483  1.00  0.00     0.010 A 
ATOM     40  C   UNL A   1      39.512  29.499  28.198  1.00  0.00     0.010 A 
ATOM     41  C   UNL A   1      40.507  29.548  29.187  1.00  0.00    -0.014 A 
BRANCH  41  42
ATOM     42  C   UNL A   1      41.881  29.087  28.849  1.00  0.00     0.031 A 
ATOM     43  C   UNL A   1      43.012  30.076  28.787  1.00  0.00     0.074 A 
ATOM     44  C   UNL A   1      42.080  27.814  28.452  1.00  0.00     0.049 A 
ATOM     45  N   UNL A   1      44.233  29.906  28.347  1.00  0.00    -0.248 NA
ATOM     46  C   UNL A   1      42.714  31.450  29.221  1.00  0.00     0.031 C 
ATOM     47  C   UNL A   1      41.052  26.771  28.371  1.00  0.00     0.029 A 
ATOM     48  N   UNL A   1      43.221  27.183  28.015  1.00  0.00    -0.354 N 
ATOM     49  C   UNL A   1      44.827  31.161  28.395  1.00  0.00     0.074 A 
ATOM     50  C   UNL A   1      43.820  32.087  28.868  1.00  0.00     0.031 C 
ATOM     51  C   UNL A   1      41.611  25.630  27.938  1.00  0.00     0.029 A 
ATOM     52  C   UNL A   1      43.027  25.866  27.670  1.00  0.00     0.049 A 
ATOM     53  H   UNL A   1      44.094  27.632  27.952  1.00  0.00     0.167 HD
ATOM     54  C   UNL A   1      46.099  31.512  28.089  1.00  0.00     0.031 A 
ATOM     55  C   UNL A   1      43.885  24.947  27.187  1.00  0.00     0.031 A 
ATOM     56  C   UNL A   1      47.113  30.584  27.675  1.00  0.00     0.049 A 
ATOM     57  C   UNL A   1      45.318  25.328  26.957  1.00  0.00     0.074 A 
ATOM     58  C   UNL A   1      48.457  30.821  27.446  1.00  0.00     0.029 A 
ATOM     59  N   UNL A   1      46.898  29.234  27.439  1.00  0.00    -0.354 N 
ATOM     60  N   UNL A   1      45.884  26.504  27.090  1.00  0.00    -0.248 NA
ATOM     61  C   UNL A   1      46.231  24.261  26.530  1.00  0.00     0.031 C 
ATOM     62  C   UNL A   1      49.050  29.618  27.046  1.00  0.00     0.029 A 
ATOM     63  C   UNL A   1      48.082  28.626  27.060  1.00  0.00     0.049 A 
ATOM     64  H   UNL A   1      46.031  28.777  27.527  1.00  0.00     0.167 HD
ATOM     65  C   UNL A   1      47.224  26.316  26.775  1.00  0.00     0.074 A 
ATOM     66  C   UNL A   1      47.387  24.910  26.461  1.00  0.00     0.031 C 
ATOM     67  C   UNL A   1      48.228  27.227  26.751  1.00  0.00     0.031 A 
BRANCH  54  68
ATOM     68  C   UNL A   1      46.445  32.973  28.194  1.00  0.00    -0.014 A 
ATOM     69  C   UNL A   1      47.059  33.496  29.346  1.00  0.00     0.010 A 
ATOM     70  C   UNL A   1      46.123  33.841  27.135  1.00  0.00     0.010 A 
ATOM     71  C   UNL A   1      47.275  34.869  29.471  1.00  0.00     0.020 A 
ATOM     72  C   UNL A   1      46.366  35.213  27.244  1.00  0.00     0.020 A 
ATOM     73  C   UNL A   1      46.911  35.722  28.425  1.00  0.00     0.054 A 
BRANCH  73  74
ATOM     74  S   UNL A   1      47.167  37.507  28.620  1.00  0.00     0.124 S 
ATOM     75  O   UNL A   1      47.526  37.604  30.032  1.00  0.00    -0.237 OA
ATOM     76  O   UNL A   1      48.247  37.786  27.677  1.00  0.00    -0.237 OA
ATOM     77  O   UNL A   1      45.871  38.081  28.263  1.00  0.00    -0.744 OA
ENDBRANCH  73  74
ENDBRANCH  54  68
BRANCH  55  78
ATOM     78  C   UNL A   1      43.403  23.564  26.923  1.00  0.00    -0.014 A 
ATOM     79  C   UNL A   1      43.204  23.126  25.602  1.00  0.00     0.010 A 
ATOM     80  C   UNL A   1      43.207  22.662  27.983  1.00  0.00     0.010 A 
ATOM     81  C   UNL A   1      42.820  21.807  25.345  1.00  0.00     0.020 A 
ATOM     82  C   UNL A   1      42.841  21.337  27.728  1.00  0.00     0.020 A 
ATOM     83  C   UNL A   1      42.646  20.919  26.410  1.00  0.00     0.054 A 
BRANCH  83  84
ATOM     84  S   UNL A   1      42.243  19.186  26.049  1.00  0.00     0.124 S 
ATOM     85  O   UNL A   1      42.593  18.524  27.301  1.00  0.00    -0.237 OA
ATOM     86  O   UNL A   1      40.815  19.249  25.743  1.00  0.00    -0.237 OA
ATOM     87  O   UNL A   1      43.101  18.870  24.909  1.00  0.00    -0.744 OA
ENDBRANCH  83  84
ENDBRANCH  55  78
BRANCH  67  88
ATOM     88  C   UNL A   1      49.601  26.732  26.392  1.00  0.00    -0.014 A 
ATOM     89  C   UNL A   1      50.396  26.058  27.335  1.00  0.00     0.010 A 
ATOM     90  C   UNL A   1      50.072  26.886  25.076  1.00  0.00     0.010 A 
ATOM     91  C   UNL A   1      51.650  25.562  26.971  1.00  0.00     0.020 A 
ATOM     92  C   UNL A   1      51.317  26.374  24.705  1.00  0.00     0.020 A 
ATOM     93  C   UNL A   1      52.104  25.725  25.658  1.00  0.00     0.054 A 
BRANCH  93  94
ATOM     94  S   UNL A   1      53.711  25.022  25.192  1.00  0.00     0.124 S 
ATOM     95  O   UNL A   1      53.455  23.588  25.295  1.00  0.00    -0.237 OA
ATOM     96  O   UNL A   1      53.907  25.531  23.838  1.00  0.00    -0.237 OA
ATOM     97  O   UNL A   1      54.627  25.566  26.193  1.00  0.00    -0.744 OA
ENDBRANCH  93  94
ENDBRANCH  67  88
ENDBRANCH  41  42
ENDBRANCH  33  36
ENDBRANCH  31  32
ENDBRANCH  30  31
ENDBRANCH   1  30
TORSDOF 18
ENDMDL
MODEL 2
REMARK VINA RESULT:     -12.6      2.651      8.871
REMARK SMILES C[C@@]1(C(=O)c2ccccc2N)[C@H](C(=O)NCCCCNC(=O)c2ccc(-c3c4nc(c(-c5ccc(S(=O)(=O)[O-])cc5)c5ccc([nH]5)c(-c5ccc(S(=O)(=O)[O-])cc5)c5nc(c(-c6ccc(S(=O)(=O)[O-])cc6)c6ccc3[nH]6)C=C5)C=C4)cc2)[C@@H]1C(=O)N1CCOCC1
REMARK SMILES IDX 17 1 16 2 15 3 13 4 14 5 12 7 1 8 2 9 83 10 3 11 4 12 5 13
REMARK SMILES IDX 6 14 10 15 7 16 9 17 8 18 11 19 84 22 85 23 86 24 87 25
REMARK SMILES IDX 91 26 88 27 90 28 89 29 18 30 19 31 20 32 21 33 22 35 23 36
REMARK SMILES IDX 24 37 82 38 25 39 81 40 26 41 27 42 28 43 75 44 29 45 80 46
REMARK SMILES IDX 74 47 76 48 30 49 79 50 73 51 72 52 31 54 61 55 42 56 60 57
REMARK SMILES IDX 43 58 46 59 59 60 77 61 44 62 45 63 58 65 78 66 47 67 32 68
REMARK SMILES IDX 33 69 41 70 34 71 40 72 35 73 36 74 37 75 38 76 39 77 62 78
REMARK SMILES IDX 63 79 71 80 64 81 70 82 65 83 66 84 67 85 68 86 69 87 48 88
REMARK SMILES IDX 49 89 57 90 50 91 56 92 51 93 52 94 53 95 54 96 55 97
REMARK H PARENT 15 6 11 20 11 21 20 34 76 53 46 64
REMARK Flexibility Score: inf
ROOT
ATOM      1  C   UNL A   1      37.550  20.985  24.623  1.00  0.00     0.023 C 
ENDROOT
BRANCH   1   2
ATOM      2  C   UNL A   1      36.187  20.434  25.027  1.00  0.00     0.116 C 
BRANCH   2   3
ATOM      3  N   UNL A   1      35.506  21.328  25.930  1.00  0.00    -0.356 N 
ATOM      4  C   UNL A   1      34.658  22.382  25.783  1.00  0.00     0.224 C 
ATOM      5  O   UNL A   1      34.326  22.940  26.831  1.00  0.00    -0.275 OA
ATOM      6  H   UNL A   1      35.701  21.130  26.874  1.00  0.00     0.163 HD
BRANCH   4   7
ATOM      7  C   UNL A   1      34.011  22.882  24.542  1.00  0.00     0.106 C 
ATOM      8  C   UNL A   1      32.800  22.129  22.377  1.00  0.00     0.022 C 
ATOM      9  C   UNL A   1      32.705  22.337  23.902  1.00  0.00     0.056 C 
ATOM     10  C   UNL A   1      32.876  23.802  24.303  1.00  0.00     0.106 C 
BRANCH   9  11
ATOM     11  C   UNL A   1      32.196  21.077  24.579  1.00  0.00     0.172 C 
ATOM     12  O   UNL A   1      31.365  21.290  25.469  1.00  0.00    -0.293 OA
BRANCH  11  13
ATOM     13  C   UNL A   1      32.541  19.635  24.384  1.00  0.00     0.041 A 
ATOM     14  C   UNL A   1      32.356  19.199  23.044  1.00  0.00     0.014 A 
ATOM     15  C   UNL A   1      32.954  18.681  25.328  1.00  0.00     0.042 A 
ATOM     16  C   UNL A   1      32.630  17.894  22.630  1.00  0.00     0.001 A 
ATOM     17  C   UNL A   1      33.244  17.367  24.886  1.00  0.00     0.026 A 
ATOM     18  C   UNL A   1      33.109  16.980  23.551  1.00  0.00     0.002 A 
BRANCH  15  19
ATOM     19  N   UNL A   1      32.921  18.872  26.712  1.00  0.00    -0.398 N 
ATOM     20  H   UNL A   1      32.519  18.187  27.294  1.00  0.00     0.156 HD
ATOM     21  H   UNL A   1      33.303  19.690  27.105  1.00  0.00     0.156 HD
ENDBRANCH  15  19
ENDBRANCH  11  13
ENDBRANCH   9  11
BRANCH  10  22
ATOM     22  C   UNL A   1      32.099  24.571  25.268  1.00  0.00     0.227 C 
ATOM     23  O   UNL A   1      31.066  24.068  25.724  1.00  0.00    -0.275 OA
ATOM     24  N   UNL A   1      32.433  25.881  25.531  1.00  0.00    -0.338 N 
ATOM     25  C   UNL A   1      33.070  26.755  24.541  1.00  0.00     0.148 C 
ATOM     26  C   UNL A   1      31.669  26.574  26.571  1.00  0.00     0.148 C 
ATOM     27  C   UNL A   1      33.724  27.984  25.176  1.00  0.00     0.181 C 
ATOM     28  C   UNL A   1      32.439  27.763  27.137  1.00  0.00     0.181 C 
ATOM     29  O   UNL A   1      32.833  28.650  26.081  1.00  0.00    -0.378 OA
ENDBRANCH  10  22
ENDBRANCH   4   7
ENDBRANCH   2   3
ENDBRANCH   1   2
BRANCH   1  30
ATOM     30  C   UNL A   1      38.109  22.086  25.504  1.00  0.00     0.023 C 
BRANCH  30  31
ATOM     31  C   UNL A   1      39.269  21.670  26.399  1.00  0.00     0.116 C 
BRANCH  31  32
ATOM     32  N   UNL A   1      39.842  20.356  26.107  1.00  0.00    -0.352 N 
ATOM     33  C   UNL A   1      41.165  19.969  26.101  1.00  0.00     0.251 C 
ATOM     34  H   UNL A   1      39.193  19.652  25.884  1.00  0.00     0.163 HD
ATOM     35  O   UNL A   1      41.483  18.824  25.795  1.00  0.00    -0.269 OA
BRANCH  33  36
ATOM     36  C   UNL A   1      42.198  20.979  26.409  1.00  0.00     0.039 A 
ATOM     37  C   UNL A   1      42.764  21.708  25.362  1.00  0.00     0.014 A 
ATOM     38  C   UNL A   1      42.465  21.315  27.736  1.00  0.00     0.014 A 
ATOM     39  C   UNL A   1      43.483  22.870  25.649  1.00  0.00     0.010 A 
ATOM     40  C   UNL A   1      43.080  22.529  28.011  1.00  0.00     0.010 A 
ATOM     41  C   UNL A   1      43.570  23.335  26.971  1.00  0.00    -0.014 A 
BRANCH  41  42
ATOM     42  C   UNL A   1      44.101  24.686  27.298  1.00  0.00     0.031 A 
ATOM     43  C   UNL A   1      43.161  25.788  27.699  1.00  0.00     0.074 A 
ATOM     44  C   UNL A   1      45.405  24.961  27.087  1.00  0.00     0.049 A 
ATOM     45  N   UNL A   1      43.403  27.065  27.854  1.00  0.00    -0.248 NA
ATOM     46  C   UNL A   1      41.751  25.415  27.895  1.00  0.00     0.031 C 
ATOM     47  C   UNL A   1      46.414  24.011  26.606  1.00  0.00     0.029 A 
ATOM     48  N   UNL A   1      46.104  26.136  27.229  1.00  0.00    -0.354 N 
ATOM     49  C   UNL A   1      42.170  27.653  28.104  1.00  0.00     0.074 A 
ATOM     50  C   UNL A   1      41.179  26.600  28.040  1.00  0.00     0.031 C 
ATOM     51  C   UNL A   1      47.600  24.632  26.516  1.00  0.00     0.029 A 
ATOM     52  C   UNL A   1      47.434  26.032  26.894  1.00  0.00     0.049 A 
ATOM     53  H   UNL A   1      45.692  26.973  27.540  1.00  0.00     0.167 HD
ATOM     54  C   UNL A   1      41.886  28.949  28.378  1.00  0.00     0.031 A 
ATOM     55  C   UNL A   1      48.414  26.956  26.882  1.00  0.00     0.031 A 
ATOM     56  C   UNL A   1      42.876  29.983  28.498  1.00  0.00     0.049 A 
ATOM     57  C   UNL A   1      48.100  28.365  27.295  1.00  0.00     0.074 A 
ATOM     58  C   UNL A   1      42.703  31.302  28.877  1.00  0.00     0.029 A 
ATOM     59  N   UNL A   1      44.230  29.810  28.251  1.00  0.00    -0.354 N 
ATOM     60  N   UNL A   1      46.939  28.887  27.611  1.00  0.00    -0.248 NA
ATOM     61  C   UNL A   1      49.226  29.305  27.364  1.00  0.00     0.031 C 
ATOM     62  C   UNL A   1      43.951  31.934  28.836  1.00  0.00     0.029 A 
ATOM     63  C   UNL A   1      44.904  31.000  28.464  1.00  0.00     0.049 A 
ATOM     64  H   UNL A   1      44.649  28.966  27.966  1.00  0.00     0.167 HD
ATOM     65  C   UNL A   1      47.196  30.214  27.932  1.00  0.00     0.074 A 
ATOM     66  C   UNL A   1      48.625  30.410  27.785  1.00  0.00     0.031 C 
ATOM     67  C   UNL A   1      46.325  31.180  28.314  1.00  0.00     0.031 A 
BRANCH  54  68
ATOM     68  C   UNL A   1      40.435  29.304  28.560  1.00  0.00    -0.014 A 
ATOM     69  C   UNL A   1      39.545  29.313  27.470  1.00  0.00     0.010 A 
ATOM     70  C   UNL A   1      39.961  29.664  29.834  1.00  0.00     0.010 A 
ATOM     71  C   UNL A   1      38.229  29.749  27.636  1.00  0.00     0.020 A 
ATOM     72  C   UNL A   1      38.636  30.071  30.010  1.00  0.00     0.020 A 
ATOM     73  C   UNL A   1      37.788  30.141  28.903  1.00  0.00     0.054 A 
BRANCH  73  74
ATOM     74  S   UNL A   1      36.085  30.738  29.092  1.00  0.00     0.124 S 
ATOM     75  O   UNL A   1      36.112  31.969  28.305  1.00  0.00    -0.237 OA
ATOM     76  O   UNL A   1      35.294  29.649  28.525  1.00  0.00    -0.237 OA
ATOM     77  O   UNL A   1      35.943  30.921  30.534  1.00  0.00    -0.744 OA
ENDBRANCH  73  74
ENDBRANCH  54  68
BRANCH  55  78
ATOM     78  C   UNL A   1      49.793  26.556  26.494  1.00  0.00    -0.014 A 
ATOM     79  C   UNL A   1      50.648  25.962  27.439  1.00  0.00     0.010 A 
ATOM     80  C   UNL A   1      50.233  26.705  25.167  1.00  0.00     0.010 A 
ATOM     81  C   UNL A   1      51.920  25.520  27.062  1.00  0.00     0.020 A 
ATOM     82  C   UNL A   1      51.497  26.247  24.783  1.00  0.00     0.020 A 
ATOM     83  C   UNL A   1      52.334  25.661  25.734  1.00  0.00     0.054 A 
BRANCH  83  84
ATOM     84  S   UNL A   1      53.949  24.992  25.245  1.00  0.00     0.124 S 
ATOM     85  O   UNL A   1      54.295  25.834  24.105  1.00  0.00    -0.237 OA
ATOM     86  O   UNL A   1      54.754  25.193  26.449  1.00  0.00    -0.237 OA
ATOM     87  O   UNL A   1      53.655  23.596  24.929  1.00  0.00    -0.744 OA
ENDBRANCH  83  84
ENDBRANCH  55  78
BRANCH  67  88
ATOM     88  C   UNL A   1      46.892  32.537  28.624  1.00  0.00    -0.014 A 
ATOM     89  C   UNL A   1      46.976  33.529  27.632  1.00  0.00     0.010 A 
ATOM     90  C   UNL A   1      47.285  32.841  29.939  1.00  0.00     0.010 A 
ATOM     91  C   UNL A   1      47.461  34.801  27.948  1.00  0.00     0.020 A 
ATOM     92  C   UNL A   1      47.752  34.117  30.262  1.00  0.00     0.020 A 
ATOM     93  C   UNL A   1      47.848  35.086  29.262  1.00  0.00     0.054 A 
BRANCH  93  94
ATOM     94  S   UNL A   1      48.420  36.760  29.663  1.00  0.00     0.124 S 
ATOM     95  O   UNL A   1      49.131  37.137  28.444  1.00  0.00    -0.237 OA
ATOM     96  O   UNL A   1      47.174  37.478  29.913  1.00  0.00    -0.237 OA
ATOM     97  O   UNL A   1      49.264  36.562  30.841  1.00  0.00    -0.744 OA
ENDBRANCH  93  94
ENDBRANCH  67  88
ENDBRANCH  41  42
ENDBRANCH  33  36
ENDBRANCH  31  32
ENDBRANCH  30  31
ENDBRANCH   1  30
TORSDOF 18
ENDMDL
MODEL 3
REMARK VINA RESULT:     -12.4      2.633      9.055
REMARK SMILES C[C@@]1(C(=O)c2ccccc2N)[C@H](C(=O)NCCCCNC(=O)c2ccc(-c3c4nc(c(-c5ccc(S(=O)(=O)[O-])cc5)c5ccc([nH]5)c(-c5ccc(S(=O)(=O)[O-])cc5)c5nc(c(-c6ccc(S(=O)(=O)[O-])cc6)c6ccc3[nH]6)C=C5)C=C4)cc2)[C@@H]1C(=O)N1CCOCC1
REMARK SMILES IDX 17 1 16 2 15 3 13 4 14 5 12 7 1 8 2 9 83 10 3 11 4 12 5 13
REMARK SMILES IDX 6 14 10 15 7 16 9 17 8 18 11 19 84 22 85 23 86 24 87 25
REMARK SMILES IDX 91 26 88 27 90 28 89 29 18 30 19 31 20 32 21 33 22 35 23 36
REMARK SMILES IDX 24 37 82 38 25 39 81 40 26 41 27 42 28 43 75 44 29 45 80 46
REMARK SMILES IDX 74 47 76 48 30 49 79 50 73 51 72 52 31 54 61 55 42 56 60 57
REMARK SMILES IDX 43 58 46 59 59 60 77 61 44 62 45 63 58 65 78 66 47 67 32 68
REMARK SMILES IDX 33 69 41 70 34 71 40 72 35 73 36 74 37 75 38 76 39 77 62 78
REMARK SMILES IDX 63 79 71 80 64 81 70 82 65 83 66 84 67 85 68 86 69 87 48 88
REMARK SMILES IDX 49 89 57 90 50 91 56 92 51 93 52 94 53 95 54 96 55 97
REMARK H PARENT 15 6 11 20 11 21 20 34 76 53 46 64
REMARK Flexibility Score: inf
ROOT
ATOM      1  C   UNL A   1      37.640  20.685  24.863  1.00  0.00     0.023 C 
ENDROOT
BRANCH   1   2
ATOM      2  C   UNL A   1      36.174  20.297  25.026  1.00  0.00     0.116 C 
BRANCH   2   3
ATOM      3  N   UNL A   1      35.516  21.131  26.001  1.00  0.00    -0.356 N 
ATOM      4  C   UNL A   1      34.698  22.217  25.943  1.00  0.00     0.224 C 
ATOM      5  O   UNL A   1      34.379  22.695  27.034  1.00  0.00    -0.275 OA
ATOM      6  H   UNL A   1      35.701  20.848  26.925  1.00  0.00     0.163 HD
BRANCH   4   7
ATOM      7  C   UNL A   1      34.072  22.839  24.747  1.00  0.00     0.106 C 
ATOM      8  C   UNL A   1      32.824  22.308  22.537  1.00  0.00     0.022 C 
ATOM      9  C   UNL A   1      32.741  22.402  24.074  1.00  0.00     0.056 C 
ATOM     10  C   UNL A   1      32.978  23.823  24.586  1.00  0.00     0.106 C 
BRANCH   9  11
ATOM     11  C   UNL A   1      32.179  21.117  24.657  1.00  0.00     0.172 C 
ATOM     12  O   UNL A   1      31.310  21.297  25.517  1.00  0.00    -0.293 OA
BRANCH  11  13
ATOM     13  C   UNL A   1      32.508  19.682  24.397  1.00  0.00     0.041 A 
ATOM     14  C   UNL A   1      32.298  19.301  23.044  1.00  0.00     0.014 A 
ATOM     15  C   UNL A   1      32.928  18.687  25.295  1.00  0.00     0.042 A 
ATOM     16  C   UNL A   1      32.553  18.011  22.574  1.00  0.00     0.001 A 
ATOM     17  C   UNL A   1      33.200  17.390  24.796  1.00  0.00     0.026 A 
ATOM     18  C   UNL A   1      33.039  17.058  23.450  1.00  0.00     0.002 A 
BRANCH  15  19
ATOM     19  N   UNL A   1      32.921  18.822  26.686  1.00  0.00    -0.398 N 
ATOM     20  H   UNL A   1      32.829  18.026  27.258  1.00  0.00     0.156 HD
ATOM     21  H   UNL A   1      33.009  19.714  27.094  1.00  0.00     0.156 HD
ENDBRANCH  15  19
ENDBRANCH  11  13
ENDBRANCH   9  11
BRANCH  10  22
ATOM     22  C   UNL A   1      32.237  24.549  25.611  1.00  0.00     0.227 C 
ATOM     23  O   UNL A   1      31.595  23.898  26.443  1.00  0.00    -0.275 OA
ATOM     24  N   UNL A   1      32.136  25.921  25.544  1.00  0.00    -0.338 N 
ATOM     25  C   UNL A   1      32.159  26.661  24.278  1.00  0.00     0.148 C 
ATOM     26  C   UNL A   1      31.453  26.600  26.647  1.00  0.00     0.148 C 
ATOM     27  C   UNL A   1      32.466  28.147  24.470  1.00  0.00     0.181 C 
ATOM     28  C   UNL A   1      31.862  28.066  26.745  1.00  0.00     0.181 C 
ATOM     29  O   UNL A   1      31.645  28.729  25.492  1.00  0.00    -0.378 OA
ENDBRANCH  10  22
ENDBRANCH   4   7
ENDBRANCH   2   3
ENDBRANCH   1   2
BRANCH   1  30
ATOM     30  C   UNL A   1      38.115  21.854  25.707  1.00  0.00     0.023 C 
BRANCH  30  31
ATOM     31  C   UNL A   1      39.419  21.618  26.459  1.00  0.00     0.116 C 
BRANCH  31  32
ATOM     32  N   UNL A   1      40.052  20.322  26.219  1.00  0.00    -0.352 N 
ATOM     33  C   UNL A   1      41.393  20.017  26.115  1.00  0.00     0.251 C 
ATOM     34  H   UNL A   1      39.436  19.562  26.117  1.00  0.00     0.163 HD
ATOM     35  O   UNL A   1      41.760  18.873  25.872  1.00  0.00    -0.269 OA
BRANCH  33  36
ATOM     36  C   UNL A   1      42.377  21.112  26.239  1.00  0.00     0.039 A 
ATOM     37  C   UNL A   1      42.722  21.842  25.101  1.00  0.00     0.014 A 
ATOM     38  C   UNL A   1      42.810  21.515  27.503  1.00  0.00     0.014 A 
ATOM     39  C   UNL A   1      43.382  23.065  25.248  1.00  0.00     0.010 A 
ATOM     40  C   UNL A   1      43.361  22.780  27.651  1.00  0.00     0.010 A 
ATOM     41  C   UNL A   1      43.627  23.582  26.530  1.00  0.00    -0.014 A 
BRANCH  41  42
ATOM     42  C   UNL A   1      44.093  24.980  26.740  1.00  0.00     0.031 A 
ATOM     43  C   UNL A   1      45.545  25.324  26.561  1.00  0.00     0.074 A 
ATOM     44  C   UNL A   1      43.242  25.901  27.236  1.00  0.00     0.049 A 
ATOM     45  N   UNL A   1      46.174  26.432  26.860  1.00  0.00    -0.248 NA
ATOM     46  C   UNL A   1      46.416  24.263  26.030  1.00  0.00     0.031 C 
ATOM     47  C   UNL A   1      41.826  25.679  27.550  1.00  0.00     0.029 A 
ATOM     48  N   UNL A   1      43.452  27.212  27.590  1.00  0.00    -0.354 N 
ATOM     49  C   UNL A   1      47.517  26.180  26.612  1.00  0.00     0.074 A 
ATOM     50  C   UNL A   1      47.615  24.803  26.176  1.00  0.00     0.031 C 
ATOM     51  C   UNL A   1      41.293  26.815  28.023  1.00  0.00     0.029 A 
ATOM     52  C   UNL A   1      42.333  27.838  28.087  1.00  0.00     0.049 A 
ATOM     53  H   UNL A   1      44.322  27.662  27.497  1.00  0.00     0.167 HD
ATOM     54  C   UNL A   1      48.574  27.020  26.720  1.00  0.00     0.031 A 
ATOM     55  C   UNL A   1      42.156  29.090  28.550  1.00  0.00     0.031 A 
ATOM     56  C   UNL A   1      48.469  28.403  27.096  1.00  0.00     0.049 A 
ATOM     57  C   UNL A   1      43.319  30.041  28.560  1.00  0.00     0.074 A 
ATOM     58  C   UNL A   1      49.464  29.364  27.132  1.00  0.00     0.029 A 
ATOM     59  N   UNL A   1      47.295  29.025  27.493  1.00  0.00    -0.354 N 
ATOM     60  N   UNL A   1      44.569  29.809  28.240  1.00  0.00    -0.248 NA
ATOM     61  C   UNL A   1      43.046  31.422  28.977  1.00  0.00     0.031 C 
ATOM     62  C   UNL A   1      48.894  30.563  27.574  1.00  0.00     0.029 A 
ATOM     63  C   UNL A   1      47.540  30.356  27.782  1.00  0.00     0.049 A 
ATOM     64  H   UNL A   1      46.417  28.584  27.561  1.00  0.00     0.167 HD
ATOM     65  C   UNL A   1      45.231  31.019  28.403  1.00  0.00     0.074 A 
ATOM     66  C   UNL A   1      44.240  31.984  28.836  1.00  0.00     0.031 C 
ATOM     67  C   UNL A   1      46.543  31.303  28.210  1.00  0.00     0.031 A 
BRANCH  54  68
ATOM     68  C   UNL A   1      49.934  26.445  26.426  1.00  0.00    -0.014 A 
ATOM     69  C   UNL A   1      50.761  25.967  27.458  1.00  0.00     0.010 A 
ATOM     70  C   UNL A   1      50.402  26.412  25.100  1.00  0.00     0.010 A 
ATOM     71  C   UNL A   1      52.060  25.537  27.180  1.00  0.00     0.020 A 
ATOM     72  C   UNL A   1      51.692  25.954  24.815  1.00  0.00     0.020 A 
ATOM     73  C   UNL A   1      52.523  25.549  25.861  1.00  0.00     0.054 A 
BRANCH  73  74
ATOM     74  S   UNL A   1      54.225  25.021  25.525  1.00  0.00     0.124 S 
ATOM     75  O   UNL A   1      54.820  25.066  26.859  1.00  0.00    -0.237 OA
ATOM     76  O   UNL A   1      54.047  23.685  24.963  1.00  0.00    -0.237 OA
ATOM     77  O   UNL A   1      54.718  26.026  24.587  1.00  0.00    -0.744 OA
ENDBRANCH  73  74
ENDBRANCH  54  68
BRANCH  55  78
ATOM     78  C   UNL A   1      40.808  29.517  29.011  1.00  0.00    -0.014 A 
ATOM     79  C   UNL A   1      39.746  29.610  28.095  1.00  0.00     0.010 A 
ATOM     80  C   UNL A   1      40.565  29.768  30.373  1.00  0.00     0.010 A 
ATOM     81  C   UNL A   1      38.461  29.943  28.534  1.00  0.00     0.020 A 
ATOM     82  C   UNL A   1      39.277  30.082  30.818  1.00  0.00     0.020 A 
ATOM     83  C   UNL A   1      38.234  30.171  29.895  1.00  0.00     0.054 A 
BRANCH  83  84
ATOM     84  S   UNL A   1      36.540  30.505  30.456  1.00  0.00     0.124 S 
ATOM     85  O   UNL A   1      35.786  30.429  29.209  1.00  0.00    -0.237 OA
ATOM     86  O   UNL A   1      36.301  29.422  31.408  1.00  0.00    -0.237 OA
ATOM     87  O   UNL A   1      36.638  31.836  31.052  1.00  0.00    -0.744 OA
ENDBRANCH  83  84
ENDBRANCH  55  78
BRANCH  67  88
ATOM     88  C   UNL A   1      46.983  32.721  28.444  1.00  0.00    -0.014 A 
ATOM     89  C   UNL A   1      47.475  33.129  29.695  1.00  0.00     0.010 A 
ATOM     90  C   UNL A   1      46.966  33.637  27.377  1.00  0.00     0.010 A 
ATOM     91  C   UNL A   1      47.925  34.438  29.881  1.00  0.00     0.020 A 
ATOM     92  C   UNL A   1      47.433  34.941  27.555  1.00  0.00     0.020 A 
ATOM     93  C   UNL A   1      47.900  35.337  28.810  1.00  0.00     0.054 A 
BRANCH  93  94
ATOM     94  S   UNL A   1      48.543  37.015  29.058  1.00  0.00     0.124 S 
ATOM     95  O   UNL A   1      48.477  37.153  30.510  1.00  0.00    -0.237 OA
ATOM     96  O   UNL A   1      49.887  36.934  28.494  1.00  0.00    -0.237 OA
ATOM     97  O   UNL A   1      47.610  37.855  28.308  1.00  0.00    -0.744 OA
ENDBRANCH  93  94
ENDBRANCH  67  88
ENDBRANCH  41  42
ENDBRANCH  33  36
ENDBRANCH  31  32
ENDBRANCH  30  31
ENDBRANCH   1  30
TORSDOF 18
ENDMDL
