MODEL 1
REMARK VINA RESULT:     -10.3      0.000      0.000
REMARK SMILES C[C@H](C(=O)NCCCCNC(=O)c1ccc(-c2c3nc(c(-c4ccc(S(=O)(=O)[O-])cc4)c4ccc([nH]4)c(-c4ccc(S(=O)(=O)[O-])cc4)c4nc(c(-c5ccc(S(=O)(=O)[O-])cc5)c5ccc2[nH]5)C=C4)C=C3)cc1)N(C)C(=O)c1cc(C(F)(F)F)ccc1F
REMARK SMILES IDX 7 1 6 2 5 3 3 4 4 5 2 7 1 8 73 9 74 10 75 11 76 12 77 13
REMARK SMILES IDX 78 14 86 15 79 16 85 17 87 18 84 19 80 20 81 21 82 22 83 23
REMARK SMILES IDX 8 24 9 25 10 26 11 27 12 29 13 30 14 31 72 32 15 33 71 34
REMARK SMILES IDX 16 35 17 36 18 37 65 38 19 39 70 40 64 41 66 42 20 43 69 44
REMARK SMILES IDX 63 45 62 46 21 48 51 49 32 50 50 51 33 52 36 53 49 54 67 55
REMARK SMILES IDX 34 56 35 57 48 59 68 60 37 61 22 62 23 63 31 64 24 65 30 66
REMARK SMILES IDX 25 67 26 68 27 69 28 70 29 71 52 72 53 73 61 74 54 75 60 76
REMARK SMILES IDX 55 77 56 78 57 79 58 80 59 81 38 82 39 83 47 84 40 85 46 86
REMARK SMILES IDX 41 87 42 88 43 89 44 90 45 91
REMARK H PARENT 5 6 10 28 66 47 36 58
REMARK Flexibility Score: inf
ROOT
ATOM      1  C   UNL A   1      31.992  27.748  26.807  1.00  0.00     0.023 C 
ENDROOT
BRANCH   1   2
ATOM      2  C   UNL A   1      31.405  26.903  25.681  1.00  0.00     0.116 C 
BRANCH   2   3
ATOM      3  N   UNL A   1      30.597  25.813  26.182  1.00  0.00    -0.354 N 
ATOM      4  C   UNL A   1      30.977  24.578  26.633  1.00  0.00     0.242 C 
ATOM      5  O   UNL A   1      30.117  23.906  27.205  1.00  0.00    -0.273 OA
ATOM      6  H   UNL A   1      29.628  25.986  26.202  1.00  0.00     0.163 HD
BRANCH   4   7
ATOM      7  C   UNL A   1      32.453  24.115  26.486  1.00  0.00     0.171 C 
ATOM      8  C   UNL A   1      32.716  22.851  27.311  1.00  0.00     0.042 C 
BRANCH   7   9
ATOM      9  N   UNL A   1      32.894  23.988  25.073  1.00  0.00    -0.330 N 
ATOM     10  C   UNL A   1      31.931  23.483  24.103  1.00  0.00     0.148 C 
BRANCH   9  11
ATOM     11  C   UNL A   1      34.178  24.434  24.736  1.00  0.00     0.257 C 
ATOM     12  O   UNL A   1      34.397  25.568  24.314  1.00  0.00    -0.269 OA
BRANCH  11  13
ATOM     13  C   UNL A   1      35.377  23.579  24.908  1.00  0.00     0.076 A 
ATOM     14  C   UNL A   1      36.407  24.065  25.733  1.00  0.00     0.030 A 
ATOM     15  C   UNL A   1      35.596  22.407  24.188  1.00  0.00     0.135 A 
ATOM     16  C   UNL A   1      37.619  23.364  25.872  1.00  0.00     0.056 A 
ATOM     17  C   UNL A   1      36.765  21.668  24.362  1.00  0.00     0.041 A 
ATOM     18  F   UNL A   1      34.725  21.976  23.267  1.00  0.00    -0.206 F 
ATOM     19  C   UNL A   1      37.773  22.141  25.204  1.00  0.00     0.016 A 
BRANCH  16  20
ATOM     20  C   UNL A   1      38.747  23.959  26.683  1.00  0.00     0.416 C 
ATOM     21  F   UNL A   1      39.608  23.010  27.144  1.00  0.00    -0.166 F 
ATOM     22  F   UNL A   1      39.496  24.842  25.972  1.00  0.00    -0.166 F 
ATOM     23  F   UNL A   1      38.316  24.634  27.787  1.00  0.00    -0.166 F 
ENDBRANCH  16  20
ENDBRANCH  11  13
ENDBRANCH   9  11
ENDBRANCH   7   9
ENDBRANCH   4   7
ENDBRANCH   2   3
ENDBRANCH   1   2
BRANCH   1  24
ATOM     24  C   UNL A   1      33.522  27.800  26.817  1.00  0.00     0.023 C 
BRANCH  24  25
ATOM     25  C   UNL A   1      34.136  28.950  26.026  1.00  0.00     0.116 C 
BRANCH  25  26
ATOM     26  N   UNL A   1      33.692  30.256  26.488  1.00  0.00    -0.352 N 
ATOM     27  C   UNL A   1      34.207  31.031  27.497  1.00  0.00     0.251 C 
ATOM     28  H   UNL A   1      32.917  30.635  26.013  1.00  0.00     0.163 HD
ATOM     29  O   UNL A   1      33.608  32.045  27.852  1.00  0.00    -0.269 OA
BRANCH  27  30
ATOM     30  C   UNL A   1      35.464  30.634  28.169  1.00  0.00     0.039 A 
ATOM     31  C   UNL A   1      36.657  31.256  27.795  1.00  0.00     0.014 A 
ATOM     32  C   UNL A   1      35.470  29.645  29.158  1.00  0.00     0.014 A 
ATOM     33  C   UNL A   1      37.849  30.909  28.436  1.00  0.00     0.010 A 
ATOM     34  C   UNL A   1      36.641  29.367  29.856  1.00  0.00     0.010 A 
ATOM     35  C   UNL A   1      37.850  29.973  29.484  1.00  0.00    -0.014 A 
BRANCH  35  36
ATOM     36  C   UNL A   1      39.112  29.578  30.160  1.00  0.00     0.031 A 
ATOM     37  C   UNL A   1      39.530  30.267  31.434  1.00  0.00     0.074 A 
ATOM     38  C   UNL A   1      39.897  28.624  29.619  1.00  0.00     0.049 A 
ATOM     39  N   UNL A   1      40.589  30.063  32.175  1.00  0.00    -0.248 NA
ATOM     40  C   UNL A   1      38.659  31.349  31.926  1.00  0.00     0.031 C 
ATOM     41  C   UNL A   1      39.626  27.909  28.371  1.00  0.00     0.029 A 
ATOM     42  N   UNL A   1      41.083  28.088  30.057  1.00  0.00    -0.354 N 
ATOM     43  C   UNL A   1      40.521  30.999  33.201  1.00  0.00     0.074 A 
ATOM     44  C   UNL A   1      39.351  31.810  32.955  1.00  0.00     0.031 C 
ATOM     45  C   UNL A   1      40.591  26.997  28.167  1.00  0.00     0.029 A 
ATOM     46  C   UNL A   1      41.570  27.090  29.246  1.00  0.00     0.049 A 
ATOM     47  H   UNL A   1      41.541  28.391  30.874  1.00  0.00     0.167 HD
ATOM     48  C   UNL A   1      41.343  31.157  34.265  1.00  0.00     0.031 A 
ATOM     49  C   UNL A   1      42.676  26.328  29.364  1.00  0.00     0.031 A 
ATOM     50  C   UNL A   1      42.498  30.337  34.515  1.00  0.00     0.049 A 
ATOM     51  C   UNL A   1      43.574  26.520  30.557  1.00  0.00     0.074 A 
ATOM     52  C   UNL A   1      43.361  30.372  35.597  1.00  0.00     0.029 A 
ATOM     53  N   UNL A   1      42.956  29.335  33.671  1.00  0.00    -0.354 N 
ATOM     54  N   UNL A   1      43.452  27.363  31.555  1.00  0.00    -0.248 NA
ATOM     55  C   UNL A   1      44.747  25.641  30.648  1.00  0.00     0.031 C 
ATOM     56  C   UNL A   1      44.375  29.434  35.377  1.00  0.00     0.029 A 
ATOM     57  C   UNL A   1      44.101  28.761  34.197  1.00  0.00     0.049 A 
ATOM     58  H   UNL A   1      42.528  29.071  32.824  1.00  0.00     0.167 HD
ATOM     59  C   UNL A   1      44.509  27.082  32.417  1.00  0.00     0.074 A 
ATOM     60  C   UNL A   1      45.251  25.989  31.824  1.00  0.00     0.031 C 
ATOM     61  C   UNL A   1      44.829  27.670  33.597  1.00  0.00     0.031 A 
BRANCH  48  62
ATOM     62  C   UNL A   1      41.027  32.270  35.233  1.00  0.00    -0.014 A 
ATOM     63  C   UNL A   1      41.366  33.607  34.950  1.00  0.00     0.010 A 
ATOM     64  C   UNL A   1      40.357  31.978  36.435  1.00  0.00     0.010 A 
ATOM     65  C   UNL A   1      41.087  34.619  35.873  1.00  0.00     0.020 A 
ATOM     66  C   UNL A   1      40.045  32.992  37.344  1.00  0.00     0.020 A 
ATOM     67  C   UNL A   1      40.431  34.305  37.066  1.00  0.00     0.054 A 
BRANCH  67  68
ATOM     68  S   UNL A   1      40.069  35.641  38.237  1.00  0.00     0.124 S 
ATOM     69  O   UNL A   1      38.867  35.141  38.900  1.00  0.00    -0.237 OA
ATOM     70  O   UNL A   1      41.272  35.677  39.064  1.00  0.00    -0.237 OA
ATOM     71  O   UNL A   1      39.868  36.808  37.381  1.00  0.00    -0.744 OA
ENDBRANCH  67  68
ENDBRANCH  48  62
BRANCH  49  72
ATOM     72  C   UNL A   1      42.973  25.281  28.346  1.00  0.00    -0.014 A 
ATOM     73  C   UNL A   1      42.539  23.958  28.538  1.00  0.00     0.010 A 
ATOM     74  C   UNL A   1      43.688  25.602  27.178  1.00  0.00     0.010 A 
ATOM     75  C   UNL A   1      42.834  22.969  27.594  1.00  0.00     0.020 A 
ATOM     76  C   UNL A   1      43.957  24.624  26.216  1.00  0.00     0.020 A 
ATOM     77  C   UNL A   1      43.540  23.311  26.436  1.00  0.00     0.054 A 
BRANCH  77  78
ATOM     78  S   UNL A   1      43.870  22.020  25.204  1.00  0.00     0.124 S 
ATOM     79  O   UNL A   1      45.185  21.538  25.614  1.00  0.00    -0.237 OA
ATOM     80  O   UNL A   1      42.761  21.093  25.415  1.00  0.00    -0.237 OA
ATOM     81  O   UNL A   1      43.836  22.743  23.935  1.00  0.00    -0.744 OA
ENDBRANCH  77  78
ENDBRANCH  49  72
BRANCH  61  82
ATOM     82  C   UNL A   1      45.996  27.102  34.362  1.00  0.00    -0.014 A 
ATOM     83  C   UNL A   1      45.837  26.062  35.295  1.00  0.00     0.010 A 
ATOM     84  C   UNL A   1      47.287  27.605  34.113  1.00  0.00     0.010 A 
ATOM     85  C   UNL A   1      46.940  25.572  36.002  1.00  0.00     0.020 A 
ATOM     86  C   UNL A   1      48.396  27.094  34.790  1.00  0.00     0.020 A 
ATOM     87  C   UNL A   1      48.212  26.095  35.747  1.00  0.00     0.054 A 
BRANCH  87  88
ATOM     88  S   UNL A   1      49.628  25.434  36.666  1.00  0.00     0.124 S 
ATOM     89  O   UNL A   1      49.190  24.074  36.963  1.00  0.00    -0.237 OA
ATOM     90  O   UNL A   1      50.718  25.546  35.699  1.00  0.00    -0.237 OA
ATOM     91  O   UNL A   1      49.736  26.321  37.823  1.00  0.00    -0.744 OA
ENDBRANCH  87  88
ENDBRANCH  61  82
ENDBRANCH  35  36
ENDBRANCH  27  30
ENDBRANCH  25  26
ENDBRANCH  24  25
ENDBRANCH   1  24
TORSDOF 18
ENDMDL
MODEL 2
REMARK VINA RESULT:      -9.9      1.506      2.499
REMARK SMILES C[C@H](C(=O)NCCCCNC(=O)c1ccc(-c2c3nc(c(-c4ccc(S(=O)(=O)[O-])cc4)c4ccc([nH]4)c(-c4ccc(S(=O)(=O)[O-])cc4)c4nc(c(-c5ccc(S(=O)(=O)[O-])cc5)c5ccc2[nH]5)C=C4)C=C3)cc1)N(C)C(=O)c1cc(C(F)(F)F)ccc1F
REMARK SMILES IDX 7 1 6 2 5 3 3 4 4 5 2 7 1 8 73 9 74 10 75 11 76 12 77 13
REMARK SMILES IDX 78 14 86 15 79 16 85 17 87 18 84 19 80 20 81 21 82 22 83 23
REMARK SMILES IDX 8 24 9 25 10 26 11 27 12 29 13 30 14 31 72 32 15 33 71 34
REMARK SMILES IDX 16 35 17 36 18 37 65 38 19 39 70 40 64 41 66 42 20 43 69 44
REMARK SMILES IDX 63 45 62 46 21 48 51 49 32 50 50 51 33 52 36 53 49 54 67 55
REMARK SMILES IDX 34 56 35 57 48 59 68 60 37 61 22 62 23 63 31 64 24 65 30 66
REMARK SMILES IDX 25 67 26 68 27 69 28 70 29 71 52 72 53 73 61 74 54 75 60 76
REMARK SMILES IDX 55 77 56 78 57 79 58 80 59 81 38 82 39 83 47 84 40 85 46 86
REMARK SMILES IDX 41 87 42 88 43 89 44 90 45 91
REMARK H PARENT 5 6 10 28 66 47 36 58
REMARK Flexibility Score: inf
ROOT
ATOM      1  C   UNL A   1      32.026  28.095  26.903  1.00  0.00     0.023 C 
ENDROOT
BRANCH   1   2
ATOM      2  C   UNL A   1      31.060  27.083  26.298  1.00  0.00     0.116 C 
BRANCH   2   3
ATOM      3  N   UNL A   1      30.730  27.398  24.925  1.00  0.00    -0.354 N 
ATOM      4  C   UNL A   1      30.885  26.645  23.793  1.00  0.00     0.242 C 
ATOM      5  O   UNL A   1      30.332  27.056  22.772  1.00  0.00    -0.273 OA
ATOM      6  H   UNL A   1      30.335  28.289  24.784  1.00  0.00     0.163 HD
BRANCH   4   7
ATOM      7  C   UNL A   1      31.659  25.299  23.852  1.00  0.00     0.171 C 
ATOM      8  C   UNL A   1      30.793  24.145  23.337  1.00  0.00     0.042 C 
BRANCH   7   9
ATOM      9  N   UNL A   1      32.994  25.357  23.204  1.00  0.00    -0.330 N 
ATOM     10  C   UNL A   1      33.597  26.669  23.006  1.00  0.00     0.148 C 
BRANCH   9  11
ATOM     11  C   UNL A   1      33.634  24.151  22.892  1.00  0.00     0.257 C 
ATOM     12  O   UNL A   1      33.845  23.792  21.734  1.00  0.00    -0.269 OA
BRANCH  11  13
ATOM     13  C   UNL A   1      34.147  23.239  23.941  1.00  0.00     0.076 A 
ATOM     14  C   UNL A   1      33.751  21.890  23.879  1.00  0.00     0.030 A 
ATOM     15  C   UNL A   1      34.867  23.671  25.053  1.00  0.00     0.135 A 
ATOM     16  C   UNL A   1      34.112  20.979  24.889  1.00  0.00     0.056 A 
ATOM     17  C   UNL A   1      35.285  22.770  26.030  1.00  0.00     0.041 A 
ATOM     18  F   UNL A   1      35.137  24.967  25.252  1.00  0.00    -0.206 F 
ATOM     19  C   UNL A   1      34.913  21.428  25.949  1.00  0.00     0.016 A 
BRANCH  16  20
ATOM     20  C   UNL A   1      33.588  19.562  24.850  1.00  0.00     0.416 C 
ATOM     21  F   UNL A   1      34.582  18.649  24.675  1.00  0.00    -0.166 F 
ATOM     22  F   UNL A   1      32.941  19.209  25.992  1.00  0.00    -0.166 F 
ATOM     23  F   UNL A   1      32.704  19.346  23.835  1.00  0.00    -0.166 F 
ENDBRANCH  16  20
ENDBRANCH  11  13
ENDBRANCH   9  11
ENDBRANCH   7   9
ENDBRANCH   4   7
ENDBRANCH   2   3
ENDBRANCH   1   2
BRANCH   1  24
ATOM     24  C   UNL A   1      33.501  27.804  26.609  1.00  0.00     0.023 C 
BRANCH  24  25
ATOM     25  C   UNL A   1      34.291  28.976  26.041  1.00  0.00     0.116 C 
BRANCH  25  26
ATOM     26  N   UNL A   1      33.818  30.265  26.520  1.00  0.00    -0.352 N 
ATOM     27  C   UNL A   1      34.310  31.034  27.546  1.00  0.00     0.251 C 
ATOM     28  H   UNL A   1      33.039  30.637  26.046  1.00  0.00     0.163 HD
ATOM     29  O   UNL A   1      33.688  32.030  27.913  1.00  0.00    -0.269 OA
BRANCH  27  30
ATOM     30  C   UNL A   1      35.568  30.650  28.222  1.00  0.00     0.039 A 
ATOM     31  C   UNL A   1      35.529  29.684  29.229  1.00  0.00     0.014 A 
ATOM     32  C   UNL A   1      36.784  31.246  27.871  1.00  0.00     0.014 A 
ATOM     33  C   UNL A   1      36.712  29.293  29.861  1.00  0.00     0.010 A 
ATOM     34  C   UNL A   1      37.971  30.790  28.437  1.00  0.00     0.010 A 
ATOM     35  C   UNL A   1      37.947  29.831  29.459  1.00  0.00    -0.014 A 
BRANCH  35  36
ATOM     36  C   UNL A   1      39.211  29.441  30.136  1.00  0.00     0.031 A 
ATOM     37  C   UNL A   1      39.628  30.136  31.407  1.00  0.00     0.074 A 
ATOM     38  C   UNL A   1      39.998  28.489  29.597  1.00  0.00     0.049 A 
ATOM     39  N   UNL A   1      40.688  29.936  32.148  1.00  0.00    -0.248 NA
ATOM     40  C   UNL A   1      38.754  31.216  31.897  1.00  0.00     0.031 C 
ATOM     41  C   UNL A   1      39.728  27.769  28.350  1.00  0.00     0.029 A 
ATOM     42  N   UNL A   1      41.185  27.957  30.035  1.00  0.00    -0.354 N 
ATOM     43  C   UNL A   1      40.619  30.874  33.171  1.00  0.00     0.074 A 
ATOM     44  C   UNL A   1      39.446  31.682  32.924  1.00  0.00     0.031 C 
ATOM     45  C   UNL A   1      40.696  26.860  28.148  1.00  0.00     0.029 A 
ATOM     46  C   UNL A   1      41.675  26.958  29.226  1.00  0.00     0.049 A 
ATOM     47  H   UNL A   1      41.644  28.263  30.850  1.00  0.00     0.167 HD
ATOM     48  C   UNL A   1      41.440  31.037  34.235  1.00  0.00     0.031 A 
ATOM     49  C   UNL A   1      42.783  26.200  29.344  1.00  0.00     0.031 A 
ATOM     50  C   UNL A   1      42.598  30.221  34.486  1.00  0.00     0.049 A 
ATOM     51  C   UNL A   1      43.681  26.398  30.537  1.00  0.00     0.074 A 
ATOM     52  C   UNL A   1      43.462  30.262  35.567  1.00  0.00     0.029 A 
ATOM     53  N   UNL A   1      43.058  29.219  33.644  1.00  0.00    -0.354 N 
ATOM     54  N   UNL A   1      43.558  27.242  31.533  1.00  0.00    -0.248 NA
ATOM     55  C   UNL A   1      44.857  25.522  30.629  1.00  0.00     0.031 C 
ATOM     56  C   UNL A   1      44.478  29.326  35.348  1.00  0.00     0.029 A 
ATOM     57  C   UNL A   1      44.205  28.650  34.170  1.00  0.00     0.049 A 
ATOM     58  H   UNL A   1      42.630  28.952  32.798  1.00  0.00     0.167 HD
ATOM     59  C   UNL A   1      44.617  26.967  32.394  1.00  0.00     0.074 A 
ATOM     60  C   UNL A   1      45.361  25.875  31.803  1.00  0.00     0.031 C 
ATOM     61  C   UNL A   1      44.936  27.559  33.572  1.00  0.00     0.031 A 
BRANCH  48  62
ATOM     62  C   UNL A   1      41.122  32.152  35.200  1.00  0.00    -0.014 A 
ATOM     63  C   UNL A   1      40.277  31.947  36.307  1.00  0.00     0.010 A 
ATOM     64  C   UNL A   1      41.699  33.422  35.011  1.00  0.00     0.010 A 
ATOM     65  C   UNL A   1      39.975  33.000  37.174  1.00  0.00     0.020 A 
ATOM     66  C   UNL A   1      41.427  34.468  35.896  1.00  0.00     0.020 A 
ATOM     67  C   UNL A   1      40.550  34.256  36.961  1.00  0.00     0.054 A 
BRANCH  67  68
ATOM     68  S   UNL A   1      40.152  35.600  38.111  1.00  0.00     0.124 S 
ATOM     69  O   UNL A   1      41.388  35.711  38.882  1.00  0.00    -0.237 OA
ATOM     70  O   UNL A   1      39.871  36.717  37.213  1.00  0.00    -0.237 OA
ATOM     71  O   UNL A   1      38.999  35.094  38.852  1.00  0.00    -0.744 OA
ENDBRANCH  67  68
ENDBRANCH  48  62
BRANCH  49  72
ATOM     72  C   UNL A   1      43.083  25.151  28.329  1.00  0.00    -0.014 A 
ATOM     73  C   UNL A   1      44.015  25.396  27.306  1.00  0.00     0.010 A 
ATOM     74  C   UNL A   1      42.441  23.901  28.382  1.00  0.00     0.010 A 
ATOM     75  C   UNL A   1      44.282  24.421  26.340  1.00  0.00     0.020 A 
ATOM     76  C   UNL A   1      42.729  22.911  27.437  1.00  0.00     0.020 A 
ATOM     77  C   UNL A   1      43.639  23.183  26.415  1.00  0.00     0.054 A 
BRANCH  77  78
ATOM     78  S   UNL A   1      44.038  21.916  25.177  1.00  0.00     0.124 S 
ATOM     79  O   UNL A   1      45.472  21.737  25.376  1.00  0.00    -0.237 OA
ATOM     80  O   UNL A   1      43.196  20.797  25.591  1.00  0.00    -0.237 OA
ATOM     81  O   UNL A   1      43.654  22.541  23.913  1.00  0.00    -0.744 OA
ENDBRANCH  77  78
ENDBRANCH  49  72
BRANCH  61  82
ATOM     82  C   UNL A   1      46.105  26.996  34.338  1.00  0.00    -0.014 A 
ATOM     83  C   UNL A   1      45.943  25.991  35.307  1.00  0.00     0.010 A 
ATOM     84  C   UNL A   1      47.401  27.468  34.052  1.00  0.00     0.010 A 
ATOM     85  C   UNL A   1      47.049  25.505  36.013  1.00  0.00     0.020 A 
ATOM     86  C   UNL A   1      48.511  26.961  34.729  1.00  0.00     0.020 A 
ATOM     87  C   UNL A   1      48.326  25.997  35.722  1.00  0.00     0.054 A 
BRANCH  87  88
ATOM     88  S   UNL A   1      49.745  25.342  36.640  1.00  0.00     0.124 S 
ATOM     89  O   UNL A   1      50.563  26.537  36.827  1.00  0.00    -0.237 OA
ATOM     90  O   UNL A   1      49.126  24.808  37.850  1.00  0.00    -0.237 OA
ATOM     91  O   UNL A   1      50.307  24.337  35.739  1.00  0.00    -0.744 OA
ENDBRANCH  87  88
ENDBRANCH  61  82
ENDBRANCH  35  36
ENDBRANCH  27  30
ENDBRANCH  25  26
ENDBRANCH  24  25
ENDBRANCH   1  24
TORSDOF 18
ENDMDL
MODEL 3
REMARK VINA RESULT:      -9.8      5.577     10.572
REMARK SMILES C[C@H](C(=O)NCCCCNC(=O)c1ccc(-c2c3nc(c(-c4ccc(S(=O)(=O)[O-])cc4)c4ccc([nH]4)c(-c4ccc(S(=O)(=O)[O-])cc4)c4nc(c(-c5ccc(S(=O)(=O)[O-])cc5)c5ccc2[nH]5)C=C4)C=C3)cc1)N(C)C(=O)c1cc(C(F)(F)F)ccc1F
REMARK SMILES IDX 7 1 6 2 5 3 3 4 4 5 2 7 1 8 73 9 74 10 75 11 76 12 77 13
REMARK SMILES IDX 78 14 86 15 79 16 85 17 87 18 84 19 80 20 81 21 82 22 83 23
REMARK SMILES IDX 8 24 9 25 10 26 11 27 12 29 13 30 14 31 72 32 15 33 71 34
REMARK SMILES IDX 16 35 17 36 18 37 65 38 19 39 70 40 64 41 66 42 20 43 69 44
REMARK SMILES IDX 63 45 62 46 21 48 51 49 32 50 50 51 33 52 36 53 49 54 67 55
REMARK SMILES IDX 34 56 35 57 48 59 68 60 37 61 22 62 23 63 31 64 24 65 30 66
REMARK SMILES IDX 25 67 26 68 27 69 28 70 29 71 52 72 53 73 61 74 54 75 60 76
REMARK SMILES IDX 55 77 56 78 57 79 58 80 59 81 38 82 39 83 47 84 40 85 46 86
REMARK SMILES IDX 41 87 42 88 43 89 44 90 45 91
REMARK H PARENT 5 6 10 28 66 47 36 58
REMARK Flexibility Score: inf
ROOT
ATOM      1  C   UNL A   1      37.398  21.147  24.644  1.00  0.00     0.023 C 
ENDROOT
BRANCH   1   2
ATOM      2  C   UNL A   1      36.088  21.186  25.424  1.00  0.00     0.116 C 
BRANCH   2   3
ATOM      3  N   UNL A   1      35.645  22.540  25.676  1.00  0.00    -0.354 N 
ATOM      4  C   UNL A   1      34.472  22.988  26.222  1.00  0.00     0.242 C 
ATOM      5  O   UNL A   1      34.422  24.182  26.525  1.00  0.00    -0.273 OA
ATOM      6  H   UNL A   1      36.282  23.243  25.417  1.00  0.00     0.163 HD
BRANCH   4   7
ATOM      7  C   UNL A   1      33.314  21.993  26.506  1.00  0.00     0.171 C 
ATOM      8  C   UNL A   1      32.708  22.236  27.892  1.00  0.00     0.042 C 
BRANCH   7   9
ATOM      9  N   UNL A   1      32.294  21.952  25.426  1.00  0.00    -0.330 N 
ATOM     10  C   UNL A   1      30.936  22.363  25.758  1.00  0.00     0.148 C 
BRANCH   9  11
ATOM     11  C   UNL A   1      32.707  21.597  24.136  1.00  0.00     0.257 C 
ATOM     12  O   UNL A   1      33.161  22.415  23.337  1.00  0.00    -0.269 OA
BRANCH  11  13
ATOM     13  C   UNL A   1      32.667  20.195  23.656  1.00  0.00     0.076 A 
ATOM     14  C   UNL A   1      33.327  19.225  24.432  1.00  0.00     0.030 A 
ATOM     15  C   UNL A   1      32.147  19.820  22.419  1.00  0.00     0.135 A 
ATOM     16  C   UNL A   1      33.423  17.890  23.998  1.00  0.00     0.056 A 
ATOM     17  C   UNL A   1      32.179  18.490  22.003  1.00  0.00     0.041 A 
ATOM     18  F   UNL A   1      31.651  20.722  21.564  1.00  0.00    -0.206 F 
ATOM     19  C   UNL A   1      32.810  17.526  22.790  1.00  0.00     0.016 A 
BRANCH  16  20
ATOM     20  C   UNL A   1      34.225  16.890  24.801  1.00  0.00     0.416 C 
ATOM     21  F   UNL A   1      34.277  15.670  24.200  1.00  0.00    -0.166 F 
ATOM     22  F   UNL A   1      35.512  17.280  24.990  1.00  0.00    -0.166 F 
ATOM     23  F   UNL A   1      33.712  16.668  26.045  1.00  0.00    -0.166 F 
ENDBRANCH  16  20
ENDBRANCH  11  13
ENDBRANCH   9  11
ENDBRANCH   7   9
ENDBRANCH   4   7
ENDBRANCH   2   3
ENDBRANCH   1   2
BRANCH   1  24
ATOM     24  C   UNL A   1      38.333  20.004  25.050  1.00  0.00     0.023 C 
BRANCH  24  25
ATOM     25  C   UNL A   1      39.401  20.373  26.072  1.00  0.00     0.116 C 
BRANCH  25  26
ATOM     26  N   UNL A   1      40.506  19.427  26.104  1.00  0.00    -0.352 N 
ATOM     27  C   UNL A   1      41.851  19.679  26.218  1.00  0.00     0.251 C 
ATOM     28  H   UNL A   1      40.255  18.477  26.035  1.00  0.00     0.163 HD
ATOM     29  O   UNL A   1      42.656  18.761  26.075  1.00  0.00    -0.269 OA
BRANCH  27  30
ATOM     30  C   UNL A   1      42.326  21.053  26.487  1.00  0.00     0.039 A 
ATOM     31  C   UNL A   1      42.557  21.444  27.808  1.00  0.00     0.014 A 
ATOM     32  C   UNL A   1      42.537  21.959  25.443  1.00  0.00     0.014 A 
ATOM     33  C   UNL A   1      43.029  22.730  28.078  1.00  0.00     0.010 A 
ATOM     34  C   UNL A   1      43.093  23.208  25.707  1.00  0.00     0.010 A 
ATOM     35  C   UNL A   1      43.317  23.620  27.029  1.00  0.00    -0.014 A 
BRANCH  35  36
ATOM     36  C   UNL A   1      43.799  24.998  27.301  1.00  0.00     0.031 A 
ATOM     37  C   UNL A   1      45.241  25.354  27.047  1.00  0.00     0.074 A 
ATOM     38  C   UNL A   1      42.953  25.921  27.802  1.00  0.00     0.049 A 
ATOM     39  N   UNL A   1      45.852  26.500  27.215  1.00  0.00    -0.248 NA
ATOM     40  C   UNL A   1      46.122  24.274  26.568  1.00  0.00     0.031 C 
ATOM     41  C   UNL A   1      41.544  25.693  28.129  1.00  0.00     0.029 A 
ATOM     42  N   UNL A   1      43.157  27.242  28.118  1.00  0.00    -0.354 N 
ATOM     43  C   UNL A   1      47.183  26.272  26.885  1.00  0.00     0.074 A 
ATOM     44  C   UNL A   1      47.305  24.868  26.565  1.00  0.00     0.031 C 
ATOM     45  C   UNL A   1      41.000  26.845  28.555  1.00  0.00     0.029 A 
ATOM     46  C   UNL A   1      42.027  27.882  28.571  1.00  0.00     0.049 A 
ATOM     47  H   UNL A   1      44.030  27.688  28.029  1.00  0.00     0.167 HD
ATOM     48  C   UNL A   1      48.209  27.153  26.829  1.00  0.00     0.031 A 
ATOM     49  C   UNL A   1      41.837  29.162  28.948  1.00  0.00     0.031 A 
ATOM     50  C   UNL A   1      48.081  28.554  27.133  1.00  0.00     0.049 A 
ATOM     51  C   UNL A   1      42.993  30.125  28.875  1.00  0.00     0.074 A 
ATOM     52  C   UNL A   1      49.043  29.545  27.047  1.00  0.00     0.029 A 
ATOM     53  N   UNL A   1      46.919  29.162  27.586  1.00  0.00    -0.354 N 
ATOM     54  N   UNL A   1      44.228  29.906  28.490  1.00  0.00    -0.248 NA
ATOM     55  C   UNL A   1      42.719  31.514  29.268  1.00  0.00     0.031 C 
ATOM     56  C   UNL A   1      48.480  30.740  27.506  1.00  0.00     0.029 A 
ATOM     57  C   UNL A   1      47.147  30.510  27.804  1.00  0.00     0.049 A 
ATOM     58  H   UNL A   1      46.060  28.703  27.729  1.00  0.00     0.167 HD
ATOM     59  C   UNL A   1      44.867  31.142  28.551  1.00  0.00     0.074 A 
ATOM     60  C   UNL A   1      43.879  32.099  29.002  1.00  0.00     0.031 C 
ATOM     61  C   UNL A   1      46.152  31.455  28.251  1.00  0.00     0.031 A 
BRANCH  48  62
ATOM     62  C   UNL A   1      49.566  26.623  26.437  1.00  0.00    -0.014 A 
ATOM     63  C   UNL A   1      50.018  26.675  25.104  1.00  0.00     0.010 A 
ATOM     64  C   UNL A   1      50.415  26.087  27.423  1.00  0.00     0.010 A 
ATOM     65  C   UNL A   1      51.268  26.154  24.759  1.00  0.00     0.020 A 
ATOM     66  C   UNL A   1      51.679  25.598  27.087  1.00  0.00     0.020 A 
ATOM     67  C   UNL A   1      52.090  25.616  25.752  1.00  0.00     0.054 A 
BRANCH  67  68
ATOM     68  S   UNL A   1      53.713  24.961  25.277  1.00  0.00     0.124 S 
ATOM     69  O   UNL A   1      53.878  25.515  23.935  1.00  0.00    -0.237 OA
ATOM     70  O   UNL A   1      54.595  25.520  26.298  1.00  0.00    -0.237 OA
ATOM     71  O   UNL A   1      53.534  23.512  25.335  1.00  0.00    -0.744 OA
ENDBRANCH  67  68
ENDBRANCH  48  62
BRANCH  49  72
ATOM     72  C   UNL A   1      40.489  29.620  29.384  1.00  0.00    -0.014 A 
ATOM     73  C   UNL A   1      40.161  29.671  30.751  1.00  0.00     0.010 A 
ATOM     74  C   UNL A   1      39.526  30.013  28.437  1.00  0.00     0.010 A 
ATOM     75  C   UNL A   1      38.890  30.081  31.162  1.00  0.00     0.020 A 
ATOM     76  C   UNL A   1      38.263  30.455  28.845  1.00  0.00     0.020 A 
ATOM     77  C   UNL A   1      37.949  30.473  30.205  1.00  0.00     0.054 A 
BRANCH  77  78
ATOM     78  S   UNL A   1      36.321  31.047  30.766  1.00  0.00     0.124 S 
ATOM     79  O   UNL A   1      36.178  30.353  32.042  1.00  0.00    -0.237 OA
ATOM     80  O   UNL A   1      36.509  32.493  30.848  1.00  0.00    -0.237 OA
ATOM     81  O   UNL A   1      35.419  30.602  29.707  1.00  0.00    -0.744 OA
ENDBRANCH  77  78
ENDBRANCH  49  72
BRANCH  61  82
ATOM     82  C   UNL A   1      46.552  32.906  28.336  1.00  0.00    -0.014 A 
ATOM     83  C   UNL A   1      46.389  33.785  27.251  1.00  0.00     0.010 A 
ATOM     84  C   UNL A   1      47.073  33.402  29.546  1.00  0.00     0.010 A 
ATOM     85  C   UNL A   1      46.789  35.121  27.359  1.00  0.00     0.020 A 
ATOM     86  C   UNL A   1      47.439  34.743  29.669  1.00  0.00     0.020 A 
ATOM     87  C   UNL A   1      47.316  35.590  28.567  1.00  0.00     0.054 A 
BRANCH  87  88
ATOM     88  S   UNL A   1      47.814  37.329  28.686  1.00  0.00     0.124 S 
ATOM     89  O   UNL A   1      47.669  37.589  30.116  1.00  0.00    -0.237 OA
ATOM     90  O   UNL A   1      49.187  37.304  28.188  1.00  0.00    -0.237 OA
ATOM     91  O   UNL A   1      46.857  38.024  27.827  1.00  0.00    -0.744 OA
ENDBRANCH  87  88
ENDBRANCH  61  82
ENDBRANCH  35  36
ENDBRANCH  27  30
ENDBRANCH  25  26
ENDBRANCH  24  25
ENDBRANCH   1  24
TORSDOF 18
ENDMDL
