MODEL 1
REMARK VINA RESULT:     -10.4      0.000      0.000
REMARK SMILES COCCNC(=O)Cn1ccc(C(=O)NCCCCNC(=O)c2ccc(-c3c4nc(c(-c5ccc(S(=O)(=O)[O-])cc5)c5ccc([nH]5)c(-c5ccc(S(=O)(=O)[O-])cc5)c5nc(c(-c6ccc(S(=O)(=O)[O-])cc6)c6ccc3[nH]6)C=C5)C=C4)cc2)c1
REMARK SMILES IDX 16 1 15 2 13 3 14 4 12 6 9 7 10 8 83 9 11 10 8 11 6 12 5 13
REMARK SMILES IDX 7 15 4 16 3 17 2 18 1 19 17 20 18 21 19 22 20 23 21 24 22 26
REMARK SMILES IDX 23 27 24 28 82 29 25 30 81 31 26 32 27 33 28 34 75 35 29 36
REMARK SMILES IDX 80 37 74 38 76 39 30 40 79 41 73 42 72 43 31 45 61 46 42 47
REMARK SMILES IDX 60 48 43 49 46 50 59 51 77 52 44 53 45 54 58 56 78 57 47 58
REMARK SMILES IDX 32 59 33 60 41 61 34 62 40 63 35 64 36 65 37 66 38 67 39 68
REMARK SMILES IDX 62 69 63 70 71 71 64 72 70 73 65 74 66 75 67 76 68 77 69 78
REMARK SMILES IDX 48 79 49 80 57 81 50 82 56 83 51 84 52 85 53 86 54 87 55 88
REMARK H PARENT 15 5 5 14 20 25 76 44 46 55
REMARK Flexibility Score: inf
ROOT
ATOM      1  C   UNL A   1      33.967  21.738  24.620  1.00  0.00     0.116 C 
ENDROOT
BRANCH   1   2
ATOM      2  N   UNL A   1      33.513  21.902  25.983  1.00  0.00    -0.352 N 
ATOM      3  C   UNL A   1      33.074  22.971  26.729  1.00  0.00     0.252 C 
ATOM      4  O   UNL A   1      32.835  22.745  27.906  1.00  0.00    -0.269 OA
ATOM      5  H   UNL A   1      33.518  21.059  26.492  1.00  0.00     0.163 HD
BRANCH   3   6
ATOM      6  C   UNL A   1      32.947  24.334  26.198  1.00  0.00     0.057 A 
ATOM      7  N   UNL A   1      32.254  26.302  25.367  1.00  0.00    -0.344 N 
ATOM      8  C   UNL A   1      33.610  26.293  25.211  1.00  0.00     0.087 A 
ATOM      9  C   UNL A   1      31.869  25.193  26.082  1.00  0.00     0.100 A 
ATOM     10  C   UNL A   1      34.063  25.085  25.689  1.00  0.00     0.033 A 
BRANCH   7  11
ATOM     11  C   UNL A   1      31.352  27.308  24.833  1.00  0.00     0.221 C 
BRANCH  11  12
ATOM     12  C   UNL A   1      30.647  26.869  23.561  1.00  0.00     0.239 C 
ATOM     13  N   UNL A   1      29.744  27.682  22.937  1.00  0.00    -0.352 N 
ATOM     14  H   UNL A   1      29.283  27.277  22.167  1.00  0.00     0.163 HD
ATOM     15  O   UNL A   1      30.827  25.745  23.087  1.00  0.00    -0.273 OA
BRANCH  13  16
ATOM     16  C   UNL A   1      29.358  29.056  23.236  1.00  0.00     0.144 C 
BRANCH  16  17
ATOM     17  C   UNL A   1      28.331  29.626  22.246  1.00  0.00     0.181 C 
BRANCH  17  18
ATOM     18  O   UNL A   1      28.943  30.334  21.161  1.00  0.00    -0.383 OA
ATOM     19  C   UNL A   1      28.199  31.454  20.709  1.00  0.00     0.194 C 
ENDBRANCH  17  18
ENDBRANCH  16  17
ENDBRANCH  13  16
ENDBRANCH  11  12
ENDBRANCH   7  11
ENDBRANCH   3   6
ENDBRANCH   1   2
BRANCH   1  20
ATOM     20  C   UNL A   1      35.448  21.373  24.545  1.00  0.00     0.023 C 
BRANCH  20  21
ATOM     21  C   UNL A   1      36.358  22.482  23.999  1.00  0.00     0.023 C 
BRANCH  21  22
ATOM     22  C   UNL A   1      37.256  23.149  25.047  1.00  0.00     0.116 C 
BRANCH  22  23
ATOM     23  N   UNL A   1      38.305  22.251  25.500  1.00  0.00    -0.352 N 
ATOM     24  C   UNL A   1      39.515  22.534  26.085  1.00  0.00     0.251 C 
ATOM     25  H   UNL A   1      38.121  21.293  25.368  1.00  0.00     0.163 HD
ATOM     26  O   UNL A   1      40.390  21.671  26.085  1.00  0.00    -0.269 OA
BRANCH  24  27
ATOM     27  C   UNL A   1      39.799  23.857  26.680  1.00  0.00     0.039 A 
ATOM     28  C   UNL A   1      39.154  24.187  27.879  1.00  0.00     0.014 A 
ATOM     29  C   UNL A   1      40.615  24.799  26.043  1.00  0.00     0.014 A 
ATOM     30  C   UNL A   1      39.392  25.420  28.481  1.00  0.00     0.010 A 
ATOM     31  C   UNL A   1      40.860  26.035  26.646  1.00  0.00     0.010 A 
ATOM     32  C   UNL A   1      40.274  26.330  27.885  1.00  0.00    -0.014 A 
BRANCH  32  33
ATOM     33  C   UNL A   1      40.723  27.501  28.683  1.00  0.00     0.031 A 
ATOM     34  C   UNL A   1      42.005  27.196  29.490  1.00  0.00     0.074 A 
ATOM     35  C   UNL A   1      39.943  28.621  28.652  1.00  0.00     0.049 A 
ATOM     36  N   UNL A   1      42.436  27.690  30.612  1.00  0.00    -0.248 NA
ATOM     37  C   UNL A   1      42.900  26.109  29.003  1.00  0.00     0.031 C 
ATOM     38  C   UNL A   1      38.742  28.788  27.804  1.00  0.00     0.029 A 
ATOM     39  N   UNL A   1      39.978  29.829  29.316  1.00  0.00    -0.354 N 
ATOM     40  C   UNL A   1      43.688  27.088  30.891  1.00  0.00     0.074 A 
ATOM     41  C   UNL A   1      43.878  26.067  29.907  1.00  0.00     0.031 C 
ATOM     42  C   UNL A   1      38.132  29.966  28.058  1.00  0.00     0.029 A 
ATOM     43  C   UNL A   1      38.867  30.677  29.087  1.00  0.00     0.049 A 
ATOM     44  H   UNL A   1      40.723  30.084  29.907  1.00  0.00     0.167 HD
ATOM     45  C   UNL A   1      44.553  27.519  31.856  1.00  0.00     0.031 A 
ATOM     46  C   UNL A   1      38.519  31.834  29.730  1.00  0.00     0.031 A 
ATOM     47  C   UNL A   1      43.997  28.595  32.599  1.00  0.00     0.049 A 
ATOM     48  C   UNL A   1      39.584  32.080  30.717  1.00  0.00     0.074 A 
ATOM     49  C   UNL A   1      43.160  28.704  33.676  1.00  0.00     0.029 A 
ATOM     50  N   UNL A   1      44.220  29.852  32.099  1.00  0.00    -0.354 N 
ATOM     51  N   UNL A   1      40.780  32.504  30.447  1.00  0.00    -0.248 NA
ATOM     52  C   UNL A   1      39.327  31.739  32.122  1.00  0.00     0.031 C 
ATOM     53  C   UNL A   1      42.595  29.999  33.561  1.00  0.00     0.029 A 
ATOM     54  C   UNL A   1      43.120  30.609  32.420  1.00  0.00     0.049 A 
ATOM     55  H   UNL A   1      45.017  30.154  31.605  1.00  0.00     0.167 HD
ATOM     56  C   UNL A   1      41.495  32.162  31.570  1.00  0.00     0.074 A 
ATOM     57  C   UNL A   1      40.531  31.982  32.631  1.00  0.00     0.031 C 
ATOM     58  C   UNL A   1      42.733  31.620  31.464  1.00  0.00     0.031 A 
BRANCH  45  59
ATOM     59  C   UNL A   1      46.018  27.220  32.092  1.00  0.00    -0.014 A 
ATOM     60  C   UNL A   1      46.946  27.790  31.180  1.00  0.00     0.010 A 
ATOM     61  C   UNL A   1      46.481  26.175  32.904  1.00  0.00     0.010 A 
ATOM     62  C   UNL A   1      48.216  27.246  30.976  1.00  0.00     0.020 A 
ATOM     63  C   UNL A   1      47.776  25.647  32.734  1.00  0.00     0.020 A 
ATOM     64  C   UNL A   1      48.609  26.148  31.729  1.00  0.00     0.054 A 
BRANCH  64  65
ATOM     65  S   UNL A   1      50.178  25.337  31.311  1.00  0.00     0.124 S 
ATOM     66  O   UNL A   1      51.160  26.324  31.748  1.00  0.00    -0.237 OA
ATOM     67  O   UNL A   1      50.126  24.113  32.108  1.00  0.00    -0.237 OA
ATOM     68  O   UNL A   1      50.084  25.133  29.867  1.00  0.00    -0.744 OA
ENDBRANCH  64  65
ENDBRANCH  45  59
BRANCH  46  69
ATOM     69  C   UNL A   1      37.306  32.737  29.800  1.00  0.00    -0.014 A 
ATOM     70  C   UNL A   1      37.270  34.102  29.491  1.00  0.00     0.010 A 
ATOM     71  C   UNL A   1      36.051  32.153  30.132  1.00  0.00     0.010 A 
ATOM     72  C   UNL A   1      36.038  34.791  29.356  1.00  0.00     0.020 A 
ATOM     73  C   UNL A   1      34.827  32.807  29.963  1.00  0.00     0.020 A 
ATOM     74  C   UNL A   1      34.825  34.122  29.540  1.00  0.00     0.054 A 
BRANCH  74  75
ATOM     75  S   UNL A   1      33.243  34.900  29.100  1.00  0.00     0.124 S 
ATOM     76  O   UNL A   1      32.681  33.953  28.144  1.00  0.00    -0.237 OA
ATOM     77  O   UNL A   1      32.553  34.986  30.386  1.00  0.00    -0.237 OA
ATOM     78  O   UNL A   1      33.646  36.189  28.540  1.00  0.00    -0.744 OA
ENDBRANCH  74  75
ENDBRANCH  46  69
BRANCH  58  79
ATOM     79  C   UNL A   1      43.389  31.806  30.103  1.00  0.00    -0.014 A 
ATOM     80  C   UNL A   1      43.265  30.808  29.124  1.00  0.00     0.010 A 
ATOM     81  C   UNL A   1      44.204  32.919  29.804  1.00  0.00     0.010 A 
ATOM     82  C   UNL A   1      43.927  30.917  27.893  1.00  0.00     0.020 A 
ATOM     83  C   UNL A   1      44.863  33.043  28.571  1.00  0.00     0.020 A 
ATOM     84  C   UNL A   1      44.723  32.034  27.621  1.00  0.00     0.054 A 
BRANCH  84  85
ATOM     85  S   UNL A   1      45.583  32.130  26.023  1.00  0.00     0.124 S 
ATOM     86  O   UNL A   1      45.960  30.740  25.778  1.00  0.00    -0.237 OA
ATOM     87  O   UNL A   1      44.549  32.660  25.139  1.00  0.00    -0.237 OA
ATOM     88  O   UNL A   1      46.703  33.033  26.280  1.00  0.00    -0.744 OA
ENDBRANCH  84  85
ENDBRANCH  58  79
ENDBRANCH  32  33
ENDBRANCH  24  27
ENDBRANCH  22  23
ENDBRANCH  21  22
ENDBRANCH  20  21
ENDBRANCH   1  20
TORSDOF 19
ENDMDL
MODEL 2
REMARK VINA RESULT:     -10.2      4.053      6.915
REMARK SMILES COCCNC(=O)Cn1ccc(C(=O)NCCCCNC(=O)c2ccc(-c3c4nc(c(-c5ccc(S(=O)(=O)[O-])cc5)c5ccc([nH]5)c(-c5ccc(S(=O)(=O)[O-])cc5)c5nc(c(-c6ccc(S(=O)(=O)[O-])cc6)c6ccc3[nH]6)C=C5)C=C4)cc2)c1
REMARK SMILES IDX 16 1 15 2 13 3 14 4 12 6 9 7 10 8 83 9 11 10 8 11 6 12 5 13
REMARK SMILES IDX 7 15 4 16 3 17 2 18 1 19 17 20 18 21 19 22 20 23 21 24 22 26
REMARK SMILES IDX 23 27 24 28 82 29 25 30 81 31 26 32 27 33 28 34 75 35 29 36
REMARK SMILES IDX 80 37 74 38 76 39 30 40 79 41 73 42 72 43 31 45 61 46 42 47
REMARK SMILES IDX 60 48 43 49 46 50 59 51 77 52 44 53 45 54 58 56 78 57 47 58
REMARK SMILES IDX 32 59 33 60 41 61 34 62 40 63 35 64 36 65 37 66 38 67 39 68
REMARK SMILES IDX 62 69 63 70 71 71 64 72 70 73 65 74 66 75 67 76 68 77 69 78
REMARK SMILES IDX 48 79 49 80 57 81 50 82 56 83 51 84 52 85 53 86 54 87 55 88
REMARK H PARENT 15 5 5 14 20 25 76 44 46 55
REMARK Flexibility Score: inf
ROOT
ATOM      1  C   UNL A   1      42.352  18.943  25.855  1.00  0.00     0.116 C 
ENDROOT
BRANCH   1   2
ATOM      2  N   UNL A   1      43.693  18.548  25.486  1.00  0.00    -0.352 N 
ATOM      3  C   UNL A   1      44.818  19.227  25.078  1.00  0.00     0.252 C 
ATOM      4  O   UNL A   1      45.781  18.540  24.773  1.00  0.00    -0.269 OA
ATOM      5  H   UNL A   1      43.833  17.575  25.539  1.00  0.00     0.163 HD
BRANCH   3   6
ATOM      6  C   UNL A   1      44.881  20.688  24.944  1.00  0.00     0.057 A 
ATOM      7  N   UNL A   1      44.862  22.914  25.237  1.00  0.00    -0.344 N 
ATOM      8  C   UNL A   1      44.855  22.720  23.886  1.00  0.00     0.087 A 
ATOM      9  C   UNL A   1      45.017  21.705  25.872  1.00  0.00     0.100 A 
ATOM     10  C   UNL A   1      44.840  21.361  23.674  1.00  0.00     0.033 A 
BRANCH   7  11
ATOM     11  C   UNL A   1      44.697  24.194  25.905  1.00  0.00     0.221 C 
BRANCH  11  12
ATOM     12  C   UNL A   1      45.879  24.573  26.780  1.00  0.00     0.239 C 
ATOM     13  N   UNL A   1      46.909  25.324  26.291  1.00  0.00    -0.352 N 
ATOM     14  H   UNL A   1      47.664  25.449  26.910  1.00  0.00     0.163 HD
ATOM     15  O   UNL A   1      45.970  24.166  27.941  1.00  0.00    -0.273 OA
BRANCH  13  16
ATOM     16  C   UNL A   1      47.062  25.969  24.992  1.00  0.00     0.144 C 
BRANCH  16  17
ATOM     17  C   UNL A   1      46.356  27.331  24.905  1.00  0.00     0.181 C 
BRANCH  17  18
ATOM     18  O   UNL A   1      46.429  28.070  26.130  1.00  0.00    -0.383 OA
ATOM     19  C   UNL A   1      46.340  29.476  25.963  1.00  0.00     0.194 C 
ENDBRANCH  17  18
ENDBRANCH  16  17
ENDBRANCH  13  16
ENDBRANCH  11  12
ENDBRANCH   7  11
ENDBRANCH   3   6
ENDBRANCH   1   2
BRANCH   1  20
ATOM     20  C   UNL A   1      42.257  19.368  27.319  1.00  0.00     0.023 C 
BRANCH  20  21
ATOM     21  C   UNL A   1      41.177  20.417  27.616  1.00  0.00     0.023 C 
BRANCH  21  22
ATOM     22  C   UNL A   1      41.302  21.713  26.808  1.00  0.00     0.116 C 
BRANCH  22  23
ATOM     23  N   UNL A   1      40.110  21.967  26.016  1.00  0.00    -0.352 N 
ATOM     24  C   UNL A   1      39.210  23.001  26.086  1.00  0.00     0.251 C 
ATOM     25  H   UNL A   1      39.917  21.294  25.324  1.00  0.00     0.163 HD
ATOM     26  O   UNL A   1      38.104  22.861  25.568  1.00  0.00    -0.269 OA
BRANCH  24  27
ATOM     27  C   UNL A   1      39.526  24.259  26.796  1.00  0.00     0.039 A 
ATOM     28  C   UNL A   1      38.984  24.440  28.076  1.00  0.00     0.014 A 
ATOM     29  C   UNL A   1      40.268  25.284  26.199  1.00  0.00     0.014 A 
ATOM     30  C   UNL A   1      39.256  25.606  28.787  1.00  0.00     0.010 A 
ATOM     31  C   UNL A   1      40.547  26.453  26.912  1.00  0.00     0.010 A 
ATOM     32  C   UNL A   1      40.068  26.598  28.221  1.00  0.00    -0.014 A 
BRANCH  32  33
ATOM     33  C   UNL A   1      40.568  27.686  29.101  1.00  0.00     0.031 A 
ATOM     34  C   UNL A   1      41.952  27.356  29.702  1.00  0.00     0.074 A 
ATOM     35  C   UNL A   1      39.747  28.757  29.307  1.00  0.00     0.049 A 
ATOM     36  N   UNL A   1      42.503  27.733  30.818  1.00  0.00    -0.248 NA
ATOM     37  C   UNL A   1      42.821  26.387  28.977  1.00  0.00     0.031 C 
ATOM     38  C   UNL A   1      38.442  28.959  28.638  1.00  0.00     0.029 A 
ATOM     39  N   UNL A   1      39.818  29.876  30.110  1.00  0.00    -0.354 N 
ATOM     40  C   UNL A   1      43.802  27.171  30.865  1.00  0.00     0.074 A 
ATOM     41  C   UNL A   1      43.907  26.289  29.744  1.00  0.00     0.031 C 
ATOM     42  C   UNL A   1      37.824  30.063  29.112  1.00  0.00     0.029 A 
ATOM     43  C   UNL A   1      38.654  30.683  30.127  1.00  0.00     0.049 A 
ATOM     44  H   UNL A   1      40.622  30.097  30.635  1.00  0.00     0.167 HD
ATOM     45  C   UNL A   1      44.765  27.529  31.765  1.00  0.00     0.031 A 
ATOM     46  C   UNL A   1      38.345  31.732  30.949  1.00  0.00     0.031 A 
ATOM     47  C   UNL A   1      44.265  28.475  32.701  1.00  0.00     0.049 A 
ATOM     48  C   UNL A   1      39.517  31.915  31.823  1.00  0.00     0.074 A 
ATOM     49  C   UNL A   1      43.568  28.406  33.876  1.00  0.00     0.029 A 
ATOM     50  N   UNL A   1      44.374  29.793  32.341  1.00  0.00    -0.354 N 
ATOM     51  N   UNL A   1      40.651  32.433  31.468  1.00  0.00    -0.248 NA
ATOM     52  C   UNL A   1      39.453  31.393  33.194  1.00  0.00     0.031 C 
ATOM     53  C   UNL A   1      42.943  29.673  33.996  1.00  0.00     0.029 A 
ATOM     54  C   UNL A   1      43.294  30.445  32.886  1.00  0.00     0.049 A 
ATOM     55  H   UNL A   1      45.090  30.196  31.798  1.00  0.00     0.167 HD
ATOM     56  C   UNL A   1      41.516  31.997  32.443  1.00  0.00     0.074 A 
ATOM     57  C   UNL A   1      40.700  31.637  33.581  1.00  0.00     0.031 C 
ATOM     58  C   UNL A   1      42.750  31.541  32.120  1.00  0.00     0.031 A 
BRANCH  45  59
ATOM     59  C   UNL A   1      46.258  27.284  31.783  1.00  0.00    -0.014 A 
ATOM     60  C   UNL A   1      47.007  27.793  30.688  1.00  0.00     0.010 A 
ATOM     61  C   UNL A   1      46.884  26.325  32.592  1.00  0.00     0.010 A 
ATOM     62  C   UNL A   1      48.247  27.261  30.325  1.00  0.00     0.020 A 
ATOM     63  C   UNL A   1      48.153  25.813  32.257  1.00  0.00     0.020 A 
ATOM     64  C   UNL A   1      48.795  26.242  31.092  1.00  0.00     0.054 A 
BRANCH  64  65
ATOM     65  S   UNL A   1      50.304  25.433  30.491  1.00  0.00     0.124 S 
ATOM     66  O   UNL A   1      49.956  25.118  29.110  1.00  0.00    -0.237 OA
ATOM     67  O   UNL A   1      51.313  26.479  30.657  1.00  0.00    -0.237 OA
ATOM     68  O   UNL A   1      50.457  24.287  31.384  1.00  0.00    -0.744 OA
ENDBRANCH  64  65
ENDBRANCH  45  59
BRANCH  46  69
ATOM     69  C   UNL A   1      37.117  32.552  31.279  1.00  0.00    -0.014 A 
ATOM     70  C   UNL A   1      37.095  33.777  31.959  1.00  0.00     0.010 A 
ATOM     71  C   UNL A   1      35.856  32.101  30.794  1.00  0.00     0.010 A 
ATOM     72  C   UNL A   1      35.922  34.573  31.998  1.00  0.00     0.020 A 
ATOM     73  C   UNL A   1      34.704  32.892  30.789  1.00  0.00     0.020 A 
ATOM     74  C   UNL A   1      34.751  34.147  31.365  1.00  0.00     0.054 A 
BRANCH  74  75
ATOM     75  S   UNL A   1      33.332  35.262  31.158  1.00  0.00     0.124 S 
ATOM     76  O   UNL A   1      32.508  34.941  32.319  1.00  0.00    -0.237 OA
ATOM     77  O   UNL A   1      33.952  36.585  31.170  1.00  0.00    -0.237 OA
ATOM     78  O   UNL A   1      32.775  34.862  29.867  1.00  0.00    -0.744 OA
ENDBRANCH  74  75
ENDBRANCH  46  69
BRANCH  58  79
ATOM     79  C   UNL A   1      43.221  31.927  30.725  1.00  0.00    -0.014 A 
ATOM     80  C   UNL A   1      43.726  33.214  30.488  1.00  0.00     0.010 A 
ATOM     81  C   UNL A   1      43.092  31.060  29.618  1.00  0.00     0.010 A 
ATOM     82  C   UNL A   1      44.090  33.622  29.197  1.00  0.00     0.020 A 
ATOM     83  C   UNL A   1      43.462  31.455  28.323  1.00  0.00     0.020 A 
ATOM     84  C   UNL A   1      43.956  32.741  28.120  1.00  0.00     0.054 A 
BRANCH  84  85
ATOM     85  S   UNL A   1      44.417  33.312  26.458  1.00  0.00     0.124 S 
ATOM     86  O   UNL A   1      45.875  33.368  26.531  1.00  0.00    -0.237 OA
ATOM     87  O   UNL A   1      43.877  32.260  25.601  1.00  0.00    -0.237 OA
ATOM     88  O   UNL A   1      43.758  34.611  26.336  1.00  0.00    -0.744 OA
ENDBRANCH  84  85
ENDBRANCH  58  79
ENDBRANCH  32  33
ENDBRANCH  24  27
ENDBRANCH  22  23
ENDBRANCH  21  22
ENDBRANCH  20  21
ENDBRANCH   1  20
TORSDOF 19
ENDMDL
MODEL 3
REMARK VINA RESULT:     -10.2      3.299      9.178
REMARK SMILES COCCNC(=O)Cn1ccc(C(=O)NCCCCNC(=O)c2ccc(-c3c4nc(c(-c5ccc(S(=O)(=O)[O-])cc5)c5ccc([nH]5)c(-c5ccc(S(=O)(=O)[O-])cc5)c5nc(c(-c6ccc(S(=O)(=O)[O-])cc6)c6ccc3[nH]6)C=C5)C=C4)cc2)c1
REMARK SMILES IDX 16 1 15 2 13 3 14 4 12 6 9 7 10 8 83 9 11 10 8 11 6 12 5 13
REMARK SMILES IDX 7 15 4 16 3 17 2 18 1 19 17 20 18 21 19 22 20 23 21 24 22 26
REMARK SMILES IDX 23 27 24 28 82 29 25 30 81 31 26 32 27 33 28 34 75 35 29 36
REMARK SMILES IDX 80 37 74 38 76 39 30 40 79 41 73 42 72 43 31 45 61 46 42 47
REMARK SMILES IDX 60 48 43 49 46 50 59 51 77 52 44 53 45 54 58 56 78 57 47 58
REMARK SMILES IDX 32 59 33 60 41 61 34 62 40 63 35 64 36 65 37 66 38 67 39 68
REMARK SMILES IDX 62 69 63 70 71 71 64 72 70 73 65 74 66 75 67 76 68 77 69 78
REMARK SMILES IDX 48 79 49 80 57 81 50 82 56 83 51 84 52 85 53 86 54 87 55 88
REMARK H PARENT 15 5 5 14 20 25 76 44 46 55
REMARK Flexibility Score: inf
ROOT
ATOM      1  C   UNL A   1      34.368  21.255  24.861  1.00  0.00     0.116 C 
ENDROOT
BRANCH   1   2
ATOM      2  N   UNL A   1      33.024  21.662  25.209  1.00  0.00    -0.352 N 
ATOM      3  C   UNL A   1      32.293  22.815  25.038  1.00  0.00     0.252 C 
ATOM      4  O   UNL A   1      31.180  22.825  25.540  1.00  0.00    -0.269 OA
ATOM      5  H   UNL A   1      32.519  20.955  25.673  1.00  0.00     0.163 HD
BRANCH   3   6
ATOM      6  C   UNL A   1      32.807  24.008  24.354  1.00  0.00     0.057 A 
ATOM      7  N   UNL A   1      33.506  26.056  23.757  1.00  0.00    -0.344 N 
ATOM      8  C   UNL A   1      33.372  25.359  22.591  1.00  0.00     0.087 A 
ATOM      9  C   UNL A   1      33.302  25.211  24.822  1.00  0.00     0.100 A 
ATOM     10  C   UNL A   1      32.919  24.103  22.923  1.00  0.00     0.033 A 
BRANCH   7  11
ATOM     11  C   UNL A   1      33.786  27.479  23.860  1.00  0.00     0.221 C 
BRANCH  11  12
ATOM     12  C   UNL A   1      33.526  28.238  22.570  1.00  0.00     0.239 C 
ATOM     13  N   UNL A   1      32.349  28.901  22.365  1.00  0.00    -0.352 N 
ATOM     14  H   UNL A   1      32.244  29.294  21.468  1.00  0.00     0.163 HD
ATOM     15  O   UNL A   1      34.344  28.229  21.648  1.00  0.00    -0.273 OA
BRANCH  13  16
ATOM     16  C   UNL A   1      31.226  29.117  23.270  1.00  0.00     0.144 C 
BRANCH  16  17
ATOM     17  C   UNL A   1      30.035  28.188  22.990  1.00  0.00     0.181 C 
BRANCH  17  18
ATOM     18  O   UNL A   1      30.344  26.808  23.221  1.00  0.00    -0.383 OA
ATOM     19  C   UNL A   1      29.516  26.184  24.188  1.00  0.00     0.194 C 
ENDBRANCH  17  18
ENDBRANCH  16  17
ENDBRANCH  13  16
ENDBRANCH  11  12
ENDBRANCH   7  11
ENDBRANCH   3   6
ENDBRANCH   1   2
BRANCH   1  20
ATOM     20  C   UNL A   1      35.420  21.922  25.745  1.00  0.00     0.023 C 
BRANCH  20  21
ATOM     21  C   UNL A   1      36.239  23.020  25.055  1.00  0.00     0.023 C 
BRANCH  21  22
ATOM     22  C   UNL A   1      37.090  23.876  26.000  1.00  0.00     0.116 C 
BRANCH  22  23
ATOM     23  N   UNL A   1      38.269  23.159  26.455  1.00  0.00    -0.352 N 
ATOM     24  C   UNL A   1      39.475  23.640  26.900  1.00  0.00     0.251 C 
ATOM     25  H   UNL A   1      38.191  22.177  26.443  1.00  0.00     0.163 HD
ATOM     26  O   UNL A   1      40.445  22.884  26.918  1.00  0.00    -0.269 OA
BRANCH  24  27
ATOM     27  C   UNL A   1      39.642  25.047  27.323  1.00  0.00     0.039 A 
ATOM     28  C   UNL A   1      39.288  25.380  28.637  1.00  0.00     0.014 A 
ATOM     29  C   UNL A   1      40.058  26.045  26.436  1.00  0.00     0.014 A 
ATOM     30  C   UNL A   1      39.431  26.691  29.084  1.00  0.00     0.010 A 
ATOM     31  C   UNL A   1      40.208  27.360  26.882  1.00  0.00     0.010 A 
ATOM     32  C   UNL A   1      39.926  27.676  28.219  1.00  0.00    -0.014 A 
BRANCH  32  33
ATOM     33  C   UNL A   1      40.332  28.982  28.797  1.00  0.00     0.031 A 
ATOM     34  C   UNL A   1      39.115  29.871  29.134  1.00  0.00     0.074 A 
ATOM     35  C   UNL A   1      41.670  29.243  28.890  1.00  0.00     0.049 A 
ATOM     36  N   UNL A   1      38.996  31.165  29.176  1.00  0.00    -0.248 NA
ATOM     37  C   UNL A   1      37.805  29.205  29.383  1.00  0.00     0.031 C 
ATOM     38  C   UNL A   1      42.740  28.279  28.552  1.00  0.00     0.029 A 
ATOM     39  N   UNL A   1      42.404  30.347  29.267  1.00  0.00    -0.354 N 
ATOM     40  C   UNL A   1      37.670  31.460  29.577  1.00  0.00     0.074 A 
ATOM     41  C   UNL A   1      36.966  30.215  29.609  1.00  0.00     0.031 C 
ATOM     42  C   UNL A   1      43.958  28.854  28.661  1.00  0.00     0.029 A 
ATOM     43  C   UNL A   1      43.804  30.235  29.075  1.00  0.00     0.049 A 
ATOM     44  H   UNL A   1      41.986  31.155  29.643  1.00  0.00     0.167 HD
ATOM     45  C   UNL A   1      37.237  32.698  29.957  1.00  0.00     0.031 A 
ATOM     46  C   UNL A   1      44.766  31.204  29.168  1.00  0.00     0.031 A 
ATOM     47  C   UNL A   1      38.266  33.667  29.816  1.00  0.00     0.049 A 
ATOM     48  C   UNL A   1      44.060  32.432  29.574  1.00  0.00     0.074 A 
ATOM     49  C   UNL A   1      38.741  34.441  28.792  1.00  0.00     0.029 A 
ATOM     50  N   UNL A   1      39.094  33.829  30.897  1.00  0.00    -0.354 N 
ATOM     51  N   UNL A   1      43.594  32.678  30.759  1.00  0.00    -0.248 NA
ATOM     52  C   UNL A   1      43.767  33.441  28.549  1.00  0.00     0.031 C 
ATOM     53  C   UNL A   1      40.071  34.757  29.169  1.00  0.00     0.029 A 
ATOM     54  C   UNL A   1      40.333  34.159  30.404  1.00  0.00     0.049 A 
ATOM     55  H   UNL A   1      38.847  33.729  31.845  1.00  0.00     0.167 HD
ATOM     56  C   UNL A   1      42.684  33.683  30.537  1.00  0.00     0.074 A 
ATOM     57  C   UNL A   1      43.042  34.287  29.273  1.00  0.00     0.031 C 
ATOM     58  C   UNL A   1      41.472  33.667  31.142  1.00  0.00     0.031 A 
BRANCH  45  59
ATOM     59  C   UNL A   1      35.989  33.139  30.692  1.00  0.00    -0.014 A 
ATOM     60  C   UNL A   1      34.883  33.543  29.898  1.00  0.00     0.010 A 
ATOM     61  C   UNL A   1      35.967  33.499  32.047  1.00  0.00     0.010 A 
ATOM     62  C   UNL A   1      33.888  34.393  30.388  1.00  0.00     0.020 A 
ATOM     63  C   UNL A   1      34.944  34.323  32.560  1.00  0.00     0.020 A 
ATOM     64  C   UNL A   1      33.949  34.812  31.710  1.00  0.00     0.054 A 
BRANCH  64  65
ATOM     65  S   UNL A   1      32.764  36.069  32.267  1.00  0.00     0.124 S 
ATOM     66  O   UNL A   1      31.606  35.260  32.633  1.00  0.00    -0.237 OA
ATOM     67  O   UNL A   1      33.466  36.694  33.386  1.00  0.00    -0.237 OA
ATOM     68  O   UNL A   1      32.594  36.924  31.095  1.00  0.00    -0.744 OA
ENDBRANCH  64  65
ENDBRANCH  45  59
BRANCH  46  69
ATOM     69  C   UNL A   1      46.225  31.351  28.796  1.00  0.00    -0.014 A 
ATOM     70  C   UNL A   1      47.298  31.497  29.685  1.00  0.00     0.010 A 
ATOM     71  C   UNL A   1      46.582  31.254  27.420  1.00  0.00     0.010 A 
ATOM     72  C   UNL A   1      48.639  31.381  29.241  1.00  0.00     0.020 A 
ATOM     73  C   UNL A   1      47.896  31.096  26.974  1.00  0.00     0.020 A 
ATOM     74  C   UNL A   1      48.925  31.126  27.897  1.00  0.00     0.054 A 
BRANCH  74  75
ATOM     75  S   UNL A   1      50.604  30.695  27.355  1.00  0.00     0.124 S 
ATOM     76  O   UNL A   1      50.846  31.656  26.285  1.00  0.00    -0.237 OA
ATOM     77  O   UNL A   1      51.397  30.884  28.567  1.00  0.00    -0.237 OA
ATOM     78  O   UNL A   1      50.472  29.303  26.926  1.00  0.00    -0.744 OA
ENDBRANCH  74  75
ENDBRANCH  46  69
BRANCH  58  79
ATOM     79  C   UNL A   1      41.376  32.729  32.338  1.00  0.00    -0.014 A 
ATOM     80  C   UNL A   1      40.576  31.579  32.261  1.00  0.00     0.010 A 
ATOM     81  C   UNL A   1      41.998  33.014  33.572  1.00  0.00     0.010 A 
ATOM     82  C   UNL A   1      40.405  30.742  33.374  1.00  0.00     0.020 A 
ATOM     83  C   UNL A   1      41.841  32.178  34.689  1.00  0.00     0.020 A 
ATOM     84  C   UNL A   1      41.038  31.045  34.583  1.00  0.00     0.054 A 
BRANCH  84  85
ATOM     85  S   UNL A   1      40.776  29.950  36.009  1.00  0.00     0.124 S 
ATOM     86  O   UNL A   1      39.338  30.063  36.240  1.00  0.00    -0.237 OA
ATOM     87  O   UNL A   1      41.225  28.657  35.501  1.00  0.00    -0.237 OA
ATOM     88  O   UNL A   1      41.614  30.530  37.057  1.00  0.00    -0.744 OA
ENDBRANCH  84  85
ENDBRANCH  58  79
ENDBRANCH  32  33
ENDBRANCH  24  27
ENDBRANCH  22  23
ENDBRANCH  21  22
ENDBRANCH  20  21
ENDBRANCH   1  20
TORSDOF 19
ENDMDL
