MODEL 1
REMARK VINA RESULT:      -9.9      0.000      0.000
REMARK SMILES C=CC[N@@H+](CC(=O)NCCCCNC(=O)c1ccc(-c2c3nc(c(-c4ccc(S(=O)(=O)[O-])cc4)c4ccc([nH]4)c(-c4ccc(S(=O)(=O)[O-])cc4)c4nc(c(-c5ccc(S(=O)(=O)[O-])cc5)c5ccc2[nH]5)C=C4)C=C3)cc1)Cc1ccc([N+](=O)[O-])o1
REMARK SMILES IDX 10 1 9 2 8 3 6 4 7 5 5 7 4 8 3 10 2 11 1 12 76 13 77 14
REMARK SMILES IDX 78 15 84 16 79 17 80 18 81 19 82 20 83 21 11 22 12 23 13 24
REMARK SMILES IDX 14 25 15 27 16 28 17 29 75 30 18 31 74 32 19 33 20 34 21 35
REMARK SMILES IDX 68 36 22 37 73 38 67 39 69 40 23 41 72 42 66 43 65 44 24 46
REMARK SMILES IDX 54 47 35 48 53 49 36 50 39 51 52 52 70 53 37 54 38 55 51 57
REMARK SMILES IDX 71 58 40 59 25 60 26 61 34 62 27 63 33 64 28 65 29 66 30 67
REMARK SMILES IDX 31 68 32 69 55 70 56 71 64 72 57 73 63 74 58 75 59 76 60 77
REMARK SMILES IDX 61 78 62 79 41 80 42 81 50 82 43 83 49 84 44 85 45 86 46 87
REMARK SMILES IDX 47 88 48 89
REMARK H PARENT 8 6 4 9 13 26 69 45 39 56
REMARK Flexibility Score: inf
ROOT
ATOM      1  C   UNL A   1      33.883  25.622  25.547  1.00  0.00     0.023 C 
ENDROOT
BRANCH   1   2
ATOM      2  C   UNL A   1      33.322  24.905  24.318  1.00  0.00     0.116 C 
BRANCH   2   3
ATOM      3  N   UNL A   1      33.767  25.486  23.070  1.00  0.00    -0.351 N 
ATOM      4  C   UNL A   1      33.061  26.185  22.129  1.00  0.00     0.275 C 
ATOM      5  O   UNL A   1      33.681  26.694  21.189  1.00  0.00    -0.269 OA
ATOM      6  H   UNL A   1      34.722  25.360  22.866  1.00  0.00     0.163 HD
BRANCH   4   7
ATOM      7  C   UNL A   1      31.549  26.382  22.243  1.00  0.00     0.364 C 
BRANCH   7   8
ATOM      8  N   UNL A   1      31.095  27.544  23.024  1.00  0.00    -0.318 N 
ATOM      9  H   UNL A   1      31.921  27.873  23.525  1.00  0.00     0.349 HD
BRANCH   8  10
ATOM     10  C   UNL A   1      30.303  27.232  24.192  1.00  0.00     0.291 C 
BRANCH  10  11
ATOM     11  C   UNL A   1      29.362  26.071  24.084  1.00  0.00     0.025 C 
ATOM     12  C   UNL A   1      28.071  26.126  24.445  1.00  0.00     0.010 C 
ENDBRANCH  10  11
ENDBRANCH   8  10
BRANCH   8  13
ATOM     13  C   UNL A   1      31.002  28.836  22.351  1.00  0.00     0.339 C 
BRANCH  13  14
ATOM     14  C   UNL A   1      29.667  29.512  22.308  1.00  0.00     0.165 A 
ATOM     15  C   UNL A   1      28.430  29.235  22.867  1.00  0.00     0.059 A 
ATOM     16  O   UNL A   1      29.615  30.727  21.687  1.00  0.00    -0.400 OA
ATOM     17  C   UNL A   1      27.576  30.331  22.554  1.00  0.00     0.134 A 
ATOM     18  C   UNL A   1      28.349  31.189  21.813  1.00  0.00     0.433 A 
BRANCH  18  19
ATOM     19  N   UNL A   1      28.068  32.432  21.170  1.00  0.00     0.102 N 
ATOM     20  O   UNL A   1      28.036  32.415  19.933  1.00  0.00    -0.256 OA
ATOM     21  O   UNL A   1      27.938  33.434  21.887  1.00  0.00    -0.256 OA
ENDBRANCH  18  19
ENDBRANCH  13  14
ENDBRANCH   8  13
ENDBRANCH   7   8
ENDBRANCH   4   7
ENDBRANCH   2   3
ENDBRANCH   1   2
BRANCH   1  22
ATOM     22  C   UNL A   1      33.390  27.039  25.793  1.00  0.00     0.023 C 
BRANCH  22  23
ATOM     23  C   UNL A   1      34.343  27.937  26.561  1.00  0.00     0.116 C 
BRANCH  23  24
ATOM     24  N   UNL A   1      33.772  29.223  26.944  1.00  0.00    -0.352 N 
ATOM     25  C   UNL A   1      34.353  30.240  27.665  1.00  0.00     0.251 C 
ATOM     26  H   UNL A   1      32.847  29.383  26.646  1.00  0.00     0.163 HD
ATOM     27  O   UNL A   1      33.701  31.239  27.958  1.00  0.00    -0.269 OA
BRANCH  25  28
ATOM     28  C   UNL A   1      35.750  30.093  28.125  1.00  0.00     0.039 A 
ATOM     29  C   UNL A   1      35.994  29.623  29.418  1.00  0.00     0.014 A 
ATOM     30  C   UNL A   1      36.812  30.340  27.253  1.00  0.00     0.014 A 
ATOM     31  C   UNL A   1      37.301  29.310  29.801  1.00  0.00     0.010 A 
ATOM     32  C   UNL A   1      38.092  29.928  27.598  1.00  0.00     0.010 A 
ATOM     33  C   UNL A   1      38.353  29.411  28.876  1.00  0.00    -0.014 A 
BRANCH  33  34
ATOM     34  C   UNL A   1      39.740  29.003  29.214  1.00  0.00     0.031 A 
ATOM     35  C   UNL A   1      40.662  29.992  29.878  1.00  0.00     0.074 A 
ATOM     36  C   UNL A   1      40.199  27.789  28.846  1.00  0.00     0.049 A 
ATOM     37  N   UNL A   1      41.940  29.885  30.134  1.00  0.00    -0.248 NA
ATOM     38  C   UNL A   1      40.077  31.286  30.270  1.00  0.00     0.031 C 
ATOM     39  C   UNL A   1      39.423  26.759  28.149  1.00  0.00     0.029 A 
ATOM     40  N   UNL A   1      41.438  27.220  28.998  1.00  0.00    -0.354 N 
ATOM     41  C   UNL A   1      42.316  31.108  30.680  1.00  0.00     0.074 A 
ATOM     42  C   UNL A   1      41.146  31.956  30.671  1.00  0.00     0.031 C 
ATOM     43  C   UNL A   1      40.195  25.676  27.964  1.00  0.00     0.029 A 
ATOM     44  C   UNL A   1      41.530  25.946  28.487  1.00  0.00     0.049 A 
ATOM     45  H   UNL A   1      42.193  27.681  29.431  1.00  0.00     0.167 HD
ATOM     46  C   UNL A   1      43.521  31.484  31.170  1.00  0.00     0.031 A 
ATOM     47  C   UNL A   1      42.573  25.095  28.443  1.00  0.00     0.031 A 
ATOM     48  C   UNL A   1      44.670  30.625  31.220  1.00  0.00     0.049 A 
ATOM     49  C   UNL A   1      43.892  25.523  29.026  1.00  0.00     0.074 A 
ATOM     50  C   UNL A   1      45.922  30.890  31.750  1.00  0.00     0.029 A 
ATOM     51  N   UNL A   1      44.706  29.326  30.735  1.00  0.00    -0.354 N 
ATOM     52  N   UNL A   1      44.216  26.667  29.579  1.00  0.00    -0.248 NA
ATOM     53  C   UNL A   1      44.984  24.540  28.989  1.00  0.00     0.031 C 
ATOM     54  C   UNL A   1      46.721  29.758  31.563  1.00  0.00     0.029 A 
ATOM     55  C   UNL A   1      45.956  28.776  30.954  1.00  0.00     0.049 A 
ATOM     56  H   UNL A   1      43.952  28.864  30.300  1.00  0.00     0.167 HD
ATOM     57  C   UNL A   1      45.538  26.532  29.982  1.00  0.00     0.074 A 
ATOM     58  C   UNL A   1      45.953  25.191  29.619  1.00  0.00     0.031 C 
ATOM     59  C   UNL A   1      46.340  27.434  30.598  1.00  0.00     0.031 A 
BRANCH  46  60
ATOM     60  C   UNL A   1      43.641  32.885  31.706  1.00  0.00    -0.014 A 
ATOM     61  C   UNL A   1      44.131  33.928  30.899  1.00  0.00     0.010 A 
ATOM     62  C   UNL A   1      43.241  33.169  33.025  1.00  0.00     0.010 A 
ATOM     63  C   UNL A   1      44.263  35.219  31.413  1.00  0.00     0.020 A 
ATOM     64  C   UNL A   1      43.345  34.466  33.534  1.00  0.00     0.020 A 
ATOM     65  C   UNL A   1      43.873  35.479  32.731  1.00  0.00     0.054 A 
BRANCH  65  66
ATOM     66  S   UNL A   1      44.035  37.170  33.366  1.00  0.00     0.124 S 
ATOM     67  O   UNL A   1      45.264  37.078  34.152  1.00  0.00    -0.237 OA
ATOM     68  O   UNL A   1      44.129  37.966  32.146  1.00  0.00    -0.237 OA
ATOM     69  O   UNL A   1      42.813  37.366  34.142  1.00  0.00    -0.744 OA
ENDBRANCH  65  66
ENDBRANCH  46  60
BRANCH  47  70
ATOM     70  C   UNL A   1      42.408  23.739  27.851  1.00  0.00    -0.014 A 
ATOM     71  C   UNL A   1      42.020  22.657  28.661  1.00  0.00     0.010 A 
ATOM     72  C   UNL A   1      42.640  23.520  26.482  1.00  0.00     0.010 A 
ATOM     73  C   UNL A   1      41.889  21.375  28.118  1.00  0.00     0.020 A 
ATOM     74  C   UNL A   1      42.487  22.244  25.930  1.00  0.00     0.020 A 
ATOM     75  C   UNL A   1      42.126  21.176  26.755  1.00  0.00     0.054 A 
BRANCH  75  76
ATOM     76  S   UNL A   1      41.911  19.513  26.061  1.00  0.00     0.124 S 
ATOM     77  O   UNL A   1      42.727  19.581  24.852  1.00  0.00    -0.237 OA
ATOM     78  O   UNL A   1      42.427  18.655  27.125  1.00  0.00    -0.237 OA
ATOM     79  O   UNL A   1      40.469  19.420  25.842  1.00  0.00    -0.744 OA
ENDBRANCH  75  76
ENDBRANCH  47  70
BRANCH  59  80
ATOM     80  C   UNL A   1      47.730  26.991  30.961  1.00  0.00    -0.014 A 
ATOM     81  C   UNL A   1      48.802  27.151  30.066  1.00  0.00     0.010 A 
ATOM     82  C   UNL A   1      47.974  26.467  32.243  1.00  0.00     0.010 A 
ATOM     83  C   UNL A   1      50.093  26.770  30.440  1.00  0.00     0.020 A 
ATOM     84  C   UNL A   1      49.267  26.106  32.628  1.00  0.00     0.020 A 
ATOM     85  C   UNL A   1      50.316  26.249  31.719  1.00  0.00     0.054 A 
BRANCH  85  86
ATOM     86  S   UNL A   1      52.009  25.809  32.201  1.00  0.00     0.124 S 
ATOM     87  O   UNL A   1      51.999  24.357  32.056  1.00  0.00    -0.237 OA
ATOM     88  O   UNL A   1      52.821  26.534  31.225  1.00  0.00    -0.237 OA
ATOM     89  O   UNL A   1      52.115  26.299  33.574  1.00  0.00    -0.744 OA
ENDBRANCH  85  86
ENDBRANCH  59  80
ENDBRANCH  33  34
ENDBRANCH  25  28
ENDBRANCH  23  24
ENDBRANCH  22  23
ENDBRANCH   1  22
TORSDOF 20
ENDMDL
MODEL 2
REMARK VINA RESULT:      -9.8      3.036      5.586
REMARK SMILES C=CC[N@@H+](CC(=O)NCCCCNC(=O)c1ccc(-c2c3nc(c(-c4ccc(S(=O)(=O)[O-])cc4)c4ccc([nH]4)c(-c4ccc(S(=O)(=O)[O-])cc4)c4nc(c(-c5ccc(S(=O)(=O)[O-])cc5)c5ccc2[nH]5)C=C4)C=C3)cc1)Cc1ccc([N+](=O)[O-])o1
REMARK SMILES IDX 10 1 9 2 8 3 6 4 7 5 5 7 4 8 3 10 2 11 1 12 76 13 77 14
REMARK SMILES IDX 78 15 84 16 79 17 80 18 81 19 82 20 83 21 11 22 12 23 13 24
REMARK SMILES IDX 14 25 15 27 16 28 17 29 75 30 18 31 74 32 19 33 20 34 21 35
REMARK SMILES IDX 68 36 22 37 73 38 67 39 69 40 23 41 72 42 66 43 65 44 24 46
REMARK SMILES IDX 54 47 35 48 53 49 36 50 39 51 52 52 70 53 37 54 38 55 51 57
REMARK SMILES IDX 71 58 40 59 25 60 26 61 34 62 27 63 33 64 28 65 29 66 30 67
REMARK SMILES IDX 31 68 32 69 55 70 56 71 64 72 57 73 63 74 58 75 59 76 60 77
REMARK SMILES IDX 61 78 62 79 41 80 42 81 50 82 43 83 49 84 44 85 45 86 46 87
REMARK SMILES IDX 47 88 48 89
REMARK H PARENT 8 6 4 9 13 26 69 45 39 56
REMARK Flexibility Score: inf
ROOT
ATOM      1  C   UNL A   1      33.829  25.664  25.537  1.00  0.00     0.023 C 
ENDROOT
BRANCH   1   2
ATOM      2  C   UNL A   1      33.201  24.867  24.392  1.00  0.00     0.116 C 
BRANCH   2   3
ATOM      3  N   UNL A   1      32.095  24.038  24.819  1.00  0.00    -0.351 N 
ATOM      4  C   UNL A   1      31.948  22.679  24.767  1.00  0.00     0.275 C 
ATOM      5  O   UNL A   1      30.956  22.175  25.305  1.00  0.00    -0.269 OA
ATOM      6  H   UNL A   1      31.331  24.526  25.206  1.00  0.00     0.163 HD
BRANCH   4   7
ATOM      7  C   UNL A   1      32.996  21.784  24.106  1.00  0.00     0.364 C 
BRANCH   7   8
ATOM      8  N   UNL A   1      33.732  20.869  24.993  1.00  0.00    -0.318 N 
ATOM      9  H   UNL A   1      33.744  21.327  25.904  1.00  0.00     0.349 HD
BRANCH   8  10
ATOM     10  C   UNL A   1      35.165  20.842  24.800  1.00  0.00     0.291 C 
BRANCH  10  11
ATOM     11  C   UNL A   1      35.791  22.059  24.189  1.00  0.00     0.025 C 
ATOM     12  C   UNL A   1      36.531  22.938  24.880  1.00  0.00     0.010 C 
ENDBRANCH  10  11
ENDBRANCH   8  10
BRANCH   8  13
ATOM     13  C   UNL A   1      33.011  19.744  25.579  1.00  0.00     0.339 C 
BRANCH  13  14
ATOM     14  C   UNL A   1      33.346  18.366  25.100  1.00  0.00     0.165 A 
ATOM     15  C   UNL A   1      34.207  17.866  24.136  1.00  0.00     0.059 A 
ATOM     16  O   UNL A   1      32.797  17.325  25.792  1.00  0.00    -0.400 OA
ATOM     17  C   UNL A   1      34.166  16.446  24.236  1.00  0.00     0.134 A 
ATOM     18  C   UNL A   1      33.271  16.182  25.241  1.00  0.00     0.433 A 
BRANCH  18  19
ATOM     19  N   UNL A   1      32.763  14.966  25.789  1.00  0.00     0.102 N 
ATOM     20  O   UNL A   1      33.360  13.930  25.470  1.00  0.00    -0.256 OA
ATOM     21  O   UNL A   1      31.739  15.031  26.485  1.00  0.00    -0.256 OA
ENDBRANCH  18  19
ENDBRANCH  13  14
ENDBRANCH   8  13
ENDBRANCH   7   8
ENDBRANCH   4   7
ENDBRANCH   2   3
ENDBRANCH   1   2
BRANCH   1  22
ATOM     22  C   UNL A   1      33.406  27.118  25.668  1.00  0.00     0.023 C 
BRANCH  22  23
ATOM     23  C   UNL A   1      34.345  28.001  26.469  1.00  0.00     0.116 C 
BRANCH  23  24
ATOM     24  N   UNL A   1      33.756  29.267  26.891  1.00  0.00    -0.352 N 
ATOM     25  C   UNL A   1      34.321  30.264  27.654  1.00  0.00     0.251 C 
ATOM     26  H   UNL A   1      32.833  29.429  26.590  1.00  0.00     0.163 HD
ATOM     27  O   UNL A   1      33.655  31.245  27.975  1.00  0.00    -0.269 OA
BRANCH  25  28
ATOM     28  C   UNL A   1      35.714  30.115  28.123  1.00  0.00     0.039 A 
ATOM     29  C   UNL A   1      35.951  29.597  29.398  1.00  0.00     0.014 A 
ATOM     30  C   UNL A   1      36.782  30.407  27.272  1.00  0.00     0.014 A 
ATOM     31  C   UNL A   1      37.257  29.284  29.782  1.00  0.00     0.010 A 
ATOM     32  C   UNL A   1      38.064  29.996  27.614  1.00  0.00     0.010 A 
ATOM     33  C   UNL A   1      38.317  29.433  28.873  1.00  0.00    -0.014 A 
BRANCH  33  34
ATOM     34  C   UNL A   1      39.706  29.028  29.209  1.00  0.00     0.031 A 
ATOM     35  C   UNL A   1      40.629  30.020  29.866  1.00  0.00     0.074 A 
ATOM     36  C   UNL A   1      40.164  27.812  28.846  1.00  0.00     0.049 A 
ATOM     37  N   UNL A   1      41.908  29.916  30.119  1.00  0.00    -0.248 NA
ATOM     38  C   UNL A   1      40.044  31.316  30.253  1.00  0.00     0.031 C 
ATOM     39  C   UNL A   1      39.387  26.778  28.156  1.00  0.00     0.029 A 
ATOM     40  N   UNL A   1      41.405  27.245  28.997  1.00  0.00    -0.354 N 
ATOM     41  C   UNL A   1      42.285  31.141  30.658  1.00  0.00     0.074 A 
ATOM     42  C   UNL A   1      41.113  31.989  30.648  1.00  0.00     0.031 C 
ATOM     43  C   UNL A   1      40.160  25.694  27.974  1.00  0.00     0.029 A 
ATOM     44  C   UNL A   1      41.495  25.968  28.493  1.00  0.00     0.049 A 
ATOM     45  H   UNL A   1      42.160  27.708  29.426  1.00  0.00     0.167 HD
ATOM     46  C   UNL A   1      43.490  31.521  31.142  1.00  0.00     0.031 A 
ATOM     47  C   UNL A   1      42.539  25.117  28.449  1.00  0.00     0.031 A 
ATOM     48  C   UNL A   1      44.641  30.663  31.193  1.00  0.00     0.049 A 
ATOM     49  C   UNL A   1      43.860  25.549  29.027  1.00  0.00     0.074 A 
ATOM     50  C   UNL A   1      45.893  30.931  31.719  1.00  0.00     0.029 A 
ATOM     51  N   UNL A   1      44.675  29.362  30.715  1.00  0.00    -0.354 N 
ATOM     52  N   UNL A   1      44.184  26.697  29.574  1.00  0.00    -0.248 NA
ATOM     53  C   UNL A   1      44.952  24.567  28.991  1.00  0.00     0.031 C 
ATOM     54  C   UNL A   1      46.693  29.798  31.535  1.00  0.00     0.029 A 
ATOM     55  C   UNL A   1      45.926  28.813  30.933  1.00  0.00     0.049 A 
ATOM     56  H   UNL A   1      43.921  28.897  30.285  1.00  0.00     0.167 HD
ATOM     57  C   UNL A   1      45.508  26.564  29.973  1.00  0.00     0.074 A 
ATOM     58  C   UNL A   1      45.922  25.222  29.616  1.00  0.00     0.031 C 
ATOM     59  C   UNL A   1      46.311  27.470  30.582  1.00  0.00     0.031 A 
BRANCH  46  60
ATOM     60  C   UNL A   1      43.611  32.924  31.672  1.00  0.00    -0.014 A 
ATOM     61  C   UNL A   1      43.304  33.219  33.013  1.00  0.00     0.010 A 
ATOM     62  C   UNL A   1      44.058  33.957  30.827  1.00  0.00     0.010 A 
ATOM     63  C   UNL A   1      43.397  34.529  33.488  1.00  0.00     0.020 A 
ATOM     64  C   UNL A   1      44.179  35.264  31.308  1.00  0.00     0.020 A 
ATOM     65  C   UNL A   1      43.829  35.545  32.630  1.00  0.00     0.054 A 
BRANCH  65  66
ATOM     66  S   UNL A   1      43.959  37.233  33.280  1.00  0.00     0.124 S 
ATOM     67  O   UNL A   1      45.253  37.195  33.956  1.00  0.00    -0.237 OA
ATOM     68  O   UNL A   1      43.908  38.050  32.070  1.00  0.00    -0.237 OA
ATOM     69  O   UNL A   1      42.799  37.355  34.159  1.00  0.00    -0.744 OA
ENDBRANCH  65  66
ENDBRANCH  46  60
BRANCH  47  70
ATOM     70  C   UNL A   1      42.374  23.759  27.865  1.00  0.00    -0.014 A 
ATOM     71  C   UNL A   1      41.843  22.714  28.643  1.00  0.00     0.010 A 
ATOM     72  C   UNL A   1      42.746  23.499  26.534  1.00  0.00     0.010 A 
ATOM     73  C   UNL A   1      41.709  21.429  28.110  1.00  0.00     0.020 A 
ATOM     74  C   UNL A   1      42.591  22.220  25.989  1.00  0.00     0.020 A 
ATOM     75  C   UNL A   1      42.088  21.189  26.785  1.00  0.00     0.054 A 
BRANCH  75  76
ATOM     76  S   UNL A   1      41.869  19.524  26.098  1.00  0.00     0.124 S 
ATOM     77  O   UNL A   1      42.670  19.590  24.880  1.00  0.00    -0.237 OA
ATOM     78  O   UNL A   1      42.399  18.670  27.158  1.00  0.00    -0.237 OA
ATOM     79  O   UNL A   1      40.424  19.427  25.896  1.00  0.00    -0.744 OA
ENDBRANCH  75  76
ENDBRANCH  47  70
BRANCH  59  80
ATOM     80  C   UNL A   1      47.702  27.030  30.943  1.00  0.00    -0.014 A 
ATOM     81  C   UNL A   1      48.787  27.267  30.083  1.00  0.00     0.010 A 
ATOM     82  C   UNL A   1      47.931  26.427  32.194  1.00  0.00     0.010 A 
ATOM     83  C   UNL A   1      50.078  26.886  30.458  1.00  0.00     0.020 A 
ATOM     84  C   UNL A   1      49.224  26.066  32.581  1.00  0.00     0.020 A 
ATOM     85  C   UNL A   1      50.287  26.286  31.704  1.00  0.00     0.054 A 
BRANCH  85  86
ATOM     86  S   UNL A   1      51.979  25.847  32.190  1.00  0.00     0.124 S 
ATOM     87  O   UNL A   1      51.983  24.401  32.001  1.00  0.00    -0.237 OA
ATOM     88  O   UNL A   1      52.794  26.608  31.245  1.00  0.00    -0.237 OA
ATOM     89  O   UNL A   1      52.066  26.296  33.579  1.00  0.00    -0.744 OA
ENDBRANCH  85  86
ENDBRANCH  59  80
ENDBRANCH  33  34
ENDBRANCH  25  28
ENDBRANCH  23  24
ENDBRANCH  22  23
ENDBRANCH   1  22
TORSDOF 20
ENDMDL
MODEL 3
REMARK VINA RESULT:      -9.7      2.466      3.070
REMARK SMILES C=CC[N@@H+](CC(=O)NCCCCNC(=O)c1ccc(-c2c3nc(c(-c4ccc(S(=O)(=O)[O-])cc4)c4ccc([nH]4)c(-c4ccc(S(=O)(=O)[O-])cc4)c4nc(c(-c5ccc(S(=O)(=O)[O-])cc5)c5ccc2[nH]5)C=C4)C=C3)cc1)Cc1ccc([N+](=O)[O-])o1
REMARK SMILES IDX 10 1 9 2 8 3 6 4 7 5 5 7 4 8 3 10 2 11 1 12 76 13 77 14
REMARK SMILES IDX 78 15 84 16 79 17 80 18 81 19 82 20 83 21 11 22 12 23 13 24
REMARK SMILES IDX 14 25 15 27 16 28 17 29 75 30 18 31 74 32 19 33 20 34 21 35
REMARK SMILES IDX 68 36 22 37 73 38 67 39 69 40 23 41 72 42 66 43 65 44 24 46
REMARK SMILES IDX 54 47 35 48 53 49 36 50 39 51 52 52 70 53 37 54 38 55 51 57
REMARK SMILES IDX 71 58 40 59 25 60 26 61 34 62 27 63 33 64 28 65 29 66 30 67
REMARK SMILES IDX 31 68 32 69 55 70 56 71 64 72 57 73 63 74 58 75 59 76 60 77
REMARK SMILES IDX 61 78 62 79 41 80 42 81 50 82 43 83 49 84 44 85 45 86 46 87
REMARK SMILES IDX 47 88 48 89
REMARK H PARENT 8 6 4 9 13 26 69 45 39 56
REMARK Flexibility Score: inf
ROOT
ATOM      1  C   UNL A   1      34.238  26.156  25.314  1.00  0.00     0.023 C 
ENDROOT
BRANCH   1   2
ATOM      2  C   UNL A   1      33.516  25.209  24.355  1.00  0.00     0.116 C 
BRANCH   2   3
ATOM      3  N   UNL A   1      33.710  25.554  22.963  1.00  0.00    -0.351 N 
ATOM      4  C   UNL A   1      32.825  26.073  22.058  1.00  0.00     0.275 C 
ATOM      5  O   UNL A   1      33.249  26.403  20.945  1.00  0.00    -0.269 OA
ATOM      6  H   UNL A   1      34.616  25.391  22.614  1.00  0.00     0.163 HD
BRANCH   4   7
ATOM      7  C   UNL A   1      31.353  26.291  22.410  1.00  0.00     0.364 C 
BRANCH   7   8
ATOM      8  N   UNL A   1      31.033  27.506  23.177  1.00  0.00    -0.318 N 
ATOM      9  H   UNL A   1      31.894  27.750  23.667  1.00  0.00     0.349 HD
BRANCH   8  10
ATOM     10  C   UNL A   1      30.222  27.297  24.355  1.00  0.00     0.291 C 
BRANCH  10  11
ATOM     11  C   UNL A   1      29.969  25.876  24.762  1.00  0.00     0.025 C 
ATOM     12  C   UNL A   1      30.223  25.400  25.990  1.00  0.00     0.010 C 
ENDBRANCH  10  11
ENDBRANCH   8  10
BRANCH   8  13
ATOM     13  C   UNL A   1      31.073  28.791  22.486  1.00  0.00     0.339 C 
BRANCH  13  14
ATOM     14  C   UNL A   1      29.789  29.541  22.319  1.00  0.00     0.165 A 
ATOM     15  C   UNL A   1      28.458  29.163  22.243  1.00  0.00     0.059 A 
ATOM     16  O   UNL A   1      29.866  30.904  22.346  1.00  0.00    -0.400 OA
ATOM     17  C   UNL A   1      27.686  30.360  22.205  1.00  0.00     0.134 A 
ATOM     18  C   UNL A   1      28.603  31.380  22.242  1.00  0.00     0.433 A 
BRANCH  18  19
ATOM     19  N   UNL A   1      28.471  32.800  22.189  1.00  0.00     0.102 N 
ATOM     20  O   UNL A   1      27.728  33.249  21.308  1.00  0.00    -0.256 OA
ATOM     21  O   UNL A   1      29.149  33.471  22.981  1.00  0.00    -0.256 OA
ENDBRANCH  18  19
ENDBRANCH  13  14
ENDBRANCH   8  13
ENDBRANCH   7   8
ENDBRANCH   4   7
ENDBRANCH   2   3
ENDBRANCH   1   2
BRANCH   1  22
ATOM     22  C   UNL A   1      33.807  27.613  25.288  1.00  0.00     0.023 C 
BRANCH  22  23
ATOM     23  C   UNL A   1      34.612  28.548  26.171  1.00  0.00     0.116 C 
BRANCH  23  24
ATOM     24  N   UNL A   1      33.951  29.816  26.456  1.00  0.00    -0.352 N 
ATOM     25  C   UNL A   1      34.288  30.770  27.388  1.00  0.00     0.251 C 
ATOM     26  H   UNL A   1      33.157  30.014  25.908  1.00  0.00     0.163 HD
ATOM     27  O   UNL A   1      33.576  31.759  27.543  1.00  0.00    -0.269 OA
BRANCH  25  28
ATOM     28  C   UNL A   1      35.484  30.565  28.232  1.00  0.00     0.039 A 
ATOM     29  C   UNL A   1      35.379  29.774  29.379  1.00  0.00     0.014 A 
ATOM     30  C   UNL A   1      36.721  31.084  27.845  1.00  0.00     0.014 A 
ATOM     31  C   UNL A   1      36.535  29.426  30.082  1.00  0.00     0.010 A 
ATOM     32  C   UNL A   1      37.876  30.651  28.482  1.00  0.00     0.010 A 
ATOM     33  C   UNL A   1      37.797  29.819  29.609  1.00  0.00    -0.014 A 
BRANCH  33  34
ATOM     34  C   UNL A   1      39.055  29.396  30.275  1.00  0.00     0.031 A 
ATOM     35  C   UNL A   1      39.513  30.113  31.517  1.00  0.00     0.074 A 
ATOM     36  C   UNL A   1      39.827  28.439  29.721  1.00  0.00     0.049 A 
ATOM     37  N   UNL A   1      40.639  29.993  32.172  1.00  0.00    -0.248 NA
ATOM     38  C   UNL A   1      38.600  31.128  32.073  1.00  0.00     0.031 C 
ATOM     39  C   UNL A   1      39.523  27.704  28.490  1.00  0.00     0.029 A 
ATOM     40  N   UNL A   1      41.038  27.928  30.118  1.00  0.00    -0.354 N 
ATOM     41  C   UNL A   1      40.583  30.939  33.190  1.00  0.00     0.074 A 
ATOM     42  C   UNL A   1      39.339  31.659  33.035  1.00  0.00     0.031 C 
ATOM     43  C   UNL A   1      40.504  26.817  28.252  1.00  0.00     0.029 A 
ATOM     44  C   UNL A   1      41.525  26.948  29.285  1.00  0.00     0.049 A 
ATOM     45  H   UNL A   1      41.513  28.235  30.923  1.00  0.00     0.167 HD
ATOM     46  C   UNL A   1      41.475  31.173  34.181  1.00  0.00     0.031 A 
ATOM     47  C   UNL A   1      42.670  26.238  29.346  1.00  0.00     0.031 A 
ATOM     48  C   UNL A   1      42.689  30.427  34.361  1.00  0.00     0.049 A 
ATOM     49  C   UNL A   1      43.628  26.492  30.478  1.00  0.00     0.074 A 
ATOM     50  C   UNL A   1      43.632  30.545  35.367  1.00  0.00     0.029 A 
ATOM     51  N   UNL A   1      43.121  29.411  33.522  1.00  0.00    -0.354 N 
ATOM     52  N   UNL A   1      43.536  27.360  31.456  1.00  0.00    -0.248 NA
ATOM     53  C   UNL A   1      44.840  25.661  30.519  1.00  0.00     0.031 C 
ATOM     54  C   UNL A   1      44.648  29.616  35.122  1.00  0.00     0.029 A 
ATOM     55  C   UNL A   1      44.317  28.893  33.987  1.00  0.00     0.049 A 
ATOM     56  H   UNL A   1      42.647  29.104  32.715  1.00  0.00     0.167 HD
ATOM     57  C   UNL A   1      44.662  27.160  32.245  1.00  0.00     0.074 A 
ATOM     58  C   UNL A   1      45.415  26.082  31.637  1.00  0.00     0.031 C 
ATOM     59  C   UNL A   1      45.040  27.810  33.374  1.00  0.00     0.031 A 
BRANCH  46  60
ATOM     60  C   UNL A   1      41.152  32.273  35.156  1.00  0.00    -0.014 A 
ATOM     61  C   UNL A   1      41.560  33.597  34.912  1.00  0.00     0.010 A 
ATOM     62  C   UNL A   1      40.414  31.986  36.319  1.00  0.00     0.010 A 
ATOM     63  C   UNL A   1      41.276  34.606  35.834  1.00  0.00     0.020 A 
ATOM     64  C   UNL A   1      40.104  32.999  37.231  1.00  0.00     0.020 A 
ATOM     65  C   UNL A   1      40.554  34.299  36.992  1.00  0.00     0.054 A 
BRANCH  65  66
ATOM     66  S   UNL A   1      40.183  35.634  38.163  1.00  0.00     0.124 S 
ATOM     67  O   UNL A   1      39.877  36.744  37.265  1.00  0.00    -0.237 OA
ATOM     68  O   UNL A   1      39.047  35.101  38.910  1.00  0.00    -0.237 OA
ATOM     69  O   UNL A   1      41.418  35.774  38.929  1.00  0.00    -0.744 OA
ENDBRANCH  65  66
ENDBRANCH  46  60
BRANCH  47  70
ATOM     70  C   UNL A   1      42.961  25.199  28.322  1.00  0.00    -0.014 A 
ATOM     71  C   UNL A   1      42.590  23.861  28.548  1.00  0.00     0.010 A 
ATOM     72  C   UNL A   1      43.610  25.535  27.121  1.00  0.00     0.010 A 
ATOM     73  C   UNL A   1      42.883  22.873  27.602  1.00  0.00     0.020 A 
ATOM     74  C   UNL A   1      43.885  24.554  26.163  1.00  0.00     0.020 A 
ATOM     75  C   UNL A   1      43.533  23.227  26.416  1.00  0.00     0.054 A 
BRANCH  75  76
ATOM     76  S   UNL A   1      43.869  21.938  25.183  1.00  0.00     0.124 S 
ATOM     77  O   UNL A   1      43.799  22.688  23.933  1.00  0.00    -0.237 OA
ATOM     78  O   UNL A   1      45.199  21.470  25.567  1.00  0.00    -0.237 OA
ATOM     79  O   UNL A   1      42.793  20.973  25.398  1.00  0.00    -0.744 OA
ENDBRANCH  75  76
ENDBRANCH  47  70
BRANCH  59  80
ATOM     80  C   UNL A   1      46.299  27.344  34.051  1.00  0.00    -0.014 A 
ATOM     81  C   UNL A   1      46.272  26.324  35.016  1.00  0.00     0.010 A 
ATOM     82  C   UNL A   1      47.534  27.896  33.664  1.00  0.00     0.010 A 
ATOM     83  C   UNL A   1      47.460  25.879  35.603  1.00  0.00     0.020 A 
ATOM     84  C   UNL A   1      48.725  27.438  34.231  1.00  0.00     0.020 A 
ATOM     85  C   UNL A   1      48.678  26.441  35.207  1.00  0.00     0.054 A 
BRANCH  85  86
ATOM     86  S   UNL A   1      50.211  25.811  35.944  1.00  0.00     0.124 S 
ATOM     87  O   UNL A   1      50.915  27.044  36.281  1.00  0.00    -0.237 OA
ATOM     88  O   UNL A   1      49.726  25.032  37.082  1.00  0.00    -0.237 OA
ATOM     89  O   UNL A   1      50.812  25.022  34.870  1.00  0.00    -0.744 OA
ENDBRANCH  85  86
ENDBRANCH  59  80
ENDBRANCH  33  34
ENDBRANCH  25  28
ENDBRANCH  23  24
ENDBRANCH  22  23
ENDBRANCH   1  22
TORSDOF 20
ENDMDL
