MODEL 1
REMARK VINA RESULT:     -10.7      0.000      0.000
REMARK SMILES O=C1NC[C@@H](CSc2ccnc(C(=O)NCCCCNC(=O)c3ccc(-c4c5nc(c(-c6ccc(S(=O)(=O)[O-])cc6)c6ccc([nH]6)c(-c6ccc(S(=O)(=O)[O-])cc6)c6nc(c(-c7ccc(S(=O)(=O)[O-])cc7)c7ccc4[nH]7)C=C6)C=C5)cc3)c2)O1
REMARK SMILES IDX 17 1 16 2 15 3 13 4 14 5 12 7 8 8 9 9 83 10 10 11 11 12 7 13
REMARK SMILES IDX 6 14 5 15 1 16 2 17 3 18 84 19 4 20 18 22 19 23 20 24 21 25
REMARK SMILES IDX 22 27 23 28 24 29 82 30 25 31 81 32 26 33 27 34 28 35 75 36
REMARK SMILES IDX 29 37 80 38 74 39 76 40 30 41 79 42 73 43 72 44 31 46 61 47
REMARK SMILES IDX 42 48 60 49 43 50 46 51 59 52 77 53 44 54 45 55 58 57 78 58
REMARK SMILES IDX 47 59 32 60 33 61 41 62 34 63 40 64 35 65 36 66 37 67 38 68
REMARK SMILES IDX 39 69 62 70 63 71 71 72 64 73 70 74 65 75 66 76 67 77 68 78
REMARK SMILES IDX 69 79 48 80 49 81 57 82 50 83 56 84 51 85 52 86 53 87 54 88
REMARK SMILES IDX 55 89
REMARK H PARENT 15 6 3 21 20 26 76 45 46 56
REMARK Flexibility Score: inf
ROOT
ATOM      1  C   UNL A   1      31.804  26.934  26.619  1.00  0.00     0.023 C 
ENDROOT
BRANCH   1   2
ATOM      2  C   UNL A   1      31.303  25.804  25.717  1.00  0.00     0.116 C 
BRANCH   2   3
ATOM      3  N   UNL A   1      30.339  25.003  26.443  1.00  0.00    -0.351 N 
ATOM      4  C   UNL A   1      30.359  23.699  26.883  1.00  0.00     0.269 C 
ATOM      5  O   UNL A   1      29.319  23.261  27.379  1.00  0.00    -0.268 OA
ATOM      6  H   UNL A   1      29.508  25.484  26.664  1.00  0.00     0.163 HD
BRANCH   4   7
ATOM      7  C   UNL A   1      31.599  22.846  26.865  1.00  0.00     0.129 A 
ATOM      8  C   UNL A   1      33.403  21.724  25.776  1.00  0.00     0.011 A 
ATOM      9  C   UNL A   1      34.116  21.782  26.968  1.00  0.00     0.035 A 
ATOM     10  C   UNL A   1      32.103  22.225  25.732  1.00  0.00     0.049 A 
ATOM     11  C   UNL A   1      33.480  22.272  28.089  1.00  0.00     0.113 A 
ATOM     12  N   UNL A   1      32.250  22.808  28.058  1.00  0.00    -0.251 NA
BRANCH   8  13
ATOM     13  S   UNL A   1      34.221  21.206  24.283  1.00  0.00    -0.122 SA
BRANCH  13  14
ATOM     14  C   UNL A   1      34.675  19.473  24.666  1.00  0.00     0.122 C 
BRANCH  14  15
ATOM     15  C   UNL A   1      33.581  18.407  24.498  1.00  0.00     0.208 C 
ATOM     16  O   UNL A   1      34.402  15.148  25.290  1.00  0.00    -0.225 OA
ATOM     17  C   UNL A   1      33.934  16.272  25.199  1.00  0.00     0.407 C 
ATOM     18  N   UNL A   1      33.124  16.854  26.125  1.00  0.00    -0.318 N 
ATOM     19  O   UNL A   1      34.137  17.124  24.154  1.00  0.00    -0.443 OA
ATOM     20  C   UNL A   1      32.720  18.153  25.719  1.00  0.00     0.165 C 
ATOM     21  H   UNL A   1      32.852  16.428  26.971  1.00  0.00     0.167 HD
ENDBRANCH  14  15
ENDBRANCH  13  14
ENDBRANCH   8  13
ENDBRANCH   4   7
ENDBRANCH   2   3
ENDBRANCH   1   2
BRANCH   1  22
ATOM     22  C   UNL A   1      32.924  27.764  25.984  1.00  0.00     0.023 C 
BRANCH  22  23
ATOM     23  C   UNL A   1      33.995  28.232  26.964  1.00  0.00     0.116 C 
BRANCH  23  24
ATOM     24  N   UNL A   1      33.774  29.592  27.436  1.00  0.00    -0.352 N 
ATOM     25  C   UNL A   1      34.638  30.399  28.132  1.00  0.00     0.251 C 
ATOM     26  H   UNL A   1      32.895  29.982  27.227  1.00  0.00     0.163 HD
ATOM     27  O   UNL A   1      34.256  31.473  28.584  1.00  0.00    -0.269 OA
BRANCH  25  28
ATOM     28  C   UNL A   1      36.019  29.931  28.359  1.00  0.00     0.039 A 
ATOM     29  C   UNL A   1      36.951  30.056  27.330  1.00  0.00     0.014 A 
ATOM     30  C   UNL A   1      36.397  29.427  29.606  1.00  0.00     0.014 A 
ATOM     31  C   UNL A   1      38.283  29.726  27.573  1.00  0.00     0.010 A 
ATOM     32  C   UNL A   1      37.739  29.184  29.871  1.00  0.00     0.010 A 
ATOM     33  C   UNL A   1      38.695  29.323  28.854  1.00  0.00    -0.014 A 
BRANCH  33  34
ATOM     34  C   UNL A   1      40.124  29.045  29.141  1.00  0.00     0.031 A 
ATOM     35  C   UNL A   1      40.722  27.711  28.788  1.00  0.00     0.074 A 
ATOM     36  C   UNL A   1      40.871  29.987  29.752  1.00  0.00     0.049 A 
ATOM     37  N   UNL A   1      41.952  27.293  28.950  1.00  0.00    -0.248 NA
ATOM     38  C   UNL A   1      39.821  26.706  28.200  1.00  0.00     0.031 C 
ATOM     39  C   UNL A   1      40.389  31.299  30.191  1.00  0.00     0.029 A 
ATOM     40  N   UNL A   1      42.197  29.988  30.105  1.00  0.00    -0.354 N 
ATOM     41  C   UNL A   1      41.968  25.981  28.494  1.00  0.00     0.074 A 
ATOM     42  C   UNL A   1      40.615  25.650  28.108  1.00  0.00     0.031 C 
ATOM     43  C   UNL A   1      41.413  31.994  30.711  1.00  0.00     0.029 A 
ATOM     44  C   UNL A   1      42.613  31.164  30.685  1.00  0.00     0.049 A 
ATOM     45  H   UNL A   1      42.795  29.220  29.956  1.00  0.00     0.167 HD
ATOM     46  C   UNL A   1      43.020  25.134  28.381  1.00  0.00     0.031 A 
ATOM     47  C   UNL A   1      43.824  31.535  31.144  1.00  0.00     0.031 A 
ATOM     48  C   UNL A   1      44.364  25.473  28.765  1.00  0.00     0.049 A 
ATOM     49  C   UNL A   1      44.974  30.572  31.019  1.00  0.00     0.074 A 
ATOM     50  C   UNL A   1      45.511  24.707  28.643  1.00  0.00     0.029 A 
ATOM     51  N   UNL A   1      44.744  26.670  29.353  1.00  0.00    -0.354 N 
ATOM     52  N   UNL A   1      44.986  29.363  30.508  1.00  0.00    -0.248 NA
ATOM     53  C   UNL A   1      46.278  31.031  31.517  1.00  0.00     0.031 C 
ATOM     54  C   UNL A   1      46.571  25.416  29.215  1.00  0.00     0.029 A 
ATOM     55  C   UNL A   1      46.101  26.653  29.627  1.00  0.00     0.049 A 
ATOM     56  H   UNL A   1      44.137  27.421  29.546  1.00  0.00     0.167 HD
ATOM     57  C   UNL A   1      46.303  28.928  30.599  1.00  0.00     0.074 A 
ATOM     58  C   UNL A   1      47.061  30.011  31.192  1.00  0.00     0.031 C 
ATOM     59  C   UNL A   1      46.839  27.738  30.225  1.00  0.00     0.031 A 
BRANCH  46  60
ATOM     60  C   UNL A   1      42.753  23.759  27.824  1.00  0.00    -0.014 A 
ATOM     61  C   UNL A   1      42.511  22.664  28.673  1.00  0.00     0.010 A 
ATOM     62  C   UNL A   1      42.699  23.568  26.431  1.00  0.00     0.010 A 
ATOM     63  C   UNL A   1      42.262  21.396  28.140  1.00  0.00     0.020 A 
ATOM     64  C   UNL A   1      42.418  22.308  25.895  1.00  0.00     0.020 A 
ATOM     65  C   UNL A   1      42.216  21.226  26.754  1.00  0.00     0.054 A 
BRANCH  65  66
ATOM     66  S   UNL A   1      41.861  19.576  26.093  1.00  0.00     0.124 S 
ATOM     67  O   UNL A   1      40.443  19.685  25.755  1.00  0.00    -0.237 OA
ATOM     68  O   UNL A   1      42.772  19.486  24.955  1.00  0.00    -0.237 OA
ATOM     69  O   UNL A   1      42.168  18.681  27.205  1.00  0.00    -0.744 OA
ENDBRANCH  65  66
ENDBRANCH  46  60
BRANCH  47  70
ATOM     70  C   UNL A   1      44.014  32.884  31.745  1.00  0.00    -0.014 A 
ATOM     71  C   UNL A   1      44.293  34.000  30.936  1.00  0.00     0.010 A 
ATOM     72  C   UNL A   1      43.908  33.062  33.137  1.00  0.00     0.010 A 
ATOM     73  C   UNL A   1      44.486  35.261  31.508  1.00  0.00     0.020 A 
ATOM     74  C   UNL A   1      44.066  34.326  33.710  1.00  0.00     0.020 A 
ATOM     75  C   UNL A   1      44.367  35.417  32.891  1.00  0.00     0.054 A 
BRANCH  75  76
ATOM     76  S   UNL A   1      44.573  37.071  33.607  1.00  0.00     0.124 S 
ATOM     77  O   UNL A   1      43.256  37.662  33.391  1.00  0.00    -0.237 OA
ATOM     78  O   UNL A   1      44.914  36.773  34.995  1.00  0.00    -0.237 OA
ATOM     79  O   UNL A   1      45.657  37.653  32.818  1.00  0.00    -0.744 OA
ENDBRANCH  75  76
ENDBRANCH  47  70
BRANCH  59  80
ATOM     80  C   UNL A   1      48.323  27.559  30.415  1.00  0.00    -0.014 A 
ATOM     81  C   UNL A   1      48.850  26.996  31.591  1.00  0.00     0.010 A 
ATOM     82  C   UNL A   1      49.201  27.927  29.378  1.00  0.00     0.010 A 
ATOM     83  C   UNL A   1      50.232  26.847  31.744  1.00  0.00     0.020 A 
ATOM     84  C   UNL A   1      50.580  27.745  29.513  1.00  0.00     0.020 A 
ATOM     85  C   UNL A   1      51.087  27.223  30.704  1.00  0.00     0.054 A 
BRANCH  85  86
ATOM     86  S   UNL A   1      52.873  26.994  30.919  1.00  0.00     0.124 S 
ATOM     87  O   UNL A   1      53.268  26.451  29.624  1.00  0.00    -0.237 OA
ATOM     88  O   UNL A   1      53.337  28.351  31.202  1.00  0.00    -0.237 OA
ATOM     89  O   UNL A   1      52.970  26.062  32.041  1.00  0.00    -0.744 OA
ENDBRANCH  85  86
ENDBRANCH  59  80
ENDBRANCH  33  34
ENDBRANCH  25  28
ENDBRANCH  23  24
ENDBRANCH  22  23
ENDBRANCH   1  22
TORSDOF 17
ENDMDL
MODEL 2
REMARK VINA RESULT:     -10.7      2.256      8.844
REMARK SMILES O=C1NC[C@@H](CSc2ccnc(C(=O)NCCCCNC(=O)c3ccc(-c4c5nc(c(-c6ccc(S(=O)(=O)[O-])cc6)c6ccc([nH]6)c(-c6ccc(S(=O)(=O)[O-])cc6)c6nc(c(-c7ccc(S(=O)(=O)[O-])cc7)c7ccc4[nH]7)C=C6)C=C5)cc3)c2)O1
REMARK SMILES IDX 17 1 16 2 15 3 13 4 14 5 12 7 8 8 9 9 83 10 10 11 11 12 7 13
REMARK SMILES IDX 6 14 5 15 1 16 2 17 3 18 84 19 4 20 18 22 19 23 20 24 21 25
REMARK SMILES IDX 22 27 23 28 24 29 82 30 25 31 81 32 26 33 27 34 28 35 75 36
REMARK SMILES IDX 29 37 80 38 74 39 76 40 30 41 79 42 73 43 72 44 31 46 61 47
REMARK SMILES IDX 42 48 60 49 43 50 46 51 59 52 77 53 44 54 45 55 58 57 78 58
REMARK SMILES IDX 47 59 32 60 33 61 41 62 34 63 40 64 35 65 36 66 37 67 38 68
REMARK SMILES IDX 39 69 62 70 63 71 71 72 64 73 70 74 65 75 66 76 67 77 68 78
REMARK SMILES IDX 69 79 48 80 49 81 57 82 50 83 56 84 51 85 52 86 53 87 54 88
REMARK SMILES IDX 55 89
REMARK H PARENT 15 6 3 21 20 26 76 45 46 56
REMARK Flexibility Score: inf
ROOT
ATOM      1  C   UNL A   1      32.582  29.266  24.896  1.00  0.00     0.023 C 
ENDROOT
BRANCH   1   2
ATOM      2  C   UNL A   1      31.172  29.857  24.965  1.00  0.00     0.116 C 
BRANCH   2   3
ATOM      3  N   UNL A   1      30.649  30.008  23.622  1.00  0.00    -0.351 N 
ATOM      4  C   UNL A   1      30.453  29.112  22.597  1.00  0.00     0.269 C 
ATOM      5  O   UNL A   1      30.094  29.574  21.512  1.00  0.00    -0.268 OA
ATOM      6  H   UNL A   1      30.384  30.930  23.401  1.00  0.00     0.163 HD
BRANCH   4   7
ATOM      7  C   UNL A   1      30.568  27.622  22.776  1.00  0.00     0.129 A 
ATOM      8  C   UNL A   1      31.782  25.568  22.850  1.00  0.00     0.011 A 
ATOM      9  C   UNL A   1      30.779  25.041  23.656  1.00  0.00     0.035 A 
ATOM     10  C   UNL A   1      31.656  26.867  22.363  1.00  0.00     0.049 A 
ATOM     11  C   UNL A   1      29.654  25.805  23.886  1.00  0.00     0.113 A 
ATOM     12  N   UNL A   1      29.535  27.077  23.473  1.00  0.00    -0.251 NA
BRANCH   8  13
ATOM     13  S   UNL A   1      33.296  24.661  22.622  1.00  0.00    -0.122 SA
BRANCH  13  14
ATOM     14  C   UNL A   1      33.806  24.308  24.346  1.00  0.00     0.122 C 
BRANCH  14  15
ATOM     15  C   UNL A   1      34.832  23.185  24.559  1.00  0.00     0.208 C 
ATOM     16  O   UNL A   1      37.876  24.051  25.939  1.00  0.00    -0.225 OA
ATOM     17  C   UNL A   1      36.779  23.594  25.663  1.00  0.00     0.407 C 
ATOM     18  N   UNL A   1      35.973  22.925  26.534  1.00  0.00    -0.318 N 
ATOM     19  O   UNL A   1      36.183  23.668  24.439  1.00  0.00    -0.443 OA
ATOM     20  C   UNL A   1      34.776  22.492  25.906  1.00  0.00     0.165 C 
ATOM     21  H   UNL A   1      36.193  22.763  27.480  1.00  0.00     0.167 HD
ENDBRANCH  14  15
ENDBRANCH  13  14
ENDBRANCH   8  13
ENDBRANCH   4   7
ENDBRANCH   2   3
ENDBRANCH   1   2
BRANCH   1  22
ATOM     22  C   UNL A   1      32.845  28.202  25.966  1.00  0.00     0.023 C 
BRANCH  22  23
ATOM     23  C   UNL A   1      33.944  28.566  26.959  1.00  0.00     0.116 C 
BRANCH  23  24
ATOM     24  N   UNL A   1      33.790  29.906  27.507  1.00  0.00    -0.352 N 
ATOM     25  C   UNL A   1      34.687  30.624  28.258  1.00  0.00     0.251 C 
ATOM     26  H   UNL A   1      32.936  30.355  27.314  1.00  0.00     0.163 HD
ATOM     27  O   UNL A   1      34.357  31.689  28.769  1.00  0.00    -0.269 OA
BRANCH  25  28
ATOM     28  C   UNL A   1      36.037  30.070  28.470  1.00  0.00     0.039 A 
ATOM     29  C   UNL A   1      36.981  30.184  27.450  1.00  0.00     0.014 A 
ATOM     30  C   UNL A   1      36.380  29.495  29.697  1.00  0.00     0.014 A 
ATOM     31  C   UNL A   1      38.291  29.770  27.684  1.00  0.00     0.010 A 
ATOM     32  C   UNL A   1      37.704  29.165  29.957  1.00  0.00     0.010 A 
ATOM     33  C   UNL A   1      38.672  29.292  28.950  1.00  0.00    -0.014 A 
BRANCH  33  34
ATOM     34  C   UNL A   1      40.082  28.922  29.230  1.00  0.00     0.031 A 
ATOM     35  C   UNL A   1      41.005  29.906  29.895  1.00  0.00     0.074 A 
ATOM     36  C   UNL A   1      40.536  27.710  28.852  1.00  0.00     0.049 A 
ATOM     37  N   UNL A   1      42.262  29.757  30.231  1.00  0.00    -0.248 NA
ATOM     38  C   UNL A   1      40.458  31.238  30.202  1.00  0.00     0.031 C 
ATOM     39  C   UNL A   1      39.749  26.691  28.152  1.00  0.00     0.029 A 
ATOM     40  N   UNL A   1      41.767  27.126  29.009  1.00  0.00    -0.354 N 
ATOM     41  C   UNL A   1      42.654  30.973  30.778  1.00  0.00     0.074 A 
ATOM     42  C   UNL A   1      41.525  31.869  30.672  1.00  0.00     0.031 C 
ATOM     43  C   UNL A   1      40.502  25.594  27.981  1.00  0.00     0.029 A 
ATOM     44  C   UNL A   1      41.837  25.844  28.517  1.00  0.00     0.049 A 
ATOM     45  H   UNL A   1      42.530  27.583  29.433  1.00  0.00     0.167 HD
ATOM     46  C   UNL A   1      43.839  31.307  31.342  1.00  0.00     0.031 A 
ATOM     47  C   UNL A   1      42.858  24.965  28.501  1.00  0.00     0.031 A 
ATOM     48  C   UNL A   1      44.957  30.407  31.445  1.00  0.00     0.049 A 
ATOM     49  C   UNL A   1      44.168  25.364  29.122  1.00  0.00     0.074 A 
ATOM     50  C   UNL A   1      46.185  30.629  32.046  1.00  0.00     0.029 A 
ATOM     51  N   UNL A   1      44.991  29.119  30.931  1.00  0.00    -0.354 N 
ATOM     52  N   UNL A   1      44.495  26.492  29.707  1.00  0.00    -0.248 NA
ATOM     53  C   UNL A   1      45.245  24.365  29.094  1.00  0.00     0.031 C 
ATOM     54  C   UNL A   1      46.982  29.499  31.838  1.00  0.00     0.029 A 
ATOM     55  C   UNL A   1      46.227  28.545  31.174  1.00  0.00     0.049 A 
ATOM     56  H   UNL A   1      44.245  28.679  30.464  1.00  0.00     0.167 HD
ATOM     57  C   UNL A   1      45.805  26.328  30.143  1.00  0.00     0.074 A 
ATOM     58  C   UNL A   1      46.202  24.984  29.772  1.00  0.00     0.031 C 
ATOM     59  C   UNL A   1      46.608  27.208  30.792  1.00  0.00     0.031 A 
BRANCH  46  60
ATOM     60  C   UNL A   1      43.985  32.705  31.883  1.00  0.00    -0.014 A 
ATOM     61  C   UNL A   1      44.391  33.769  31.056  1.00  0.00     0.010 A 
ATOM     62  C   UNL A   1      43.669  32.970  33.229  1.00  0.00     0.010 A 
ATOM     63  C   UNL A   1      44.519  35.061  31.574  1.00  0.00     0.020 A 
ATOM     64  C   UNL A   1      43.764  34.267  33.742  1.00  0.00     0.020 A 
ATOM     65  C   UNL A   1      44.204  35.302  32.914  1.00  0.00     0.054 A 
BRANCH  65  66
ATOM     66  S   UNL A   1      44.350  36.994  33.549  1.00  0.00     0.124 S 
ATOM     67  O   UNL A   1      45.062  36.783  34.807  1.00  0.00    -0.237 OA
ATOM     68  O   UNL A   1      45.114  37.663  32.499  1.00  0.00    -0.237 OA
ATOM     69  O   UNL A   1      42.964  37.436  33.684  1.00  0.00    -0.744 OA
ENDBRANCH  65  66
ENDBRANCH  46  60
BRANCH  47  70
ATOM     70  C   UNL A   1      42.675  23.619  27.891  1.00  0.00    -0.014 A 
ATOM     71  C   UNL A   1      42.276  22.522  28.676  1.00  0.00     0.010 A 
ATOM     72  C   UNL A   1      42.892  23.427  26.514  1.00  0.00     0.010 A 
ATOM     73  C   UNL A   1      42.120  21.257  28.101  1.00  0.00     0.020 A 
ATOM     74  C   UNL A   1      42.706  22.172  25.929  1.00  0.00     0.020 A 
ATOM     75  C   UNL A   1      42.333  21.091  26.730  1.00  0.00     0.054 A 
BRANCH  75  76
ATOM     76  S   UNL A   1      42.079  19.451  25.997  1.00  0.00     0.124 S 
ATOM     77  O   UNL A   1      42.924  19.515  24.808  1.00  0.00    -0.237 OA
ATOM     78  O   UNL A   1      42.543  18.559  27.057  1.00  0.00    -0.237 OA
ATOM     79  O   UNL A   1      40.640  19.409  25.742  1.00  0.00    -0.744 OA
ENDBRANCH  75  76
ENDBRANCH  47  70
BRANCH  59  80
ATOM     80  C   UNL A   1      47.987  26.734  31.173  1.00  0.00    -0.014 A 
ATOM     81  C   UNL A   1      48.235  26.113  32.410  1.00  0.00     0.010 A 
ATOM     82  C   UNL A   1      49.045  26.881  30.256  1.00  0.00     0.010 A 
ATOM     83  C   UNL A   1      49.525  25.688  32.741  1.00  0.00     0.020 A 
ATOM     84  C   UNL A   1      50.328  26.425  30.569  1.00  0.00     0.020 A 
ATOM     85  C   UNL A   1      50.563  25.848  31.818  1.00  0.00     0.054 A 
BRANCH  85  86
ATOM     86  S   UNL A   1      52.222  25.265  32.263  1.00  0.00     0.124 S 
ATOM     87  O   UNL A   1      52.029  23.820  32.326  1.00  0.00    -0.237 OA
ATOM     88  O   UNL A   1      53.038  25.744  31.149  1.00  0.00    -0.237 OA
ATOM     89  O   UNL A   1      52.485  25.914  33.545  1.00  0.00    -0.744 OA
ENDBRANCH  85  86
ENDBRANCH  59  80
ENDBRANCH  33  34
ENDBRANCH  25  28
ENDBRANCH  23  24
ENDBRANCH  22  23
ENDBRANCH   1  22
TORSDOF 17
ENDMDL
MODEL 3
REMARK VINA RESULT:     -10.6      4.174     11.348
REMARK SMILES O=C1NC[C@@H](CSc2ccnc(C(=O)NCCCCNC(=O)c3ccc(-c4c5nc(c(-c6ccc(S(=O)(=O)[O-])cc6)c6ccc([nH]6)c(-c6ccc(S(=O)(=O)[O-])cc6)c6nc(c(-c7ccc(S(=O)(=O)[O-])cc7)c7ccc4[nH]7)C=C6)C=C5)cc3)c2)O1
REMARK SMILES IDX 17 1 16 2 15 3 13 4 14 5 12 7 8 8 9 9 83 10 10 11 11 12 7 13
REMARK SMILES IDX 6 14 5 15 1 16 2 17 3 18 84 19 4 20 18 22 19 23 20 24 21 25
REMARK SMILES IDX 22 27 23 28 24 29 82 30 25 31 81 32 26 33 27 34 28 35 75 36
REMARK SMILES IDX 29 37 80 38 74 39 76 40 30 41 79 42 73 43 72 44 31 46 61 47
REMARK SMILES IDX 42 48 60 49 43 50 46 51 59 52 77 53 44 54 45 55 58 57 78 58
REMARK SMILES IDX 47 59 32 60 33 61 41 62 34 63 40 64 35 65 36 66 37 67 38 68
REMARK SMILES IDX 39 69 62 70 63 71 71 72 64 73 70 74 65 75 66 76 67 77 68 78
REMARK SMILES IDX 69 79 48 80 49 81 57 82 50 83 56 84 51 85 52 86 53 87 54 88
REMARK SMILES IDX 55 89
REMARK H PARENT 15 6 3 21 20 26 76 45 46 56
REMARK Flexibility Score: inf
ROOT
ATOM      1  C   UNL A   1      37.669  33.295  29.125  1.00  0.00     0.023 C 
ENDROOT
BRANCH   1   2
ATOM      2  C   UNL A   1      38.203  34.686  29.471  1.00  0.00     0.116 C 
BRANCH   2   3
ATOM      3  N   UNL A   1      39.186  34.573  30.529  1.00  0.00    -0.351 N 
ATOM      4  C   UNL A   1      39.081  34.248  31.862  1.00  0.00     0.269 C 
ATOM      5  O   UNL A   1      40.103  34.354  32.544  1.00  0.00    -0.268 OA
ATOM      6  H   UNL A   1      40.107  34.766  30.239  1.00  0.00     0.163 HD
BRANCH   4   7
ATOM      7  C   UNL A   1      37.823  33.697  32.477  1.00  0.00     0.129 A 
ATOM      8  C   UNL A   1      35.519  33.811  33.089  1.00  0.00     0.011 A 
ATOM      9  C   UNL A   1      35.485  32.421  33.096  1.00  0.00     0.035 A 
ATOM     10  C   UNL A   1      36.720  34.464  32.818  1.00  0.00     0.049 A 
ATOM     11  C   UNL A   1      36.665  31.736  32.903  1.00  0.00     0.113 A 
ATOM     12  N   UNL A   1      37.821  32.341  32.587  1.00  0.00    -0.251 NA
BRANCH   8  13
ATOM     13  S   UNL A   1      34.001  34.731  33.221  1.00  0.00    -0.122 SA
BRANCH  13  14
ATOM     14  C   UNL A   1      34.219  36.032  31.949  1.00  0.00     0.122 C 
BRANCH  14  15
ATOM     15  C   UNL A   1      33.090  36.206  30.922  1.00  0.00     0.208 C 
ATOM     16  O   UNL A   1      33.895  37.693  27.912  1.00  0.00    -0.225 OA
ATOM     17  C   UNL A   1      33.545  36.965  28.826  1.00  0.00     0.407 C 
ATOM     18  N   UNL A   1      33.339  35.623  28.716  1.00  0.00    -0.318 N 
ATOM     19  O   UNL A   1      33.292  37.372  30.103  1.00  0.00    -0.443 OA
ATOM     20  C   UNL A   1      32.908  35.061  29.946  1.00  0.00     0.165 C 
ATOM     21  H   UNL A   1      33.474  35.108  27.888  1.00  0.00     0.167 HD
ENDBRANCH  14  15
ENDBRANCH  13  14
ENDBRANCH   8  13
ENDBRANCH   4   7
ENDBRANCH   2   3
ENDBRANCH   1   2
BRANCH   1  22
ATOM     22  C   UNL A   1      36.220  33.309  28.629  1.00  0.00     0.023 C 
BRANCH  22  23
ATOM     23  C   UNL A   1      35.241  32.554  29.521  1.00  0.00     0.116 C 
BRANCH  23  24
ATOM     24  N   UNL A   1      34.379  31.648  28.776  1.00  0.00    -0.352 N 
ATOM     25  C   UNL A   1      34.712  30.458  28.178  1.00  0.00     0.251 C 
ATOM     26  H   UNL A   1      33.437  31.922  28.691  1.00  0.00     0.163 HD
ATOM     27  O   UNL A   1      33.905  29.875  27.463  1.00  0.00    -0.269 OA
BRANCH  25  28
ATOM     28  C   UNL A   1      36.070  29.919  28.381  1.00  0.00     0.039 A 
ATOM     29  C   UNL A   1      37.003  30.036  27.352  1.00  0.00     0.014 A 
ATOM     30  C   UNL A   1      36.429  29.355  29.608  1.00  0.00     0.014 A 
ATOM     31  C   UNL A   1      38.319  29.637  27.576  1.00  0.00     0.010 A 
ATOM     32  C   UNL A   1      37.759  29.040  29.858  1.00  0.00     0.010 A 
ATOM     33  C   UNL A   1      38.717  29.171  28.841  1.00  0.00    -0.014 A 
BRANCH  33  34
ATOM     34  C   UNL A   1      40.133  28.817  29.110  1.00  0.00     0.031 A 
ATOM     35  C   UNL A   1      41.053  29.816  29.757  1.00  0.00     0.074 A 
ATOM     36  C   UNL A   1      40.594  27.606  28.738  1.00  0.00     0.049 A 
ATOM     37  N   UNL A   1      42.314  29.682  30.081  1.00  0.00    -0.248 NA
ATOM     38  C   UNL A   1      40.496  31.145  30.057  1.00  0.00     0.031 C 
ATOM     39  C   UNL A   1      39.810  26.573  28.055  1.00  0.00     0.029 A 
ATOM     40  N   UNL A   1      41.833  27.035  28.888  1.00  0.00    -0.354 N 
ATOM     41  C   UNL A   1      42.700  30.906  30.613  1.00  0.00     0.074 A 
ATOM     42  C   UNL A   1      41.562  31.790  30.510  1.00  0.00     0.031 C 
ATOM     43  C   UNL A   1      40.573  25.482  27.887  1.00  0.00     0.029 A 
ATOM     44  C   UNL A   1      41.910  25.749  28.407  1.00  0.00     0.049 A 
ATOM     45  H   UNL A   1      42.595  27.503  29.300  1.00  0.00     0.167 HD
ATOM     46  C   UNL A   1      43.888  31.256  31.162  1.00  0.00     0.031 A 
ATOM     47  C   UNL A   1      42.939  24.880  28.388  1.00  0.00     0.031 A 
ATOM     48  C   UNL A   1      45.016  30.369  31.262  1.00  0.00     0.049 A 
ATOM     49  C   UNL A   1      44.252  25.297  28.993  1.00  0.00     0.074 A 
ATOM     50  C   UNL A   1      46.247  30.608  31.848  1.00  0.00     0.029 A 
ATOM     51  N   UNL A   1      45.056  29.077  30.760  1.00  0.00    -0.354 N 
ATOM     52  N   UNL A   1      44.573  26.434  29.565  1.00  0.00    -0.248 NA
ATOM     53  C   UNL A   1      45.338  24.308  28.963  1.00  0.00     0.031 C 
ATOM     54  C   UNL A   1      47.053  29.484  31.643  1.00  0.00     0.029 A 
ATOM     55  C   UNL A   1      46.300  28.516  30.995  1.00  0.00     0.049 A 
ATOM     56  H   UNL A   1      44.310  28.625  30.304  1.00  0.00     0.167 HD
ATOM     57  C   UNL A   1      45.890  26.286  29.988  1.00  0.00     0.074 A 
ATOM     58  C   UNL A   1      46.295  24.943  29.626  1.00  0.00     0.031 C 
ATOM     59  C   UNL A   1      46.691  27.180  30.621  1.00  0.00     0.031 A 
BRANCH  46  60
ATOM     60  C   UNL A   1      44.026  32.662  31.689  1.00  0.00    -0.014 A 
ATOM     61  C   UNL A   1      43.704  32.975  33.023  1.00  0.00     0.010 A 
ATOM     62  C   UNL A   1      44.526  33.676  30.852  1.00  0.00     0.010 A 
ATOM     63  C   UNL A   1      43.840  34.282  33.496  1.00  0.00     0.020 A 
ATOM     64  C   UNL A   1      44.695  34.978  31.332  1.00  0.00     0.020 A 
ATOM     65  C   UNL A   1      44.336  35.276  32.648  1.00  0.00     0.054 A 
BRANCH  65  66
ATOM     66  S   UNL A   1      44.530  36.956  33.300  1.00  0.00     0.124 S 
ATOM     67  O   UNL A   1      45.744  36.830  34.102  1.00  0.00    -0.237 OA
ATOM     68  O   UNL A   1      44.662  37.757  32.085  1.00  0.00    -0.237 OA
ATOM     69  O   UNL A   1      43.303  37.180  34.059  1.00  0.00    -0.744 OA
ENDBRANCH  65  66
ENDBRANCH  46  60
BRANCH  47  70
ATOM     70  C   UNL A   1      42.763  23.527  27.793  1.00  0.00    -0.014 A 
ATOM     71  C   UNL A   1      43.282  23.227  26.521  1.00  0.00     0.010 A 
ATOM     72  C   UNL A   1      42.076  22.523  28.502  1.00  0.00     0.010 A 
ATOM     73  C   UNL A   1      43.100  21.959  25.960  1.00  0.00     0.020 A 
ATOM     74  C   UNL A   1      41.921  21.245  27.960  1.00  0.00     0.020 A 
ATOM     75  C   UNL A   1      42.423  20.975  26.685  1.00  0.00     0.054 A 
BRANCH  75  76
ATOM     76  S   UNL A   1      42.240  19.323  25.958  1.00  0.00     0.124 S 
ATOM     77  O   UNL A   1      40.798  19.244  25.742  1.00  0.00    -0.237 OA
ATOM     78  O   UNL A   1      43.058  19.419  24.751  1.00  0.00    -0.237 OA
ATOM     79  O   UNL A   1      42.768  18.433  26.991  1.00  0.00    -0.744 OA
ENDBRANCH  75  76
ENDBRANCH  47  70
BRANCH  59  80
ATOM     80  C   UNL A   1      48.077  26.723  30.992  1.00  0.00    -0.014 A 
ATOM     81  C   UNL A   1      49.169  26.910  30.126  1.00  0.00     0.010 A 
ATOM     82  C   UNL A   1      48.295  26.128  32.250  1.00  0.00     0.010 A 
ATOM     83  C   UNL A   1      50.445  26.471  30.493  1.00  0.00     0.020 A 
ATOM     84  C   UNL A   1      49.575  25.721  32.634  1.00  0.00     0.020 A 
ATOM     85  C   UNL A   1      50.639  25.878  31.744  1.00  0.00     0.054 A 
BRANCH  85  86
ATOM     86  S   UNL A   1      52.308  25.340  32.205  1.00  0.00     0.124 S 
ATOM     87  O   UNL A   1      53.091  25.752  31.044  1.00  0.00    -0.237 OA
ATOM     88  O   UNL A   1      52.559  26.093  33.432  1.00  0.00    -0.237 OA
ATOM     89  O   UNL A   1      52.171  23.897  32.382  1.00  0.00    -0.744 OA
ENDBRANCH  85  86
ENDBRANCH  59  80
ENDBRANCH  33  34
ENDBRANCH  25  28
ENDBRANCH  23  24
ENDBRANCH  22  23
ENDBRANCH   1  22
TORSDOF 17
ENDMDL
