MODEL 1
REMARK VINA RESULT:      -9.4      0.000      0.000
REMARK SMILES COc1cc(-c2ccc(F)c(C(F)(F)F)c2)ccc1C(=O)NCCCCNC(=O)c1ccc(-c2c3nc(c(-c4ccc(S(=O)(=O)[O-])cc4)c4ccc([nH]4)c(-c4ccc(S(=O)(=O)[O-])cc4)c4nc(c(-c5ccc(S(=O)(=O)[O-])cc5)c5ccc2[nH]5)C=C4)C=C3)cc1
REMARK SMILES IDX 25 1 24 2 23 3 22 4 20 5 21 6 19 8 3 9 4 10 5 11 18 12 17 13
REMARK SMILES IDX 2 14 1 15 6 16 7 17 16 18 8 19 11 20 9 21 10 22 12 23 13 24
REMARK SMILES IDX 14 25 15 26 26 27 27 28 28 29 29 31 30 32 31 33 89 34 32 35
REMARK SMILES IDX 88 36 33 37 34 38 35 39 82 40 36 41 87 42 81 43 83 44 37 45
REMARK SMILES IDX 86 46 80 47 79 48 38 50 68 51 49 52 67 53 50 54 53 55 66 56
REMARK SMILES IDX 84 57 51 58 52 59 65 61 85 62 54 63 39 64 40 65 48 66 41 67
REMARK SMILES IDX 47 68 42 69 43 70 44 71 45 72 46 73 69 74 70 75 78 76 71 77
REMARK SMILES IDX 77 78 72 79 73 80 74 81 75 82 76 83 55 84 56 85 64 86 57 87
REMARK SMILES IDX 63 88 58 89 59 90 60 91 61 92 62 93
REMARK H PARENT 22 7 27 30 83 49 53 60
REMARK Flexibility Score: inf
ROOT
ATOM      1  C   UNL A   1      41.457  21.339  25.979  1.00  0.00     0.023 C 
ENDROOT
BRANCH   1   2
ATOM      2  C   UNL A   1      42.270  22.624  25.812  1.00  0.00     0.023 C 
BRANCH   2   3
ATOM      3  C   UNL A   1      43.210  22.673  24.612  1.00  0.00     0.116 C 
BRANCH   3   4
ATOM      4  N   UNL A   1      44.384  21.827  24.729  1.00  0.00    -0.352 N 
ATOM      5  C   UNL A   1      45.609  22.118  25.283  1.00  0.00     0.255 C 
ATOM      6  O   UNL A   1      46.471  21.242  25.330  1.00  0.00    -0.269 OA
ATOM      7  H   UNL A   1      44.291  20.919  24.361  1.00  0.00     0.163 HD
BRANCH   5   8
ATOM      8  C   UNL A   1      45.953  23.486  25.746  1.00  0.00     0.081 A 
ATOM      9  C   UNL A   1      45.599  24.037  26.980  1.00  0.00     0.132 A 
ATOM     10  C   UNL A   1      45.783  25.406  27.208  1.00  0.00     0.056 A 
ATOM     11  C   UNL A   1      46.401  26.236  26.256  1.00  0.00    -0.015 A 
ATOM     12  C   UNL A   1      46.666  24.277  24.834  1.00  0.00     0.018 A 
ATOM     13  C   UNL A   1      46.894  25.633  25.091  1.00  0.00     0.010 A 
BRANCH   9  14
ATOM     14  O   UNL A   1      44.969  23.361  27.988  1.00  0.00    -0.496 OA
ATOM     15  C   UNL A   1      45.215  23.936  29.270  1.00  0.00     0.278 C 
ENDBRANCH   9  14
BRANCH  11  16
ATOM     16  C   UNL A   1      46.446  27.699  26.447  1.00  0.00    -0.017 A 
ATOM     17  C   UNL A   1      47.661  28.395  26.547  1.00  0.00     0.012 A 
ATOM     18  C   UNL A   1      45.253  28.430  26.616  1.00  0.00     0.025 A 
ATOM     19  C   UNL A   1      47.683  29.764  26.826  1.00  0.00     0.040 A 
ATOM     20  C   UNL A   1      45.263  29.807  26.895  1.00  0.00     0.092 A 
ATOM     21  C   UNL A   1      46.489  30.454  27.002  1.00  0.00     0.135 A 
ATOM     22  F   UNL A   1      46.533  31.761  27.289  1.00  0.00    -0.206 F 
BRANCH  20  23
ATOM     23  C   UNL A   1      44.000  30.581  27.109  1.00  0.00     0.419 C 
ATOM     24  F   UNL A   1      42.880  29.823  26.954  1.00  0.00    -0.166 F 
ATOM     25  F   UNL A   1      43.917  31.134  28.351  1.00  0.00    -0.166 F 
ATOM     26  F   UNL A   1      43.857  31.623  26.239  1.00  0.00    -0.166 F 
ENDBRANCH  20  23
ENDBRANCH  11  16
ENDBRANCH   5   8
ENDBRANCH   3   4
ENDBRANCH   2   3
ENDBRANCH   1   2
BRANCH   1  27
ATOM     27  C   UNL A   1      40.200  21.433  26.839  1.00  0.00     0.116 C 
BRANCH  27  28
ATOM     28  N   UNL A   1      39.027  21.896  26.117  1.00  0.00    -0.352 N 
ATOM     29  C   UNL A   1      38.443  23.143  26.077  1.00  0.00     0.251 C 
ATOM     30  H   UNL A   1      38.578  21.211  25.570  1.00  0.00     0.163 HD
ATOM     31  O   UNL A   1      37.395  23.304  25.463  1.00  0.00    -0.269 OA
BRANCH  29  32
ATOM     32  C   UNL A   1      39.053  24.280  26.807  1.00  0.00     0.039 A 
ATOM     33  C   UNL A   1      39.861  25.176  26.101  1.00  0.00     0.014 A 
ATOM     34  C   UNL A   1      38.827  24.474  28.171  1.00  0.00     0.014 A 
ATOM     35  C   UNL A   1      40.364  26.313  26.741  1.00  0.00     0.010 A 
ATOM     36  C   UNL A   1      39.261  25.647  28.786  1.00  0.00     0.010 A 
ATOM     37  C   UNL A   1      40.028  26.584  28.077  1.00  0.00    -0.014 A 
BRANCH  37  38
ATOM     38  C   UNL A   1      40.468  27.836  28.750  1.00  0.00     0.031 A 
ATOM     39  C   UNL A   1      41.854  27.932  29.335  1.00  0.00     0.074 A 
ATOM     40  C   UNL A   1      39.607  28.864  28.893  1.00  0.00     0.049 A 
ATOM     41  N   UNL A   1      42.388  28.898  30.038  1.00  0.00    -0.248 NA
ATOM     42  C   UNL A   1      42.747  26.782  29.120  1.00  0.00     0.031 C 
ATOM     43  C   UNL A   1      38.226  28.893  28.405  1.00  0.00     0.029 A 
ATOM     44  N   UNL A   1      39.766  30.088  29.498  1.00  0.00    -0.354 N 
ATOM     45  C   UNL A   1      43.670  28.468  30.360  1.00  0.00     0.074 A 
ATOM     46  C   UNL A   1      43.815  27.133  29.822  1.00  0.00     0.031 C 
ATOM     47  C   UNL A   1      37.676  30.082  28.705  1.00  0.00     0.029 A 
ATOM     48  C   UNL A   1      38.646  30.885  29.442  1.00  0.00     0.049 A 
ATOM     49  H   UNL A   1      40.604  30.367  29.934  1.00  0.00     0.167 HD
ATOM     50  C   UNL A   1      44.651  29.130  31.020  1.00  0.00     0.031 A 
ATOM     51  C   UNL A   1      38.424  32.121  29.929  1.00  0.00     0.031 A 
ATOM     52  C   UNL A   1      44.518  30.463  31.542  1.00  0.00     0.049 A 
ATOM     53  C   UNL A   1      39.528  32.832  30.665  1.00  0.00     0.074 A 
ATOM     54  C   UNL A   1      45.460  31.223  32.214  1.00  0.00     0.029 A 
ATOM     55  N   UNL A   1      43.377  31.242  31.440  1.00  0.00    -0.354 N 
ATOM     56  N   UNL A   1      40.741  32.414  30.937  1.00  0.00    -0.248 NA
ATOM     57  C   UNL A   1      39.235  34.189  31.150  1.00  0.00     0.031 C 
ATOM     58  C   UNL A   1      44.880  32.455  32.539  1.00  0.00     0.029 A 
ATOM     59  C   UNL A   1      43.591  32.476  32.029  1.00  0.00     0.049 A 
ATOM     60  H   UNL A   1      42.537  30.960  31.010  1.00  0.00     0.167 HD
ATOM     61  C   UNL A   1      41.368  33.473  31.586  1.00  0.00     0.074 A 
ATOM     62  C   UNL A   1      40.404  34.551  31.661  1.00  0.00     0.031 C 
ATOM     63  C   UNL A   1      42.630  33.546  32.074  1.00  0.00     0.031 A 
BRANCH  50  64
ATOM     64  C   UNL A   1      45.967  28.421  31.196  1.00  0.00    -0.014 A 
ATOM     65  C   UNL A   1      46.962  28.501  30.204  1.00  0.00     0.010 A 
ATOM     66  C   UNL A   1      46.229  27.696  32.372  1.00  0.00     0.010 A 
ATOM     67  C   UNL A   1      48.180  27.839  30.368  1.00  0.00     0.020 A 
ATOM     68  C   UNL A   1      47.458  27.053  32.552  1.00  0.00     0.020 A 
ATOM     69  C   UNL A   1      48.419  27.115  31.541  1.00  0.00     0.054 A 
BRANCH  69  70
ATOM     70  S   UNL A   1      50.018  26.283  31.735  1.00  0.00     0.124 S 
ATOM     71  O   UNL A   1      49.729  25.319  32.794  1.00  0.00    -0.237 OA
ATOM     72  O   UNL A   1      50.248  25.711  30.411  1.00  0.00    -0.237 OA
ATOM     73  O   UNL A   1      50.927  27.364  32.109  1.00  0.00    -0.744 OA
ENDBRANCH  69  70
ENDBRANCH  50  64
BRANCH  51  74
ATOM     74  C   UNL A   1      37.108  32.788  29.725  1.00  0.00    -0.014 A 
ATOM     75  C   UNL A   1      36.810  33.413  28.500  1.00  0.00     0.010 A 
ATOM     76  C   UNL A   1      36.160  32.832  30.764  1.00  0.00     0.010 A 
ATOM     77  C   UNL A   1      35.608  34.105  28.331  1.00  0.00     0.020 A 
ATOM     78  C   UNL A   1      34.945  33.500  30.588  1.00  0.00     0.020 A 
ATOM     79  C   UNL A   1      34.685  34.151  29.380  1.00  0.00     0.054 A 
BRANCH  79  80
ATOM     80  S   UNL A   1      33.125  35.046  29.139  1.00  0.00     0.124 S 
ATOM     81  O   UNL A   1      32.523  34.964  30.466  1.00  0.00    -0.237 OA
ATOM     82  O   UNL A   1      33.580  36.373  28.730  1.00  0.00    -0.237 OA
ATOM     83  O   UNL A   1      32.451  34.278  28.095  1.00  0.00    -0.744 OA
ENDBRANCH  79  80
ENDBRANCH  51  74
BRANCH  63  84
ATOM     84  C   UNL A   1      43.066  34.856  32.673  1.00  0.00    -0.014 A 
ATOM     85  C   UNL A   1      43.596  35.887  31.877  1.00  0.00     0.010 A 
ATOM     86  C   UNL A   1      42.901  35.070  34.054  1.00  0.00     0.010 A 
ATOM     87  C   UNL A   1      43.984  37.097  32.458  1.00  0.00     0.020 A 
ATOM     88  C   UNL A   1      43.265  36.287  34.634  1.00  0.00     0.020 A 
ATOM     89  C   UNL A   1      43.819  37.288  33.834  1.00  0.00     0.054 A 
BRANCH  89  90
ATOM     90  S   UNL A   1      44.295  38.881  34.561  1.00  0.00     0.124 S 
ATOM     91  O   UNL A   1      45.695  38.991  34.159  1.00  0.00    -0.237 OA
ATOM     92  O   UNL A   1      43.379  39.817  33.913  1.00  0.00    -0.237 OA
ATOM     93  O   UNL A   1      44.069  38.688  35.991  1.00  0.00    -0.744 OA
ENDBRANCH  89  90
ENDBRANCH  63  84
ENDBRANCH  37  38
ENDBRANCH  29  32
ENDBRANCH  27  28
ENDBRANCH   1  27
TORSDOF 17
ENDMDL
MODEL 2
REMARK VINA RESULT:      -9.3      3.355     10.692
REMARK SMILES COc1cc(-c2ccc(F)c(C(F)(F)F)c2)ccc1C(=O)NCCCCNC(=O)c1ccc(-c2c3nc(c(-c4ccc(S(=O)(=O)[O-])cc4)c4ccc([nH]4)c(-c4ccc(S(=O)(=O)[O-])cc4)c4nc(c(-c5ccc(S(=O)(=O)[O-])cc5)c5ccc2[nH]5)C=C4)C=C3)cc1
REMARK SMILES IDX 25 1 24 2 23 3 22 4 20 5 21 6 19 8 3 9 4 10 5 11 18 12 17 13
REMARK SMILES IDX 2 14 1 15 6 16 7 17 16 18 8 19 11 20 9 21 10 22 12 23 13 24
REMARK SMILES IDX 14 25 15 26 26 27 27 28 28 29 29 31 30 32 31 33 89 34 32 35
REMARK SMILES IDX 88 36 33 37 34 38 35 39 82 40 36 41 87 42 81 43 83 44 37 45
REMARK SMILES IDX 86 46 80 47 79 48 38 50 68 51 49 52 67 53 50 54 53 55 66 56
REMARK SMILES IDX 84 57 51 58 52 59 65 61 85 62 54 63 39 64 40 65 48 66 41 67
REMARK SMILES IDX 47 68 42 69 43 70 44 71 45 72 46 73 69 74 70 75 78 76 71 77
REMARK SMILES IDX 77 78 72 79 73 80 74 81 75 82 76 83 55 84 56 85 64 86 57 87
REMARK SMILES IDX 63 88 58 89 59 90 60 91 61 92 62 93
REMARK H PARENT 22 7 27 30 83 49 53 60
REMARK Flexibility Score: inf
ROOT
ATOM      1  C   UNL A   1      35.574  33.250  29.594  1.00  0.00     0.023 C 
ENDROOT
BRANCH   1   2
ATOM      2  C   UNL A   1      36.986  33.796  29.811  1.00  0.00     0.023 C 
BRANCH   2   3
ATOM      3  C   UNL A   1      37.553  33.653  31.220  1.00  0.00     0.116 C 
BRANCH   3   4
ATOM      4  N   UNL A   1      36.555  33.455  32.256  1.00  0.00    -0.352 N 
ATOM      5  C   UNL A   1      36.655  32.745  33.429  1.00  0.00     0.255 C 
ATOM      6  O   UNL A   1      35.703  32.734  34.208  1.00  0.00    -0.269 OA
ATOM      7  H   UNL A   1      35.686  33.889  32.097  1.00  0.00     0.163 HD
BRANCH   5   8
ATOM      8  C   UNL A   1      37.845  31.915  33.743  1.00  0.00     0.081 A 
ATOM      9  C   UNL A   1      39.003  32.368  34.379  1.00  0.00     0.132 A 
ATOM     10  C   UNL A   1      40.141  31.552  34.413  1.00  0.00     0.056 A 
ATOM     11  C   UNL A   1      40.126  30.243  33.902  1.00  0.00    -0.015 A 
ATOM     12  C   UNL A   1      37.783  30.578  33.326  1.00  0.00     0.018 A 
ATOM     13  C   UNL A   1      38.908  29.750  33.413  1.00  0.00     0.010 A 
BRANCH   9  14
ATOM     14  O   UNL A   1      39.172  33.621  34.899  1.00  0.00    -0.496 OA
ATOM     15  C   UNL A   1      40.213  33.674  35.874  1.00  0.00     0.278 C 
ENDBRANCH   9  14
BRANCH  11  16
ATOM     16  C   UNL A   1      41.371  29.456  33.806  1.00  0.00    -0.017 A 
ATOM     17  C   UNL A   1      41.451  28.289  33.030  1.00  0.00     0.012 A 
ATOM     18  C   UNL A   1      42.502  29.820  34.566  1.00  0.00     0.025 A 
ATOM     19  C   UNL A   1      42.607  27.505  33.030  1.00  0.00     0.040 A 
ATOM     20  C   UNL A   1      43.670  29.040  34.572  1.00  0.00     0.092 A 
ATOM     21  C   UNL A   1      43.700  27.883  33.802  1.00  0.00     0.135 A 
ATOM     22  F   UNL A   1      44.791  27.106  33.804  1.00  0.00    -0.206 F 
BRANCH  20  23
ATOM     23  C   UNL A   1      44.860  29.404  35.404  1.00  0.00     0.419 C 
ATOM     24  F   UNL A   1      44.546  29.639  36.708  1.00  0.00    -0.166 F 
ATOM     25  F   UNL A   1      45.821  28.438  35.411  1.00  0.00    -0.166 F 
ATOM     26  F   UNL A   1      45.489  30.536  34.972  1.00  0.00    -0.166 F 
ENDBRANCH  20  23
ENDBRANCH  11  16
ENDBRANCH   5   8
ENDBRANCH   3   4
ENDBRANCH   2   3
ENDBRANCH   1   2
BRANCH   1  27
ATOM     27  C   UNL A   1      35.088  33.168  28.150  1.00  0.00     0.116 C 
BRANCH  27  28
ATOM     28  N   UNL A   1      34.141  32.092  27.908  1.00  0.00    -0.352 N 
ATOM     29  C   UNL A   1      34.335  30.728  27.880  1.00  0.00     0.251 C 
ATOM     30  H   UNL A   1      33.216  32.383  27.738  1.00  0.00     0.163 HD
ATOM     31  O   UNL A   1      33.407  29.990  27.571  1.00  0.00    -0.269 OA
BRANCH  29  32
ATOM     32  C   UNL A   1      35.668  30.155  28.180  1.00  0.00     0.039 A 
ATOM     33  C   UNL A   1      36.633  30.133  27.169  1.00  0.00     0.014 A 
ATOM     34  C   UNL A   1      35.976  29.652  29.445  1.00  0.00     0.014 A 
ATOM     35  C   UNL A   1      37.930  29.693  27.453  1.00  0.00     0.010 A 
ATOM     36  C   UNL A   1      37.288  29.290  29.749  1.00  0.00     0.010 A 
ATOM     37  C   UNL A   1      38.282  29.314  28.758  1.00  0.00    -0.014 A 
BRANCH  37  38
ATOM     38  C   UNL A   1      39.678  28.937  29.108  1.00  0.00     0.031 A 
ATOM     39  C   UNL A   1      40.579  29.929  29.797  1.00  0.00     0.074 A 
ATOM     40  C   UNL A   1      40.160  27.727  28.753  1.00  0.00     0.049 A 
ATOM     41  N   UNL A   1      41.848  29.822  30.098  1.00  0.00    -0.248 NA
ATOM     42  C   UNL A   1      39.979  31.219  30.175  1.00  0.00     0.031 C 
ATOM     43  C   UNL A   1      39.407  26.683  28.053  1.00  0.00     0.029 A 
ATOM     44  N   UNL A   1      41.404  27.172  28.930  1.00  0.00    -0.354 N 
ATOM     45  C   UNL A   1      42.201  31.030  30.687  1.00  0.00     0.074 A 
ATOM     46  C   UNL A   1      41.027  31.875  30.652  1.00  0.00     0.031 C 
ATOM     47  C   UNL A   1      40.196  25.608  27.885  1.00  0.00     0.029 A 
ATOM     48  C   UNL A   1      41.519  25.897  28.427  1.00  0.00     0.049 A 
ATOM     49  H   UNL A   1      42.145  27.644  29.374  1.00  0.00     0.167 HD
ATOM     50  C   UNL A   1      43.385  31.399  31.233  1.00  0.00     0.031 A 
ATOM     51  C   UNL A   1      42.571  25.056  28.403  1.00  0.00     0.031 A 
ATOM     52  C   UNL A   1      44.550  30.556  31.286  1.00  0.00     0.049 A 
ATOM     53  C   UNL A   1      43.878  25.492  29.009  1.00  0.00     0.074 A 
ATOM     54  C   UNL A   1      45.791  30.836  31.831  1.00  0.00     0.029 A 
ATOM     55  N   UNL A   1      44.614  29.265  30.789  1.00  0.00    -0.354 N 
ATOM     56  N   UNL A   1      44.181  26.632  29.582  1.00  0.00    -0.248 NA
ATOM     57  C   UNL A   1      44.982  24.522  28.976  1.00  0.00     0.031 C 
ATOM     58  C   UNL A   1      46.614  29.720  31.641  1.00  0.00     0.029 A 
ATOM     59  C   UNL A   1      45.870  28.731  31.019  1.00  0.00     0.049 A 
ATOM     60  H   UNL A   1      43.874  28.795  30.339  1.00  0.00     0.167 HD
ATOM     61  C   UNL A   1      45.497  26.498  30.015  1.00  0.00     0.074 A 
ATOM     62  C   UNL A   1      45.928  25.167  29.644  1.00  0.00     0.031 C 
ATOM     63  C   UNL A   1      46.277  27.396  30.664  1.00  0.00     0.031 A 
BRANCH  50  64
ATOM     64  C   UNL A   1      43.469  32.775  31.838  1.00  0.00    -0.014 A 
ATOM     65  C   UNL A   1      43.728  33.897  31.030  1.00  0.00     0.010 A 
ATOM     66  C   UNL A   1      43.256  32.957  33.216  1.00  0.00     0.010 A 
ATOM     67  C   UNL A   1      43.810  35.172  31.593  1.00  0.00     0.020 A 
ATOM     68  C   UNL A   1      43.311  34.235  33.780  1.00  0.00     0.020 A 
ATOM     69  C   UNL A   1      43.605  35.332  32.967  1.00  0.00     0.054 A 
BRANCH  69  70
ATOM     70  S   UNL A   1      43.696  37.002  33.669  1.00  0.00     0.124 S 
ATOM     71  O   UNL A   1      44.966  36.957  34.388  1.00  0.00    -0.237 OA
ATOM     72  O   UNL A   1      43.677  37.853  32.481  1.00  0.00    -0.237 OA
ATOM     73  O   UNL A   1      42.505  37.088  34.512  1.00  0.00    -0.744 OA
ENDBRANCH  69  70
ENDBRANCH  50  64
BRANCH  51  74
ATOM     74  C   UNL A   1      42.440  23.700  27.800  1.00  0.00    -0.014 A 
ATOM     75  C   UNL A   1      41.907  22.637  28.552  1.00  0.00     0.010 A 
ATOM     76  C   UNL A   1      42.879  23.456  26.486  1.00  0.00     0.010 A 
ATOM     77  C   UNL A   1      41.852  21.347  28.017  1.00  0.00     0.020 A 
ATOM     78  C   UNL A   1      42.801  22.172  25.938  1.00  0.00     0.020 A 
ATOM     79  C   UNL A   1      42.307  21.121  26.715  1.00  0.00     0.054 A 
BRANCH  79  80
ATOM     80  S   UNL A   1      42.221  19.441  26.033  1.00  0.00     0.124 S 
ATOM     81  O   UNL A   1      43.112  19.537  24.881  1.00  0.00    -0.237 OA
ATOM     82  O   UNL A   1      42.704  18.623  27.143  1.00  0.00    -0.237 OA
ATOM     83  O   UNL A   1      40.804  19.276  25.718  1.00  0.00    -0.744 OA
ENDBRANCH  79  80
ENDBRANCH  51  74
BRANCH  63  84
ATOM     84  C   UNL A   1      47.653  26.950  31.075  1.00  0.00    -0.014 A 
ATOM     85  C   UNL A   1      47.862  26.196  32.244  1.00  0.00     0.010 A 
ATOM     86  C   UNL A   1      48.751  27.256  30.250  1.00  0.00     0.010 A 
ATOM     87  C   UNL A   1      49.150  25.786  32.598  1.00  0.00     0.020 A 
ATOM     88  C   UNL A   1      50.036  26.827  30.587  1.00  0.00     0.020 A 
ATOM     89  C   UNL A   1      50.230  26.108  31.768  1.00  0.00     0.054 A 
BRANCH  89  90
ATOM     90  S   UNL A   1      51.888  25.533  32.227  1.00  0.00     0.124 S 
ATOM     91  O   UNL A   1      51.628  24.156  32.640  1.00  0.00    -0.237 OA
ATOM     92  O   UNL A   1      52.638  25.685  30.982  1.00  0.00    -0.237 OA
ATOM     93  O   UNL A   1      52.285  26.442  33.300  1.00  0.00    -0.744 OA
ENDBRANCH  89  90
ENDBRANCH  63  84
ENDBRANCH  37  38
ENDBRANCH  29  32
ENDBRANCH  27  28
ENDBRANCH   1  27
TORSDOF 17
ENDMDL
MODEL 3
REMARK VINA RESULT:      -9.2      4.216     10.823
REMARK SMILES COc1cc(-c2ccc(F)c(C(F)(F)F)c2)ccc1C(=O)NCCCCNC(=O)c1ccc(-c2c3nc(c(-c4ccc(S(=O)(=O)[O-])cc4)c4ccc([nH]4)c(-c4ccc(S(=O)(=O)[O-])cc4)c4nc(c(-c5ccc(S(=O)(=O)[O-])cc5)c5ccc2[nH]5)C=C4)C=C3)cc1
REMARK SMILES IDX 25 1 24 2 23 3 22 4 20 5 21 6 19 8 3 9 4 10 5 11 18 12 17 13
REMARK SMILES IDX 2 14 1 15 6 16 7 17 16 18 8 19 11 20 9 21 10 22 12 23 13 24
REMARK SMILES IDX 14 25 15 26 26 27 27 28 28 29 29 31 30 32 31 33 89 34 32 35
REMARK SMILES IDX 88 36 33 37 34 38 35 39 82 40 36 41 87 42 81 43 83 44 37 45
REMARK SMILES IDX 86 46 80 47 79 48 38 50 68 51 49 52 67 53 50 54 53 55 66 56
REMARK SMILES IDX 84 57 51 58 52 59 65 61 85 62 54 63 39 64 40 65 48 66 41 67
REMARK SMILES IDX 47 68 42 69 43 70 44 71 45 72 46 73 69 74 70 75 78 76 71 77
REMARK SMILES IDX 77 78 72 79 73 80 74 81 75 82 76 83 55 84 56 85 64 86 57 87
REMARK SMILES IDX 63 88 58 89 59 90 60 91 61 92 62 93
REMARK H PARENT 22 7 27 30 83 49 53 60
REMARK Flexibility Score: inf
ROOT
ATOM      1  C   UNL A   1      32.911  27.771  26.474  1.00  0.00     0.023 C 
ENDROOT
BRANCH   1   2
ATOM      2  C   UNL A   1      31.566  27.784  25.745  1.00  0.00     0.023 C 
BRANCH   2   3
ATOM      3  C   UNL A   1      30.611  26.642  26.076  1.00  0.00     0.116 C 
BRANCH   3   4
ATOM      4  N   UNL A   1      30.161  25.878  24.926  1.00  0.00    -0.352 N 
ATOM      5  C   UNL A   1      30.828  24.907  24.217  1.00  0.00     0.255 C 
ATOM      6  O   UNL A   1      30.253  24.336  23.292  1.00  0.00    -0.269 OA
ATOM      7  H   UNL A   1      29.252  26.085  24.609  1.00  0.00     0.163 HD
BRANCH   5   8
ATOM      8  C   UNL A   1      32.254  24.588  24.478  1.00  0.00     0.081 A 
ATOM      9  C   UNL A   1      33.329  24.957  23.665  1.00  0.00     0.132 A 
ATOM     10  C   UNL A   1      34.595  24.405  23.894  1.00  0.00     0.056 A 
ATOM     11  C   UNL A   1      34.842  23.550  24.983  1.00  0.00    -0.015 A 
ATOM     12  C   UNL A   1      32.508  23.825  25.627  1.00  0.00     0.018 A 
ATOM     13  C   UNL A   1      33.789  23.320  25.879  1.00  0.00     0.010 A 
BRANCH   9  14
ATOM     14  O   UNL A   1      33.236  25.756  22.559  1.00  0.00    -0.496 OA
ATOM     15  C   UNL A   1      33.850  27.029  22.751  1.00  0.00     0.278 C 
ENDBRANCH   9  14
BRANCH  11  16
ATOM     16  C   UNL A   1      36.137  22.857  25.119  1.00  0.00    -0.017 A 
ATOM     17  C   UNL A   1      36.371  21.603  24.533  1.00  0.00     0.012 A 
ATOM     18  C   UNL A   1      37.157  23.409  25.920  1.00  0.00     0.025 A 
ATOM     19  C   UNL A   1      37.568  20.918  24.755  1.00  0.00     0.040 A 
ATOM     20  C   UNL A   1      38.366  22.730  26.149  1.00  0.00     0.092 A 
ATOM     21  C   UNL A   1      38.549  21.484  25.562  1.00  0.00     0.135 A 
ATOM     22  F   UNL A   1      39.681  20.802  25.779  1.00  0.00    -0.206 F 
BRANCH  20  23
ATOM     23  C   UNL A   1      39.439  23.297  27.026  1.00  0.00     0.419 C 
ATOM     24  F   UNL A   1      38.973  24.238  27.894  1.00  0.00    -0.166 F 
ATOM     25  F   UNL A   1      40.061  22.353  27.785  1.00  0.00    -0.166 F 
ATOM     26  F   UNL A   1      40.435  23.912  26.324  1.00  0.00    -0.166 F 
ENDBRANCH  20  23
ENDBRANCH  11  16
ENDBRANCH   5   8
ENDBRANCH   3   4
ENDBRANCH   2   3
ENDBRANCH   1   2
BRANCH   1  27
ATOM     27  C   UNL A   1      33.949  28.788  26.009  1.00  0.00     0.116 C 
BRANCH  27  28
ATOM     28  N   UNL A   1      33.717  30.134  26.504  1.00  0.00    -0.352 N 
ATOM     29  C   UNL A   1      34.419  30.874  27.430  1.00  0.00     0.251 C 
ATOM     30  H   UNL A   1      32.934  30.590  26.117  1.00  0.00     0.163 HD
ATOM     31  O   UNL A   1      34.001  31.974  27.771  1.00  0.00    -0.269 OA
BRANCH  29  32
ATOM     32  C   UNL A   1      35.652  30.329  28.045  1.00  0.00     0.039 A 
ATOM     33  C   UNL A   1      36.867  30.494  27.373  1.00  0.00     0.014 A 
ATOM     34  C   UNL A   1      35.623  29.672  29.276  1.00  0.00     0.014 A 
ATOM     35  C   UNL A   1      38.059  30.082  27.979  1.00  0.00     0.010 A 
ATOM     36  C   UNL A   1      36.816  29.336  29.913  1.00  0.00     0.010 A 
ATOM     37  C   UNL A   1      38.048  29.543  29.275  1.00  0.00    -0.014 A 
BRANCH  37  38
ATOM     38  C   UNL A   1      39.311  29.189  29.980  1.00  0.00     0.031 A 
ATOM     39  C   UNL A   1      39.726  29.948  31.214  1.00  0.00     0.074 A 
ATOM     40  C   UNL A   1      40.115  28.229  29.480  1.00  0.00     0.049 A 
ATOM     41  N   UNL A   1      40.830  29.851  31.910  1.00  0.00    -0.248 NA
ATOM     42  C   UNL A   1      38.787  30.965  31.715  1.00  0.00     0.031 C 
ATOM     43  C   UNL A   1      39.852  27.437  28.276  1.00  0.00     0.029 A 
ATOM     44  N   UNL A   1      41.327  27.756  29.924  1.00  0.00    -0.354 N 
ATOM     45  C   UNL A   1      40.725  30.801  32.920  1.00  0.00     0.074 A 
ATOM     46  C   UNL A   1      39.475  31.499  32.714  1.00  0.00     0.031 C 
ATOM     47  C   UNL A   1      40.855  26.562  28.093  1.00  0.00     0.029 A 
ATOM     48  C   UNL A   1      41.853  26.755  29.141  1.00  0.00     0.049 A 
ATOM     49  H   UNL A   1      41.778  28.103  30.727  1.00  0.00     0.167 HD
ATOM     50  C   UNL A   1      41.575  31.054  33.944  1.00  0.00     0.031 A 
ATOM     51  C   UNL A   1      43.008  26.071  29.251  1.00  0.00     0.031 A 
ATOM     52  C   UNL A   1      42.811  30.351  34.162  1.00  0.00     0.049 A 
ATOM     53  C   UNL A   1      43.940  26.376  30.392  1.00  0.00     0.074 A 
ATOM     54  C   UNL A   1      43.734  30.526  35.180  1.00  0.00     0.029 A 
ATOM     55  N   UNL A   1      43.291  29.328  33.361  1.00  0.00    -0.354 N 
ATOM     56  N   UNL A   1      43.808  27.263  31.350  1.00  0.00    -0.248 NA
ATOM     57  C   UNL A   1      45.172  25.579  30.475  1.00  0.00     0.031 C 
ATOM     58  C   UNL A   1      44.785  29.624  34.978  1.00  0.00     0.029 A 
ATOM     59  C   UNL A   1      44.493  28.858  33.862  1.00  0.00     0.049 A 
ATOM     60  H   UNL A   1      42.843  28.985  32.554  1.00  0.00     0.167 HD
ATOM     61  C   UNL A   1      44.919  27.099  32.172  1.00  0.00     0.074 A 
ATOM     62  C   UNL A   1      45.708  26.026  31.602  1.00  0.00     0.031 C 
ATOM     63  C   UNL A   1      45.254  27.774  33.297  1.00  0.00     0.031 A 
BRANCH  50  64
ATOM     64  C   UNL A   1      41.182  32.130  34.920  1.00  0.00    -0.014 A 
ATOM     65  C   UNL A   1      40.589  31.798  36.151  1.00  0.00     0.010 A 
ATOM     66  C   UNL A   1      41.437  33.481  34.624  1.00  0.00     0.010 A 
ATOM     67  C   UNL A   1      40.221  32.798  37.053  1.00  0.00     0.020 A 
ATOM     68  C   UNL A   1      41.095  34.484  35.536  1.00  0.00     0.020 A 
ATOM     69  C   UNL A   1      40.474  34.137  36.738  1.00  0.00     0.054 A 
BRANCH  69  70
ATOM     70  S   UNL A   1      40.005  35.414  37.937  1.00  0.00     0.124 S 
ATOM     71  O   UNL A   1      41.121  35.366  38.878  1.00  0.00    -0.237 OA
ATOM     72  O   UNL A   1      39.929  36.618  37.114  1.00  0.00    -0.237 OA
ATOM     73  O   UNL A   1      38.726  34.941  38.463  1.00  0.00    -0.744 OA
ENDBRANCH  69  70
ENDBRANCH  50  64
BRANCH  51  74
ATOM     74  C   UNL A   1      43.353  25.009  28.265  1.00  0.00    -0.014 A 
ATOM     75  C   UNL A   1      44.024  25.338  27.072  1.00  0.00     0.010 A 
ATOM     76  C   UNL A   1      42.984  23.672  28.494  1.00  0.00     0.010 A 
ATOM     77  C   UNL A   1      44.282  24.358  26.110  1.00  0.00     0.020 A 
ATOM     78  C   UNL A   1      43.266  22.684  27.546  1.00  0.00     0.020 A 
ATOM     79  C   UNL A   1      43.894  23.037  26.350  1.00  0.00     0.054 A 
BRANCH  79  80
ATOM     80  S   UNL A   1      44.245  21.776  25.093  1.00  0.00     0.124 S 
ATOM     81  O   UNL A   1      45.606  21.377  25.439  1.00  0.00    -0.237 OA
ATOM     82  O   UNL A   1      43.208  20.778  25.345  1.00  0.00    -0.237 OA
ATOM     83  O   UNL A   1      44.105  22.504  23.834  1.00  0.00    -0.744 OA
ENDBRANCH  79  80
ENDBRANCH  51  74
BRANCH  63  84
ATOM     84  C   UNL A   1      46.493  27.332  34.028  1.00  0.00    -0.014 A 
ATOM     85  C   UNL A   1      46.444  26.335  35.019  1.00  0.00     0.010 A 
ATOM     86  C   UNL A   1      47.734  27.897  33.683  1.00  0.00     0.010 A 
ATOM     87  C   UNL A   1      47.611  25.936  35.675  1.00  0.00     0.020 A 
ATOM     88  C   UNL A   1      48.906  27.484  34.320  1.00  0.00     0.020 A 
ATOM     89  C   UNL A   1      48.834  26.516  35.324  1.00  0.00     0.054 A 
BRANCH  89  90
ATOM     90  S   UNL A   1      50.342  25.956  36.162  1.00  0.00     0.124 S 
ATOM     91  O   UNL A   1      51.003  27.221  36.476  1.00  0.00    -0.237 OA
ATOM     92  O   UNL A   1      49.819  25.219  37.310  1.00  0.00    -0.237 OA
ATOM     93  O   UNL A   1      51.012  25.135  35.156  1.00  0.00    -0.744 OA
ENDBRANCH  89  90
ENDBRANCH  63  84
ENDBRANCH  37  38
ENDBRANCH  29  32
ENDBRANCH  27  28
ENDBRANCH   1  27
TORSDOF 17
ENDMDL
