MODEL 1
REMARK VINA RESULT:     -10.3      0.000      0.000
REMARK SMILES COc1ccc(C(=O)N(C)CCC(=O)NCCCCNC(=O)c2ccc(-c3c4nc(c(-c5ccc(S(=O)(=O)[O-])cc5)c5ccc([nH]5)c(-c5ccc(S(=O)(=O)[O-])cc5)c5nc(c(-c6ccc(S(=O)(=O)[O-])cc6)c6ccc3[nH]6)C=C5)C=C4)cc2)cc1O
REMARK SMILES IDX 16 1 15 2 13 3 14 4 12 6 11 7 9 8 10 9 7 10 8 11 6 12 3 13
REMARK SMILES IDX 4 14 84 15 5 16 83 17 2 18 1 19 85 20 17 22 18 23 19 24
REMARK SMILES IDX 20 25 21 26 22 28 23 29 24 30 82 31 25 32 81 33 26 34 27 35
REMARK SMILES IDX 28 36 75 37 29 38 80 39 74 40 76 41 30 42 79 43 73 44 72 45
REMARK SMILES IDX 31 47 61 48 42 49 60 50 43 51 46 52 59 53 77 54 44 55 45 56
REMARK SMILES IDX 58 58 78 59 47 60 32 61 33 62 41 63 34 64 40 65 35 66 36 67
REMARK SMILES IDX 37 68 38 69 39 70 62 71 63 72 71 73 64 74 70 75 65 76 66 77
REMARK SMILES IDX 67 78 68 79 69 80 48 81 49 82 57 83 50 84 56 85 51 86 52 87
REMARK SMILES IDX 53 88 54 89 55 90
REMARK H PARENT 15 5 85 21 20 27 76 46 46 57
REMARK Flexibility Score: inf
ROOT
ATOM      1  C   UNL A   1      36.335  21.460  24.849  1.00  0.00     0.116 C 
ENDROOT
BRANCH   1   2
ATOM      2  N   UNL A   1      35.419  20.404  25.228  1.00  0.00    -0.356 N 
ATOM      3  C   UNL A   1      34.068  20.352  25.032  1.00  0.00     0.221 C 
ATOM      4  O   UNL A   1      33.423  19.458  25.581  1.00  0.00    -0.275 OA
ATOM      5  H   UNL A   1      35.819  19.627  25.683  1.00  0.00     0.163 HD
BRANCH   3   6
ATOM      6  C   UNL A   1      33.394  21.349  24.106  1.00  0.00     0.121 C 
BRANCH   6   7
ATOM      7  C   UNL A   1      32.884  22.614  24.812  1.00  0.00     0.129 C 
BRANCH   7   8
ATOM      8  N   UNL A   1      32.560  23.751  23.922  1.00  0.00    -0.341 N 
ATOM      9  C   UNL A   1      31.160  23.984  23.614  1.00  0.00     0.147 C 
BRANCH   8  10
ATOM     10  C   UNL A   1      33.594  24.657  23.610  1.00  0.00     0.253 C 
ATOM     11  O   UNL A   1      34.412  24.406  22.722  1.00  0.00    -0.269 OA
BRANCH  10  12
ATOM     12  C   UNL A   1      33.647  26.040  24.195  1.00  0.00     0.043 A 
ATOM     13  C   UNL A   1      33.885  28.545  25.526  1.00  0.00     0.160 A 
ATOM     14  C   UNL A   1      33.877  27.350  26.247  1.00  0.00     0.051 A 
ATOM     15  C   UNL A   1      33.727  28.472  24.140  1.00  0.00     0.158 A 
ATOM     16  C   UNL A   1      33.749  26.117  25.594  1.00  0.00     0.018 A 
ATOM     17  C   UNL A   1      33.614  27.237  23.481  1.00  0.00     0.064 A 
BRANCH  13  18
ATOM     18  O   UNL A   1      33.969  29.659  26.311  1.00  0.00    -0.493 OA
ATOM     19  C   UNL A   1      34.646  29.582  27.558  1.00  0.00     0.278 C 
ENDBRANCH  13  18
BRANCH  15  20
ATOM     20  O   UNL A   1      33.605  29.564  23.327  1.00  0.00    -0.504 OA
ATOM     21  H   UNL A   1      34.255  30.239  23.348  1.00  0.00     0.293 HD
ENDBRANCH  15  20
ENDBRANCH  10  12
ENDBRANCH   8  10
ENDBRANCH   7   8
ENDBRANCH   6   7
ENDBRANCH   3   6
ENDBRANCH   1   2
BRANCH   1  22
ATOM     22  C   UNL A   1      36.445  22.480  25.970  1.00  0.00     0.023 C 
BRANCH  22  23
ATOM     23  C   UNL A   1      37.127  23.784  25.597  1.00  0.00     0.023 C 
BRANCH  23  24
ATOM     24  C   UNL A   1      38.227  24.219  26.548  1.00  0.00     0.116 C 
BRANCH  24  25
ATOM     25  N   UNL A   1      39.503  24.505  25.902  1.00  0.00    -0.352 N 
ATOM     26  C   UNL A   1      40.504  25.377  26.264  1.00  0.00     0.251 C 
ATOM     27  H   UNL A   1      39.676  23.994  25.078  1.00  0.00     0.163 HD
ATOM     28  O   UNL A   1      41.519  25.470  25.588  1.00  0.00    -0.269 OA
BRANCH  26  29
ATOM     29  C   UNL A   1      40.337  26.220  27.464  1.00  0.00     0.039 A 
ATOM     30  C   UNL A   1      39.440  25.829  28.462  1.00  0.00     0.014 A 
ATOM     31  C   UNL A   1      41.087  27.385  27.610  1.00  0.00     0.014 A 
ATOM     32  C   UNL A   1      39.344  26.576  29.637  1.00  0.00     0.010 A 
ATOM     33  C   UNL A   1      41.082  28.054  28.824  1.00  0.00     0.010 A 
ATOM     34  C   UNL A   1      40.190  27.675  29.840  1.00  0.00    -0.014 A 
BRANCH  34  35
ATOM     35  C   UNL A   1      40.135  28.518  31.057  1.00  0.00     0.031 A 
ATOM     36  C   UNL A   1      39.131  29.639  31.107  1.00  0.00     0.074 A 
ATOM     37  C   UNL A   1      41.043  28.367  32.040  1.00  0.00     0.049 A 
ATOM     38  N   UNL A   1      39.059  30.653  31.926  1.00  0.00    -0.248 NA
ATOM     39  C   UNL A   1      38.106  29.648  30.046  1.00  0.00     0.031 C 
ATOM     40  C   UNL A   1      42.084  27.337  32.094  1.00  0.00     0.029 A 
ATOM     41  N   UNL A   1      41.250  29.106  33.177  1.00  0.00    -0.354 N 
ATOM     42  C   UNL A   1      38.029  31.452  31.442  1.00  0.00     0.074 A 
ATOM     43  C   UNL A   1      37.538  30.829  30.234  1.00  0.00     0.031 C 
ATOM     44  C   UNL A   1      42.806  27.500  33.215  1.00  0.00     0.029 A 
ATOM     45  C   UNL A   1      42.316  28.674  33.929  1.00  0.00     0.049 A 
ATOM     46  H   UNL A   1      40.688  29.874  33.430  1.00  0.00     0.167 HD
ATOM     47  C   UNL A   1      37.526  32.594  31.966  1.00  0.00     0.031 A 
ATOM     48  C   UNL A   1      42.846  29.181  35.059  1.00  0.00     0.031 A 
ATOM     49  C   UNL A   1      37.983  33.168  33.201  1.00  0.00     0.049 A 
ATOM     50  C   UNL A   1      42.236  30.420  35.656  1.00  0.00     0.074 A 
ATOM     51  C   UNL A   1      37.498  34.279  33.867  1.00  0.00     0.029 A 
ATOM     52  N   UNL A   1      39.020  32.659  33.968  1.00  0.00    -0.354 N 
ATOM     53  N   UNL A   1      41.246  31.151  35.202  1.00  0.00    -0.248 NA
ATOM     54  C   UNL A   1      42.808  30.896  36.922  1.00  0.00     0.031 C 
ATOM     55  C   UNL A   1      38.263  34.457  35.025  1.00  0.00     0.029 A 
ATOM     56  C   UNL A   1      39.193  33.431  35.101  1.00  0.00     0.049 A 
ATOM     57  H   UNL A   1      39.554  31.864  33.738  1.00  0.00     0.167 HD
ATOM     58  C   UNL A   1      41.058  32.160  36.140  1.00  0.00     0.074 A 
ATOM     59  C   UNL A   1      42.030  31.935  37.192  1.00  0.00     0.031 C 
ATOM     60  C   UNL A   1      40.162  33.178  36.135  1.00  0.00     0.031 A 
BRANCH  47  61
ATOM     61  C   UNL A   1      36.432  33.284  31.195  1.00  0.00    -0.014 A 
ATOM     62  C   UNL A   1      36.670  33.832  29.920  1.00  0.00     0.010 A 
ATOM     63  C   UNL A   1      35.148  33.397  31.757  1.00  0.00     0.010 A 
ATOM     64  C   UNL A   1      35.663  34.534  29.252  1.00  0.00     0.020 A 
ATOM     65  C   UNL A   1      34.128  34.069  31.077  1.00  0.00     0.020 A 
ATOM     66  C   UNL A   1      34.401  34.656  29.838  1.00  0.00     0.054 A 
BRANCH  66  67
ATOM     67  S   UNL A   1      33.113  35.575  28.953  1.00  0.00     0.124 S 
ATOM     68  O   UNL A   1      33.904  36.529  28.180  1.00  0.00    -0.237 OA
ATOM     69  O   UNL A   1      32.452  34.531  28.173  1.00  0.00    -0.237 OA
ATOM     70  O   UNL A   1      32.304  36.155  30.021  1.00  0.00    -0.744 OA
ENDBRANCH  66  67
ENDBRANCH  47  61
BRANCH  48  71
ATOM     71  C   UNL A   1      43.998  28.500  35.709  1.00  0.00    -0.014 A 
ATOM     72  C   UNL A   1      45.314  28.885  35.396  1.00  0.00     0.010 A 
ATOM     73  C   UNL A   1      43.792  27.488  36.664  1.00  0.00     0.010 A 
ATOM     74  C   UNL A   1      46.402  28.263  36.014  1.00  0.00     0.020 A 
ATOM     75  C   UNL A   1      44.877  26.880  37.303  1.00  0.00     0.020 A 
ATOM     76  C   UNL A   1      46.177  27.266  36.967  1.00  0.00     0.054 A 
BRANCH  76  77
ATOM     77  S   UNL A   1      47.604  26.519  37.803  1.00  0.00     0.124 S 
ATOM     78  O   UNL A   1      46.971  25.818  38.915  1.00  0.00    -0.237 OA
ATOM     79  O   UNL A   1      48.171  25.668  36.760  1.00  0.00    -0.237 OA
ATOM     80  O   UNL A   1      48.425  27.669  38.172  1.00  0.00    -0.744 OA
ENDBRANCH  76  77
ENDBRANCH  48  71
BRANCH  60  81
ATOM     81  C   UNL A   1      40.162  34.100  37.323  1.00  0.00    -0.014 A 
ATOM     82  C   UNL A   1      39.352  33.845  38.443  1.00  0.00     0.010 A 
ATOM     83  C   UNL A   1      41.037  35.202  37.340  1.00  0.00     0.010 A 
ATOM     84  C   UNL A   1      39.396  34.696  39.550  1.00  0.00     0.020 A 
ATOM     85  C   UNL A   1      41.102  36.039  38.456  1.00  0.00     0.020 A 
ATOM     86  C   UNL A   1      40.270  35.788  39.550  1.00  0.00     0.054 A 
BRANCH  86  87
ATOM     87  S   UNL A   1      40.346  36.849  41.017  1.00  0.00     0.124 S 
ATOM     88  O   UNL A   1      40.997  35.977  41.990  1.00  0.00    -0.237 OA
ATOM     89  O   UNL A   1      41.143  37.982  40.554  1.00  0.00    -0.237 OA
ATOM     90  O   UNL A   1      38.944  37.155  41.295  1.00  0.00    -0.744 OA
ENDBRANCH  86  87
ENDBRANCH  60  81
ENDBRANCH  34  35
ENDBRANCH  26  29
ENDBRANCH  24  25
ENDBRANCH  23  24
ENDBRANCH  22  23
ENDBRANCH   1  22
TORSDOF 20
ENDMDL
MODEL 2
REMARK VINA RESULT:     -10.3      6.623     11.548
REMARK SMILES COc1ccc(C(=O)N(C)CCC(=O)NCCCCNC(=O)c2ccc(-c3c4nc(c(-c5ccc(S(=O)(=O)[O-])cc5)c5ccc([nH]5)c(-c5ccc(S(=O)(=O)[O-])cc5)c5nc(c(-c6ccc(S(=O)(=O)[O-])cc6)c6ccc3[nH]6)C=C5)C=C4)cc2)cc1O
REMARK SMILES IDX 16 1 15 2 13 3 14 4 12 6 11 7 9 8 10 9 7 10 8 11 6 12 3 13
REMARK SMILES IDX 4 14 84 15 5 16 83 17 2 18 1 19 85 20 17 22 18 23 19 24
REMARK SMILES IDX 20 25 21 26 22 28 23 29 24 30 82 31 25 32 81 33 26 34 27 35
REMARK SMILES IDX 28 36 75 37 29 38 80 39 74 40 76 41 30 42 79 43 73 44 72 45
REMARK SMILES IDX 31 47 61 48 42 49 60 50 43 51 46 52 59 53 77 54 44 55 45 56
REMARK SMILES IDX 58 58 78 59 47 60 32 61 33 62 41 63 34 64 40 65 35 66 36 67
REMARK SMILES IDX 37 68 38 69 39 70 62 71 63 72 71 73 64 74 70 75 65 76 66 77
REMARK SMILES IDX 67 78 68 79 69 80 48 81 49 82 57 83 50 84 56 85 51 86 52 87
REMARK SMILES IDX 53 88 54 89 55 90
REMARK H PARENT 15 5 85 21 20 27 76 46 46 57
REMARK Flexibility Score: inf
ROOT
ATOM      1  C   UNL A   1      32.521  27.050  25.786  1.00  0.00     0.116 C 
ENDROOT
BRANCH   1   2
ATOM      2  N   UNL A   1      31.860  25.960  26.473  1.00  0.00    -0.356 N 
ATOM      3  C   UNL A   1      31.008  25.030  25.948  1.00  0.00     0.221 C 
ATOM      4  O   UNL A   1      30.399  24.284  26.715  1.00  0.00    -0.275 OA
ATOM      5  H   UNL A   1      32.048  25.878  27.436  1.00  0.00     0.163 HD
BRANCH   3   6
ATOM      6  C   UNL A   1      30.868  24.889  24.443  1.00  0.00     0.121 C 
BRANCH   6   7
ATOM      7  C   UNL A   1      30.901  23.437  23.943  1.00  0.00     0.129 C 
BRANCH   7   8
ATOM      8  N   UNL A   1      32.251  22.860  23.756  1.00  0.00    -0.341 N 
ATOM      9  C   UNL A   1      33.087  23.430  22.714  1.00  0.00     0.147 C 
BRANCH   8  10
ATOM     10  C   UNL A   1      32.718  21.952  24.728  1.00  0.00     0.253 C 
ATOM     11  O   UNL A   1      32.992  22.329  25.870  1.00  0.00    -0.269 OA
BRANCH  10  12
ATOM     12  C   UNL A   1      32.725  20.467  24.495  1.00  0.00     0.043 A 
ATOM     13  C   UNL A   1      32.713  17.625  24.336  1.00  0.00     0.160 A 
ATOM     14  C   UNL A   1      33.153  18.276  25.491  1.00  0.00     0.051 A 
ATOM     15  C   UNL A   1      32.324  18.415  23.251  1.00  0.00     0.158 A 
ATOM     16  C   UNL A   1      33.169  19.674  25.566  1.00  0.00     0.018 A 
ATOM     17  C   UNL A   1      32.325  19.817  23.328  1.00  0.00     0.064 A 
BRANCH  13  18
ATOM     18  O   UNL A   1      32.803  16.265  24.404  1.00  0.00    -0.493 OA
ATOM     19  C   UNL A   1      33.671  15.672  25.360  1.00  0.00     0.278 C 
ENDBRANCH  13  18
BRANCH  15  20
ATOM     20  O   UNL A   1      31.980  17.912  22.027  1.00  0.00    -0.504 OA
ATOM     21  H   UNL A   1      32.400  17.141  21.701  1.00  0.00     0.293 HD
ENDBRANCH  15  20
ENDBRANCH  10  12
ENDBRANCH   8  10
ENDBRANCH   7   8
ENDBRANCH   6   7
ENDBRANCH   3   6
ENDBRANCH   1   2
BRANCH   1  22
ATOM     22  C   UNL A   1      33.813  27.409  26.502  1.00  0.00     0.023 C 
BRANCH  22  23
ATOM     23  C   UNL A   1      34.099  28.895  26.621  1.00  0.00     0.023 C 
BRANCH  23  24
ATOM     24  C   UNL A   1      35.382  29.238  27.356  1.00  0.00     0.116 C 
BRANCH  24  25
ATOM     25  N   UNL A   1      35.183  29.873  28.653  1.00  0.00    -0.352 N 
ATOM     26  C   UNL A   1      36.094  30.185  29.636  1.00  0.00     0.251 C 
ATOM     27  H   UNL A   1      34.251  30.118  28.858  1.00  0.00     0.163 HD
ATOM     28  O   UNL A   1      35.728  30.734  30.666  1.00  0.00    -0.269 OA
BRANCH  26  29
ATOM     29  C   UNL A   1      37.515  29.833  29.452  1.00  0.00     0.039 A 
ATOM     30  C   UNL A   1      38.255  29.361  30.540  1.00  0.00     0.014 A 
ATOM     31  C   UNL A   1      38.107  29.949  28.196  1.00  0.00     0.014 A 
ATOM     32  C   UNL A   1      39.574  28.945  30.351  1.00  0.00     0.010 A 
ATOM     33  C   UNL A   1      39.371  29.422  27.985  1.00  0.00     0.010 A 
ATOM     34  C   UNL A   1      40.129  28.940  29.064  1.00  0.00    -0.014 A 
BRANCH  34  35
ATOM     35  C   UNL A   1      41.525  28.522  28.792  1.00  0.00     0.031 A 
ATOM     36  C   UNL A   1      42.602  29.575  28.799  1.00  0.00     0.074 A 
ATOM     37  C   UNL A   1      41.804  27.257  28.423  1.00  0.00     0.049 A 
ATOM     38  N   UNL A   1      43.826  29.512  28.349  1.00  0.00    -0.248 NA
ATOM     39  C   UNL A   1      42.223  30.897  29.330  1.00  0.00     0.031 C 
ATOM     40  C   UNL A   1      40.843  26.154  28.351  1.00  0.00     0.029 A 
ATOM     41  N   UNL A   1      42.986  26.694  28.013  1.00  0.00    -0.354 N 
ATOM     42  C   UNL A   1      44.338  30.798  28.479  1.00  0.00     0.074 A 
ATOM     43  C   UNL A   1      43.278  31.628  29.007  1.00  0.00     0.031 C 
ATOM     44  C   UNL A   1      41.478  25.044  27.939  1.00  0.00     0.029 A 
ATOM     45  C   UNL A   1      42.875  25.369  27.668  1.00  0.00     0.049 A 
ATOM     46  H   UNL A   1      43.834  27.193  27.970  1.00  0.00     0.167 HD
ATOM     47  C   UNL A   1      45.584  31.246  28.201  1.00  0.00     0.031 A 
ATOM     48  C   UNL A   1      43.794  24.518  27.173  1.00  0.00     0.031 A 
ATOM     49  C   UNL A   1      46.646  30.396  27.736  1.00  0.00     0.049 A 
ATOM     50  C   UNL A   1      45.191  25.021  26.924  1.00  0.00     0.074 A 
ATOM     51  C   UNL A   1      47.968  30.723  27.493  1.00  0.00     0.029 A 
ATOM     52  N   UNL A   1      46.508  29.043  27.467  1.00  0.00    -0.354 N 
ATOM     53  N   UNL A   1      45.668  26.234  27.076  1.00  0.00    -0.248 NA
ATOM     54  C   UNL A   1      46.173  24.040  26.446  1.00  0.00     0.031 C 
ATOM     55  C   UNL A   1      48.623  29.569  27.049  1.00  0.00     0.029 A 
ATOM     56  C   UNL A   1      47.719  28.517  27.058  1.00  0.00     0.049 A 
ATOM     57  H   UNL A   1      45.670  28.532  27.553  1.00  0.00     0.167 HD
ATOM     58  C   UNL A   1      47.014  26.156  26.738  1.00  0.00     0.074 A 
ATOM     59  C   UNL A   1      47.275  24.774  26.385  1.00  0.00     0.031 C 
ATOM     60  C   UNL A   1      47.951  27.136  26.722  1.00  0.00     0.031 A 
BRANCH  47  61
ATOM     61  C   UNL A   1      45.850  32.715  28.394  1.00  0.00    -0.014 A 
ATOM     62  C   UNL A   1      45.813  33.613  27.310  1.00  0.00     0.010 A 
ATOM     63  C   UNL A   1      46.152  33.207  29.676  1.00  0.00     0.010 A 
ATOM     64  C   UNL A   1      46.135  34.960  27.494  1.00  0.00     0.020 A 
ATOM     65  C   UNL A   1      46.443  34.560  29.871  1.00  0.00     0.020 A 
ATOM     66  C   UNL A   1      46.457  35.423  28.772  1.00  0.00     0.054 A 
BRANCH  66  67
ATOM     67  S   UNL A   1      46.876  37.175  28.985  1.00  0.00     0.124 S 
ATOM     68  O   UNL A   1      47.641  37.151  30.228  1.00  0.00    -0.237 OA
ATOM     69  O   UNL A   1      47.646  37.470  27.779  1.00  0.00    -0.237 OA
ATOM     70  O   UNL A   1      45.575  37.835  29.065  1.00  0.00    -0.744 OA
ENDBRANCH  66  67
ENDBRANCH  47  61
BRANCH  48  71
ATOM     71  C   UNL A   1      43.429  23.100  26.908  1.00  0.00    -0.014 A 
ATOM     72  C   UNL A   1      43.792  22.493  25.693  1.00  0.00     0.010 A 
ATOM     73  C   UNL A   1      42.745  22.340  27.874  1.00  0.00     0.010 A 
ATOM     74  C   UNL A   1      43.468  21.157  25.442  1.00  0.00     0.020 A 
ATOM     75  C   UNL A   1      42.440  20.996  27.637  1.00  0.00     0.020 A 
ATOM     76  C   UNL A   1      42.796  20.415  26.417  1.00  0.00     0.054 A 
BRANCH  76  77
ATOM     77  S   UNL A   1      42.443  18.665  26.094  1.00  0.00     0.124 S 
ATOM     78  O   UNL A   1      42.744  18.051  27.384  1.00  0.00    -0.237 OA
ATOM     79  O   UNL A   1      41.031  18.691  25.721  1.00  0.00    -0.237 OA
ATOM     80  O   UNL A   1      43.360  18.326  25.009  1.00  0.00    -0.744 OA
ENDBRANCH  76  77
ENDBRANCH  48  71
BRANCH  60  81
ATOM     81  C   UNL A   1      49.354  26.741  26.353  1.00  0.00    -0.014 A 
ATOM     82  C   UNL A   1      49.853  26.954  25.056  1.00  0.00     0.010 A 
ATOM     83  C   UNL A   1      50.202  26.207  27.339  1.00  0.00     0.010 A 
ATOM     84  C   UNL A   1      51.173  26.613  24.746  1.00  0.00     0.020 A 
ATOM     85  C   UNL A   1      51.528  25.888  27.040  1.00  0.00     0.020 A 
ATOM     86  C   UNL A   1      52.001  26.082  25.740  1.00  0.00     0.054 A 
BRANCH  86  87
ATOM     87  S   UNL A   1      53.723  25.692  25.327  1.00  0.00     0.124 S 
ATOM     88  O   UNL A   1      54.039  24.648  26.297  1.00  0.00    -0.237 OA
ATOM     89  O   UNL A   1      53.629  25.252  23.937  1.00  0.00    -0.237 OA
ATOM     90  O   UNL A   1      54.422  26.960  25.526  1.00  0.00    -0.744 OA
ENDBRANCH  86  87
ENDBRANCH  60  81
ENDBRANCH  34  35
ENDBRANCH  26  29
ENDBRANCH  24  25
ENDBRANCH  23  24
ENDBRANCH  22  23
ENDBRANCH   1  22
TORSDOF 20
ENDMDL
MODEL 3
REMARK VINA RESULT:     -10.0      3.586      9.103
REMARK SMILES COc1ccc(C(=O)N(C)CCC(=O)NCCCCNC(=O)c2ccc(-c3c4nc(c(-c5ccc(S(=O)(=O)[O-])cc5)c5ccc([nH]5)c(-c5ccc(S(=O)(=O)[O-])cc5)c5nc(c(-c6ccc(S(=O)(=O)[O-])cc6)c6ccc3[nH]6)C=C5)C=C4)cc2)cc1O
REMARK SMILES IDX 16 1 15 2 13 3 14 4 12 6 11 7 9 8 10 9 7 10 8 11 6 12 3 13
REMARK SMILES IDX 4 14 84 15 5 16 83 17 2 18 1 19 85 20 17 22 18 23 19 24
REMARK SMILES IDX 20 25 21 26 22 28 23 29 24 30 82 31 25 32 81 33 26 34 27 35
REMARK SMILES IDX 28 36 75 37 29 38 80 39 74 40 76 41 30 42 79 43 73 44 72 45
REMARK SMILES IDX 31 47 61 48 42 49 60 50 43 51 46 52 59 53 77 54 44 55 45 56
REMARK SMILES IDX 58 58 78 59 47 60 32 61 33 62 41 63 34 64 40 65 35 66 36 67
REMARK SMILES IDX 37 68 38 69 39 70 62 71 63 72 71 73 64 74 70 75 65 76 66 77
REMARK SMILES IDX 67 78 68 79 69 80 48 81 49 82 57 83 50 84 56 85 51 86 52 87
REMARK SMILES IDX 53 88 54 89 55 90
REMARK H PARENT 15 5 85 21 20 27 76 46 46 57
REMARK Flexibility Score: inf
ROOT
ATOM      1  C   UNL A   1      34.530  22.920  22.933  1.00  0.00     0.116 C 
ENDROOT
BRANCH   1   2
ATOM      2  N   UNL A   1      33.759  21.840  23.514  1.00  0.00    -0.356 N 
ATOM      3  C   UNL A   1      32.459  21.867  23.934  1.00  0.00     0.221 C 
ATOM      4  O   UNL A   1      32.022  20.907  24.569  1.00  0.00    -0.275 OA
ATOM      5  H   UNL A   1      34.229  20.981  23.618  1.00  0.00     0.163 HD
BRANCH   3   6
ATOM      6  C   UNL A   1      31.565  23.038  23.570  1.00  0.00     0.121 C 
BRANCH   6   7
ATOM      7  C   UNL A   1      31.926  24.348  24.286  1.00  0.00     0.129 C 
BRANCH   7   8
ATOM      8  N   UNL A   1      31.291  24.547  25.607  1.00  0.00    -0.341 N 
ATOM      9  C   UNL A   1      31.911  23.905  26.753  1.00  0.00     0.147 C 
BRANCH   8  10
ATOM     10  C   UNL A   1      30.265  25.509  25.706  1.00  0.00     0.253 C 
ATOM     11  O   UNL A   1      29.400  25.429  26.580  1.00  0.00    -0.269 OA
BRANCH  10  12
ATOM     12  C   UNL A   1      30.275  26.771  24.889  1.00  0.00     0.043 A 
ATOM     13  C   UNL A   1      30.015  29.118  23.299  1.00  0.00     0.160 A 
ATOM     14  C   UNL A   1      29.151  28.035  23.124  1.00  0.00     0.051 A 
ATOM     15  C   UNL A   1      31.035  28.991  24.245  1.00  0.00     0.158 A 
ATOM     16  C   UNL A   1      29.285  26.876  23.899  1.00  0.00     0.018 A 
ATOM     17  C   UNL A   1      31.163  27.836  25.034  1.00  0.00     0.064 A 
BRANCH  13  18
ATOM     18  O   UNL A   1      29.783  30.150  22.437  1.00  0.00    -0.493 OA
ATOM     19  C   UNL A   1      28.625  30.122  21.614  1.00  0.00     0.278 C 
ENDBRANCH  13  18
BRANCH  15  20
ATOM     20  O   UNL A   1      32.015  29.925  24.440  1.00  0.00    -0.504 OA
ATOM     21  H   UNL A   1      31.813  30.838  24.372  1.00  0.00     0.293 HD
ENDBRANCH  15  20
ENDBRANCH  10  12
ENDBRANCH   8  10
ENDBRANCH   7   8
ENDBRANCH   6   7
ENDBRANCH   3   6
ENDBRANCH   1   2
BRANCH   1  22
ATOM     22  C   UNL A   1      35.719  23.246  23.822  1.00  0.00     0.023 C 
BRANCH  22  23
ATOM     23  C   UNL A   1      35.374  23.693  25.231  1.00  0.00     0.023 C 
BRANCH  23  24
ATOM     24  C   UNL A   1      36.572  23.936  26.130  1.00  0.00     0.116 C 
BRANCH  24  25
ATOM     25  N   UNL A   1      37.626  22.935  26.014  1.00  0.00    -0.352 N 
ATOM     26  C   UNL A   1      38.955  23.003  26.365  1.00  0.00     0.251 C 
ATOM     27  H   UNL A   1      37.343  22.076  25.624  1.00  0.00     0.163 HD
ATOM     28  O   UNL A   1      39.689  22.039  26.196  1.00  0.00    -0.269 OA
BRANCH  26  29
ATOM     29  C   UNL A   1      39.498  24.254  26.929  1.00  0.00     0.039 A 
ATOM     30  C   UNL A   1      40.167  25.152  26.093  1.00  0.00     0.014 A 
ATOM     31  C   UNL A   1      39.323  24.546  28.280  1.00  0.00     0.014 A 
ATOM     32  C   UNL A   1      40.605  26.376  26.602  1.00  0.00     0.010 A 
ATOM     33  C   UNL A   1      39.647  25.808  28.753  1.00  0.00     0.010 A 
ATOM     34  C   UNL A   1      40.316  26.726  27.928  1.00  0.00    -0.014 A 
BRANCH  34  35
ATOM     35  C   UNL A   1      40.759  28.002  28.538  1.00  0.00     0.031 A 
ATOM     36  C   UNL A   1      42.165  28.091  29.069  1.00  0.00     0.074 A 
ATOM     37  C   UNL A   1      39.889  29.012  28.727  1.00  0.00     0.049 A 
ATOM     38  N   UNL A   1      42.699  28.984  29.859  1.00  0.00    -0.248 NA
ATOM     39  C   UNL A   1      43.074  26.987  28.710  1.00  0.00     0.031 C 
ATOM     40  C   UNL A   1      38.493  29.035  28.282  1.00  0.00     0.029 A 
ATOM     41  N   UNL A   1      40.051  30.213  29.370  1.00  0.00    -0.354 N 
ATOM     42  C   UNL A   1      43.976  28.515  30.143  1.00  0.00     0.074 A 
ATOM     43  C   UNL A   1      44.120  27.239  29.479  1.00  0.00     0.031 C 
ATOM     44  C   UNL A   1      37.933  30.199  28.652  1.00  0.00     0.029 A 
ATOM     45  C   UNL A   1      38.911  30.979  29.403  1.00  0.00     0.049 A 
ATOM     46  H   UNL A   1      40.904  30.499  29.771  1.00  0.00     0.167 HD
ATOM     47  C   UNL A   1      44.950  29.103  30.878  1.00  0.00     0.031 A 
ATOM     48  C   UNL A   1      38.679  32.170  29.988  1.00  0.00     0.031 A 
ATOM     49  C   UNL A   1      44.815  30.401  31.479  1.00  0.00     0.049 A 
ATOM     50  C   UNL A   1      39.793  32.833  30.752  1.00  0.00     0.074 A 
ATOM     51  C   UNL A   1      45.758  31.128  32.181  1.00  0.00     0.029 A 
ATOM     52  N   UNL A   1      43.665  31.174  31.428  1.00  0.00    -0.354 N 
ATOM     53  N   UNL A   1      41.004  32.391  30.992  1.00  0.00    -0.248 NA
ATOM     54  C   UNL A   1      39.510  34.159  31.317  1.00  0.00     0.031 C 
ATOM     55  C   UNL A   1      45.168  32.332  32.579  1.00  0.00     0.029 A 
ATOM     56  C   UNL A   1      43.872  32.372  32.087  1.00  0.00     0.049 A 
ATOM     57  H   UNL A   1      42.824  30.909  30.989  1.00  0.00     0.167 HD
ATOM     58  C   UNL A   1      41.639  33.396  31.713  1.00  0.00     0.074 A 
ATOM     59  C   UNL A   1      40.679  34.473  31.859  1.00  0.00     0.031 C 
ATOM     60  C   UNL A   1      42.901  33.429  32.208  1.00  0.00     0.031 A 
BRANCH  47  61
ATOM     61  C   UNL A   1      46.233  28.338  31.062  1.00  0.00    -0.014 A 
ATOM     62  C   UNL A   1      46.311  27.244  31.944  1.00  0.00     0.010 A 
ATOM     63  C   UNL A   1      47.383  28.723  30.351  1.00  0.00     0.010 A 
ATOM     64  C   UNL A   1      47.528  26.592  32.160  1.00  0.00     0.020 A 
ATOM     65  C   UNL A   1      48.596  28.053  30.538  1.00  0.00     0.020 A 
ATOM     66  C   UNL A   1      48.665  27.006  31.462  1.00  0.00     0.054 A 
BRANCH  66  67
ATOM     67  S   UNL A   1      50.234  26.147  31.761  1.00  0.00     0.124 S 
ATOM     68  O   UNL A   1      50.273  26.096  33.220  1.00  0.00    -0.237 OA
ATOM     69  O   UNL A   1      50.029  24.863  31.095  1.00  0.00    -0.237 OA
ATOM     70  O   UNL A   1      51.229  27.016  31.140  1.00  0.00    -0.744 OA
ENDBRANCH  66  67
ENDBRANCH  47  61
BRANCH  48  71
ATOM     71  C   UNL A   1      37.347  32.819  29.849  1.00  0.00    -0.014 A 
ATOM     72  C   UNL A   1      36.370  32.644  30.844  1.00  0.00     0.010 A 
ATOM     73  C   UNL A   1      37.057  33.638  28.743  1.00  0.00     0.010 A 
ATOM     74  C   UNL A   1      35.122  33.264  30.731  1.00  0.00     0.020 A 
ATOM     75  C   UNL A   1      35.819  34.279  28.637  1.00  0.00     0.020 A 
ATOM     76  C   UNL A   1      34.855  34.081  29.629  1.00  0.00     0.054 A 
BRANCH  76  77
ATOM     77  S   UNL A   1      33.252  34.926  29.537  1.00  0.00     0.124 S 
ATOM     78  O   UNL A   1      32.509  34.069  28.618  1.00  0.00    -0.237 OA
ATOM     79  O   UNL A   1      32.802  34.904  30.926  1.00  0.00    -0.237 OA
ATOM     80  O   UNL A   1      33.593  36.250  29.022  1.00  0.00    -0.744 OA
ENDBRANCH  76  77
ENDBRANCH  48  71
BRANCH  60  81
ATOM     81  C   UNL A   1      43.331  34.684  32.914  1.00  0.00    -0.014 A 
ATOM     82  C   UNL A   1      43.167  34.831  34.303  1.00  0.00     0.010 A 
ATOM     83  C   UNL A   1      43.966  35.704  32.183  1.00  0.00     0.010 A 
ATOM     84  C   UNL A   1      43.609  35.991  34.944  1.00  0.00     0.020 A 
ATOM     85  C   UNL A   1      44.430  36.854  32.824  1.00  0.00     0.020 A 
ATOM     86  C   UNL A   1      44.236  36.996  34.200  1.00  0.00     0.054 A 
BRANCH  86  87
ATOM     87  S   UNL A   1      44.844  38.471  35.061  1.00  0.00     0.124 S 
ATOM     88  O   UNL A   1      44.738  39.493  34.023  1.00  0.00    -0.237 OA
ATOM     89  O   UNL A   1      43.906  38.605  36.172  1.00  0.00    -0.237 OA
ATOM     90  O   UNL A   1      46.207  38.111  35.445  1.00  0.00    -0.744 OA
ENDBRANCH  86  87
ENDBRANCH  60  81
ENDBRANCH  34  35
ENDBRANCH  26  29
ENDBRANCH  24  25
ENDBRANCH  23  24
ENDBRANCH  22  23
ENDBRANCH   1  22
TORSDOF 20
ENDMDL
