MODEL 1
REMARK VINA RESULT:     -11.6      0.000      0.000
REMARK SMILES Cc1cc(C)c2c(c1)C=C(C(=O)NCCCCNC(=O)c1ccc(-c3c4nc(c(-c5ccc(S(=O)(=O)[O-])cc5)c5ccc([nH]5)c(-c5ccc(S(=O)(=O)[O-])cc5)c5nc(c(-c6ccc(S(=O)(=O)[O-])cc6)c6ccc3[nH]6)C=C5)C=C4)cc1)[C@@H](C(F)(F)F)O2
REMARK SMILES IDX 16 1 15 2 14 3 13 4 11 5 12 6 10 8 1 9 2 10 3 11 8 12 4 13
REMARK SMILES IDX 7 14 5 15 6 16 9 17 86 18 81 19 82 20 83 21 84 22 85 23
REMARK SMILES IDX 17 24 18 25 19 26 20 28 21 29 22 30 80 31 23 32 79 33 24 34
REMARK SMILES IDX 25 35 26 36 73 37 27 38 78 39 72 40 74 41 28 42 77 43 71 44
REMARK SMILES IDX 70 45 29 47 59 48 40 49 58 50 41 51 44 52 57 53 75 54 42 55
REMARK SMILES IDX 43 56 56 58 76 59 45 60 30 61 31 62 39 63 32 64 38 65 33 66
REMARK SMILES IDX 34 67 35 68 36 69 37 70 60 71 61 72 69 73 62 74 68 75 63 76
REMARK SMILES IDX 64 77 65 78 66 79 67 80 46 81 47 82 55 83 48 84 54 85 49 86
REMARK SMILES IDX 50 87 51 88 52 89 53 90
REMARK H PARENT 13 7 18 27 74 46 44 57
REMARK Flexibility Score: inf
ROOT
ATOM      1  C   UNL A   1      35.784  23.541  26.084  1.00  0.00     0.023 C 
ENDROOT
BRANCH   1   2
ATOM      2  C   UNL A   1      35.178  22.176  26.422  1.00  0.00     0.023 C 
BRANCH   2   3
ATOM      3  C   UNL A   1      33.893  21.858  25.663  1.00  0.00     0.116 C 
BRANCH   3   4
ATOM      4  N   UNL A   1      32.713  22.294  26.387  1.00  0.00    -0.352 N 
ATOM      5  C   UNL A   1      32.011  23.443  26.531  1.00  0.00     0.251 C 
ATOM      6  O   UNL A   1      31.032  23.371  27.281  1.00  0.00    -0.270 OA
ATOM      7  H   UNL A   1      32.317  21.561  26.912  1.00  0.00     0.163 HD
BRANCH   5   8
ATOM      8  C   UNL A   1      32.333  24.740  25.867  1.00  0.00     0.067 C 
ATOM      9  C   UNL A   1      33.525  30.634  27.296  1.00  0.00     0.044 C 
ATOM     10  C   UNL A   1      33.383  29.440  26.401  1.00  0.00    -0.050 A 
ATOM     11  C   UNL A   1      33.575  29.550  25.017  1.00  0.00     0.010 A 
ATOM     12  C   UNL A   1      33.073  28.188  26.951  1.00  0.00     0.015 A 
ATOM     13  C   UNL A   1      33.457  28.430  24.183  1.00  0.00    -0.008 A 
ATOM     14  C   UNL A   1      32.946  27.064  26.131  1.00  0.00     0.018 A 
ATOM     15  C   UNL A   1      33.661  28.561  22.700  1.00  0.00     0.048 C 
ATOM     16  C   UNL A   1      33.133  27.192  24.753  1.00  0.00     0.130 A 
ATOM     17  C   UNL A   1      32.657  25.751  26.697  1.00  0.00     0.025 C 
ATOM     18  O   UNL A   1      33.057  26.114  23.915  1.00  0.00    -0.475 OA
ATOM     19  C   UNL A   1      32.272  24.984  24.386  1.00  0.00     0.314 C 
BRANCH  19  20
ATOM     20  C   UNL A   1      30.830  25.117  23.863  1.00  0.00     0.429 C 
ATOM     21  F   UNL A   1      30.789  25.962  22.801  1.00  0.00    -0.167 F 
ATOM     22  F   UNL A   1      30.322  23.939  23.434  1.00  0.00    -0.167 F 
ATOM     23  F   UNL A   1      29.977  25.599  24.795  1.00  0.00    -0.167 F 
ENDBRANCH  19  20
ENDBRANCH   5   8
ENDBRANCH   3   4
ENDBRANCH   2   3
ENDBRANCH   1   2
BRANCH   1  24
ATOM     24  C   UNL A   1      37.005  23.511  25.165  1.00  0.00     0.116 C 
BRANCH  24  25
ATOM     25  N   UNL A   1      38.032  22.564  25.581  1.00  0.00    -0.352 N 
ATOM     26  C   UNL A   1      39.153  22.813  26.337  1.00  0.00     0.251 C 
ATOM     27  H   UNL A   1      37.908  21.635  25.285  1.00  0.00     0.163 HD
ATOM     28  O   UNL A   1      39.973  21.928  26.550  1.00  0.00    -0.269 OA
BRANCH  26  29
ATOM     29  C   UNL A   1      39.372  24.180  26.846  1.00  0.00     0.039 A 
ATOM     30  C   UNL A   1      38.968  24.484  28.147  1.00  0.00     0.014 A 
ATOM     31  C   UNL A   1      40.047  25.123  26.067  1.00  0.00     0.014 A 
ATOM     32  C   UNL A   1      39.310  25.720  28.698  1.00  0.00     0.010 A 
ATOM     33  C   UNL A   1      40.435  26.331  26.636  1.00  0.00     0.010 A 
ATOM     34  C   UNL A   1      40.078  26.635  27.959  1.00  0.00    -0.014 A 
BRANCH  34  35
ATOM     35  C   UNL A   1      40.527  27.912  28.558  1.00  0.00     0.031 A 
ATOM     36  C   UNL A   1      41.944  28.064  29.029  1.00  0.00     0.074 A 
ATOM     37  C   UNL A   1      39.642  28.915  28.728  1.00  0.00     0.049 A 
ATOM     38  N   UNL A   1      42.510  29.086  29.618  1.00  0.00    -0.248 NA
ATOM     39  C   UNL A   1      42.835  26.911  28.831  1.00  0.00     0.031 C 
ATOM     40  C   UNL A   1      38.229  28.873  28.343  1.00  0.00     0.029 A 
ATOM     41  N   UNL A   1      39.802  30.165  29.269  1.00  0.00    -0.354 N 
ATOM     42  C   UNL A   1      43.818  28.696  29.871  1.00  0.00     0.074 A 
ATOM     43  C   UNL A   1      43.949  27.328  29.415  1.00  0.00     0.031 C 
ATOM     44  C   UNL A   1      37.662  30.056  28.627  1.00  0.00     0.029 A 
ATOM     45  C   UNL A   1      38.659  30.927  29.243  1.00  0.00     0.049 A 
ATOM     46  H   UNL A   1      40.655  30.486  29.640  1.00  0.00     0.167 HD
ATOM     47  C   UNL A   1      44.827  29.416  30.416  1.00  0.00     0.031 A 
ATOM     48  C   UNL A   1      38.438  32.188  29.664  1.00  0.00     0.031 A 
ATOM     49  C   UNL A   1      44.698  30.776  30.859  1.00  0.00     0.049 A 
ATOM     50  C   UNL A   1      39.570  32.967  30.271  1.00  0.00     0.074 A 
ATOM     51  C   UNL A   1      45.672  31.605  31.388  1.00  0.00     0.029 A 
ATOM     52  N   UNL A   1      43.523  31.510  30.822  1.00  0.00    -0.354 N 
ATOM     53  N   UNL A   1      40.811  32.594  30.468  1.00  0.00    -0.248 NA
ATOM     54  C   UNL A   1      39.273  34.338  30.707  1.00  0.00     0.031 C 
ATOM     55  C   UNL A   1      45.075  32.832  31.701  1.00  0.00     0.029 A 
ATOM     56  C   UNL A   1      43.740  32.779  31.331  1.00  0.00     0.049 A 
ATOM     57  H   UNL A   1      42.660  31.177  30.483  1.00  0.00     0.167 HD
ATOM     58  C   UNL A   1      41.449  33.688  31.040  1.00  0.00     0.074 A 
ATOM     59  C   UNL A   1      40.459  34.741  31.146  1.00  0.00     0.031 C 
ATOM     60  C   UNL A   1      42.739  33.809  31.438  1.00  0.00     0.031 A 
BRANCH  47  61
ATOM     61  C   UNL A   1      46.157  28.728  30.555  1.00  0.00    -0.014 A 
ATOM     62  C   UNL A   1      47.107  28.785  29.519  1.00  0.00     0.010 A 
ATOM     63  C   UNL A   1      46.461  28.018  31.728  1.00  0.00     0.010 A 
ATOM     64  C   UNL A   1      48.318  28.099  29.632  1.00  0.00     0.020 A 
ATOM     65  C   UNL A   1      47.682  27.348  31.855  1.00  0.00     0.020 A 
ATOM     66  C   UNL A   1      48.594  27.376  30.796  1.00  0.00     0.054 A 
BRANCH  66  67
ATOM     67  S   UNL A   1      50.169  26.486  30.915  1.00  0.00     0.124 S 
ATOM     68  O   UNL A   1      50.923  27.060  29.803  1.00  0.00    -0.237 OA
ATOM     69  O   UNL A   1      50.645  26.847  32.248  1.00  0.00    -0.237 OA
ATOM     70  O   UNL A   1      49.788  25.085  30.752  1.00  0.00    -0.744 OA
ENDBRANCH  66  67
ENDBRANCH  47  61
BRANCH  48  71
ATOM     71  C   UNL A   1      37.096  32.797  29.480  1.00  0.00    -0.014 A 
ATOM     72  C   UNL A   1      36.249  32.980  30.586  1.00  0.00     0.010 A 
ATOM     73  C   UNL A   1      36.678  33.244  28.213  1.00  0.00     0.010 A 
ATOM     74  C   UNL A   1      35.010  33.606  30.431  1.00  0.00     0.020 A 
ATOM     75  C   UNL A   1      35.447  33.886  28.059  1.00  0.00     0.020 A 
ATOM     76  C   UNL A   1      34.618  34.061  29.170  1.00  0.00     0.054 A 
BRANCH  76  77
ATOM     77  S   UNL A   1      33.043  34.948  29.010  1.00  0.00     0.124 S 
ATOM     78  O   UNL A   1      33.482  36.273  28.582  1.00  0.00    -0.237 OA
ATOM     79  O   UNL A   1      32.337  34.159  28.002  1.00  0.00    -0.237 OA
ATOM     80  O   UNL A   1      32.473  34.878  30.353  1.00  0.00    -0.744 OA
ENDBRANCH  76  77
ENDBRANCH  48  71
BRANCH  60  81
ATOM     81  C   UNL A   1      43.160  35.128  32.022  1.00  0.00    -0.014 A 
ATOM     82  C   UNL A   1      43.771  36.107  31.221  1.00  0.00     0.010 A 
ATOM     83  C   UNL A   1      42.871  35.418  33.368  1.00  0.00     0.010 A 
ATOM     84  C   UNL A   1      44.098  37.354  31.760  1.00  0.00     0.020 A 
ATOM     85  C   UNL A   1      43.181  36.670  33.905  1.00  0.00     0.020 A 
ATOM     86  C   UNL A   1      43.800  37.628  33.099  1.00  0.00     0.054 A 
BRANCH  86  87
ATOM     87  S   UNL A   1      44.176  39.275  33.758  1.00  0.00     0.124 S 
ATOM     88  O   UNL A   1      44.801  38.955  35.039  1.00  0.00    -0.237 OA
ATOM     89  O   UNL A   1      45.071  39.831  32.745  1.00  0.00    -0.237 OA
ATOM     90  O   UNL A   1      42.868  39.920  33.845  1.00  0.00    -0.744 OA
ENDBRANCH  86  87
ENDBRANCH  60  81
ENDBRANCH  34  35
ENDBRANCH  26  29
ENDBRANCH  24  25
ENDBRANCH   1  24
TORSDOF 15
ENDMDL
MODEL 2
REMARK VINA RESULT:     -11.4      2.782      9.346
REMARK SMILES Cc1cc(C)c2c(c1)C=C(C(=O)NCCCCNC(=O)c1ccc(-c3c4nc(c(-c5ccc(S(=O)(=O)[O-])cc5)c5ccc([nH]5)c(-c5ccc(S(=O)(=O)[O-])cc5)c5nc(c(-c6ccc(S(=O)(=O)[O-])cc6)c6ccc3[nH]6)C=C5)C=C4)cc1)[C@@H](C(F)(F)F)O2
REMARK SMILES IDX 16 1 15 2 14 3 13 4 11 5 12 6 10 8 1 9 2 10 3 11 8 12 4 13
REMARK SMILES IDX 7 14 5 15 6 16 9 17 86 18 81 19 82 20 83 21 84 22 85 23
REMARK SMILES IDX 17 24 18 25 19 26 20 28 21 29 22 30 80 31 23 32 79 33 24 34
REMARK SMILES IDX 25 35 26 36 73 37 27 38 78 39 72 40 74 41 28 42 77 43 71 44
REMARK SMILES IDX 70 45 29 47 59 48 40 49 58 50 41 51 44 52 57 53 75 54 42 55
REMARK SMILES IDX 43 56 56 58 76 59 45 60 30 61 31 62 39 63 32 64 38 65 33 66
REMARK SMILES IDX 34 67 35 68 36 69 37 70 60 71 61 72 69 73 62 74 68 75 63 76
REMARK SMILES IDX 64 77 65 78 66 79 67 80 46 81 47 82 55 83 48 84 54 85 49 86
REMARK SMILES IDX 50 87 51 88 52 89 53 90
REMARK H PARENT 13 7 18 27 74 46 44 57
REMARK Flexibility Score: inf
ROOT
ATOM      1  C   UNL A   1      31.969  27.868  27.137  1.00  0.00     0.023 C 
ENDROOT
BRANCH   1   2
ATOM      2  C   UNL A   1      31.387  27.704  25.730  1.00  0.00     0.023 C 
BRANCH   2   3
ATOM      3  C   UNL A   1      31.260  26.255  25.271  1.00  0.00     0.116 C 
BRANCH   3   4
ATOM      4  N   UNL A   1      31.519  26.111  23.850  1.00  0.00    -0.352 N 
ATOM      5  C   UNL A   1      32.239  25.284  23.056  1.00  0.00     0.251 C 
ATOM      6  O   UNL A   1      32.181  25.533  21.848  1.00  0.00    -0.270 OA
ATOM      7  H   UNL A   1      31.044  26.795  23.324  1.00  0.00     0.163 HD
BRANCH   5   8
ATOM      8  C   UNL A   1      33.066  24.136  23.531  1.00  0.00     0.067 C 
ATOM      9  C   UNL A   1      32.475  18.179  25.068  1.00  0.00     0.044 C 
ATOM     10  C   UNL A   1      33.204  19.459  24.788  1.00  0.00    -0.050 A 
ATOM     11  C   UNL A   1      34.594  19.545  24.942  1.00  0.00     0.010 A 
ATOM     12  C   UNL A   1      32.493  20.583  24.346  1.00  0.00     0.015 A 
ATOM     13  C   UNL A   1      35.276  20.737  24.665  1.00  0.00    -0.008 A 
ATOM     14  C   UNL A   1      33.158  21.781  24.072  1.00  0.00     0.018 A 
ATOM     15  C   UNL A   1      36.766  20.819  24.837  1.00  0.00     0.048 C 
ATOM     16  C   UNL A   1      34.543  21.853  24.238  1.00  0.00     0.130 A 
ATOM     17  C   UNL A   1      32.433  22.948  23.581  1.00  0.00     0.025 C 
ATOM     18  O   UNL A   1      35.243  22.991  23.945  1.00  0.00    -0.475 OA
ATOM     19  C   UNL A   1      34.495  24.238  23.984  1.00  0.00     0.314 C 
BRANCH  19  20
ATOM     20  C   UNL A   1      34.632  24.867  25.383  1.00  0.00     0.429 C 
ATOM     21  F   UNL A   1      33.666  24.393  26.210  1.00  0.00    -0.167 F 
ATOM     22  F   UNL A   1      35.815  24.575  25.971  1.00  0.00    -0.167 F 
ATOM     23  F   UNL A   1      34.521  26.214  25.365  1.00  0.00    -0.167 F 
ENDBRANCH  19  20
ENDBRANCH   5   8
ENDBRANCH   3   4
ENDBRANCH   2   3
ENDBRANCH   1   2
BRANCH   1  24
ATOM     24  C   UNL A   1      33.341  28.537  27.209  1.00  0.00     0.116 C 
BRANCH  24  25
ATOM     25  N   UNL A   1      33.289  29.956  27.537  1.00  0.00    -0.352 N 
ATOM     26  C   UNL A   1      34.295  30.742  28.047  1.00  0.00     0.251 C 
ATOM     27  H   UNL A   1      32.429  30.406  27.375  1.00  0.00     0.163 HD
ATOM     28  O   UNL A   1      34.085  31.912  28.344  1.00  0.00    -0.269 OA
BRANCH  26  29
ATOM     29  C   UNL A   1      35.620  30.134  28.273  1.00  0.00     0.039 A 
ATOM     30  C   UNL A   1      36.540  30.121  27.223  1.00  0.00     0.014 A 
ATOM     31  C   UNL A   1      35.971  29.659  29.540  1.00  0.00     0.014 A 
ATOM     32  C   UNL A   1      37.847  29.697  27.465  1.00  0.00     0.010 A 
ATOM     33  C   UNL A   1      37.287  29.289  29.791  1.00  0.00     0.010 A 
ATOM     34  C   UNL A   1      38.238  29.314  28.759  1.00  0.00    -0.014 A 
BRANCH  34  35
ATOM     35  C   UNL A   1      39.642  28.947  29.054  1.00  0.00     0.031 A 
ATOM     36  C   UNL A   1      40.556  29.941  29.710  1.00  0.00     0.074 A 
ATOM     37  C   UNL A   1      40.106  27.738  28.681  1.00  0.00     0.049 A 
ATOM     38  N   UNL A   1      41.824  29.820  30.006  1.00  0.00    -0.248 NA
ATOM     39  C   UNL A   1      39.975  31.246  30.058  1.00  0.00     0.031 C 
ATOM     40  C   UNL A   1      39.323  26.700  28.006  1.00  0.00     0.029 A 
ATOM     41  N   UNL A   1      41.350  27.178  28.818  1.00  0.00    -0.354 N 
ATOM     42  C   UNL A   1      42.196  31.036  30.565  1.00  0.00     0.074 A 
ATOM     43  C   UNL A   1      41.032  31.896  30.523  1.00  0.00     0.031 C 
ATOM     44  C   UNL A   1      40.095  25.619  27.819  1.00  0.00     0.029 A 
ATOM     45  C   UNL A   1      41.435  25.896  28.332  1.00  0.00     0.049 A 
ATOM     46  H   UNL A   1      42.112  27.650  29.226  1.00  0.00     0.167 HD
ATOM     47  C   UNL A   1      43.392  31.399  31.085  1.00  0.00     0.031 A 
ATOM     48  C   UNL A   1      42.471  25.036  28.305  1.00  0.00     0.031 A 
ATOM     49  C   UNL A   1      44.543  30.542  31.135  1.00  0.00     0.049 A 
ATOM     50  C   UNL A   1      43.792  25.462  28.882  1.00  0.00     0.074 A 
ATOM     51  C   UNL A   1      45.789  30.803  31.678  1.00  0.00     0.029 A 
ATOM     52  N   UNL A   1      44.590  29.253  30.626  1.00  0.00    -0.354 N 
ATOM     53  N   UNL A   1      44.114  26.603  29.440  1.00  0.00    -0.248 NA
ATOM     54  C   UNL A   1      44.886  24.482  28.830  1.00  0.00     0.031 C 
ATOM     55  C   UNL A   1      46.599  29.681  31.467  1.00  0.00     0.029 A 
ATOM     56  C   UNL A   1      45.845  28.708  30.828  1.00  0.00     0.049 A 
ATOM     57  H   UNL A   1      43.838  28.793  30.186  1.00  0.00     0.167 HD
ATOM     58  C   UNL A   1      45.445  26.476  29.820  1.00  0.00     0.074 A 
ATOM     59  C   UNL A   1      45.864  25.142  29.437  1.00  0.00     0.031 C 
ATOM     60  C   UNL A   1      46.246  27.383  30.431  1.00  0.00     0.031 A 
BRANCH  47  61
ATOM     61  C   UNL A   1      43.499  32.793  31.640  1.00  0.00    -0.014 A 
ATOM     62  C   UNL A   1      43.939  33.856  30.831  1.00  0.00     0.010 A 
ATOM     63  C   UNL A   1      43.160  33.044  32.980  1.00  0.00     0.010 A 
ATOM     64  C   UNL A   1      44.089  35.137  31.366  1.00  0.00     0.020 A 
ATOM     65  C   UNL A   1      43.287  34.329  33.515  1.00  0.00     0.020 A 
ATOM     66  C   UNL A   1      43.771  35.363  32.709  1.00  0.00     0.054 A 
BRANCH  66  67
ATOM     67  S   UNL A   1      43.983  37.033  33.384  1.00  0.00     0.124 S 
ATOM     68  O   UNL A   1      43.960  37.851  32.174  1.00  0.00    -0.237 OA
ATOM     69  O   UNL A   1      42.824  37.177  34.261  1.00  0.00    -0.237 OA
ATOM     70  O   UNL A   1      45.272  36.969  34.068  1.00  0.00    -0.744 OA
ENDBRANCH  66  67
ENDBRANCH  47  61
BRANCH  48  71
ATOM     71  C   UNL A   1      42.279  23.673  27.747  1.00  0.00    -0.014 A 
ATOM     72  C   UNL A   1      42.593  23.412  26.403  1.00  0.00     0.010 A 
ATOM     73  C   UNL A   1      41.833  22.619  28.565  1.00  0.00     0.010 A 
ATOM     74  C   UNL A   1      42.471  22.120  25.886  1.00  0.00     0.020 A 
ATOM     75  C   UNL A   1      41.727  21.322  28.056  1.00  0.00     0.020 A 
ATOM     76  C   UNL A   1      42.045  21.081  26.717  1.00  0.00     0.054 A 
BRANCH  76  77
ATOM     77  S   UNL A   1      41.978  19.396  26.047  1.00  0.00     0.124 S 
ATOM     78  O   UNL A   1      42.834  19.502  24.870  1.00  0.00    -0.237 OA
ATOM     79  O   UNL A   1      42.512  18.597  27.149  1.00  0.00    -0.237 OA
ATOM     80  O   UNL A   1      40.557  19.192  25.775  1.00  0.00    -0.744 OA
ENDBRANCH  76  77
ENDBRANCH  48  71
BRANCH  60  81
ATOM     81  C   UNL A   1      47.658  26.965  30.731  1.00  0.00    -0.014 A 
ATOM     82  C   UNL A   1      48.685  27.176  29.796  1.00  0.00     0.010 A 
ATOM     83  C   UNL A   1      47.971  26.427  31.992  1.00  0.00     0.010 A 
ATOM     84  C   UNL A   1      50.004  26.844  30.113  1.00  0.00     0.020 A 
ATOM     85  C   UNL A   1      49.292  26.110  32.319  1.00  0.00     0.020 A 
ATOM     86  C   UNL A   1      50.300  26.313  31.373  1.00  0.00     0.054 A 
BRANCH  86  87
ATOM     87  S   UNL A   1      52.028  25.949  31.784  1.00  0.00     0.124 S 
ATOM     88  O   UNL A   1      52.235  26.763  32.979  1.00  0.00    -0.237 OA
ATOM     89  O   UNL A   1      52.010  24.504  32.004  1.00  0.00    -0.237 OA
ATOM     90  O   UNL A   1      52.765  26.382  30.599  1.00  0.00    -0.744 OA
ENDBRANCH  86  87
ENDBRANCH  60  81
ENDBRANCH  34  35
ENDBRANCH  26  29
ENDBRANCH  24  25
ENDBRANCH   1  24
TORSDOF 15
ENDMDL
MODEL 3
REMARK VINA RESULT:     -11.4      2.919      9.131
REMARK SMILES Cc1cc(C)c2c(c1)C=C(C(=O)NCCCCNC(=O)c1ccc(-c3c4nc(c(-c5ccc(S(=O)(=O)[O-])cc5)c5ccc([nH]5)c(-c5ccc(S(=O)(=O)[O-])cc5)c5nc(c(-c6ccc(S(=O)(=O)[O-])cc6)c6ccc3[nH]6)C=C5)C=C4)cc1)[C@@H](C(F)(F)F)O2
REMARK SMILES IDX 16 1 15 2 14 3 13 4 11 5 12 6 10 8 1 9 2 10 3 11 8 12 4 13
REMARK SMILES IDX 7 14 5 15 6 16 9 17 86 18 81 19 82 20 83 21 84 22 85 23
REMARK SMILES IDX 17 24 18 25 19 26 20 28 21 29 22 30 80 31 23 32 79 33 24 34
REMARK SMILES IDX 25 35 26 36 73 37 27 38 78 39 72 40 74 41 28 42 77 43 71 44
REMARK SMILES IDX 70 45 29 47 59 48 40 49 58 50 41 51 44 52 57 53 75 54 42 55
REMARK SMILES IDX 43 56 56 58 76 59 45 60 30 61 31 62 39 63 32 64 38 65 33 66
REMARK SMILES IDX 34 67 35 68 36 69 37 70 60 71 61 72 69 73 62 74 68 75 63 76
REMARK SMILES IDX 64 77 65 78 66 79 67 80 46 81 47 82 55 83 48 84 54 85 49 86
REMARK SMILES IDX 50 87 51 88 52 89 53 90
REMARK H PARENT 13 7 18 27 74 46 44 57
REMARK Flexibility Score: inf
ROOT
ATOM      1  C   UNL A   1      33.098  28.500  25.757  1.00  0.00     0.023 C 
ENDROOT
BRANCH   1   2
ATOM      2  C   UNL A   1      33.978  27.677  24.812  1.00  0.00     0.023 C 
BRANCH   2   3
ATOM      3  C   UNL A   1      33.829  26.167  24.975  1.00  0.00     0.116 C 
BRANCH   3   4
ATOM      4  N   UNL A   1      33.492  25.517  23.721  1.00  0.00    -0.352 N 
ATOM      5  C   UNL A   1      32.435  25.489  22.876  1.00  0.00     0.251 C 
ATOM      6  O   UNL A   1      32.573  24.765  21.885  1.00  0.00    -0.270 OA
ATOM      7  H   UNL A   1      34.226  24.945  23.401  1.00  0.00     0.163 HD
BRANCH   5   8
ATOM      8  C   UNL A   1      31.163  26.249  23.059  1.00  0.00     0.067 C 
ATOM      9  C   UNL A   1      28.801  31.865  22.022  1.00  0.00     0.044 C 
ATOM     10  C   UNL A   1      28.786  30.423  22.432  1.00  0.00    -0.050 A 
ATOM     11  C   UNL A   1      27.619  29.830  22.933  1.00  0.00     0.010 A 
ATOM     12  C   UNL A   1      29.945  29.647  22.297  1.00  0.00     0.015 A 
ATOM     13  C   UNL A   1      27.601  28.478  23.302  1.00  0.00    -0.008 A 
ATOM     14  C   UNL A   1      29.944  28.300  22.667  1.00  0.00     0.018 A 
ATOM     15  C   UNL A   1      26.346  27.853  23.841  1.00  0.00     0.048 C 
ATOM     16  C   UNL A   1      28.776  27.725  23.172  1.00  0.00     0.130 A 
ATOM     17  C   UNL A   1      31.135  27.474  22.500  1.00  0.00     0.025 C 
ATOM     18  O   UNL A   1      28.715  26.401  23.510  1.00  0.00    -0.475 OA
ATOM     19  C   UNL A   1      29.978  25.761  23.842  1.00  0.00     0.314 C 
BRANCH  19  20
ATOM     20  C   UNL A   1      30.198  25.835  25.365  1.00  0.00     0.429 C 
ATOM     21  F   UNL A   1      29.026  25.638  26.021  1.00  0.00    -0.167 F 
ATOM     22  F   UNL A   1      31.051  24.886  25.814  1.00  0.00    -0.167 F 
ATOM     23  F   UNL A   1      30.689  27.030  25.765  1.00  0.00    -0.167 F 
ENDBRANCH  19  20
ENDBRANCH   5   8
ENDBRANCH   3   4
ENDBRANCH   2   3
ENDBRANCH   1   2
BRANCH   1  24
ATOM     24  C   UNL A   1      33.646  28.688  27.172  1.00  0.00     0.116 C 
BRANCH  24  25
ATOM     25  N   UNL A   1      33.569  30.060  27.656  1.00  0.00    -0.352 N 
ATOM     26  C   UNL A   1      34.553  30.791  28.277  1.00  0.00     0.251 C 
ATOM     27  H   UNL A   1      32.709  30.518  27.523  1.00  0.00     0.163 HD
ATOM     28  O   UNL A   1      34.323  31.919  28.698  1.00  0.00    -0.269 OA
BRANCH  26  29
ATOM     29  C   UNL A   1      35.879  30.173  28.467  1.00  0.00     0.039 A 
ATOM     30  C   UNL A   1      36.784  30.185  27.404  1.00  0.00     0.014 A 
ATOM     31  C   UNL A   1      36.246  29.663  29.715  1.00  0.00     0.014 A 
ATOM     32  C   UNL A   1      38.093  29.749  27.616  1.00  0.00     0.010 A 
ATOM     33  C   UNL A   1      37.565  29.281  29.938  1.00  0.00     0.010 A 
ATOM     34  C   UNL A   1      38.500  29.331  28.893  1.00  0.00    -0.014 A 
BRANCH  34  35
ATOM     35  C   UNL A   1      39.907  28.951  29.158  1.00  0.00     0.031 A 
ATOM     36  C   UNL A   1      40.841  29.931  29.807  1.00  0.00     0.074 A 
ATOM     37  C   UNL A   1      40.356  27.742  28.764  1.00  0.00     0.049 A 
ATOM     38  N   UNL A   1      42.113  29.799  30.078  1.00  0.00    -0.248 NA
ATOM     39  C   UNL A   1      40.276  31.237  30.180  1.00  0.00     0.031 C 
ATOM     40  C   UNL A   1      39.552  26.718  28.093  1.00  0.00     0.029 A 
ATOM     41  N   UNL A   1      41.598  27.172  28.871  1.00  0.00    -0.354 N 
ATOM     42  C   UNL A   1      42.504  31.006  30.642  1.00  0.00     0.074 A 
ATOM     43  C   UNL A   1      41.346  31.875  30.631  1.00  0.00     0.031 C 
ATOM     44  C   UNL A   1      40.314  25.633  27.881  1.00  0.00     0.029 A 
ATOM     45  C   UNL A   1      41.664  25.895  28.371  1.00  0.00     0.049 A 
ATOM     46  H   UNL A   1      42.370  27.635  29.270  1.00  0.00     0.167 HD
ATOM     47  C   UNL A   1      43.712  31.355  31.144  1.00  0.00     0.031 A 
ATOM     48  C   UNL A   1      42.694  25.028  28.316  1.00  0.00     0.031 A 
ATOM     49  C   UNL A   1      44.858  30.489  31.163  1.00  0.00     0.049 A 
ATOM     50  C   UNL A   1      44.028  25.439  28.872  1.00  0.00     0.074 A 
ATOM     51  C   UNL A   1      46.116  30.736  31.685  1.00  0.00     0.029 A 
ATOM     52  N   UNL A   1      44.885  29.206  30.640  1.00  0.00    -0.354 N 
ATOM     53  N   UNL A   1      44.368  26.572  29.436  1.00  0.00    -0.248 NA
ATOM     54  C   UNL A   1      45.114  24.452  28.789  1.00  0.00     0.031 C 
ATOM     55  C   UNL A   1      46.913  29.611  31.448  1.00  0.00     0.029 A 
ATOM     56  C   UNL A   1      46.141  28.650  30.813  1.00  0.00     0.049 A 
ATOM     57  H   UNL A   1      44.123  28.755  30.209  1.00  0.00     0.167 HD
ATOM     58  C   UNL A   1      45.706  26.432  29.789  1.00  0.00     0.074 A 
ATOM     59  C   UNL A   1      46.108  25.099  29.384  1.00  0.00     0.031 C 
ATOM     60  C   UNL A   1      46.524  27.327  30.394  1.00  0.00     0.031 A 
BRANCH  47  61
ATOM     61  C   UNL A   1      43.839  32.742  31.711  1.00  0.00    -0.014 A 
ATOM     62  C   UNL A   1      44.447  33.769  30.966  1.00  0.00     0.010 A 
ATOM     63  C   UNL A   1      43.351  33.023  32.998  1.00  0.00     0.010 A 
ATOM     64  C   UNL A   1      44.612  35.041  31.519  1.00  0.00     0.020 A 
ATOM     65  C   UNL A   1      43.493  34.301  33.547  1.00  0.00     0.020 A 
ATOM     66  C   UNL A   1      44.143  35.296  32.812  1.00  0.00     0.054 A 
BRANCH  66  67
ATOM     67  S   UNL A   1      44.377  36.953  33.512  1.00  0.00     0.124 S 
ATOM     68  O   UNL A   1      43.023  37.288  33.947  1.00  0.00    -0.237 OA
ATOM     69  O   UNL A   1      45.340  36.717  34.584  1.00  0.00    -0.237 OA
ATOM     70  O   UNL A   1      44.881  37.736  32.387  1.00  0.00    -0.744 OA
ENDBRANCH  66  67
ENDBRANCH  47  61
BRANCH  48  71
ATOM     71  C   UNL A   1      42.482  23.673  27.748  1.00  0.00    -0.014 A 
ATOM     72  C   UNL A   1      42.807  23.413  26.405  1.00  0.00     0.010 A 
ATOM     73  C   UNL A   1      42.004  22.624  28.554  1.00  0.00     0.010 A 
ATOM     74  C   UNL A   1      42.666  22.126  25.880  1.00  0.00     0.020 A 
ATOM     75  C   UNL A   1      41.878  21.332  28.035  1.00  0.00     0.020 A 
ATOM     76  C   UNL A   1      42.208  21.092  26.700  1.00  0.00     0.054 A 
BRANCH  76  77
ATOM     77  S   UNL A   1      42.116  19.412  26.019  1.00  0.00     0.124 S 
ATOM     78  O   UNL A   1      42.614  18.606  27.129  1.00  0.00    -0.237 OA
ATOM     79  O   UNL A   1      40.692  19.270  25.721  1.00  0.00    -0.237 OA
ATOM     80  O   UNL A   1      42.985  19.471  24.845  1.00  0.00    -0.744 OA
ENDBRANCH  76  77
ENDBRANCH  48  71
BRANCH  60  81
ATOM     81  C   UNL A   1      47.939  26.895  30.664  1.00  0.00    -0.014 A 
ATOM     82  C   UNL A   1      48.981  27.266  29.797  1.00  0.00     0.010 A 
ATOM     83  C   UNL A   1      48.237  26.179  31.837  1.00  0.00     0.010 A 
ATOM     84  C   UNL A   1      50.301  26.915  30.093  1.00  0.00     0.020 A 
ATOM     85  C   UNL A   1      49.557  25.842  32.145  1.00  0.00     0.020 A 
ATOM     86  C   UNL A   1      50.580  26.206  31.267  1.00  0.00     0.054 A 
BRANCH  86  87
ATOM     87  S   UNL A   1      52.307  25.818  31.662  1.00  0.00     0.124 S 
ATOM     88  O   UNL A   1      52.609  26.797  32.702  1.00  0.00    -0.237 OA
ATOM     89  O   UNL A   1      52.231  24.429  32.110  1.00  0.00    -0.237 OA
ATOM     90  O   UNL A   1      53.006  26.017  30.395  1.00  0.00    -0.744 OA
ENDBRANCH  86  87
ENDBRANCH  60  81
ENDBRANCH  34  35
ENDBRANCH  26  29
ENDBRANCH  24  25
ENDBRANCH   1  24
TORSDOF 15
ENDMDL
