MODEL 1
REMARK VINA RESULT:     -11.3      0.000      0.000
REMARK SMILES Cc1cc(=O)n2nc(C[N@@H+](C)CC(=O)NCCCCNC(=O)c3ccc(-c4c5nc(c(-c6ccc(S(=O)(=O)[O-])cc6)c6ccc([nH]6)c(-c6ccc(S(=O)(=O)[O-])cc6)c6nc(c(-c7ccc(S(=O)(=O)[O-])cc7)c7ccc4[nH]7)C=C6)C=C5)cc3)sc2n1
REMARK SMILES IDX 17 1 16 2 15 3 13 4 14 5 12 7 10 8 11 9 9 11 8 12 1 13 2 14
REMARK SMILES IDX 3 15 85 16 4 17 84 18 5 19 6 20 83 21 7 22 18 23 19 24 20 25
REMARK SMILES IDX 21 26 22 28 23 29 24 30 82 31 25 32 81 33 26 34 27 35 28 36
REMARK SMILES IDX 75 37 29 38 80 39 74 40 76 41 30 42 79 43 73 44 72 45 31 47
REMARK SMILES IDX 61 48 42 49 60 50 43 51 46 52 59 53 77 54 44 55 45 56 58 58
REMARK SMILES IDX 78 59 47 60 32 61 33 62 41 63 34 64 40 65 35 66 36 67 37 68
REMARK SMILES IDX 38 69 39 70 62 71 63 72 71 73 64 74 70 75 65 76 66 77 67 78
REMARK SMILES IDX 68 79 69 80 48 81 49 82 57 83 50 84 56 85 51 86 52 87 53 88
REMARK SMILES IDX 54 89 55 90
REMARK H PARENT 15 6 10 10 20 27 76 46 46 57
REMARK Flexibility Score: inf
ROOT
ATOM      1  C   UNL A   1      39.130  21.435  25.724  1.00  0.00     0.023 C 
ENDROOT
BRANCH   1   2
ATOM      2  C   UNL A   1      37.761  21.591  25.054  1.00  0.00     0.116 C 
BRANCH   2   3
ATOM      3  N   UNL A   1      36.728  21.856  26.028  1.00  0.00    -0.351 N 
ATOM      4  C   UNL A   1      35.413  21.498  26.019  1.00  0.00     0.275 C 
ATOM      5  O   UNL A   1      34.688  21.972  26.895  1.00  0.00    -0.269 OA
ATOM      6  H   UNL A   1      37.015  22.374  26.814  1.00  0.00     0.163 HD
BRANCH   4   7
ATOM      7  C   UNL A   1      34.851  20.537  24.967  1.00  0.00     0.363 C 
BRANCH   7   8
ATOM      8  N   UNL A   1      33.385  20.388  24.950  1.00  0.00    -0.324 N 
ATOM      9  C   UNL A   1      32.858  19.094  25.315  1.00  0.00     0.333 C 
ATOM     10  H   UNL A   1      33.144  20.961  25.759  1.00  0.00     0.348 HD
BRANCH   8  11
ATOM     11  C   UNL A   1      32.674  21.053  23.853  1.00  0.00     0.333 C 
BRANCH  11  12
ATOM     12  C   UNL A   1      32.327  22.463  24.264  1.00  0.00     0.172 A 
ATOM     13  C   UNL A   1      31.336  28.328  24.867  1.00  0.00     0.067 C 
ATOM     14  C   UNL A   1      31.329  26.840  25.062  1.00  0.00     0.046 A 
ATOM     15  C   UNL A   1      30.478  26.260  25.924  1.00  0.00     0.097 A 
ATOM     16  N   UNL A   1      32.223  26.143  24.281  1.00  0.00    -0.224 NA
ATOM     17  C   UNL A   1      30.486  24.787  26.086  1.00  0.00     0.275 A 
ATOM     18  C   UNL A   1      32.171  24.858  24.390  1.00  0.00     0.215 A 
ATOM     19  O   UNL A   1      29.776  24.275  26.945  1.00  0.00    -0.267 OA
ATOM     20  N   UNL A   1      31.351  24.149  25.224  1.00  0.00    -0.167 N 
ATOM     21  S   UNL A   1      33.176  23.786  23.481  1.00  0.00    -0.073 S 
ATOM     22  N   UNL A   1      31.446  22.777  25.162  1.00  0.00    -0.150 NA
ENDBRANCH  11  12
ENDBRANCH   8  11
ENDBRANCH   7   8
ENDBRANCH   4   7
ENDBRANCH   2   3
ENDBRANCH   1   2
BRANCH   1  23
ATOM     23  C   UNL A   1      39.523  22.519  26.731  1.00  0.00     0.023 C 
BRANCH  23  24
ATOM     24  C   UNL A   1      40.921  22.373  27.311  1.00  0.00     0.116 C 
BRANCH  24  25
ATOM     25  N   UNL A   1      41.947  22.178  26.288  1.00  0.00    -0.352 N 
ATOM     26  C   UNL A   1      42.613  23.158  25.576  1.00  0.00     0.251 C 
ATOM     27  H   UNL A   1      42.192  21.246  26.083  1.00  0.00     0.163 HD
ATOM     28  O   UNL A   1      43.171  22.905  24.513  1.00  0.00    -0.269 OA
BRANCH  26  29
ATOM     29  C   UNL A   1      42.635  24.516  26.136  1.00  0.00     0.039 A 
ATOM     30  C   UNL A   1      41.751  25.505  25.698  1.00  0.00     0.014 A 
ATOM     31  C   UNL A   1      43.499  24.742  27.205  1.00  0.00     0.014 A 
ATOM     32  C   UNL A   1      41.672  26.697  26.414  1.00  0.00     0.010 A 
ATOM     33  C   UNL A   1      43.317  25.855  27.988  1.00  0.00     0.010 A 
ATOM     34  C   UNL A   1      42.436  26.857  27.580  1.00  0.00    -0.014 A 
BRANCH  34  35
ATOM     35  C   UNL A   1      42.228  28.006  28.464  1.00  0.00     0.031 A 
ATOM     36  C   UNL A   1      43.302  29.045  28.424  1.00  0.00     0.074 A 
ATOM     37  C   UNL A   1      41.042  28.249  29.064  1.00  0.00     0.049 A 
ATOM     38  N   UNL A   1      44.066  29.444  29.388  1.00  0.00    -0.248 NA
ATOM     39  C   UNL A   1      43.637  29.642  27.118  1.00  0.00     0.031 C 
ATOM     40  C   UNL A   1      39.792  27.487  28.927  1.00  0.00     0.029 A 
ATOM     41  N   UNL A   1      40.655  29.317  29.812  1.00  0.00    -0.354 N 
ATOM     42  C   UNL A   1      44.842  30.477  28.865  1.00  0.00     0.074 A 
ATOM     43  C   UNL A   1      44.656  30.442  27.436  1.00  0.00     0.031 C 
ATOM     44  C   UNL A   1      38.751  28.243  29.334  1.00  0.00     0.029 A 
ATOM     45  C   UNL A   1      39.275  29.451  29.941  1.00  0.00     0.049 A 
ATOM     46  H   UNL A   1      41.293  29.940  30.227  1.00  0.00     0.167 HD
ATOM     47  C   UNL A   1      45.400  31.439  29.653  1.00  0.00     0.031 A 
ATOM     48  C   UNL A   1      38.603  30.492  30.488  1.00  0.00     0.031 A 
ATOM     49  C   UNL A   1      45.352  31.087  31.045  1.00  0.00     0.049 A 
ATOM     50  C   UNL A   1      39.563  31.213  31.352  1.00  0.00     0.074 A 
ATOM     51  C   UNL A   1      45.917  30.104  31.829  1.00  0.00     0.029 A 
ATOM     52  N   UNL A   1      44.289  31.595  31.752  1.00  0.00    -0.354 N 
ATOM     53  N   UNL A   1      40.106  30.691  32.415  1.00  0.00    -0.248 NA
ATOM     54  C   UNL A   1      40.228  32.394  30.826  1.00  0.00     0.031 C 
ATOM     55  C   UNL A   1      44.919  29.779  32.794  1.00  0.00     0.029 A 
ATOM     56  C   UNL A   1      43.819  30.618  32.593  1.00  0.00     0.049 A 
ATOM     57  H   UNL A   1      43.926  32.506  31.670  1.00  0.00     0.167 HD
ATOM     58  C   UNL A   1      41.395  31.199  32.437  1.00  0.00     0.074 A 
ATOM     59  C   UNL A   1      41.362  32.342  31.531  1.00  0.00     0.031 C 
ATOM     60  C   UNL A   1      42.425  30.476  32.971  1.00  0.00     0.031 A 
BRANCH  47  61
ATOM     61  C   UNL A   1      45.625  32.864  29.202  1.00  0.00    -0.014 A 
ATOM     62  C   UNL A   1      44.521  33.721  29.016  1.00  0.00     0.010 A 
ATOM     63  C   UNL A   1      46.867  33.307  28.704  1.00  0.00     0.010 A 
ATOM     64  C   UNL A   1      44.656  34.950  28.350  1.00  0.00     0.020 A 
ATOM     65  C   UNL A   1      47.022  34.546  28.077  1.00  0.00     0.020 A 
ATOM     66  C   UNL A   1      45.909  35.352  27.884  1.00  0.00     0.054 A 
BRANCH  66  67
ATOM     67  S   UNL A   1      46.066  36.909  26.972  1.00  0.00     0.124 S 
ATOM     68  O   UNL A   1      44.672  37.311  26.815  1.00  0.00    -0.237 OA
ATOM     69  O   UNL A   1      46.862  37.724  27.886  1.00  0.00    -0.237 OA
ATOM     70  O   UNL A   1      46.749  36.518  25.740  1.00  0.00    -0.744 OA
ENDBRANCH  66  67
ENDBRANCH  47  61
BRANCH  48  71
ATOM     71  C   UNL A   1      37.290  31.063  30.102  1.00  0.00    -0.014 A 
ATOM     72  C   UNL A   1      36.433  31.608  31.076  1.00  0.00     0.010 A 
ATOM     73  C   UNL A   1      37.015  31.351  28.749  1.00  0.00     0.010 A 
ATOM     74  C   UNL A   1      35.392  32.479  30.717  1.00  0.00     0.020 A 
ATOM     75  C   UNL A   1      35.974  32.215  28.383  1.00  0.00     0.020 A 
ATOM     76  C   UNL A   1      35.188  32.800  29.373  1.00  0.00     0.054 A 
BRANCH  76  77
ATOM     77  S   UNL A   1      33.978  34.087  28.942  1.00  0.00     0.124 S 
ATOM     78  O   UNL A   1      33.109  33.393  27.996  1.00  0.00    -0.237 OA
ATOM     79  O   UNL A   1      33.380  34.399  30.237  1.00  0.00    -0.237 OA
ATOM     80  O   UNL A   1      34.797  35.151  28.367  1.00  0.00    -0.744 OA
ENDBRANCH  76  77
ENDBRANCH  48  71
BRANCH  60  81
ATOM     81  C   UNL A   1      42.080  29.303  33.861  1.00  0.00    -0.014 A 
ATOM     82  C   UNL A   1      41.812  28.001  33.390  1.00  0.00     0.010 A 
ATOM     83  C   UNL A   1      42.163  29.506  35.249  1.00  0.00     0.010 A 
ATOM     84  C   UNL A   1      41.611  26.940  34.290  1.00  0.00     0.020 A 
ATOM     85  C   UNL A   1      41.984  28.453  36.148  1.00  0.00     0.020 A 
ATOM     86  C   UNL A   1      41.701  27.175  35.666  1.00  0.00     0.054 A 
BRANCH  86  87
ATOM     87  S   UNL A   1      41.487  25.795  36.826  1.00  0.00     0.124 S 
ATOM     88  O   UNL A   1      42.752  25.791  37.555  1.00  0.00    -0.237 OA
ATOM     89  O   UNL A   1      40.316  26.200  37.600  1.00  0.00    -0.237 OA
ATOM     90  O   UNL A   1      41.273  24.638  35.956  1.00  0.00    -0.744 OA
ENDBRANCH  86  87
ENDBRANCH  60  81
ENDBRANCH  34  35
ENDBRANCH  26  29
ENDBRANCH  24  25
ENDBRANCH  23  24
ENDBRANCH   1  23
TORSDOF 17
ENDMDL
MODEL 2
REMARK VINA RESULT:     -11.3      1.555      2.933
REMARK SMILES Cc1cc(=O)n2nc(C[N@@H+](C)CC(=O)NCCCCNC(=O)c3ccc(-c4c5nc(c(-c6ccc(S(=O)(=O)[O-])cc6)c6ccc([nH]6)c(-c6ccc(S(=O)(=O)[O-])cc6)c6nc(c(-c7ccc(S(=O)(=O)[O-])cc7)c7ccc4[nH]7)C=C6)C=C5)cc3)sc2n1
REMARK SMILES IDX 17 1 16 2 15 3 13 4 14 5 12 7 10 8 11 9 9 11 8 12 1 13 2 14
REMARK SMILES IDX 3 15 85 16 4 17 84 18 5 19 6 20 83 21 7 22 18 23 19 24 20 25
REMARK SMILES IDX 21 26 22 28 23 29 24 30 82 31 25 32 81 33 26 34 27 35 28 36
REMARK SMILES IDX 75 37 29 38 80 39 74 40 76 41 30 42 79 43 73 44 72 45 31 47
REMARK SMILES IDX 61 48 42 49 60 50 43 51 46 52 59 53 77 54 44 55 45 56 58 58
REMARK SMILES IDX 78 59 47 60 32 61 33 62 41 63 34 64 40 65 35 66 36 67 37 68
REMARK SMILES IDX 38 69 39 70 62 71 63 72 71 73 64 74 70 75 65 76 66 77 67 78
REMARK SMILES IDX 68 79 69 80 48 81 49 82 57 83 50 84 56 85 51 86 52 87 53 88
REMARK SMILES IDX 54 89 55 90
REMARK H PARENT 15 6 10 10 20 27 76 46 46 57
REMARK Flexibility Score: inf
ROOT
ATOM      1  C   UNL A   1      39.010  21.618  25.917  1.00  0.00     0.023 C 
ENDROOT
BRANCH   1   2
ATOM      2  C   UNL A   1      37.533  21.833  25.571  1.00  0.00     0.116 C 
BRANCH   2   3
ATOM      3  N   UNL A   1      37.367  22.185  24.179  1.00  0.00    -0.351 N 
ATOM      4  C   UNL A   1      36.425  22.974  23.590  1.00  0.00     0.275 C 
ATOM      5  O   UNL A   1      36.398  23.005  22.358  1.00  0.00    -0.269 OA
ATOM      6  H   UNL A   1      38.031  21.797  23.566  1.00  0.00     0.163 HD
BRANCH   4   7
ATOM      7  C   UNL A   1      35.436  23.799  24.419  1.00  0.00     0.363 C 
BRANCH   7   8
ATOM      8  N   UNL A   1      34.051  23.835  23.920  1.00  0.00    -0.324 N 
ATOM      9  C   UNL A   1      33.670  24.987  23.136  1.00  0.00     0.333 C 
ATOM     10  H   UNL A   1      34.101  23.097  23.217  1.00  0.00     0.348 HD
BRANCH   8  11
ATOM     11  C   UNL A   1      33.014  23.347  24.835  1.00  0.00     0.333 C 
BRANCH  11  12
ATOM     12  C   UNL A   1      32.975  21.839  24.788  1.00  0.00     0.172 A 
ATOM     13  C   UNL A   1      32.633  15.942  25.714  1.00  0.00     0.067 C 
ATOM     14  C   UNL A   1      32.678  17.298  25.071  1.00  0.00     0.046 A 
ATOM     15  C   UNL A   1      32.372  17.457  23.773  1.00  0.00     0.097 A 
ATOM     16  N   UNL A   1      33.018  18.333  25.911  1.00  0.00    -0.224 NA
ATOM     17  C   UNL A   1      32.414  18.810  23.170  1.00  0.00     0.275 A 
ATOM     18  C   UNL A   1      32.987  19.510  25.383  1.00  0.00     0.215 A 
ATOM     19  O   UNL A   1      32.230  18.934  21.963  1.00  0.00    -0.267 OA
ATOM     20  N   UNL A   1      32.690  19.806  24.081  1.00  0.00    -0.167 N 
ATOM     21  S   UNL A   1      33.344  20.955  26.260  1.00  0.00    -0.073 S 
ATOM     22  N   UNL A   1      32.693  21.138  23.735  1.00  0.00    -0.150 NA
ENDBRANCH  11  12
ENDBRANCH   8  11
ENDBRANCH   7   8
ENDBRANCH   4   7
ENDBRANCH   2   3
ENDBRANCH   1   2
BRANCH   1  23
ATOM     23  C   UNL A   1      39.638  22.626  26.883  1.00  0.00     0.023 C 
BRANCH  23  24
ATOM     24  C   UNL A   1      41.013  22.238  27.403  1.00  0.00     0.116 C 
BRANCH  24  25
ATOM     25  N   UNL A   1      41.995  22.046  26.336  1.00  0.00    -0.352 N 
ATOM     26  C   UNL A   1      42.630  23.027  25.599  1.00  0.00     0.251 C 
ATOM     27  H   UNL A   1      42.231  21.114  26.119  1.00  0.00     0.163 HD
ATOM     28  O   UNL A   1      43.142  22.777  24.513  1.00  0.00    -0.269 OA
BRANCH  26  29
ATOM     29  C   UNL A   1      42.676  24.384  26.161  1.00  0.00     0.039 A 
ATOM     30  C   UNL A   1      41.854  25.405  25.680  1.00  0.00     0.014 A 
ATOM     31  C   UNL A   1      43.493  24.577  27.272  1.00  0.00     0.014 A 
ATOM     32  C   UNL A   1      41.785  26.601  26.393  1.00  0.00     0.010 A 
ATOM     33  C   UNL A   1      43.316  25.698  28.046  1.00  0.00     0.010 A 
ATOM     34  C   UNL A   1      42.495  26.732  27.595  1.00  0.00    -0.014 A 
BRANCH  34  35
ATOM     35  C   UNL A   1      42.287  27.889  28.468  1.00  0.00     0.031 A 
ATOM     36  C   UNL A   1      43.365  28.924  28.425  1.00  0.00     0.074 A 
ATOM     37  C   UNL A   1      41.100  28.141  29.062  1.00  0.00     0.049 A 
ATOM     38  N   UNL A   1      44.127  29.329  29.388  1.00  0.00    -0.248 NA
ATOM     39  C   UNL A   1      43.707  29.509  27.115  1.00  0.00     0.031 C 
ATOM     40  C   UNL A   1      39.848  27.382  28.926  1.00  0.00     0.029 A 
ATOM     41  N   UNL A   1      40.713  29.217  29.800  1.00  0.00    -0.354 N 
ATOM     42  C   UNL A   1      44.907  30.355  28.860  1.00  0.00     0.074 A 
ATOM     43  C   UNL A   1      44.727  30.308  27.431  1.00  0.00     0.031 C 
ATOM     44  C   UNL A   1      38.807  28.145  29.323  1.00  0.00     0.029 A 
ATOM     45  C   UNL A   1      39.333  29.356  29.921  1.00  0.00     0.049 A 
ATOM     46  H   UNL A   1      41.352  29.841  30.212  1.00  0.00     0.167 HD
ATOM     47  C   UNL A   1      45.466  31.322  29.642  1.00  0.00     0.031 A 
ATOM     48  C   UNL A   1      38.663  30.404  30.458  1.00  0.00     0.031 A 
ATOM     49  C   UNL A   1      45.411  30.981  31.037  1.00  0.00     0.049 A 
ATOM     50  C   UNL A   1      39.622  31.129  31.319  1.00  0.00     0.074 A 
ATOM     51  C   UNL A   1      45.969  30.003  31.831  1.00  0.00     0.029 A 
ATOM     52  N   UNL A   1      44.347  31.498  31.735  1.00  0.00    -0.354 N 
ATOM     53  N   UNL A   1      40.159  30.615  32.389  1.00  0.00    -0.248 NA
ATOM     54  C   UNL A   1      40.293  32.303  30.786  1.00  0.00     0.031 C 
ATOM     55  C   UNL A   1      44.966  29.689  32.795  1.00  0.00     0.029 A 
ATOM     56  C   UNL A   1      43.871  30.531  32.582  1.00  0.00     0.049 A 
ATOM     57  H   UNL A   1      43.987  32.410  31.644  1.00  0.00     0.167 HD
ATOM     58  C   UNL A   1      41.449  31.118  32.412  1.00  0.00     0.074 A 
ATOM     59  C   UNL A   1      41.424  32.254  31.496  1.00  0.00     0.031 C 
ATOM     60  C   UNL A   1      42.474  30.396  32.955  1.00  0.00     0.031 A 
BRANCH  47  61
ATOM     61  C   UNL A   1      45.697  32.742  29.180  1.00  0.00    -0.014 A 
ATOM     62  C   UNL A   1      44.599  33.541  28.799  1.00  0.00     0.010 A 
ATOM     63  C   UNL A   1      46.981  33.228  28.861  1.00  0.00     0.010 A 
ATOM     64  C   UNL A   1      44.784  34.755  28.118  1.00  0.00     0.020 A 
ATOM     65  C   UNL A   1      47.179  34.455  28.221  1.00  0.00     0.020 A 
ATOM     66  C   UNL A   1      46.075  35.202  27.833  1.00  0.00     0.054 A 
BRANCH  66  67
ATOM     67  S   UNL A   1      46.305  36.738  26.901  1.00  0.00     0.124 S 
ATOM     68  O   UNL A   1      47.351  37.406  27.670  1.00  0.00    -0.237 OA
ATOM     69  O   UNL A   1      46.702  36.245  25.585  1.00  0.00    -0.237 OA
ATOM     70  O   UNL A   1      44.988  37.370  26.952  1.00  0.00    -0.744 OA
ENDBRANCH  66  67
ENDBRANCH  47  61
BRANCH  48  71
ATOM     71  C   UNL A   1      37.353  30.976  30.061  1.00  0.00    -0.014 A 
ATOM     72  C   UNL A   1      36.470  31.481  31.033  1.00  0.00     0.010 A 
ATOM     73  C   UNL A   1      37.105  31.307  28.712  1.00  0.00     0.010 A 
ATOM     74  C   UNL A   1      35.428  32.354  30.680  1.00  0.00     0.020 A 
ATOM     75  C   UNL A   1      36.064  32.173  28.353  1.00  0.00     0.020 A 
ATOM     76  C   UNL A   1      35.251  32.718  29.344  1.00  0.00     0.054 A 
BRANCH  76  77
ATOM     77  S   UNL A   1      34.039  34.008  28.929  1.00  0.00     0.124 S 
ATOM     78  O   UNL A   1      33.182  33.330  27.959  1.00  0.00    -0.237 OA
ATOM     79  O   UNL A   1      33.426  34.289  30.224  1.00  0.00    -0.237 OA
ATOM     80  O   UNL A   1      34.858  35.088  28.385  1.00  0.00    -0.744 OA
ENDBRANCH  76  77
ENDBRANCH  48  71
BRANCH  60  81
ATOM     81  C   UNL A   1      42.122  29.231  33.854  1.00  0.00    -0.014 A 
ATOM     82  C   UNL A   1      41.872  27.922  33.395  1.00  0.00     0.010 A 
ATOM     83  C   UNL A   1      42.178  29.453  35.241  1.00  0.00     0.010 A 
ATOM     84  C   UNL A   1      41.663  26.871  34.304  1.00  0.00     0.020 A 
ATOM     85  C   UNL A   1      41.990  28.409  36.150  1.00  0.00     0.020 A 
ATOM     86  C   UNL A   1      41.726  27.124  35.679  1.00  0.00     0.054 A 
BRANCH  86  87
ATOM     87  S   UNL A   1      41.501  25.757  36.852  1.00  0.00     0.124 S 
ATOM     88  O   UNL A   1      40.290  26.146  37.569  1.00  0.00    -0.237 OA
ATOM     89  O   UNL A   1      41.366  24.596  35.975  1.00  0.00    -0.237 OA
ATOM     90  O   UNL A   1      42.726  25.778  37.652  1.00  0.00    -0.744 OA
ENDBRANCH  86  87
ENDBRANCH  60  81
ENDBRANCH  34  35
ENDBRANCH  26  29
ENDBRANCH  24  25
ENDBRANCH  23  24
ENDBRANCH   1  23
TORSDOF 17
ENDMDL
MODEL 3
REMARK VINA RESULT:     -11.0      2.011      3.073
REMARK SMILES Cc1cc(=O)n2nc(C[N@@H+](C)CC(=O)NCCCCNC(=O)c3ccc(-c4c5nc(c(-c6ccc(S(=O)(=O)[O-])cc6)c6ccc([nH]6)c(-c6ccc(S(=O)(=O)[O-])cc6)c6nc(c(-c7ccc(S(=O)(=O)[O-])cc7)c7ccc4[nH]7)C=C6)C=C5)cc3)sc2n1
REMARK SMILES IDX 17 1 16 2 15 3 13 4 14 5 12 7 10 8 11 9 9 11 8 12 1 13 2 14
REMARK SMILES IDX 3 15 85 16 4 17 84 18 5 19 6 20 83 21 7 22 18 23 19 24 20 25
REMARK SMILES IDX 21 26 22 28 23 29 24 30 82 31 25 32 81 33 26 34 27 35 28 36
REMARK SMILES IDX 75 37 29 38 80 39 74 40 76 41 30 42 79 43 73 44 72 45 31 47
REMARK SMILES IDX 61 48 42 49 60 50 43 51 46 52 59 53 77 54 44 55 45 56 58 58
REMARK SMILES IDX 78 59 47 60 32 61 33 62 41 63 34 64 40 65 35 66 36 67 37 68
REMARK SMILES IDX 38 69 39 70 62 71 63 72 71 73 64 74 70 75 65 76 66 77 67 78
REMARK SMILES IDX 68 79 69 80 48 81 49 82 57 83 50 84 56 85 51 86 52 87 53 88
REMARK SMILES IDX 54 89 55 90
REMARK H PARENT 15 6 10 10 20 27 76 46 46 57
REMARK Flexibility Score: inf
ROOT
ATOM      1  C   UNL A   1      35.689  23.050  23.675  1.00  0.00     0.023 C 
ENDROOT
BRANCH   1   2
ATOM      2  C   UNL A   1      34.656  22.343  24.559  1.00  0.00     0.116 C 
BRANCH   2   3
ATOM      3  N   UNL A   1      33.323  22.481  24.020  1.00  0.00    -0.351 N 
ATOM      4  C   UNL A   1      32.330  23.346  24.370  1.00  0.00     0.275 C 
ATOM      5  O   UNL A   1      31.219  23.173  23.866  1.00  0.00    -0.269 OA
ATOM      6  H   UNL A   1      33.097  21.857  23.293  1.00  0.00     0.163 HD
BRANCH   4   7
ATOM      7  C   UNL A   1      32.578  24.498  25.349  1.00  0.00     0.363 C 
BRANCH   7   8
ATOM      8  N   UNL A   1      33.363  25.629  24.825  1.00  0.00    -0.324 N 
ATOM      9  C   UNL A   1      33.525  26.769  25.698  1.00  0.00     0.333 C 
ATOM     10  H   UNL A   1      34.294  25.211  24.833  1.00  0.00     0.348 HD
BRANCH   8  11
ATOM     11  C   UNL A   1      33.164  25.962  23.411  1.00  0.00     0.333 C 
BRANCH  11  12
ATOM     12  C   UNL A   1      31.973  26.880  23.276  1.00  0.00     0.172 A 
ATOM     13  C   UNL A   1      27.915  31.089  22.026  1.00  0.00     0.067 C 
ATOM     14  C   UNL A   1      28.588  29.833  22.501  1.00  0.00     0.046 A 
ATOM     15  C   UNL A   1      27.867  28.776  22.909  1.00  0.00     0.097 A 
ATOM     16  N   UNL A   1      29.963  29.853  22.455  1.00  0.00    -0.224 NA
ATOM     17  C   UNL A   1      28.559  27.547  23.362  1.00  0.00     0.275 A 
ATOM     18  C   UNL A   1      30.545  28.752  22.792  1.00  0.00     0.215 A 
ATOM     19  O   UNL A   1      27.898  26.623  23.826  1.00  0.00    -0.267 OA
ATOM     20  N   UNL A   1      29.928  27.608  23.221  1.00  0.00    -0.167 N 
ATOM     21  S   UNL A   1      32.259  28.538  22.775  1.00  0.00    -0.073 S 
ATOM     22  N   UNL A   1      30.745  26.538  23.509  1.00  0.00    -0.150 NA
ENDBRANCH  11  12
ENDBRANCH   8  11
ENDBRANCH   7   8
ENDBRANCH   4   7
ENDBRANCH   2   3
ENDBRANCH   1   2
BRANCH   1  23
ATOM     23  C   UNL A   1      37.157  22.893  24.084  1.00  0.00     0.023 C 
BRANCH  23  24
ATOM     24  C   UNL A   1      37.463  23.283  25.521  1.00  0.00     0.116 C 
BRANCH  24  25
ATOM     25  N   UNL A   1      38.280  22.294  26.221  1.00  0.00    -0.352 N 
ATOM     26  C   UNL A   1      39.507  22.500  26.824  1.00  0.00     0.251 C 
ATOM     27  H   UNL A   1      37.918  21.379  26.269  1.00  0.00     0.163 HD
ATOM     28  O   UNL A   1      40.267  21.567  27.058  1.00  0.00    -0.269 OA
BRANCH  26  29
ATOM     29  C   UNL A   1      39.870  23.879  27.182  1.00  0.00     0.039 A 
ATOM     30  C   UNL A   1      38.950  24.926  27.091  1.00  0.00     0.014 A 
ATOM     31  C   UNL A   1      41.137  24.074  27.725  1.00  0.00     0.014 A 
ATOM     32  C   UNL A   1      39.283  26.159  27.649  1.00  0.00     0.010 A 
ATOM     33  C   UNL A   1      41.404  25.243  28.395  1.00  0.00     0.010 A 
ATOM     34  C   UNL A   1      40.502  26.305  28.329  1.00  0.00    -0.014 A 
BRANCH  34  35
ATOM     35  C   UNL A   1      40.793  27.517  29.098  1.00  0.00     0.031 A 
ATOM     36  C   UNL A   1      41.906  28.360  28.564  1.00  0.00     0.074 A 
ATOM     37  C   UNL A   1      39.957  27.984  30.052  1.00  0.00     0.049 A 
ATOM     38  N   UNL A   1      43.019  28.675  29.142  1.00  0.00    -0.248 NA
ATOM     39  C   UNL A   1      41.812  28.823  27.168  1.00  0.00     0.031 C 
ATOM     40  C   UNL A   1      38.654  27.435  30.454  1.00  0.00     0.029 A 
ATOM     41  N   UNL A   1      40.023  29.140  30.767  1.00  0.00    -0.354 N 
ATOM     42  C   UNL A   1      43.679  29.537  28.267  1.00  0.00     0.074 A 
ATOM     43  C   UNL A   1      42.975  29.458  27.012  1.00  0.00     0.031 C 
ATOM     44  C   UNL A   1      37.950  28.374  31.120  1.00  0.00     0.029 A 
ATOM     45  C   UNL A   1      38.820  29.508  31.364  1.00  0.00     0.049 A 
ATOM     46  H   UNL A   1      40.847  29.669  30.856  1.00  0.00     0.167 HD
ATOM     47  C   UNL A   1      44.614  30.432  28.694  1.00  0.00     0.031 A 
ATOM     48  C   UNL A   1      38.546  30.673  31.998  1.00  0.00     0.031 A 
ATOM     49  C   UNL A   1      45.036  30.166  30.041  1.00  0.00     0.049 A 
ATOM     50  C   UNL A   1      39.846  31.268  32.378  1.00  0.00     0.074 A 
ATOM     51  C   UNL A   1      45.712  29.145  30.674  1.00  0.00     0.029 A 
ATOM     52  N   UNL A   1      44.389  30.879  31.021  1.00  0.00    -0.354 N 
ATOM     53  N   UNL A   1      40.667  30.720  33.227  1.00  0.00    -0.248 NA
ATOM     54  C   UNL A   1      40.423  32.293  31.524  1.00  0.00     0.031 C 
ATOM     55  C   UNL A   1      45.107  29.041  31.962  1.00  0.00     0.029 A 
ATOM     56  C   UNL A   1      44.136  30.040  32.075  1.00  0.00     0.049 A 
ATOM     57  H   UNL A   1      44.149  31.833  30.975  1.00  0.00     0.167 HD
ATOM     58  C   UNL A   1      41.929  31.006  32.733  1.00  0.00     0.074 A 
ATOM     59  C   UNL A   1      41.719  32.091  31.778  1.00  0.00     0.031 C 
ATOM     60  C   UNL A   1      42.975  30.151  32.939  1.00  0.00     0.031 A 
BRANCH  47  61
ATOM     61  C   UNL A   1      44.847  31.774  28.039  1.00  0.00    -0.014 A 
ATOM     62  C   UNL A   1      46.096  32.058  27.449  1.00  0.00     0.010 A 
ATOM     63  C   UNL A   1      43.964  32.859  28.215  1.00  0.00     0.010 A 
ATOM     64  C   UNL A   1      46.445  33.366  27.074  1.00  0.00     0.020 A 
ATOM     65  C   UNL A   1      44.283  34.156  27.807  1.00  0.00     0.020 A 
ATOM     66  C   UNL A   1      45.533  34.406  27.258  1.00  0.00     0.054 A 
BRANCH  66  67
ATOM     67  S   UNL A   1      46.010  36.100  26.828  1.00  0.00     0.124 S 
ATOM     68  O   UNL A   1      44.713  36.745  26.648  1.00  0.00    -0.237 OA
ATOM     69  O   UNL A   1      46.767  36.516  28.005  1.00  0.00    -0.237 OA
ATOM     70  O   UNL A   1      46.802  35.934  25.611  1.00  0.00    -0.744 OA
ENDBRANCH  66  67
ENDBRANCH  47  61
BRANCH  48  71
ATOM     71  C   UNL A   1      37.274  31.434  32.046  1.00  0.00    -0.014 A 
ATOM     72  C   UNL A   1      36.759  31.890  33.273  1.00  0.00     0.010 A 
ATOM     73  C   UNL A   1      36.729  31.975  30.863  1.00  0.00     0.010 A 
ATOM     74  C   UNL A   1      35.797  32.911  33.319  1.00  0.00     0.020 A 
ATOM     75  C   UNL A   1      35.765  32.991  30.901  1.00  0.00     0.020 A 
ATOM     76  C   UNL A   1      35.328  33.476  32.131  1.00  0.00     0.054 A 
BRANCH  76  77
ATOM     77  S   UNL A   1      34.245  34.935  32.210  1.00  0.00     0.124 S 
ATOM     78  O   UNL A   1      35.057  35.884  32.967  1.00  0.00    -0.237 OA
ATOM     79  O   UNL A   1      34.050  35.256  30.799  1.00  0.00    -0.237 OA
ATOM     80  O   UNL A   1      33.056  34.445  32.902  1.00  0.00    -0.744 OA
ENDBRANCH  76  77
ENDBRANCH  48  71
BRANCH  60  81
ATOM     81  C   UNL A   1      42.828  29.099  34.016  1.00  0.00    -0.014 A 
ATOM     82  C   UNL A   1      43.292  29.247  35.339  1.00  0.00     0.010 A 
ATOM     83  C   UNL A   1      42.065  27.961  33.700  1.00  0.00     0.010 A 
ATOM     84  C   UNL A   1      43.017  28.270  36.310  1.00  0.00     0.020 A 
ATOM     85  C   UNL A   1      41.772  26.995  34.665  1.00  0.00     0.020 A 
ATOM     86  C   UNL A   1      42.254  27.149  35.964  1.00  0.00     0.054 A 
BRANCH  86  87
ATOM     87  S   UNL A   1      41.860  25.909  37.230  1.00  0.00     0.124 S 
ATOM     88  O   UNL A   1      40.473  26.221  37.562  1.00  0.00    -0.237 OA
ATOM     89  O   UNL A   1      42.069  24.647  36.525  1.00  0.00    -0.237 OA
ATOM     90  O   UNL A   1      42.825  26.179  38.296  1.00  0.00    -0.744 OA
ENDBRANCH  86  87
ENDBRANCH  60  81
ENDBRANCH  34  35
ENDBRANCH  26  29
ENDBRANCH  24  25
ENDBRANCH  23  24
ENDBRANCH   1  23
TORSDOF 17
ENDMDL
