MODEL 1
REMARK VINA RESULT:      -9.4      0.000      0.000
REMARK SMILES C#CCN(CC(=O)NCCCCNC(=O)c1ccc(-c2c3nc(c(-c4ccc(S(=O)(=O)[O-])cc4)c4ccc([nH]4)c(-c4ccc(S(=O)(=O)[O-])cc4)c4nc(c(-c5ccc(S(=O)(=O)[O-])cc5)c5ccc2[nH]5)C=C4)C=C3)cc1)C(=O)CCOc1ccc(C)cc1
REMARK SMILES IDX 9 1 8 2 6 3 7 4 5 6 4 7 3 8 2 9 1 10 76 11 77 12 78 13 79 14
REMARK SMILES IDX 80 15 81 16 82 17 87 18 83 19 86 20 84 21 85 22 10 23 11 24
REMARK SMILES IDX 12 25 13 26 14 27 15 29 16 30 17 31 75 32 18 33 74 34 19 35
REMARK SMILES IDX 20 36 21 37 68 38 22 39 73 40 67 41 69 42 23 43 72 44 66 45
REMARK SMILES IDX 65 46 24 48 54 49 35 50 53 51 36 52 39 53 52 54 70 55 37 56
REMARK SMILES IDX 38 57 51 59 71 60 40 61 25 62 26 63 34 64 27 65 33 66 28 67
REMARK SMILES IDX 29 68 30 69 31 70 32 71 55 72 56 73 64 74 57 75 63 76 58 77
REMARK SMILES IDX 59 78 60 79 61 80 62 81 41 82 42 83 50 84 43 85 49 86 44 87
REMARK SMILES IDX 45 88 46 89 47 90 48 91
REMARK H PARENT 8 5 13 28 69 47 39 58
REMARK Flexibility Score: inf
ROOT
ATOM      1  C   UNL A   1      30.986  27.156  24.888  1.00  0.00     0.116 C 
ENDROOT
BRANCH   1   2
ATOM      2  N   UNL A   1      30.293  26.357  25.865  1.00  0.00    -0.355 N 
ATOM      3  C   UNL A   1      30.562  25.070  26.215  1.00  0.00     0.239 C 
ATOM      4  O   UNL A   1      29.707  24.449  26.849  1.00  0.00    -0.273 OA
ATOM      5  H   UNL A   1      29.541  26.789  26.331  1.00  0.00     0.163 HD
BRANCH   3   6
ATOM      6  C   UNL A   1      31.905  24.431  25.809  1.00  0.00     0.220 C 
BRANCH   6   7
ATOM      7  N   UNL A   1      31.824  23.390  24.771  1.00  0.00    -0.322 N 
BRANCH   7   8
ATOM      8  C   UNL A   1      32.206  21.980  25.125  1.00  0.00     0.209 C 
BRANCH   8   9
ATOM      9  C   UNL A   1      33.213  21.870  26.259  1.00  0.00    -0.085 C 
ATOM     10  C   UNL A   1      34.077  21.775  27.231  1.00  0.00     0.006 C 
ENDBRANCH   8   9
ENDBRANCH   7   8
BRANCH   7  11
ATOM     11  C   UNL A   1      31.348  23.694  23.494  1.00  0.00     0.227 C 
ATOM     12  O   UNL A   1      30.234  23.322  23.116  1.00  0.00    -0.275 OA
BRANCH  11  13
ATOM     13  C   UNL A   1      32.176  24.634  22.595  1.00  0.00     0.141 C 
BRANCH  13  14
ATOM     14  C   UNL A   1      33.704  24.365  22.618  1.00  0.00     0.239 C 
BRANCH  14  15
ATOM     15  O   UNL A   1      34.488  24.917  23.719  1.00  0.00    -0.493 OA
BRANCH  15  16
ATOM     16  C   UNL A   1      35.394  24.119  24.364  1.00  0.00     0.119 A 
ATOM     17  C   UNL A   1      35.980  24.481  25.574  1.00  0.00     0.046 A 
ATOM     18  C   UNL A   1      35.833  22.945  23.823  1.00  0.00     0.046 A 
ATOM     19  C   UNL A   1      37.041  23.712  26.134  1.00  0.00     0.007 A 
ATOM     20  C   UNL A   1      36.977  22.288  24.262  1.00  0.00     0.007 A 
ATOM     21  C   UNL A   1      37.595  22.639  25.434  1.00  0.00    -0.051 A 
ATOM     22  C   UNL A   1      38.736  21.772  25.868  1.00  0.00     0.044 C 
ENDBRANCH  15  16
ENDBRANCH  14  15
ENDBRANCH  13  14
ENDBRANCH  11  13
ENDBRANCH   7  11
ENDBRANCH   6   7
ENDBRANCH   3   6
ENDBRANCH   1   2
BRANCH   1  23
ATOM     23  C   UNL A   1      31.747  28.288  25.576  1.00  0.00     0.023 C 
BRANCH  23  24
ATOM     24  C   UNL A   1      33.255  28.050  25.687  1.00  0.00     0.023 C 
BRANCH  24  25
ATOM     25  C   UNL A   1      33.832  28.319  27.069  1.00  0.00     0.116 C 
BRANCH  25  26
ATOM     26  N   UNL A   1      33.683  29.707  27.481  1.00  0.00    -0.352 N 
ATOM     27  C   UNL A   1      34.619  30.507  28.098  1.00  0.00     0.251 C 
ATOM     28  H   UNL A   1      32.811  30.123  27.296  1.00  0.00     0.163 HD
ATOM     29  O   UNL A   1      34.337  31.621  28.489  1.00  0.00    -0.269 OA
BRANCH  27  30
ATOM     30  C   UNL A   1      35.965  29.937  28.303  1.00  0.00     0.039 A 
ATOM     31  C   UNL A   1      36.906  30.057  27.281  1.00  0.00     0.014 A 
ATOM     32  C   UNL A   1      36.307  29.394  29.543  1.00  0.00     0.014 A 
ATOM     33  C   UNL A   1      38.223  29.672  27.526  1.00  0.00     0.010 A 
ATOM     34  C   UNL A   1      37.635  29.087  29.808  1.00  0.00     0.010 A 
ATOM     35  C   UNL A   1      38.603  29.215  28.799  1.00  0.00    -0.014 A 
BRANCH  35  36
ATOM     36  C   UNL A   1      40.008  28.845  29.090  1.00  0.00     0.031 A 
ATOM     37  C   UNL A   1      40.923  29.849  29.735  1.00  0.00     0.074 A 
ATOM     38  C   UNL A   1      40.469  27.630  28.733  1.00  0.00     0.049 A 
ATOM     39  N   UNL A   1      42.190  29.735  30.035  1.00  0.00    -0.248 NA
ATOM     40  C   UNL A   1      40.344  31.163  30.062  1.00  0.00     0.031 C 
ATOM     41  C   UNL A   1      39.685  26.587  28.066  1.00  0.00     0.029 A 
ATOM     42  N   UNL A   1      41.710  27.066  28.881  1.00  0.00    -0.354 N 
ATOM     43  C   UNL A   1      42.560  30.960  30.576  1.00  0.00     0.074 A 
ATOM     44  C   UNL A   1      41.404  31.824  30.501  1.00  0.00     0.031 C 
ATOM     45  C   UNL A   1      40.454  25.498  27.898  1.00  0.00     0.029 A 
ATOM     46  C   UNL A   1      41.794  25.779  28.403  1.00  0.00     0.049 A 
ATOM     47  H   UNL A   1      42.470  27.538  29.293  1.00  0.00     0.167 HD
ATOM     48  C   UNL A   1      43.748  31.326  31.112  1.00  0.00     0.031 A 
ATOM     49  C   UNL A   1      42.834  24.924  28.376  1.00  0.00     0.031 A 
ATOM     50  C   UNL A   1      44.892  30.458  31.190  1.00  0.00     0.049 A 
ATOM     51  C   UNL A   1      44.152  25.362  28.955  1.00  0.00     0.074 A 
ATOM     52  C   UNL A   1      46.130  30.716  31.750  1.00  0.00     0.029 A 
ATOM     53  N   UNL A   1      44.937  29.164  30.693  1.00  0.00    -0.354 N 
ATOM     54  N   UNL A   1      44.466  26.506  29.517  1.00  0.00    -0.248 NA
ATOM     55  C   UNL A   1      45.253  24.391  28.908  1.00  0.00     0.031 C 
ATOM     56  C   UNL A   1      46.941  29.596  31.545  1.00  0.00     0.029 A 
ATOM     57  C   UNL A   1      46.188  28.617  30.915  1.00  0.00     0.049 A 
ATOM     58  H   UNL A   1      44.189  28.704  30.248  1.00  0.00     0.167 HD
ATOM     59  C   UNL A   1      45.790  26.378  29.921  1.00  0.00     0.074 A 
ATOM     60  C   UNL A   1      46.213  25.042  29.551  1.00  0.00     0.031 C 
ATOM     61  C   UNL A   1      46.587  27.282  30.543  1.00  0.00     0.031 A 
BRANCH  48  62
ATOM     62  C   UNL A   1      43.862  32.725  31.657  1.00  0.00    -0.014 A 
ATOM     63  C   UNL A   1      43.643  32.991  33.023  1.00  0.00     0.010 A 
ATOM     64  C   UNL A   1      44.221  33.784  30.804  1.00  0.00     0.010 A 
ATOM     65  C   UNL A   1      43.739  34.295  33.514  1.00  0.00     0.020 A 
ATOM     66  C   UNL A   1      44.349  35.085  31.299  1.00  0.00     0.020 A 
ATOM     67  C   UNL A   1      44.090  35.334  32.648  1.00  0.00     0.054 A 
BRANCH  67  68
ATOM     68  S   UNL A   1      44.230  37.012  33.322  1.00  0.00     0.124 S 
ATOM     69  O   UNL A   1      44.559  37.788  32.128  1.00  0.00    -0.237 OA
ATOM     70  O   UNL A   1      42.900  37.247  33.877  1.00  0.00    -0.237 OA
ATOM     71  O   UNL A   1      45.304  36.902  34.306  1.00  0.00    -0.744 OA
ENDBRANCH  67  68
ENDBRANCH  48  62
BRANCH  49  72
ATOM     72  C   UNL A   1      42.669  23.561  27.797  1.00  0.00    -0.014 A 
ATOM     73  C   UNL A   1      43.136  23.274  26.502  1.00  0.00     0.010 A 
ATOM     74  C   UNL A   1      42.040  22.543  28.536  1.00  0.00     0.010 A 
ATOM     75  C   UNL A   1      42.952  22.005  25.946  1.00  0.00     0.020 A 
ATOM     76  C   UNL A   1      41.882  21.263  27.996  1.00  0.00     0.020 A 
ATOM     77  C   UNL A   1      42.326  21.006  26.698  1.00  0.00     0.054 A 
BRANCH  77  78
ATOM     78  S   UNL A   1      42.130  19.356  25.969  1.00  0.00     0.124 S 
ATOM     79  O   UNL A   1      42.687  18.497  27.010  1.00  0.00    -0.237 OA
ATOM     80  O   UNL A   1      40.684  19.266  25.781  1.00  0.00    -0.237 OA
ATOM     81  O   UNL A   1      42.907  19.432  24.736  1.00  0.00    -0.744 OA
ENDBRANCH  77  78
ENDBRANCH  49  72
BRANCH  61  82
ATOM     82  C   UNL A   1      47.982  26.847  30.904  1.00  0.00    -0.014 A 
ATOM     83  C   UNL A   1      49.059  27.031  30.020  1.00  0.00     0.010 A 
ATOM     84  C   UNL A   1      48.225  26.296  32.176  1.00  0.00     0.010 A 
ATOM     85  C   UNL A   1      50.349  26.643  30.389  1.00  0.00     0.020 A 
ATOM     86  C   UNL A   1      49.518  25.936  32.561  1.00  0.00     0.020 A 
ATOM     87  C   UNL A   1      50.571  26.099  31.659  1.00  0.00     0.054 A 
BRANCH  87  88
ATOM     88  S   UNL A   1      52.263  25.648  32.131  1.00  0.00     0.124 S 
ATOM     89  O   UNL A   1      52.492  26.503  33.292  1.00  0.00    -0.237 OA
ATOM     90  O   UNL A   1      52.145  24.220  32.416  1.00  0.00    -0.237 OA
ATOM     91  O   UNL A   1      53.053  25.979  30.947  1.00  0.00    -0.744 OA
ENDBRANCH  87  88
ENDBRANCH  61  82
ENDBRANCH  35  36
ENDBRANCH  27  30
ENDBRANCH  25  26
ENDBRANCH  24  25
ENDBRANCH  23  24
ENDBRANCH   1  23
TORSDOF 22
ENDMDL
MODEL 2
REMARK VINA RESULT:      -9.1      1.315      3.139
REMARK SMILES C#CCN(CC(=O)NCCCCNC(=O)c1ccc(-c2c3nc(c(-c4ccc(S(=O)(=O)[O-])cc4)c4ccc([nH]4)c(-c4ccc(S(=O)(=O)[O-])cc4)c4nc(c(-c5ccc(S(=O)(=O)[O-])cc5)c5ccc2[nH]5)C=C4)C=C3)cc1)C(=O)CCOc1ccc(C)cc1
REMARK SMILES IDX 9 1 8 2 6 3 7 4 5 6 4 7 3 8 2 9 1 10 76 11 77 12 78 13 79 14
REMARK SMILES IDX 80 15 81 16 82 17 87 18 83 19 86 20 84 21 85 22 10 23 11 24
REMARK SMILES IDX 12 25 13 26 14 27 15 29 16 30 17 31 75 32 18 33 74 34 19 35
REMARK SMILES IDX 20 36 21 37 68 38 22 39 73 40 67 41 69 42 23 43 72 44 66 45
REMARK SMILES IDX 65 46 24 48 54 49 35 50 53 51 36 52 39 53 52 54 70 55 37 56
REMARK SMILES IDX 38 57 51 59 71 60 40 61 25 62 26 63 34 64 27 65 33 66 28 67
REMARK SMILES IDX 29 68 30 69 31 70 32 71 55 72 56 73 64 74 57 75 63 76 58 77
REMARK SMILES IDX 59 78 60 79 61 80 62 81 41 82 42 83 50 84 43 85 49 86 44 87
REMARK SMILES IDX 45 88 46 89 47 90 48 91
REMARK H PARENT 8 5 13 28 69 47 39 58
REMARK Flexibility Score: inf
ROOT
ATOM      1  C   UNL A   1      30.763  26.119  25.999  1.00  0.00     0.116 C 
ENDROOT
BRANCH   1   2
ATOM      2  N   UNL A   1      30.900  24.978  26.866  1.00  0.00    -0.355 N 
ATOM      3  C   UNL A   1      31.799  23.962  26.752  1.00  0.00     0.239 C 
ATOM      4  O   UNL A   1      31.598  22.934  27.399  1.00  0.00    -0.273 OA
ATOM      5  H   UNL A   1      30.276  24.926  27.625  1.00  0.00     0.163 HD
BRANCH   3   6
ATOM      6  C   UNL A   1      33.020  24.122  25.825  1.00  0.00     0.220 C 
BRANCH   6   7
ATOM      7  N   UNL A   1      33.130  23.129  24.743  1.00  0.00    -0.322 N 
BRANCH   7   8
ATOM      8  C   UNL A   1      33.501  21.714  25.089  1.00  0.00     0.209 C 
BRANCH   8   9
ATOM      9  C   UNL A   1      34.991  21.487  25.280  1.00  0.00    -0.085 C 
ATOM     10  C   UNL A   1      36.270  21.291  25.444  1.00  0.00     0.006 C 
ENDBRANCH   8   9
ENDBRANCH   7   8
BRANCH   7  11
ATOM     11  C   UNL A   1      32.840  23.482  23.423  1.00  0.00     0.227 C 
ATOM     12  O   UNL A   1      32.251  22.708  22.664  1.00  0.00    -0.275 OA
BRANCH  11  13
ATOM     13  C   UNL A   1      33.138  24.920  22.954  1.00  0.00     0.141 C 
BRANCH  13  14
ATOM     14  C   UNL A   1      31.910  25.680  22.389  1.00  0.00     0.239 C 
BRANCH  14  15
ATOM     15  O   UNL A   1      31.989  27.133  22.270  1.00  0.00    -0.493 OA
BRANCH  15  16
ATOM     16  C   UNL A   1      30.926  27.898  22.670  1.00  0.00     0.119 A 
ATOM     17  C   UNL A   1      29.662  27.359  22.896  1.00  0.00     0.046 A 
ATOM     18  C   UNL A   1      31.023  29.253  22.805  1.00  0.00     0.046 A 
ATOM     19  C   UNL A   1      28.540  28.201  23.146  1.00  0.00     0.007 A 
ATOM     20  C   UNL A   1      29.915  30.090  22.871  1.00  0.00     0.007 A 
ATOM     21  C   UNL A   1      28.654  29.589  23.063  1.00  0.00    -0.051 A 
ATOM     22  C   UNL A   1      27.561  30.597  23.252  1.00  0.00     0.044 C 
ENDBRANCH  15  16
ENDBRANCH  14  15
ENDBRANCH  13  14
ENDBRANCH  11  13
ENDBRANCH   7  11
ENDBRANCH   6   7
ENDBRANCH   3   6
ENDBRANCH   1   2
BRANCH   1  23
ATOM     23  C   UNL A   1      31.299  27.373  26.688  1.00  0.00     0.023 C 
BRANCH  23  24
ATOM     24  C   UNL A   1      32.594  27.916  26.077  1.00  0.00     0.023 C 
BRANCH  24  25
ATOM     25  C   UNL A   1      33.617  28.392  27.096  1.00  0.00     0.116 C 
BRANCH  25  26
ATOM     26  N   UNL A   1      33.443  29.792  27.457  1.00  0.00    -0.352 N 
ATOM     27  C   UNL A   1      34.359  30.627  28.057  1.00  0.00     0.251 C 
ATOM     28  H   UNL A   1      32.568  30.189  27.246  1.00  0.00     0.163 HD
ATOM     29  O   UNL A   1      34.057  31.749  28.403  1.00  0.00    -0.269 OA
BRANCH  27  30
ATOM     30  C   UNL A   1      35.710  30.083  28.299  1.00  0.00     0.039 A 
ATOM     31  C   UNL A   1      36.655  30.153  27.277  1.00  0.00     0.014 A 
ATOM     32  C   UNL A   1      36.052  29.615  29.571  1.00  0.00     0.014 A 
ATOM     33  C   UNL A   1      37.974  29.797  27.548  1.00  0.00     0.010 A 
ATOM     34  C   UNL A   1      37.381  29.338  29.858  1.00  0.00     0.010 A 
ATOM     35  C   UNL A   1      38.353  29.418  28.847  1.00  0.00    -0.014 A 
BRANCH  35  36
ATOM     36  C   UNL A   1      39.760  29.079  29.165  1.00  0.00     0.031 A 
ATOM     37  C   UNL A   1      40.640  30.102  29.827  1.00  0.00     0.074 A 
ATOM     38  C   UNL A   1      40.255  27.875  28.816  1.00  0.00     0.049 A 
ATOM     39  N   UNL A   1      41.904  30.017  30.151  1.00  0.00    -0.248 NA
ATOM     40  C   UNL A   1      40.025  31.403  30.144  1.00  0.00     0.031 C 
ATOM     41  C   UNL A   1      39.508  26.815  28.134  1.00  0.00     0.029 A 
ATOM     42  N   UNL A   1      41.505  27.339  28.988  1.00  0.00    -0.354 N 
ATOM     43  C   UNL A   1      42.235  31.250  30.699  1.00  0.00     0.074 A 
ATOM     44  C   UNL A   1      41.061  32.088  30.603  1.00  0.00     0.031 C 
ATOM     45  C   UNL A   1      40.305  25.744  27.980  1.00  0.00     0.029 A 
ATOM     46  C   UNL A   1      41.628  26.055  28.511  1.00  0.00     0.049 A 
ATOM     47  H   UNL A   1      42.247  27.827  29.414  1.00  0.00     0.167 HD
ATOM     48  C   UNL A   1      43.404  31.642  31.258  1.00  0.00     0.031 A 
ATOM     49  C   UNL A   1      42.688  25.223  28.503  1.00  0.00     0.031 A 
ATOM     50  C   UNL A   1      44.565  30.801  31.357  1.00  0.00     0.049 A 
ATOM     51  C   UNL A   1      43.984  25.691  29.108  1.00  0.00     0.074 A 
ATOM     52  C   UNL A   1      45.787  31.085  31.941  1.00  0.00     0.029 A 
ATOM     53  N   UNL A   1      44.649  29.508  30.861  1.00  0.00    -0.354 N 
ATOM     54  N   UNL A   1      44.261  26.841  29.676  1.00  0.00    -0.248 NA
ATOM     55  C   UNL A   1      45.107  24.745  29.081  1.00  0.00     0.031 C 
ATOM     56  C   UNL A   1      46.627  29.985  31.751  1.00  0.00     0.029 A 
ATOM     57  C   UNL A   1      45.908  28.989  31.106  1.00  0.00     0.049 A 
ATOM     58  H   UNL A   1      43.921  29.031  30.402  1.00  0.00     0.167 HD
ATOM     59  C   UNL A   1      45.580  26.742  30.104  1.00  0.00     0.074 A 
ATOM     60  C   UNL A   1      46.039  25.417  29.742  1.00  0.00     0.031 C 
ATOM     61  C   UNL A   1      46.344  27.664  30.742  1.00  0.00     0.031 A 
BRANCH  48  62
ATOM     62  C   UNL A   1      43.476  33.043  31.806  1.00  0.00    -0.014 A 
ATOM     63  C   UNL A   1      43.812  34.129  30.975  1.00  0.00     0.010 A 
ATOM     64  C   UNL A   1      43.174  33.285  33.158  1.00  0.00     0.010 A 
ATOM     65  C   UNL A   1      43.889  35.423  31.497  1.00  0.00     0.020 A 
ATOM     66  C   UNL A   1      43.218  34.583  33.676  1.00  0.00     0.020 A 
ATOM     67  C   UNL A   1      43.592  35.641  32.845  1.00  0.00     0.054 A 
BRANCH  67  68
ATOM     68  S   UNL A   1      43.676  37.335  33.486  1.00  0.00     0.124 S 
ATOM     69  O   UNL A   1      44.875  37.281  34.319  1.00  0.00    -0.237 OA
ATOM     70  O   UNL A   1      43.793  38.133  32.269  1.00  0.00    -0.237 OA
ATOM     71  O   UNL A   1      42.420  37.493  34.215  1.00  0.00    -0.744 OA
ENDBRANCH  67  68
ENDBRANCH  48  62
BRANCH  49  72
ATOM     72  C   UNL A   1      42.564  23.857  27.921  1.00  0.00    -0.014 A 
ATOM     73  C   UNL A   1      42.662  23.662  26.532  1.00  0.00     0.010 A 
ATOM     74  C   UNL A   1      42.344  22.744  28.752  1.00  0.00     0.010 A 
ATOM     75  C   UNL A   1      42.514  22.386  25.982  1.00  0.00     0.020 A 
ATOM     76  C   UNL A   1      42.226  21.461  28.209  1.00  0.00     0.020 A 
ATOM     77  C   UNL A   1      42.297  21.292  26.825  1.00  0.00     0.054 A 
BRANCH  77  78
ATOM     78  S   UNL A   1      42.143  19.639  26.093  1.00  0.00     0.124 S 
ATOM     79  O   UNL A   1      43.072  19.717  24.969  1.00  0.00    -0.237 OA
ATOM     80  O   UNL A   1      42.552  18.769  27.193  1.00  0.00    -0.237 OA
ATOM     81  O   UNL A   1      40.730  19.555  25.733  1.00  0.00    -0.744 OA
ENDBRANCH  77  78
ENDBRANCH  49  72
BRANCH  61  82
ATOM     82  C   UNL A   1      47.742  27.260  31.129  1.00  0.00    -0.014 A 
ATOM     83  C   UNL A   1      48.844  27.557  30.309  1.00  0.00     0.010 A 
ATOM     84  C   UNL A   1      47.958  26.623  32.365  1.00  0.00     0.010 A 
ATOM     85  C   UNL A   1      50.134  27.195  30.704  1.00  0.00     0.020 A 
ATOM     86  C   UNL A   1      49.249  26.288  32.778  1.00  0.00     0.020 A 
ATOM     87  C   UNL A   1      50.329  26.564  31.937  1.00  0.00     0.054 A 
BRANCH  87  88
ATOM     88  S   UNL A   1      52.019  26.147  32.446  1.00  0.00     0.124 S 
ATOM     89  O   UNL A   1      51.783  25.205  33.536  1.00  0.00    -0.237 OA
ATOM     90  O   UNL A   1      52.587  25.572  31.230  1.00  0.00    -0.237 OA
ATOM     91  O   UNL A   1      52.587  27.433  32.846  1.00  0.00    -0.744 OA
ENDBRANCH  87  88
ENDBRANCH  61  82
ENDBRANCH  35  36
ENDBRANCH  27  30
ENDBRANCH  25  26
ENDBRANCH  24  25
ENDBRANCH  23  24
ENDBRANCH   1  23
TORSDOF 22
ENDMDL
MODEL 3
REMARK VINA RESULT:      -8.8      2.969      4.458
REMARK SMILES C#CCN(CC(=O)NCCCCNC(=O)c1ccc(-c2c3nc(c(-c4ccc(S(=O)(=O)[O-])cc4)c4ccc([nH]4)c(-c4ccc(S(=O)(=O)[O-])cc4)c4nc(c(-c5ccc(S(=O)(=O)[O-])cc5)c5ccc2[nH]5)C=C4)C=C3)cc1)C(=O)CCOc1ccc(C)cc1
REMARK SMILES IDX 9 1 8 2 6 3 7 4 5 6 4 7 3 8 2 9 1 10 76 11 77 12 78 13 79 14
REMARK SMILES IDX 80 15 81 16 82 17 87 18 83 19 86 20 84 21 85 22 10 23 11 24
REMARK SMILES IDX 12 25 13 26 14 27 15 29 16 30 17 31 75 32 18 33 74 34 19 35
REMARK SMILES IDX 20 36 21 37 68 38 22 39 73 40 67 41 69 42 23 43 72 44 66 45
REMARK SMILES IDX 65 46 24 48 54 49 35 50 53 51 36 52 39 53 52 54 70 55 37 56
REMARK SMILES IDX 38 57 51 59 71 60 40 61 25 62 26 63 34 64 27 65 33 66 28 67
REMARK SMILES IDX 29 68 30 69 31 70 32 71 55 72 56 73 64 74 57 75 63 76 58 77
REMARK SMILES IDX 59 78 60 79 61 80 62 81 41 82 42 83 50 84 43 85 49 86 44 87
REMARK SMILES IDX 45 88 46 89 47 90 48 91
REMARK H PARENT 8 5 13 28 69 47 39 58
REMARK Flexibility Score: inf
ROOT
ATOM      1  C   UNL A   1      31.010  26.670  26.077  1.00  0.00     0.116 C 
ENDROOT
BRANCH   1   2
ATOM      2  N   UNL A   1      31.166  25.479  26.870  1.00  0.00    -0.355 N 
ATOM      3  C   UNL A   1      32.020  24.444  26.641  1.00  0.00     0.239 C 
ATOM      4  O   UNL A   1      31.828  23.388  27.245  1.00  0.00    -0.273 OA
ATOM      5  H   UNL A   1      30.591  25.403  27.666  1.00  0.00     0.163 HD
BRANCH   3   6
ATOM      6  C   UNL A   1      33.182  24.618  25.643  1.00  0.00     0.220 C 
BRANCH   6   7
ATOM      7  N   UNL A   1      33.245  23.620  24.563  1.00  0.00    -0.322 N 
BRANCH   7   8
ATOM      8  C   UNL A   1      34.331  22.581  24.595  1.00  0.00     0.209 C 
BRANCH   8   9
ATOM      9  C   UNL A   1      33.831  21.159  24.789  1.00  0.00    -0.085 C 
ATOM     10  C   UNL A   1      33.401  19.938  24.955  1.00  0.00     0.006 C 
ENDBRANCH   8   9
ENDBRANCH   7   8
BRANCH   7  11
ATOM     11  C   UNL A   1      32.280  23.603  23.553  1.00  0.00     0.227 C 
ATOM     12  O   UNL A   1      31.406  22.732  23.511  1.00  0.00    -0.275 OA
BRANCH  11  13
ATOM     13  C   UNL A   1      32.223  24.779  22.557  1.00  0.00     0.141 C 
BRANCH  13  14
ATOM     14  C   UNL A   1      31.024  25.741  22.765  1.00  0.00     0.239 C 
BRANCH  14  15
ATOM     15  O   UNL A   1      31.070  27.053  22.127  1.00  0.00    -0.493 OA
BRANCH  15  16
ATOM     16  C   UNL A   1      30.265  28.056  22.597  1.00  0.00     0.119 A 
ATOM     17  C   UNL A   1      28.982  27.818  23.082  1.00  0.00     0.046 A 
ATOM     18  C   UNL A   1      30.646  29.366  22.554  1.00  0.00     0.046 A 
ATOM     19  C   UNL A   1      28.108  28.896  23.406  1.00  0.00     0.007 A 
ATOM     20  C   UNL A   1      29.753  30.421  22.695  1.00  0.00     0.007 A 
ATOM     21  C   UNL A   1      28.474  30.217  23.142  1.00  0.00    -0.051 A 
ATOM     22  C   UNL A   1      27.650  31.445  23.382  1.00  0.00     0.044 C 
ENDBRANCH  15  16
ENDBRANCH  14  15
ENDBRANCH  13  14
ENDBRANCH  11  13
ENDBRANCH   7  11
ENDBRANCH   6   7
ENDBRANCH   3   6
ENDBRANCH   1   2
BRANCH   1  23
ATOM     23  C   UNL A   1      31.883  27.793  26.633  1.00  0.00     0.023 C 
BRANCH  23  24
ATOM     24  C   UNL A   1      32.780  28.462  25.589  1.00  0.00     0.023 C 
BRANCH  24  25
ATOM     25  C   UNL A   1      33.976  29.200  26.170  1.00  0.00     0.116 C 
BRANCH  25  26
ATOM     26  N   UNL A   1      33.633  30.522  26.674  1.00  0.00    -0.352 N 
ATOM     27  C   UNL A   1      34.299  31.259  27.627  1.00  0.00     0.251 C 
ATOM     28  H   UNL A   1      32.829  30.938  26.288  1.00  0.00     0.163 HD
ATOM     29  O   UNL A   1      33.851  32.308  28.039  1.00  0.00    -0.269 OA
BRANCH  27  30
ATOM     30  C   UNL A   1      35.559  30.699  28.155  1.00  0.00     0.039 A 
ATOM     31  C   UNL A   1      36.763  31.303  27.797  1.00  0.00     0.014 A 
ATOM     32  C   UNL A   1      35.519  29.655  29.082  1.00  0.00     0.014 A 
ATOM     33  C   UNL A   1      37.939  30.888  28.419  1.00  0.00     0.010 A 
ATOM     34  C   UNL A   1      36.679  29.300  29.756  1.00  0.00     0.010 A 
ATOM     35  C   UNL A   1      37.901  29.907  29.425  1.00  0.00    -0.014 A 
BRANCH  35  36
ATOM     36  C   UNL A   1      39.135  29.485  30.128  1.00  0.00     0.031 A 
ATOM     37  C   UNL A   1      39.558  30.201  31.381  1.00  0.00     0.074 A 
ATOM     38  C   UNL A   1      39.894  28.497  29.616  1.00  0.00     0.049 A 
ATOM     39  N   UNL A   1      40.620  30.012  32.120  1.00  0.00    -0.248 NA
ATOM     40  C   UNL A   1      38.686  31.292  31.851  1.00  0.00     0.031 C 
ATOM     41  C   UNL A   1      39.606  27.754  28.386  1.00  0.00     0.029 A 
ATOM     42  N   UNL A   1      41.065  27.943  30.068  1.00  0.00    -0.354 N 
ATOM     43  C   UNL A   1      40.548  30.961  33.132  1.00  0.00     0.074 A 
ATOM     44  C   UNL A   1      39.376  31.768  32.876  1.00  0.00     0.031 C 
ATOM     45  C   UNL A   1      40.554  26.820  28.203  1.00  0.00     0.029 A 
ATOM     46  C   UNL A   1      41.538  26.924  29.275  1.00  0.00     0.049 A 
ATOM     47  H   UNL A   1      41.524  28.247  30.885  1.00  0.00     0.167 HD
ATOM     48  C   UNL A   1      41.368  31.129  34.196  1.00  0.00     0.031 A 
ATOM     49  C   UNL A   1      42.641  26.161  29.400  1.00  0.00     0.031 A 
ATOM     50  C   UNL A   1      42.528  30.318  34.448  1.00  0.00     0.049 A 
ATOM     51  C   UNL A   1      43.551  26.383  30.577  1.00  0.00     0.074 A 
ATOM     52  C   UNL A   1      43.403  30.378  35.517  1.00  0.00     0.029 A 
ATOM     53  N   UNL A   1      42.973  29.298  33.620  1.00  0.00    -0.354 N 
ATOM     54  N   UNL A   1      43.434  27.248  31.558  1.00  0.00    -0.248 NA
ATOM     55  C   UNL A   1      44.736  25.521  30.672  1.00  0.00     0.031 C 
ATOM     56  C   UNL A   1      44.408  29.429  35.310  1.00  0.00     0.029 A 
ATOM     57  C   UNL A   1      44.123  28.734  34.144  1.00  0.00     0.049 A 
ATOM     58  H   UNL A   1      42.536  29.017  32.785  1.00  0.00     0.167 HD
ATOM     59  C   UNL A   1      44.511  27.008  32.404  1.00  0.00     0.074 A 
ATOM     60  C   UNL A   1      45.260  25.911  31.826  1.00  0.00     0.031 C 
ATOM     61  C   UNL A   1      44.852  27.638  33.556  1.00  0.00     0.031 A 
BRANCH  48  62
ATOM     62  C   UNL A   1      41.031  32.233  35.163  1.00  0.00    -0.014 A 
ATOM     63  C   UNL A   1      40.169  32.003  36.253  1.00  0.00     0.010 A 
ATOM     64  C   UNL A   1      41.606  33.506  35.003  1.00  0.00     0.010 A 
ATOM     65  C   UNL A   1      39.854  33.038  37.136  1.00  0.00     0.020 A 
ATOM     66  C   UNL A   1      41.318  34.536  35.904  1.00  0.00     0.020 A 
ATOM     67  C   UNL A   1      40.429  34.299  36.956  1.00  0.00     0.054 A 
BRANCH  67  68
ATOM     68  S   UNL A   1      40.020  35.615  38.134  1.00  0.00     0.124 S 
ATOM     69  O   UNL A   1      41.272  35.755  38.874  1.00  0.00    -0.237 OA
ATOM     70  O   UNL A   1      39.679  36.733  37.259  1.00  0.00    -0.237 OA
ATOM     71  O   UNL A   1      38.905  35.062  38.898  1.00  0.00    -0.744 OA
ENDBRANCH  67  68
ENDBRANCH  48  62
BRANCH  49  72
ATOM     72  C   UNL A   1      42.937  25.102  28.394  1.00  0.00    -0.014 A 
ATOM     73  C   UNL A   1      43.701  25.397  27.251  1.00  0.00     0.010 A 
ATOM     74  C   UNL A   1      42.453  23.793  28.571  1.00  0.00     0.010 A 
ATOM     75  C   UNL A   1      43.952  24.413  26.291  1.00  0.00     0.020 A 
ATOM     76  C   UNL A   1      42.728  22.798  27.629  1.00  0.00     0.020 A 
ATOM     77  C   UNL A   1      43.464  23.118  26.487  1.00  0.00     0.054 A 
BRANCH  77  78
ATOM     78  S   UNL A   1      43.831  21.847  25.244  1.00  0.00     0.124 S 
ATOM     79  O   UNL A   1      43.701  22.595  23.998  1.00  0.00    -0.237 OA
ATOM     80  O   UNL A   1      45.189  21.443  25.601  1.00  0.00    -0.237 OA
ATOM     81  O   UNL A   1      42.806  20.835  25.478  1.00  0.00    -0.744 OA
ENDBRANCH  77  78
ENDBRANCH  49  72
BRANCH  61  82
ATOM     82  C   UNL A   1      46.062  27.130  34.293  1.00  0.00    -0.014 A 
ATOM     83  C   UNL A   1      47.344  27.648  34.042  1.00  0.00     0.010 A 
ATOM     84  C   UNL A   1      45.899  26.157  35.297  1.00  0.00     0.010 A 
ATOM     85  C   UNL A   1      48.447  27.179  34.760  1.00  0.00     0.020 A 
ATOM     86  C   UNL A   1      46.994  25.708  36.038  1.00  0.00     0.020 A 
ATOM     87  C   UNL A   1      48.265  26.212  35.755  1.00  0.00     0.054 A 
BRANCH  87  88
ATOM     88  S   UNL A   1      49.706  25.655  36.704  1.00  0.00     0.124 S 
ATOM     89  O   UNL A   1      49.373  26.104  38.052  1.00  0.00    -0.237 OA
ATOM     90  O   UNL A   1      49.684  24.209  36.499  1.00  0.00    -0.237 OA
ATOM     91  O   UNL A   1      50.826  26.351  36.074  1.00  0.00    -0.744 OA
ENDBRANCH  87  88
ENDBRANCH  61  82
ENDBRANCH  35  36
ENDBRANCH  27  30
ENDBRANCH  25  26
ENDBRANCH  24  25
ENDBRANCH  23  24
ENDBRANCH   1  23
TORSDOF 22
ENDMDL
