MODEL 1
REMARK VINA RESULT:     -11.0      0.000      0.000
REMARK SMILES CCS(=O)(=O)/N=c1/[nH]c(C)c(C(=O)NCCCCNC(=O)c2ccc(-c3c4nc(c(-c5ccc(S(=O)(=O)[O-])cc5)c5ccc([nH]5)c(-c5ccc(S(=O)(=O)[O-])cc5)c5nc(c(-c6ccc(S(=O)(=O)[O-])cc6)c6ccc3[nH]6)C=C5)C=C4)cc2)s1
REMARK SMILES IDX 17 1 16 2 15 3 14 4 12 5 13 6 11 8 6 9 7 10 8 11 82 12 9 13
REMARK SMILES IDX 10 15 3 16 4 17 5 18 2 19 1 20 18 21 19 22 20 23 21 25 22 26
REMARK SMILES IDX 23 27 81 28 24 29 80 30 25 31 26 32 27 33 74 34 28 35 79 36
REMARK SMILES IDX 73 37 75 38 29 39 78 40 72 41 71 42 30 44 60 45 41 46 59 47
REMARK SMILES IDX 42 48 45 49 58 50 76 51 43 52 44 53 57 55 77 56 46 57 31 58
REMARK SMILES IDX 32 59 40 60 33 61 39 62 34 63 35 64 36 65 37 66 38 67 61 68
REMARK SMILES IDX 62 69 70 70 63 71 69 72 64 73 65 74 66 75 67 76 68 77 47 78
REMARK SMILES IDX 48 79 56 80 49 81 55 82 50 83 51 84 52 85 53 86 54 87
REMARK H PARENT 14 7 8 14 19 24 75 43 45 54
REMARK Flexibility Score: inf
ROOT
ATOM      1  C   UNL A   1      31.922  28.079  27.600  1.00  0.00     0.023 C 
ENDROOT
BRANCH   1   2
ATOM      2  C   UNL A   1      31.378  27.206  26.480  1.00  0.00     0.023 C 
BRANCH   2   3
ATOM      3  C   UNL A   1      32.293  26.120  25.937  1.00  0.00     0.116 C 
BRANCH   3   4
ATOM      4  N   UNL A   1      31.797  25.335  24.837  1.00  0.00    -0.351 N 
ATOM      5  C   UNL A   1      31.530  25.708  23.547  1.00  0.00     0.263 C 
ATOM      6  O   UNL A   1      31.244  24.806  22.757  1.00  0.00    -0.268 OA
ATOM      7  H   UNL A   1      31.625  24.388  25.042  1.00  0.00     0.163 HD
BRANCH   5   8
ATOM      8  C   UNL A   1      31.499  27.149  23.103  1.00  0.00     0.114 A 
ATOM      9  N   UNL A   1      29.890  30.494  22.089  1.00  0.00    -0.135 NA
ATOM     10  C   UNL A   1      30.485  29.411  22.442  1.00  0.00     0.199 A 
ATOM     11  N   UNL A   1      31.847  29.311  22.446  1.00  0.00    -0.333 N 
ATOM     12  S   UNL A   1      29.851  27.839  22.918  1.00  0.00    -0.091 S 
ATOM     13  C   UNL A   1      32.412  28.082  22.741  1.00  0.00     0.037 A 
ATOM     14  H   UNL A   1      32.411  30.092  22.246  1.00  0.00     0.169 HD
ATOM     15  C   UNL A   1      33.892  27.990  22.549  1.00  0.00     0.066 C 
BRANCH   9  16
ATOM     16  S   UNL A   1      28.300  30.680  21.926  1.00  0.00     0.255 S 
ATOM     17  O   UNL A   1      27.677  30.293  23.183  1.00  0.00    -0.205 OA
ATOM     18  O   UNL A   1      27.807  30.113  20.694  1.00  0.00    -0.205 OA
BRANCH  16  19
ATOM     19  C   UNL A   1      28.173  32.461  21.816  1.00  0.00     0.159 C 
ATOM     20  C   UNL A   1      28.939  33.172  22.918  1.00  0.00     0.023 C 
ENDBRANCH  16  19
ENDBRANCH   9  16
ENDBRANCH   5   8
ENDBRANCH   3   4
ENDBRANCH   2   3
ENDBRANCH   1   2
BRANCH   1  21
ATOM     21  C   UNL A   1      33.294  28.704  27.370  1.00  0.00     0.116 C 
BRANCH  21  22
ATOM     22  N   UNL A   1      33.370  30.120  27.709  1.00  0.00    -0.352 N 
ATOM     23  C   UNL A   1      34.434  30.852  28.193  1.00  0.00     0.251 C 
ATOM     24  H   UNL A   1      32.539  30.629  27.571  1.00  0.00     0.163 HD
ATOM     25  O   UNL A   1      34.280  32.032  28.495  1.00  0.00    -0.269 OA
BRANCH  23  26
ATOM     26  C   UNL A   1      35.744  30.196  28.390  1.00  0.00     0.039 A 
ATOM     27  C   UNL A   1      36.660  30.175  27.336  1.00  0.00     0.014 A 
ATOM     28  C   UNL A   1      36.091  29.666  29.634  1.00  0.00     0.014 A 
ATOM     29  C   UNL A   1      37.962  29.721  27.564  1.00  0.00     0.010 A 
ATOM     30  C   UNL A   1      37.413  29.311  29.884  1.00  0.00     0.010 A 
ATOM     31  C   UNL A   1      38.366  29.339  28.855  1.00  0.00    -0.014 A 
BRANCH  31  32
ATOM     32  C   UNL A   1      39.777  28.978  29.152  1.00  0.00     0.031 A 
ATOM     33  C   UNL A   1      40.704  29.993  29.766  1.00  0.00     0.074 A 
ATOM     34  C   UNL A   1      40.246  27.761  28.803  1.00  0.00     0.049 A 
ATOM     35  N   UNL A   1      41.978  29.883  30.045  1.00  0.00    -0.248 NA
ATOM     36  C   UNL A   1      40.134  31.313  30.083  1.00  0.00     0.031 C 
ATOM     37  C   UNL A   1      39.465  26.703  28.155  1.00  0.00     0.029 A 
ATOM     38  N   UNL A   1      41.496  27.208  28.941  1.00  0.00    -0.354 N 
ATOM     39  C   UNL A   1      42.361  31.120  30.551  1.00  0.00     0.074 A 
ATOM     40  C   UNL A   1      41.203  31.983  30.485  1.00  0.00     0.031 C 
ATOM     41  C   UNL A   1      40.242  25.621  27.986  1.00  0.00     0.029 A 
ATOM     42  C   UNL A   1      41.588  25.920  28.467  1.00  0.00     0.049 A 
ATOM     43  H   UNL A   1      42.255  27.690  29.342  1.00  0.00     0.167 HD
ATOM     44  C   UNL A   1      43.561  31.498  31.052  1.00  0.00     0.031 A 
ATOM     45  C   UNL A   1      42.636  25.074  28.416  1.00  0.00     0.031 A 
ATOM     46  C   UNL A   1      44.710  30.636  31.125  1.00  0.00     0.049 A 
ATOM     47  C   UNL A   1      43.965  25.524  28.960  1.00  0.00     0.074 A 
ATOM     48  C   UNL A   1      45.954  30.907  31.668  1.00  0.00     0.029 A 
ATOM     49  N   UNL A   1      44.760  29.338  30.637  1.00  0.00    -0.354 N 
ATOM     50  N   UNL A   1      44.286  26.672  29.508  1.00  0.00    -0.248 NA
ATOM     51  C   UNL A   1      45.072  24.560  28.889  1.00  0.00     0.031 C 
ATOM     52  C   UNL A   1      46.775  29.796  31.451  1.00  0.00     0.029 A 
ATOM     53  C   UNL A   1      46.023  28.807  30.838  1.00  0.00     0.049 A 
ATOM     54  H   UNL A   1      44.009  28.866  30.211  1.00  0.00     0.167 HD
ATOM     55  C   UNL A   1      45.624  26.559  29.870  1.00  0.00     0.074 A 
ATOM     56  C   UNL A   1      46.045  25.224  29.498  1.00  0.00     0.031 C 
ATOM     57  C   UNL A   1      46.430  27.477  30.458  1.00  0.00     0.031 A 
BRANCH  44  58
ATOM     58  C   UNL A   1      43.692  32.913  31.555  1.00  0.00    -0.014 A 
ATOM     59  C   UNL A   1      43.912  33.984  30.669  1.00  0.00     0.010 A 
ATOM     60  C   UNL A   1      43.554  33.182  32.929  1.00  0.00     0.010 A 
ATOM     61  C   UNL A   1      44.037  35.289  31.151  1.00  0.00     0.020 A 
ATOM     62  C   UNL A   1      43.645  34.491  33.412  1.00  0.00     0.020 A 
ATOM     63  C   UNL A   1      43.902  35.534  32.521  1.00  0.00     0.054 A 
BRANCH  63  64
ATOM     64  S   UNL A   1      44.045  37.242  33.114  1.00  0.00     0.124 S 
ATOM     65  O   UNL A   1      44.157  37.986  31.862  1.00  0.00    -0.237 OA
ATOM     66  O   UNL A   1      42.795  37.430  33.845  1.00  0.00    -0.237 OA
ATOM     67  O   UNL A   1      45.251  37.225  33.938  1.00  0.00    -0.744 OA
ENDBRANCH  63  64
ENDBRANCH  44  58
BRANCH  45  68
ATOM     68  C   UNL A   1      42.470  23.710  27.838  1.00  0.00    -0.014 A 
ATOM     69  C   UNL A   1      42.239  22.602  28.673  1.00  0.00     0.010 A 
ATOM     70  C   UNL A   1      42.537  23.513  26.447  1.00  0.00     0.010 A 
ATOM     71  C   UNL A   1      42.098  21.322  28.129  1.00  0.00     0.020 A 
ATOM     72  C   UNL A   1      42.364  22.238  25.897  1.00  0.00     0.020 A 
ATOM     73  C   UNL A   1      42.159  21.148  26.745  1.00  0.00     0.054 A 
BRANCH  73  74
ATOM     74  S   UNL A   1      41.922  19.484  26.060  1.00  0.00     0.124 S 
ATOM     75  O   UNL A   1      40.486  19.461  25.806  1.00  0.00    -0.237 OA
ATOM     76  O   UNL A   1      42.777  19.508  24.875  1.00  0.00    -0.237 OA
ATOM     77  O   UNL A   1      42.384  18.605  27.133  1.00  0.00    -0.744 OA
ENDBRANCH  73  74
ENDBRANCH  45  68
BRANCH  57  78
ATOM     78  C   UNL A   1      47.846  27.064  30.765  1.00  0.00    -0.014 A 
ATOM     79  C   UNL A   1      48.893  27.313  29.860  1.00  0.00     0.010 A 
ATOM     80  C   UNL A   1      48.140  26.470  32.007  1.00  0.00     0.010 A 
ATOM     81  C   UNL A   1      50.204  26.945  30.177  1.00  0.00     0.020 A 
ATOM     82  C   UNL A   1      49.454  26.130  32.341  1.00  0.00     0.020 A 
ATOM     83  C   UNL A   1      50.476  26.357  31.418  1.00  0.00     0.054 A 
BRANCH  83  84
ATOM     84  S   UNL A   1      52.192  25.932  31.823  1.00  0.00     0.124 S 
ATOM     85  O   UNL A   1      52.445  26.772  32.990  1.00  0.00    -0.237 OA
ATOM     86  O   UNL A   1      52.112  24.498  32.085  1.00  0.00    -0.237 OA
ATOM     87  O   UNL A   1      52.933  26.300  30.619  1.00  0.00    -0.744 OA
ENDBRANCH  83  84
ENDBRANCH  57  78
ENDBRANCH  31  32
ENDBRANCH  23  26
ENDBRANCH  21  22
ENDBRANCH   1  21
TORSDOF 16
ENDMDL
MODEL 2
REMARK VINA RESULT:     -10.8      2.578      4.490
REMARK SMILES CCS(=O)(=O)/N=c1/[nH]c(C)c(C(=O)NCCCCNC(=O)c2ccc(-c3c4nc(c(-c5ccc(S(=O)(=O)[O-])cc5)c5ccc([nH]5)c(-c5ccc(S(=O)(=O)[O-])cc5)c5nc(c(-c6ccc(S(=O)(=O)[O-])cc6)c6ccc3[nH]6)C=C5)C=C4)cc2)s1
REMARK SMILES IDX 17 1 16 2 15 3 14 4 12 5 13 6 11 8 6 9 7 10 8 11 82 12 9 13
REMARK SMILES IDX 10 15 3 16 4 17 5 18 2 19 1 20 18 21 19 22 20 23 21 25 22 26
REMARK SMILES IDX 23 27 81 28 24 29 80 30 25 31 26 32 27 33 74 34 28 35 79 36
REMARK SMILES IDX 73 37 75 38 29 39 78 40 72 41 71 42 30 44 60 45 41 46 59 47
REMARK SMILES IDX 42 48 45 49 58 50 76 51 43 52 44 53 57 55 77 56 46 57 31 58
REMARK SMILES IDX 32 59 40 60 33 61 39 62 34 63 35 64 36 65 37 66 38 67 61 68
REMARK SMILES IDX 62 69 70 70 63 71 69 72 64 73 65 74 66 75 67 76 68 77 47 78
REMARK SMILES IDX 48 79 56 80 49 81 55 82 50 83 51 84 52 85 53 86 54 87
REMARK H PARENT 14 7 8 14 19 24 75 43 45 54
REMARK Flexibility Score: inf
ROOT
ATOM      1  C   UNL A   1      33.735  28.215  25.799  1.00  0.00     0.023 C 
ENDROOT
BRANCH   1   2
ATOM      2  C   UNL A   1      32.604  27.761  24.890  1.00  0.00     0.023 C 
BRANCH   2   3
ATOM      3  C   UNL A   1      32.398  26.263  24.730  1.00  0.00     0.116 C 
BRANCH   3   4
ATOM      4  N   UNL A   1      31.635  25.594  25.751  1.00  0.00    -0.351 N 
ATOM      5  C   UNL A   1      31.830  24.366  26.325  1.00  0.00     0.263 C 
ATOM      6  O   UNL A   1      31.108  24.082  27.283  1.00  0.00    -0.268 OA
ATOM      7  H   UNL A   1      30.856  26.093  26.086  1.00  0.00     0.163 HD
BRANCH   5   8
ATOM      8  C   UNL A   1      32.812  23.358  25.784  1.00  0.00     0.114 A 
ATOM      9  N   UNL A   1      34.003  19.936  24.489  1.00  0.00    -0.135 NA
ATOM     10  C   UNL A   1      33.660  21.107  24.890  1.00  0.00     0.199 A 
ATOM     11  N   UNL A   1      34.561  22.129  24.972  1.00  0.00    -0.333 N 
ATOM     12  S   UNL A   1      32.120  21.729  25.476  1.00  0.00    -0.091 S 
ATOM     13  C   UNL A   1      34.139  23.334  25.508  1.00  0.00     0.037 A 
ATOM     14  H   UNL A   1      35.486  22.013  24.656  1.00  0.00     0.169 HD
ATOM     15  C   UNL A   1      35.212  24.348  25.741  1.00  0.00     0.066 C 
BRANCH   9  16
ATOM     16  S   UNL A   1      33.058  18.634  24.476  1.00  0.00     0.255 S 
ATOM     17  O   UNL A   1      32.189  18.730  23.313  1.00  0.00    -0.205 OA
ATOM     18  O   UNL A   1      32.475  18.369  25.769  1.00  0.00    -0.205 OA
BRANCH  16  19
ATOM     19  C   UNL A   1      34.250  17.348  24.122  1.00  0.00     0.159 C 
ATOM     20  C   UNL A   1      33.968  16.063  24.880  1.00  0.00     0.023 C 
ENDBRANCH  16  19
ENDBRANCH   9  16
ENDBRANCH   5   8
ENDBRANCH   3   4
ENDBRANCH   2   3
ENDBRANCH   1   2
BRANCH   1  21
ATOM     21  C   UNL A   1      33.359  28.553  27.237  1.00  0.00     0.116 C 
BRANCH  21  22
ATOM     22  N   UNL A   1      33.432  29.974  27.556  1.00  0.00    -0.352 N 
ATOM     23  C   UNL A   1      34.489  30.711  28.047  1.00  0.00     0.251 C 
ATOM     24  H   UNL A   1      32.605  30.482  27.396  1.00  0.00     0.163 HD
ATOM     25  O   UNL A   1      34.332  31.896  28.329  1.00  0.00    -0.269 OA
BRANCH  23  26
ATOM     26  C   UNL A   1      35.794  30.056  28.276  1.00  0.00     0.039 A 
ATOM     27  C   UNL A   1      36.755  30.080  27.263  1.00  0.00     0.014 A 
ATOM     28  C   UNL A   1      36.092  29.482  29.514  1.00  0.00     0.014 A 
ATOM     29  C   UNL A   1      38.049  29.625  27.530  1.00  0.00     0.010 A 
ATOM     30  C   UNL A   1      37.403  29.126  29.808  1.00  0.00     0.010 A 
ATOM     31  C   UNL A   1      38.400  29.198  28.822  1.00  0.00    -0.014 A 
BRANCH  31  32
ATOM     32  C   UNL A   1      39.800  28.835  29.167  1.00  0.00     0.031 A 
ATOM     33  C   UNL A   1      40.701  29.842  29.829  1.00  0.00     0.074 A 
ATOM     34  C   UNL A   1      40.283  27.623  28.818  1.00  0.00     0.049 A 
ATOM     35  N   UNL A   1      41.964  29.730  30.154  1.00  0.00    -0.248 NA
ATOM     36  C   UNL A   1      40.117  31.156  30.144  1.00  0.00     0.031 C 
ATOM     37  C   UNL A   1      39.529  26.574  28.126  1.00  0.00     0.029 A 
ATOM     38  N   UNL A   1      41.529  27.070  28.995  1.00  0.00    -0.354 N 
ATOM     39  C   UNL A   1      42.326  30.959  30.692  1.00  0.00     0.074 A 
ATOM     40  C   UNL A   1      41.169  31.821  30.595  1.00  0.00     0.031 C 
ATOM     41  C   UNL A   1      40.314  25.496  27.971  1.00  0.00     0.029 A 
ATOM     42  C   UNL A   1      41.640  25.789  28.506  1.00  0.00     0.049 A 
ATOM     43  H   UNL A   1      42.271  27.547  29.431  1.00  0.00     0.167 HD
ATOM     44  C   UNL A   1      43.506  31.332  31.242  1.00  0.00     0.031 A 
ATOM     45  C   UNL A   1      42.691  24.945  28.482  1.00  0.00     0.031 A 
ATOM     46  C   UNL A   1      44.653  30.470  31.346  1.00  0.00     0.049 A 
ATOM     47  C   UNL A   1      43.998  25.389  29.082  1.00  0.00     0.074 A 
ATOM     48  C   UNL A   1      45.875  30.734  31.939  1.00  0.00     0.029 A 
ATOM     49  N   UNL A   1      44.723  29.180  30.842  1.00  0.00    -0.354 N 
ATOM     50  N   UNL A   1      44.296  26.529  29.658  1.00  0.00    -0.248 NA
ATOM     51  C   UNL A   1      45.109  24.428  29.039  1.00  0.00     0.031 C 
ATOM     52  C   UNL A   1      46.706  29.628  31.737  1.00  0.00     0.029 A 
ATOM     53  C   UNL A   1      45.978  28.647  31.082  1.00  0.00     0.049 A 
ATOM     54  H   UNL A   1      43.990  28.712  30.382  1.00  0.00     0.167 HD
ATOM     55  C   UNL A   1      45.620  26.413  30.068  1.00  0.00     0.074 A 
ATOM     56  C   UNL A   1      46.057  25.084  29.693  1.00  0.00     0.031 C 
ATOM     57  C   UNL A   1      46.402  27.323  30.699  1.00  0.00     0.031 A 
BRANCH  44  58
ATOM     58  C   UNL A   1      43.615  32.739  31.771  1.00  0.00    -0.014 A 
ATOM     59  C   UNL A   1      43.965  33.809  30.926  1.00  0.00     0.010 A 
ATOM     60  C   UNL A   1      43.326  33.004  33.122  1.00  0.00     0.010 A 
ATOM     61  C   UNL A   1      44.068  35.107  31.431  1.00  0.00     0.020 A 
ATOM     62  C   UNL A   1      43.395  34.306  33.625  1.00  0.00     0.020 A 
ATOM     63  C   UNL A   1      43.782  35.347  32.778  1.00  0.00     0.054 A 
BRANCH  63  64
ATOM     64  S   UNL A   1      43.900  37.047  33.399  1.00  0.00     0.124 S 
ATOM     65  O   UNL A   1      45.103  36.982  34.226  1.00  0.00    -0.237 OA
ATOM     66  O   UNL A   1      44.025  37.827  32.171  1.00  0.00    -0.237 OA
ATOM     67  O   UNL A   1      42.651  37.238  34.133  1.00  0.00    -0.744 OA
ENDBRANCH  63  64
ENDBRANCH  44  58
BRANCH  45  68
ATOM     68  C   UNL A   1      42.549  23.590  27.879  1.00  0.00    -0.014 A 
ATOM     69  C   UNL A   1      42.991  23.340  26.567  1.00  0.00     0.010 A 
ATOM     70  C   UNL A   1      41.975  22.538  28.616  1.00  0.00     0.010 A 
ATOM     71  C   UNL A   1      42.842  22.071  25.998  1.00  0.00     0.020 A 
ATOM     72  C   UNL A   1      41.854  21.260  28.062  1.00  0.00     0.020 A 
ATOM     73  C   UNL A   1      42.277  21.038  26.751  1.00  0.00     0.054 A 
BRANCH  73  74
ATOM     74  S   UNL A   1      42.142  19.388  26.008  1.00  0.00     0.124 S 
ATOM     75  O   UNL A   1      40.704  19.266  25.797  1.00  0.00    -0.237 OA
ATOM     76  O   UNL A   1      42.951  19.521  24.798  1.00  0.00    -0.237 OA
ATOM     77  O   UNL A   1      42.703  18.506  27.030  1.00  0.00    -0.744 OA
ENDBRANCH  73  74
ENDBRANCH  45  68
BRANCH  57  78
ATOM     78  C   UNL A   1      47.806  26.908  31.053  1.00  0.00    -0.014 A 
ATOM     79  C   UNL A   1      48.107  26.341  32.304  1.00  0.00     0.010 A 
ATOM     80  C   UNL A   1      48.829  27.035  30.095  1.00  0.00     0.010 A 
ATOM     81  C   UNL A   1      49.412  25.939  32.602  1.00  0.00     0.020 A 
ATOM     82  C   UNL A   1      50.128  26.604  30.377  1.00  0.00     0.020 A 
ATOM     83  C   UNL A   1      50.414  26.071  31.635  1.00  0.00     0.054 A 
BRANCH  83  84
ATOM     84  S   UNL A   1      52.089  25.498  32.031  1.00  0.00     0.124 S 
ATOM     85  O   UNL A   1      52.836  25.899  30.842  1.00  0.00    -0.237 OA
ATOM     86  O   UNL A   1      52.400  26.239  33.249  1.00  0.00    -0.237 OA
ATOM     87  O   UNL A   1      51.929  24.056  32.208  1.00  0.00    -0.744 OA
ENDBRANCH  83  84
ENDBRANCH  57  78
ENDBRANCH  31  32
ENDBRANCH  23  26
ENDBRANCH  21  22
ENDBRANCH   1  21
TORSDOF 16
ENDMDL
MODEL 3
REMARK VINA RESULT:     -10.6      2.024      3.615
REMARK SMILES CCS(=O)(=O)/N=c1/[nH]c(C)c(C(=O)NCCCCNC(=O)c2ccc(-c3c4nc(c(-c5ccc(S(=O)(=O)[O-])cc5)c5ccc([nH]5)c(-c5ccc(S(=O)(=O)[O-])cc5)c5nc(c(-c6ccc(S(=O)(=O)[O-])cc6)c6ccc3[nH]6)C=C5)C=C4)cc2)s1
REMARK SMILES IDX 17 1 16 2 15 3 14 4 12 5 13 6 11 8 6 9 7 10 8 11 82 12 9 13
REMARK SMILES IDX 10 15 3 16 4 17 5 18 2 19 1 20 18 21 19 22 20 23 21 25 22 26
REMARK SMILES IDX 23 27 81 28 24 29 80 30 25 31 26 32 27 33 74 34 28 35 79 36
REMARK SMILES IDX 73 37 75 38 29 39 78 40 72 41 71 42 30 44 60 45 41 46 59 47
REMARK SMILES IDX 42 48 45 49 58 50 76 51 43 52 44 53 57 55 77 56 46 57 31 58
REMARK SMILES IDX 32 59 40 60 33 61 39 62 34 63 35 64 36 65 37 66 38 67 61 68
REMARK SMILES IDX 62 69 70 70 63 71 69 72 64 73 65 74 66 75 67 76 68 77 47 78
REMARK SMILES IDX 48 79 56 80 49 81 55 82 50 83 51 84 52 85 53 86 54 87
REMARK H PARENT 14 7 8 14 19 24 75 43 45 54
REMARK Flexibility Score: inf
ROOT
ATOM      1  C   UNL A   1      32.755  28.658  25.579  1.00  0.00     0.023 C 
ENDROOT
BRANCH   1   2
ATOM      2  C   UNL A   1      33.499  28.977  24.292  1.00  0.00     0.023 C 
BRANCH   2   3
ATOM      3  C   UNL A   1      32.734  28.816  22.988  1.00  0.00     0.116 C 
BRANCH   3   4
ATOM      4  N   UNL A   1      33.213  27.820  22.065  1.00  0.00    -0.351 N 
ATOM      5  C   UNL A   1      33.097  26.457  22.113  1.00  0.00     0.263 C 
ATOM      6  O   UNL A   1      33.477  25.834  21.119  1.00  0.00    -0.268 OA
ATOM      7  H   UNL A   1      33.696  28.172  21.283  1.00  0.00     0.163 HD
BRANCH   5   8
ATOM      8  C   UNL A   1      32.610  25.720  23.335  1.00  0.00     0.114 A 
ATOM      9  N   UNL A   1      32.868  23.387  26.383  1.00  0.00    -0.135 NA
ATOM     10  C   UNL A   1      32.726  24.195  25.394  1.00  0.00     0.199 A 
ATOM     11  N   UNL A   1      31.528  24.787  25.120  1.00  0.00    -0.333 N 
ATOM     12  S   UNL A   1      33.856  24.714  24.147  1.00  0.00    -0.091 S 
ATOM     13  C   UNL A   1      31.428  25.566  23.979  1.00  0.00     0.037 A 
ATOM     14  H   UNL A   1      30.755  24.665  25.717  1.00  0.00     0.169 HD
ATOM     15  C   UNL A   1      30.050  26.032  23.634  1.00  0.00     0.066 C 
BRANCH   9  16
ATOM     16  S   UNL A   1      34.194  22.540  26.721  1.00  0.00     0.255 S 
ATOM     17  O   UNL A   1      33.964  21.837  27.973  1.00  0.00    -0.205 OA
ATOM     18  O   UNL A   1      35.396  23.323  26.565  1.00  0.00    -0.205 OA
BRANCH  16  19
ATOM     19  C   UNL A   1      34.153  21.308  25.425  1.00  0.00     0.159 C 
ATOM     20  C   UNL A   1      35.492  21.148  24.726  1.00  0.00     0.023 C 
ENDBRANCH  16  19
ENDBRANCH   9  16
ENDBRANCH   5   8
ENDBRANCH   3   4
ENDBRANCH   2   3
ENDBRANCH   1   2
BRANCH   1  21
ATOM     21  C   UNL A   1      33.559  28.751  26.871  1.00  0.00     0.116 C 
BRANCH  21  22
ATOM     22  N   UNL A   1      33.542  30.071  27.492  1.00  0.00    -0.352 N 
ATOM     23  C   UNL A   1      34.528  30.720  28.203  1.00  0.00     0.251 C 
ATOM     24  H   UNL A   1      32.702  30.572  27.387  1.00  0.00     0.163 HD
ATOM     25  O   UNL A   1      34.297  31.809  28.721  1.00  0.00    -0.269 OA
BRANCH  23  26
ATOM     26  C   UNL A   1      35.848  30.077  28.377  1.00  0.00     0.039 A 
ATOM     27  C   UNL A   1      36.764  30.106  27.323  1.00  0.00     0.014 A 
ATOM     28  C   UNL A   1      36.204  29.510  29.603  1.00  0.00     0.014 A 
ATOM     29  C   UNL A   1      38.073  29.664  27.536  1.00  0.00     0.010 A 
ATOM     30  C   UNL A   1      37.531  29.167  29.841  1.00  0.00     0.010 A 
ATOM     31  C   UNL A   1      38.483  29.245  28.813  1.00  0.00    -0.014 A 
BRANCH  31  32
ATOM     32  C   UNL A   1      39.900  28.894  29.098  1.00  0.00     0.031 A 
ATOM     33  C   UNL A   1      40.825  29.918  29.697  1.00  0.00     0.074 A 
ATOM     34  C   UNL A   1      40.373  27.679  28.750  1.00  0.00     0.049 A 
ATOM     35  N   UNL A   1      42.103  29.819  29.964  1.00  0.00    -0.248 NA
ATOM     36  C   UNL A   1      40.249  31.235  30.015  1.00  0.00     0.031 C 
ATOM     37  C   UNL A   1      39.593  26.613  28.113  1.00  0.00     0.029 A 
ATOM     38  N   UNL A   1      41.629  27.135  28.877  1.00  0.00    -0.354 N 
ATOM     39  C   UNL A   1      42.482  31.060  30.462  1.00  0.00     0.074 A 
ATOM     40  C   UNL A   1      41.318  31.914  30.403  1.00  0.00     0.031 C 
ATOM     41  C   UNL A   1      40.376  25.536  27.942  1.00  0.00     0.029 A 
ATOM     42  C   UNL A   1      41.724  25.846  28.408  1.00  0.00     0.049 A 
ATOM     43  H   UNL A   1      42.388  27.624  29.268  1.00  0.00     0.167 HD
ATOM     44  C   UNL A   1      43.685  31.449  30.948  1.00  0.00     0.031 A 
ATOM     45  C   UNL A   1      42.778  25.007  28.350  1.00  0.00     0.031 A 
ATOM     46  C   UNL A   1      44.841  30.594  31.014  1.00  0.00     0.049 A 
ATOM     47  C   UNL A   1      44.109  25.468  28.879  1.00  0.00     0.074 A 
ATOM     48  C   UNL A   1      46.088  30.876  31.543  1.00  0.00     0.029 A 
ATOM     49  N   UNL A   1      44.895  29.295  30.531  1.00  0.00    -0.354 N 
ATOM     50  N   UNL A   1      44.427  26.621  29.419  1.00  0.00    -0.248 NA
ATOM     51  C   UNL A   1      45.222  24.512  28.802  1.00  0.00     0.031 C 
ATOM     52  C   UNL A   1      46.914  29.770  31.323  1.00  0.00     0.029 A 
ATOM     53  C   UNL A   1      46.163  28.773  30.722  1.00  0.00     0.049 A 
ATOM     54  H   UNL A   1      44.143  28.816  30.115  1.00  0.00     0.167 HD
ATOM     55  C   UNL A   1      45.770  26.519  29.768  1.00  0.00     0.074 A 
ATOM     56  C   UNL A   1      46.197  25.185  29.398  1.00  0.00     0.031 C 
ATOM     57  C   UNL A   1      46.575  27.445  30.344  1.00  0.00     0.031 A 
BRANCH  44  58
ATOM     58  C   UNL A   1      43.811  32.867  31.444  1.00  0.00    -0.014 A 
ATOM     59  C   UNL A   1      44.218  33.905  30.586  1.00  0.00     0.010 A 
ATOM     60  C   UNL A   1      43.480  33.174  32.777  1.00  0.00     0.010 A 
ATOM     61  C   UNL A   1      44.336  35.213  31.062  1.00  0.00     0.020 A 
ATOM     62  C   UNL A   1      43.564  34.487  33.248  1.00  0.00     0.020 A 
ATOM     63  C   UNL A   1      44.008  35.496  32.390  1.00  0.00     0.054 A 
BRANCH  63  64
ATOM     64  S   UNL A   1      44.147  37.208  32.972  1.00  0.00     0.124 S 
ATOM     65  O   UNL A   1      43.955  37.962  31.736  1.00  0.00    -0.237 OA
ATOM     66  O   UNL A   1      43.058  37.304  33.941  1.00  0.00    -0.237 OA
ATOM     67  O   UNL A   1      45.491  37.275  33.540  1.00  0.00    -0.744 OA
ENDBRANCH  63  64
ENDBRANCH  44  58
BRANCH  45  68
ATOM     68  C   UNL A   1      42.615  23.639  27.780  1.00  0.00    -0.014 A 
ATOM     69  C   UNL A   1      42.947  23.379  26.438  1.00  0.00     0.010 A 
ATOM     70  C   UNL A   1      42.132  22.587  28.579  1.00  0.00     0.010 A 
ATOM     71  C   UNL A   1      42.778  22.099  25.901  1.00  0.00     0.020 A 
ATOM     72  C   UNL A   1      41.993  21.298  28.054  1.00  0.00     0.020 A 
ATOM     73  C   UNL A   1      42.306  21.065  26.714  1.00  0.00     0.054 A 
BRANCH  73  74
ATOM     74  S   UNL A   1      42.144  19.401  26.008  1.00  0.00     0.124 S 
ATOM     75  O   UNL A   1      40.702  19.290  25.819  1.00  0.00    -0.237 OA
ATOM     76  O   UNL A   1      42.939  19.501  24.786  1.00  0.00    -0.237 OA
ATOM     77  O   UNL A   1      42.711  18.536  27.041  1.00  0.00    -0.744 OA
ENDBRANCH  73  74
ENDBRANCH  45  68
BRANCH  57  78
ATOM     78  C   UNL A   1      47.997  27.043  30.639  1.00  0.00    -0.014 A 
ATOM     79  C   UNL A   1      49.042  27.343  29.747  1.00  0.00     0.010 A 
ATOM     80  C   UNL A   1      48.298  26.406  31.857  1.00  0.00     0.010 A 
ATOM     81  C   UNL A   1      50.358  26.984  30.053  1.00  0.00     0.020 A 
ATOM     82  C   UNL A   1      49.616  26.075  32.181  1.00  0.00     0.020 A 
ATOM     83  C   UNL A   1      50.636  26.354  31.271  1.00  0.00     0.054 A 
BRANCH  83  84
ATOM     84  S   UNL A   1      52.358  25.941  31.664  1.00  0.00     0.124 S 
ATOM     85  O   UNL A   1      52.236  24.575  32.166  1.00  0.00    -0.237 OA
ATOM     86  O   UNL A   1      53.022  26.078  30.371  1.00  0.00    -0.237 OA
ATOM     87  O   UNL A   1      52.735  26.939  32.661  1.00  0.00    -0.744 OA
ENDBRANCH  83  84
ENDBRANCH  57  78
ENDBRANCH  31  32
ENDBRANCH  23  26
ENDBRANCH  21  22
ENDBRANCH   1  21
TORSDOF 16
ENDMDL
