MODEL 1
REMARK VINA RESULT:     -11.7      0.000      0.000
REMARK SMILES COc1ccc(C(=O)NCCCCNC(=O)c2ccc(-c3c4nc(c(-c5ccc(S(=O)(=O)[O-])cc5)c5ccc([nH]5)c(-c5ccc(S(=O)(=O)[O-])cc5)c5nc(c(-c6ccc(S(=O)(=O)[O-])cc6)c6ccc3[nH]6)C=C5)C=C4)cc2)cc1NC(=O)c1ccccc1[N+](=O)[O-]
REMARK SMILES IDX 11 1 10 2 9 3 7 4 8 5 6 7 3 8 4 9 78 10 5 11 77 12 2 13 1 14
REMARK SMILES IDX 79 15 80 16 81 18 82 19 83 20 87 21 84 22 86 23 85 24 88 25
REMARK SMILES IDX 89 26 90 27 12 28 13 29 14 30 15 31 16 33 17 34 18 35 76 36
REMARK SMILES IDX 19 37 75 38 20 39 21 40 22 41 69 42 23 43 74 44 68 45 70 46
REMARK SMILES IDX 24 47 73 48 67 49 66 50 25 52 55 53 36 54 54 55 37 56 40 57
REMARK SMILES IDX 53 58 71 59 38 60 39 61 52 63 72 64 41 65 26 66 27 67 35 68
REMARK SMILES IDX 28 69 34 70 29 71 30 72 31 73 32 74 33 75 56 76 57 77 65 78
REMARK SMILES IDX 58 79 64 80 59 81 60 82 61 83 62 84 63 85 42 86 43 87 51 88
REMARK SMILES IDX 44 89 50 90 45 91 46 92 47 93 48 94 49 95
REMARK H PARENT 9 6 79 17 14 32 70 51 40 62
REMARK Flexibility Score: inf
ROOT
ATOM      1  C   UNL A   1      32.968  29.577  24.884  1.00  0.00     0.023 C 
ENDROOT
BRANCH   1   2
ATOM      2  C   UNL A   1      33.055  28.829  23.552  1.00  0.00     0.116 C 
BRANCH   2   3
ATOM      3  N   UNL A   1      31.766  28.793  22.894  1.00  0.00    -0.352 N 
ATOM      4  C   UNL A   1      30.766  27.860  22.838  1.00  0.00     0.251 C 
ATOM      5  O   UNL A   1      29.737  28.192  22.245  1.00  0.00    -0.269 OA
ATOM      6  H   UNL A   1      31.568  29.608  22.379  1.00  0.00     0.163 HD
BRANCH   4   7
ATOM      7  C   UNL A   1      30.824  26.496  23.449  1.00  0.00     0.042 A 
ATOM      8  C   UNL A   1      30.705  24.046  24.816  1.00  0.00     0.142 A 
ATOM      9  C   UNL A   1      30.580  25.231  25.528  1.00  0.00     0.049 A 
ATOM     10  C   UNL A   1      30.923  24.064  23.428  1.00  0.00     0.084 A 
ATOM     11  C   UNL A   1      30.669  26.446  24.849  1.00  0.00     0.018 A 
ATOM     12  C   UNL A   1      30.925  25.288  22.743  1.00  0.00     0.044 A 
BRANCH   8  13
ATOM     13  O   UNL A   1      30.541  22.867  25.501  1.00  0.00    -0.495 OA
ATOM     14  C   UNL A   1      30.270  23.089  26.887  1.00  0.00     0.278 C 
ENDBRANCH   8  13
BRANCH  10  15
ATOM     15  N   UNL A   1      31.100  22.820  22.804  1.00  0.00    -0.319 N 
ATOM     16  C   UNL A   1      32.160  21.957  22.711  1.00  0.00     0.262 C 
ATOM     17  H   UNL A   1      30.295  22.501  22.336  1.00  0.00     0.170 HD
ATOM     18  O   UNL A   1      32.059  20.961  21.993  1.00  0.00    -0.269 OA
BRANCH  16  19
ATOM     19  C   UNL A   1      33.416  22.128  23.467  1.00  0.00     0.117 A 
ATOM     20  C   UNL A   1      34.198  23.235  23.101  1.00  0.00     0.021 A 
ATOM     21  C   UNL A   1      33.930  21.239  24.419  1.00  0.00     0.282 A 
ATOM     22  C   UNL A   1      35.433  23.467  23.709  1.00  0.00     0.001 A 
ATOM     23  C   UNL A   1      35.152  21.492  25.066  1.00  0.00     0.086 A 
ATOM     24  C   UNL A   1      35.898  22.614  24.710  1.00  0.00     0.007 A 
BRANCH  21  25
ATOM     25  N   UNL A   1      33.261  19.991  24.733  1.00  0.00     0.063 N 
ATOM     26  O   UNL A   1      32.240  20.063  25.431  1.00  0.00    -0.258 OA
ATOM     27  O   UNL A   1      33.770  18.943  24.317  1.00  0.00    -0.258 OA
ENDBRANCH  21  25
ENDBRANCH  16  19
ENDBRANCH  10  15
ENDBRANCH   4   7
ENDBRANCH   2   3
ENDBRANCH   1   2
BRANCH   1  28
ATOM     28  C   UNL A   1      32.560  28.694  26.073  1.00  0.00     0.023 C 
BRANCH  28  29
ATOM     29  C   UNL A   1      33.405  28.866  27.335  1.00  0.00     0.116 C 
BRANCH  29  30
ATOM     30  N   UNL A   1      33.482  30.244  27.795  1.00  0.00    -0.352 N 
ATOM     31  C   UNL A   1      34.554  30.934  28.309  1.00  0.00     0.251 C 
ATOM     32  H   UNL A   1      32.644  30.757  27.729  1.00  0.00     0.163 HD
ATOM     33  O   UNL A   1      34.417  32.106  28.650  1.00  0.00    -0.269 OA
BRANCH  31  34
ATOM     34  C   UNL A   1      35.843  30.241  28.517  1.00  0.00     0.039 A 
ATOM     35  C   UNL A   1      36.752  30.209  27.455  1.00  0.00     0.014 A 
ATOM     36  C   UNL A   1      36.185  29.693  29.754  1.00  0.00     0.014 A 
ATOM     37  C   UNL A   1      38.042  29.724  27.666  1.00  0.00     0.010 A 
ATOM     38  C   UNL A   1      37.492  29.269  29.981  1.00  0.00     0.010 A 
ATOM     39  C   UNL A   1      38.438  29.306  28.946  1.00  0.00    -0.014 A 
BRANCH  39  40
ATOM     40  C   UNL A   1      39.854  28.966  29.230  1.00  0.00     0.031 A 
ATOM     41  C   UNL A   1      40.777  29.984  29.834  1.00  0.00     0.074 A 
ATOM     42  C   UNL A   1      40.321  27.755  28.866  1.00  0.00     0.049 A 
ATOM     43  N   UNL A   1      42.049  29.874  30.119  1.00  0.00    -0.248 NA
ATOM     44  C   UNL A   1      40.204  31.306  30.133  1.00  0.00     0.031 C 
ATOM     45  C   UNL A   1      39.534  26.708  28.207  1.00  0.00     0.029 A 
ATOM     46  N   UNL A   1      41.570  27.201  28.988  1.00  0.00    -0.354 N 
ATOM     47  C   UNL A   1      42.433  31.113  30.617  1.00  0.00     0.074 A 
ATOM     48  C   UNL A   1      41.270  31.973  30.549  1.00  0.00     0.031 C 
ATOM     49  C   UNL A   1      40.312  25.632  28.005  1.00  0.00     0.029 A 
ATOM     50  C   UNL A   1      41.657  25.922  28.492  1.00  0.00     0.049 A 
ATOM     51  H   UNL A   1      42.332  27.675  29.393  1.00  0.00     0.167 HD
ATOM     52  C   UNL A   1      43.638  31.494  31.104  1.00  0.00     0.031 A 
ATOM     53  C   UNL A   1      42.701  25.073  28.435  1.00  0.00     0.031 A 
ATOM     54  C   UNL A   1      44.789  30.633  31.167  1.00  0.00     0.049 A 
ATOM     55  C   UNL A   1      44.021  25.506  29.012  1.00  0.00     0.074 A 
ATOM     56  C   UNL A   1      46.043  30.905  31.684  1.00  0.00     0.029 A 
ATOM     57  N   UNL A   1      44.825  29.329  30.696  1.00  0.00    -0.354 N 
ATOM     58  N   UNL A   1      44.343  26.657  29.548  1.00  0.00    -0.248 NA
ATOM     59  C   UNL A   1      45.107  24.518  28.994  1.00  0.00     0.031 C 
ATOM     60  C   UNL A   1      46.849  29.777  31.492  1.00  0.00     0.029 A 
ATOM     61  C   UNL A   1      46.082  28.785  30.899  1.00  0.00     0.049 A 
ATOM     62  H   UNL A   1      44.068  28.858  30.279  1.00  0.00     0.167 HD
ATOM     63  C   UNL A   1      45.668  26.529  29.950  1.00  0.00     0.074 A 
ATOM     64  C   UNL A   1      46.078  25.180  29.610  1.00  0.00     0.031 C 
ATOM     65  C   UNL A   1      46.472  27.443  30.547  1.00  0.00     0.031 A 
BRANCH  52  66
ATOM     66  C   UNL A   1      43.762  32.912  31.596  1.00  0.00    -0.014 A 
ATOM     67  C   UNL A   1      43.680  33.210  32.969  1.00  0.00     0.010 A 
ATOM     68  C   UNL A   1      43.959  33.961  30.680  1.00  0.00     0.010 A 
ATOM     69  C   UNL A   1      43.732  34.534  33.412  1.00  0.00     0.020 A 
ATOM     70  C   UNL A   1      44.039  35.285  31.121  1.00  0.00     0.020 A 
ATOM     71  C   UNL A   1      43.900  35.565  32.482  1.00  0.00     0.054 A 
BRANCH  71  72
ATOM     72  S   UNL A   1      43.947  37.277  33.080  1.00  0.00     0.124 S 
ATOM     73  O   UNL A   1      45.226  37.311  33.786  1.00  0.00    -0.237 OA
ATOM     74  O   UNL A   1      43.892  38.053  31.845  1.00  0.00    -0.237 OA
ATOM     75  O   UNL A   1      42.763  37.378  33.930  1.00  0.00    -0.744 OA
ENDBRANCH  71  72
ENDBRANCH  52  66
BRANCH  53  76
ATOM     76  C   UNL A   1      42.524  23.722  27.837  1.00  0.00    -0.014 A 
ATOM     77  C   UNL A   1      42.850  23.489  26.489  1.00  0.00     0.010 A 
ATOM     78  C   UNL A   1      42.064  22.651  28.625  1.00  0.00     0.010 A 
ATOM     79  C   UNL A   1      42.711  22.212  25.937  1.00  0.00     0.020 A 
ATOM     80  C   UNL A   1      41.946  21.368  28.084  1.00  0.00     0.020 A 
ATOM     81  C   UNL A   1      42.263  21.158  26.740  1.00  0.00     0.054 A 
BRANCH  81  82
ATOM     82  S   UNL A   1      42.160  19.494  26.023  1.00  0.00     0.124 S 
ATOM     83  O   UNL A   1      42.717  18.670  27.091  1.00  0.00    -0.237 OA
ATOM     84  O   UNL A   1      40.728  19.339  25.783  1.00  0.00    -0.237 OA
ATOM     85  O   UNL A   1      42.979  19.593  24.816  1.00  0.00    -0.744 OA
ENDBRANCH  81  82
ENDBRANCH  53  76
BRANCH  65  86
ATOM     86  C   UNL A   1      47.869  27.006  30.892  1.00  0.00    -0.014 A 
ATOM     87  C   UNL A   1      48.121  26.204  32.019  1.00  0.00     0.010 A 
ATOM     88  C   UNL A   1      48.937  27.368  30.051  1.00  0.00     0.010 A 
ATOM     89  C   UNL A   1      49.424  25.795  32.315  1.00  0.00     0.020 A 
ATOM     90  C   UNL A   1      50.236  26.942  30.332  1.00  0.00     0.020 A 
ATOM     91  C   UNL A   1      50.474  26.170  31.471  1.00  0.00     0.054 A 
BRANCH  91  92
ATOM     92  S   UNL A   1      52.151  25.596  31.852  1.00  0.00     0.124 S 
ATOM     93  O   UNL A   1      52.852  25.848  30.596  1.00  0.00    -0.237 OA
ATOM     94  O   UNL A   1      52.539  26.451  32.971  1.00  0.00    -0.237 OA
ATOM     95  O   UNL A   1      51.964  24.187  32.190  1.00  0.00    -0.744 OA
ENDBRANCH  91  92
ENDBRANCH  65  86
ENDBRANCH  39  40
ENDBRANCH  31  34
ENDBRANCH  29  30
ENDBRANCH  28  29
ENDBRANCH   1  28
TORSDOF 18
ENDMDL
MODEL 2
REMARK VINA RESULT:     -11.2      4.488     10.253
REMARK SMILES COc1ccc(C(=O)NCCCCNC(=O)c2ccc(-c3c4nc(c(-c5ccc(S(=O)(=O)[O-])cc5)c5ccc([nH]5)c(-c5ccc(S(=O)(=O)[O-])cc5)c5nc(c(-c6ccc(S(=O)(=O)[O-])cc6)c6ccc3[nH]6)C=C5)C=C4)cc2)cc1NC(=O)c1ccccc1[N+](=O)[O-]
REMARK SMILES IDX 11 1 10 2 9 3 7 4 8 5 6 7 3 8 4 9 78 10 5 11 77 12 2 13 1 14
REMARK SMILES IDX 79 15 80 16 81 18 82 19 83 20 87 21 84 22 86 23 85 24 88 25
REMARK SMILES IDX 89 26 90 27 12 28 13 29 14 30 15 31 16 33 17 34 18 35 76 36
REMARK SMILES IDX 19 37 75 38 20 39 21 40 22 41 69 42 23 43 74 44 68 45 70 46
REMARK SMILES IDX 24 47 73 48 67 49 66 50 25 52 55 53 36 54 54 55 37 56 40 57
REMARK SMILES IDX 53 58 71 59 38 60 39 61 52 63 72 64 41 65 26 66 27 67 35 68
REMARK SMILES IDX 28 69 34 70 29 71 30 72 31 73 32 74 33 75 56 76 57 77 65 78
REMARK SMILES IDX 58 79 64 80 59 81 60 82 61 83 62 84 63 85 42 86 43 87 51 88
REMARK SMILES IDX 44 89 50 90 45 91 46 92 47 93 48 94 49 95
REMARK H PARENT 9 6 79 17 14 32 70 51 40 62
REMARK Flexibility Score: inf
ROOT
ATOM      1  C   UNL A   1      39.434  21.820  26.154  1.00  0.00     0.023 C 
ENDROOT
BRANCH   1   2
ATOM      2  C   UNL A   1      38.039  22.426  25.986  1.00  0.00     0.116 C 
BRANCH   2   3
ATOM      3  N   UNL A   1      37.669  22.492  24.589  1.00  0.00    -0.352 N 
ATOM      4  C   UNL A   1      36.558  22.950  23.931  1.00  0.00     0.251 C 
ATOM      5  O   UNL A   1      36.605  22.939  22.699  1.00  0.00    -0.269 OA
ATOM      6  H   UNL A   1      38.358  22.132  23.985  1.00  0.00     0.163 HD
BRANCH   4   7
ATOM      7  C   UNL A   1      35.321  23.469  24.590  1.00  0.00     0.042 A 
ATOM      8  C   UNL A   1      32.971  24.142  25.974  1.00  0.00     0.142 A 
ATOM      9  C   UNL A   1      33.135  22.849  25.495  1.00  0.00     0.049 A 
ATOM     10  C   UNL A   1      33.952  25.120  25.743  1.00  0.00     0.084 A 
ATOM     11  C   UNL A   1      34.290  22.527  24.783  1.00  0.00     0.018 A 
ATOM     12  C   UNL A   1      35.148  24.765  25.101  1.00  0.00     0.044 A 
BRANCH   8  13
ATOM     13  O   UNL A   1      31.857  24.407  26.732  1.00  0.00    -0.495 OA
ATOM     14  C   UNL A   1      30.859  23.394  26.587  1.00  0.00     0.278 C 
ENDBRANCH   8  13
BRANCH  10  15
ATOM     15  N   UNL A   1      33.671  26.413  26.209  1.00  0.00    -0.319 N 
ATOM     16  C   UNL A   1      32.858  27.419  25.758  1.00  0.00     0.262 C 
ATOM     17  H   UNL A   1      34.160  26.646  27.031  1.00  0.00     0.170 HD
ATOM     18  O   UNL A   1      32.890  28.513  26.323  1.00  0.00    -0.269 OA
BRANCH  16  19
ATOM     19  C   UNL A   1      31.898  27.253  24.648  1.00  0.00     0.117 A 
ATOM     20  C   UNL A   1      30.568  27.015  25.028  1.00  0.00     0.021 A 
ATOM     21  C   UNL A   1      32.218  27.207  23.286  1.00  0.00     0.282 A 
ATOM     22  C   UNL A   1      29.582  26.788  24.066  1.00  0.00     0.001 A 
ATOM     23  C   UNL A   1      31.222  27.024  22.311  1.00  0.00     0.086 A 
ATOM     24  C   UNL A   1      29.901  26.821  22.708  1.00  0.00     0.007 A 
BRANCH  21  25
ATOM     25  N   UNL A   1      33.590  27.283  22.823  1.00  0.00     0.063 N 
ATOM     26  O   UNL A   1      34.299  28.172  23.313  1.00  0.00    -0.258 OA
ATOM     27  O   UNL A   1      33.949  26.483  21.951  1.00  0.00    -0.258 OA
ENDBRANCH  21  25
ENDBRANCH  16  19
ENDBRANCH  10  15
ENDBRANCH   4   7
ENDBRANCH   2   3
ENDBRANCH   1   2
BRANCH   1  28
ATOM     28  C   UNL A   1      40.196  22.335  27.384  1.00  0.00     0.023 C 
BRANCH  28  29
ATOM     29  C   UNL A   1      41.505  23.066  27.084  1.00  0.00     0.116 C 
BRANCH  29  30
ATOM     30  N   UNL A   1      41.388  24.040  26.009  1.00  0.00    -0.352 N 
ATOM     31  C   UNL A   1      41.307  25.410  26.078  1.00  0.00     0.251 C 
ATOM     32  H   UNL A   1      41.362  23.662  25.100  1.00  0.00     0.163 HD
ATOM     33  O   UNL A   1      41.207  26.067  25.045  1.00  0.00    -0.269 OA
BRANCH  31  34
ATOM     34  C   UNL A   1      41.267  26.079  27.394  1.00  0.00     0.039 A 
ATOM     35  C   UNL A   1      42.351  26.883  27.758  1.00  0.00     0.014 A 
ATOM     36  C   UNL A   1      40.154  25.978  28.230  1.00  0.00     0.014 A 
ATOM     37  C   UNL A   1      42.273  27.669  28.907  1.00  0.00     0.010 A 
ATOM     38  C   UNL A   1      40.050  26.811  29.342  1.00  0.00     0.010 A 
ATOM     39  C   UNL A   1      41.098  27.682  29.675  1.00  0.00    -0.014 A 
BRANCH  39  40
ATOM     40  C   UNL A   1      40.928  28.648  30.788  1.00  0.00     0.031 A 
ATOM     41  C   UNL A   1      41.760  28.534  32.032  1.00  0.00     0.074 A 
ATOM     42  C   UNL A   1      39.960  29.583  30.698  1.00  0.00     0.049 A 
ATOM     43  N   UNL A   1      41.723  29.267  33.115  1.00  0.00    -0.248 NA
ATOM     44  C   UNL A   1      42.741  27.439  32.076  1.00  0.00     0.031 C 
ATOM     45  C   UNL A   1      39.042  29.745  29.567  1.00  0.00     0.029 A 
ATOM     46  N   UNL A   1      39.580  30.566  31.575  1.00  0.00    -0.354 N 
ATOM     47  C   UNL A   1      42.666  28.717  33.975  1.00  0.00     0.074 A 
ATOM     48  C   UNL A   1      43.221  27.559  33.306  1.00  0.00     0.031 C 
ATOM     49  C   UNL A   1      38.223  30.781  29.808  1.00  0.00     0.029 A 
ATOM     50  C   UNL A   1      38.536  31.337  31.121  1.00  0.00     0.049 A 
ATOM     51  H   UNL A   1      40.014  30.708  32.447  1.00  0.00     0.167 HD
ATOM     52  C   UNL A   1      43.046  29.146  35.202  1.00  0.00     0.031 A 
ATOM     53  C   UNL A   1      37.899  32.376  31.694  1.00  0.00     0.031 A 
ATOM     54  C   UNL A   1      42.488  30.297  35.860  1.00  0.00     0.049 A 
ATOM     55  C   UNL A   1      38.361  32.857  33.041  1.00  0.00     0.074 A 
ATOM     56  C   UNL A   1      42.835  30.846  37.082  1.00  0.00     0.029 A 
ATOM     57  N   UNL A   1      41.463  31.080  35.347  1.00  0.00    -0.354 N 
ATOM     58  N   UNL A   1      39.306  32.368  33.807  1.00  0.00    -0.248 NA
ATOM     59  C   UNL A   1      37.685  34.039  33.591  1.00  0.00     0.031 C 
ATOM     60  C   UNL A   1      41.995  31.938  37.325  1.00  0.00     0.029 A 
ATOM     61  C   UNL A   1      41.156  32.099  36.232  1.00  0.00     0.049 A 
ATOM     62  H   UNL A   1      41.019  30.932  34.482  1.00  0.00     0.167 HD
ATOM     63  C   UNL A   1      39.353  33.195  34.923  1.00  0.00     0.074 A 
ATOM     64  C   UNL A   1      38.353  34.224  34.722  1.00  0.00     0.031 C 
ATOM     65  C   UNL A   1      40.152  33.111  36.016  1.00  0.00     0.031 A 
BRANCH  52  66
ATOM     66  C   UNL A   1      44.114  28.352  35.906  1.00  0.00    -0.014 A 
ATOM     67  C   UNL A   1      43.785  27.218  36.671  1.00  0.00     0.010 A 
ATOM     68  C   UNL A   1      45.462  28.741  35.806  1.00  0.00     0.010 A 
ATOM     69  C   UNL A   1      44.775  26.524  37.372  1.00  0.00     0.020 A 
ATOM     70  C   UNL A   1      46.459  28.034  36.484  1.00  0.00     0.020 A 
ATOM     71  C   UNL A   1      46.106  26.945  37.283  1.00  0.00     0.054 A 
BRANCH  71  72
ATOM     72  S   UNL A   1      47.369  26.038  38.216  1.00  0.00     0.124 S 
ATOM     73  O   UNL A   1      47.562  24.853  37.384  1.00  0.00    -0.237 OA
ATOM     74  O   UNL A   1      48.488  26.975  38.242  1.00  0.00    -0.237 OA
ATOM     75  O   UNL A   1      46.734  25.794  39.510  1.00  0.00    -0.744 OA
ENDBRANCH  71  72
ENDBRANCH  52  66
BRANCH  53  76
ATOM     76  C   UNL A   1      36.781  33.045  30.975  1.00  0.00    -0.014 A 
ATOM     77  C   UNL A   1      37.038  33.871  29.867  1.00  0.00     0.010 A 
ATOM     78  C   UNL A   1      35.449  32.828  31.373  1.00  0.00     0.010 A 
ATOM     79  C   UNL A   1      35.984  34.476  29.174  1.00  0.00     0.020 A 
ATOM     80  C   UNL A   1      34.392  33.411  30.669  1.00  0.00     0.020 A 
ATOM     81  C   UNL A   1      34.667  34.239  29.579  1.00  0.00     0.054 A 
BRANCH  81  82
ATOM     82  S   UNL A   1      33.311  34.973  28.621  1.00  0.00     0.124 S 
ATOM     83  O   UNL A   1      32.434  35.476  29.674  1.00  0.00    -0.237 OA
ATOM     84  O   UNL A   1      33.997  35.989  27.827  1.00  0.00    -0.237 OA
ATOM     85  O   UNL A   1      32.787  33.844  27.854  1.00  0.00    -0.744 OA
ENDBRANCH  81  82
ENDBRANCH  53  76
BRANCH  65  86
ATOM     86  C   UNL A   1      39.992  34.174  37.067  1.00  0.00    -0.014 A 
ATOM     87  C   UNL A   1      40.641  35.416  36.946  1.00  0.00     0.010 A 
ATOM     88  C   UNL A   1      39.145  33.943  38.165  1.00  0.00     0.010 A 
ATOM     89  C   UNL A   1      40.469  36.398  37.925  1.00  0.00     0.020 A 
ATOM     90  C   UNL A   1      38.953  34.931  39.133  1.00  0.00     0.020 A 
ATOM     91  C   UNL A   1      39.627  36.147  39.015  1.00  0.00     0.054 A 
BRANCH  91  92
ATOM     92  S   UNL A   1      39.387  37.451  40.252  1.00  0.00     0.124 S 
ATOM     93  O   UNL A   1      38.490  38.369  39.555  1.00  0.00    -0.237 OA
ATOM     94  O   UNL A   1      38.796  36.726  41.374  1.00  0.00    -0.237 OA
ATOM     95  O   UNL A   1      40.738  37.956  40.488  1.00  0.00    -0.744 OA
ENDBRANCH  91  92
ENDBRANCH  65  86
ENDBRANCH  39  40
ENDBRANCH  31  34
ENDBRANCH  29  30
ENDBRANCH  28  29
ENDBRANCH   1  28
TORSDOF 18
ENDMDL
MODEL 3
REMARK VINA RESULT:     -11.2      4.458     10.308
REMARK SMILES COc1ccc(C(=O)NCCCCNC(=O)c2ccc(-c3c4nc(c(-c5ccc(S(=O)(=O)[O-])cc5)c5ccc([nH]5)c(-c5ccc(S(=O)(=O)[O-])cc5)c5nc(c(-c6ccc(S(=O)(=O)[O-])cc6)c6ccc3[nH]6)C=C5)C=C4)cc2)cc1NC(=O)c1ccccc1[N+](=O)[O-]
REMARK SMILES IDX 11 1 10 2 9 3 7 4 8 5 6 7 3 8 4 9 78 10 5 11 77 12 2 13 1 14
REMARK SMILES IDX 79 15 80 16 81 18 82 19 83 20 87 21 84 22 86 23 85 24 88 25
REMARK SMILES IDX 89 26 90 27 12 28 13 29 14 30 15 31 16 33 17 34 18 35 76 36
REMARK SMILES IDX 19 37 75 38 20 39 21 40 22 41 69 42 23 43 74 44 68 45 70 46
REMARK SMILES IDX 24 47 73 48 67 49 66 50 25 52 55 53 36 54 54 55 37 56 40 57
REMARK SMILES IDX 53 58 71 59 38 60 39 61 52 63 72 64 41 65 26 66 27 67 35 68
REMARK SMILES IDX 28 69 34 70 29 71 30 72 31 73 32 74 33 75 56 76 57 77 65 78
REMARK SMILES IDX 58 79 64 80 59 81 60 82 61 83 62 84 63 85 42 86 43 87 51 88
REMARK SMILES IDX 44 89 50 90 45 91 46 92 47 93 48 94 49 95
REMARK H PARENT 9 6 79 17 14 32 70 51 40 62
REMARK Flexibility Score: inf
ROOT
ATOM      1  C   UNL A   1      38.123  23.044  26.105  1.00  0.00     0.023 C 
ENDROOT
BRANCH   1   2
ATOM      2  C   UNL A   1      37.023  22.122  25.573  1.00  0.00     0.116 C 
BRANCH   2   3
ATOM      3  N   UNL A   1      35.939  22.008  26.524  1.00  0.00    -0.352 N 
ATOM      4  C   UNL A   1      34.670  22.520  26.569  1.00  0.00     0.251 C 
ATOM      5  O   UNL A   1      33.958  22.144  27.503  1.00  0.00    -0.269 OA
ATOM      6  H   UNL A   1      36.160  21.446  27.301  1.00  0.00     0.163 HD
BRANCH   4   7
ATOM      7  C   UNL A   1      34.091  23.474  25.574  1.00  0.00     0.042 A 
ATOM      8  C   UNL A   1      33.212  25.129  23.482  1.00  0.00     0.142 A 
ATOM      9  C   UNL A   1      34.550  24.763  23.547  1.00  0.00     0.049 A 
ATOM     10  C   UNL A   1      32.306  24.706  24.468  1.00  0.00     0.084 A 
ATOM     11  C   UNL A   1      34.988  23.965  24.604  1.00  0.00     0.018 A 
ATOM     12  C   UNL A   1      32.738  23.835  25.479  1.00  0.00     0.044 A 
BRANCH   8  13
ATOM     13  O   UNL A   1      32.800  25.854  22.391  1.00  0.00    -0.495 OA
ATOM     14  C   UNL A   1      32.922  25.109  21.177  1.00  0.00     0.278 C 
ENDBRANCH   8  13
BRANCH  10  15
ATOM     15  N   UNL A   1      30.989  25.177  24.354  1.00  0.00    -0.319 N 
ATOM     16  C   UNL A   1      30.348  26.298  24.812  1.00  0.00     0.262 C 
ATOM     17  H   UNL A   1      30.404  24.577  23.837  1.00  0.00     0.170 HD
ATOM     18  O   UNL A   1      29.132  26.402  24.645  1.00  0.00    -0.269 OA
BRANCH  16  19
ATOM     19  C   UNL A   1      31.046  27.425  25.462  1.00  0.00     0.117 A 
ATOM     20  C   UNL A   1      31.424  27.216  26.797  1.00  0.00     0.021 A 
ATOM     21  C   UNL A   1      31.259  28.691  24.903  1.00  0.00     0.282 A 
ATOM     22  C   UNL A   1      32.041  28.231  27.531  1.00  0.00     0.001 A 
ATOM     23  C   UNL A   1      31.921  29.702  25.622  1.00  0.00     0.086 A 
ATOM     24  C   UNL A   1      32.316  29.462  26.937  1.00  0.00     0.007 A 
BRANCH  21  25
ATOM     25  N   UNL A   1      30.755  29.037  23.588  1.00  0.00     0.063 N 
ATOM     26  O   UNL A   1      31.489  28.787  22.622  1.00  0.00    -0.258 OA
ATOM     27  O   UNL A   1      29.649  29.587  23.521  1.00  0.00    -0.258 OA
ENDBRANCH  21  25
ENDBRANCH  16  19
ENDBRANCH  10  15
ENDBRANCH   4   7
ENDBRANCH   2   3
ENDBRANCH   1   2
BRANCH   1  28
ATOM     28  C   UNL A   1      39.413  22.313  26.505  1.00  0.00     0.023 C 
BRANCH  28  29
ATOM     29  C   UNL A   1      40.565  23.216  26.947  1.00  0.00     0.116 C 
BRANCH  29  30
ATOM     30  N   UNL A   1      41.008  24.135  25.909  1.00  0.00    -0.352 N 
ATOM     31  C   UNL A   1      41.420  25.442  26.019  1.00  0.00     0.251 C 
ATOM     32  H   UNL A   1      41.013  23.767  24.996  1.00  0.00     0.163 HD
ATOM     33  O   UNL A   1      41.755  26.061  25.013  1.00  0.00    -0.269 OA
BRANCH  31  34
ATOM     34  C   UNL A   1      41.385  26.116  27.333  1.00  0.00     0.039 A 
ATOM     35  C   UNL A   1      42.402  27.027  27.632  1.00  0.00     0.014 A 
ATOM     36  C   UNL A   1      40.336  25.912  28.230  1.00  0.00     0.014 A 
ATOM     37  C   UNL A   1      42.308  27.813  28.781  1.00  0.00     0.010 A 
ATOM     38  C   UNL A   1      40.210  26.741  29.343  1.00  0.00     0.010 A 
ATOM     39  C   UNL A   1      41.182  27.715  29.613  1.00  0.00    -0.014 A 
BRANCH  39  40
ATOM     40  C   UNL A   1      40.978  28.670  30.730  1.00  0.00     0.031 A 
ATOM     41  C   UNL A   1      41.801  28.570  31.980  1.00  0.00     0.074 A 
ATOM     42  C   UNL A   1      39.987  29.580  30.637  1.00  0.00     0.049 A 
ATOM     43  N   UNL A   1      41.737  29.296  33.067  1.00  0.00    -0.248 NA
ATOM     44  C   UNL A   1      42.810  27.501  32.028  1.00  0.00     0.031 C 
ATOM     45  C   UNL A   1      39.075  29.726  29.498  1.00  0.00     0.029 A 
ATOM     46  N   UNL A   1      39.574  30.548  31.516  1.00  0.00    -0.354 N 
ATOM     47  C   UNL A   1      42.685  28.764  33.932  1.00  0.00     0.074 A 
ATOM     48  C   UNL A   1      43.276  27.625  33.262  1.00  0.00     0.031 C 
ATOM     49  C   UNL A   1      38.227  30.738  29.738  1.00  0.00     0.029 A 
ATOM     50  C   UNL A   1      38.514  31.294  31.057  1.00  0.00     0.049 A 
ATOM     51  H   UNL A   1      39.996  30.696  32.393  1.00  0.00     0.167 HD
ATOM     52  C   UNL A   1      43.044  29.196  35.165  1.00  0.00     0.031 A 
ATOM     53  C   UNL A   1      37.846  32.313  31.631  1.00  0.00     0.031 A 
ATOM     54  C   UNL A   1      42.451  30.329  35.825  1.00  0.00     0.049 A 
ATOM     55  C   UNL A   1      38.284  32.798  32.984  1.00  0.00     0.074 A 
ATOM     56  C   UNL A   1      42.773  30.879  37.053  1.00  0.00     0.029 A 
ATOM     57  N   UNL A   1      41.411  31.088  35.308  1.00  0.00    -0.354 N 
ATOM     58  N   UNL A   1      39.235  32.329  33.756  1.00  0.00    -0.248 NA
ATOM     59  C   UNL A   1      37.573  33.959  33.535  1.00  0.00     0.031 C 
ATOM     60  C   UNL A   1      41.902  31.947  37.295  1.00  0.00     0.029 A 
ATOM     61  C   UNL A   1      41.069  32.093  36.196  1.00  0.00     0.049 A 
ATOM     62  H   UNL A   1      40.978  30.933  34.437  1.00  0.00     0.167 HD
ATOM     63  C   UNL A   1      39.250  33.150  34.877  1.00  0.00     0.074 A 
ATOM     64  C   UNL A   1      38.226  34.155  34.673  1.00  0.00     0.031 C 
ATOM     65  C   UNL A   1      40.041  33.080  35.976  1.00  0.00     0.031 A 
BRANCH  52  66
ATOM     66  C   UNL A   1      44.126  28.425  35.874  1.00  0.00    -0.014 A 
ATOM     67  C   UNL A   1      43.811  27.333  36.703  1.00  0.00     0.010 A 
ATOM     68  C   UNL A   1      45.474  28.795  35.715  1.00  0.00     0.010 A 
ATOM     69  C   UNL A   1      44.815  26.663  37.406  1.00  0.00     0.020 A 
ATOM     70  C   UNL A   1      46.484  28.111  36.395  1.00  0.00     0.020 A 
ATOM     71  C   UNL A   1      46.146  27.065  37.256  1.00  0.00     0.054 A 
BRANCH  71  72
ATOM     72  S   UNL A   1      47.429  26.191  38.194  1.00  0.00     0.124 S 
ATOM     73  O   UNL A   1      47.836  25.155  37.248  1.00  0.00    -0.237 OA
ATOM     74  O   UNL A   1      48.418  27.236  38.442  1.00  0.00    -0.237 OA
ATOM     75  O   UNL A   1      46.724  25.710  39.380  1.00  0.00    -0.744 OA
ENDBRANCH  71  72
ENDBRANCH  52  66
BRANCH  53  76
ATOM     76  C   UNL A   1      36.717  32.958  30.906  1.00  0.00    -0.014 A 
ATOM     77  C   UNL A   1      35.393  32.780  31.343  1.00  0.00     0.010 A 
ATOM     78  C   UNL A   1      36.966  33.787  29.796  1.00  0.00     0.010 A 
ATOM     79  C   UNL A   1      34.337  33.410  30.679  1.00  0.00     0.020 A 
ATOM     80  C   UNL A   1      35.915  34.438  29.144  1.00  0.00     0.020 A 
ATOM     81  C   UNL A   1      34.605  34.239  29.585  1.00  0.00     0.054 A 
BRANCH  81  82
ATOM     82  S   UNL A   1      33.227  35.106  28.784  1.00  0.00     0.124 S 
ATOM     83  O   UNL A   1      32.442  35.551  29.930  1.00  0.00    -0.237 OA
ATOM     84  O   UNL A   1      33.907  36.158  28.033  1.00  0.00    -0.237 OA
ATOM     85  O   UNL A   1      32.605  34.069  27.963  1.00  0.00    -0.744 OA
ENDBRANCH  81  82
ENDBRANCH  53  76
BRANCH  65  86
ATOM     86  C   UNL A   1      39.845  34.133  37.032  1.00  0.00    -0.014 A 
ATOM     87  C   UNL A   1      39.230  33.825  38.258  1.00  0.00     0.010 A 
ATOM     88  C   UNL A   1      40.324  35.436  36.809  1.00  0.00     0.010 A 
ATOM     89  C   UNL A   1      39.069  34.813  39.233  1.00  0.00     0.020 A 
ATOM     90  C   UNL A   1      40.186  36.419  37.791  1.00  0.00     0.020 A 
ATOM     91  C   UNL A   1      39.546  36.105  38.991  1.00  0.00     0.054 A 
BRANCH  91  92
ATOM     92  S   UNL A   1      39.362  37.361  40.287  1.00  0.00     0.124 S 
ATOM     93  O   UNL A   1      38.609  36.637  41.307  1.00  0.00    -0.237 OA
ATOM     94  O   UNL A   1      40.747  37.674  40.631  1.00  0.00    -0.237 OA
ATOM     95  O   UNL A   1      38.634  38.439  39.621  1.00  0.00    -0.744 OA
ENDBRANCH  91  92
ENDBRANCH  65  86
ENDBRANCH  39  40
ENDBRANCH  31  34
ENDBRANCH  29  30
ENDBRANCH  28  29
ENDBRANCH   1  28
TORSDOF 18
ENDMDL
