MODEL 1
REMARK VINA RESULT:     -12.5      0.000      0.000
REMARK SMILES O=C(NCCCCNC(=O)c1ccccc1S[C@@H]1CC(=O)N(C2=[NH+]CCS2)C1=O)c1ccc(-c2c3nc(c(-c4ccc(S(=O)(=O)[O-])cc4)c4ccc([nH]4)c(-c4ccc(S(=O)(=O)[O-])cc4)c4nc(c(-c5ccc(S(=O)(=O)[O-])cc5)c5ccc2[nH]5)C=C4)C=C3)cc1
REMARK SMILES IDX 5 1 4 2 3 3 1 4 2 5 30 7 31 8 89 9 32 10 88 11 33 12 34 13
REMARK SMILES IDX 35 14 82 15 36 16 87 17 81 18 83 19 37 20 86 21 80 22 79 23
REMARK SMILES IDX 38 25 68 26 49 27 67 28 50 29 53 30 66 31 84 32 51 33 52 34
REMARK SMILES IDX 65 36 85 37 54 38 39 39 40 40 48 41 41 42 47 43 42 44 43 45
REMARK SMILES IDX 44 46 45 47 46 48 69 49 70 50 78 51 71 52 77 53 72 54 73 55
REMARK SMILES IDX 74 56 75 57 76 58 55 59 56 60 64 61 57 62 63 63 58 64 59 65
REMARK SMILES IDX 60 66 61 67 62 68 6 69 7 70 8 71 9 72 10 74 11 75 12 76
REMARK SMILES IDX 16 77 13 78 15 79 14 80 17 81 18 82 19 83 28 84 20 85 22 86
REMARK SMILES IDX 29 87 21 88 23 89 24 90 27 91 25 92 26 94
REMARK H PARENT 3 6 83 24 53 35 8 73 24 93
REMARK Flexibility Score: inf
ROOT
ATOM      1  C   UNL A   1      37.520  23.415  25.579  1.00  0.00     0.023 C 
ENDROOT
BRANCH   1   2
ATOM      2  C   UNL A   1      38.483  23.960  26.634  1.00  0.00     0.116 C 
BRANCH   2   3
ATOM      3  N   UNL A   1      39.864  24.011  26.176  1.00  0.00    -0.352 N 
ATOM      4  O   UNL A   1      41.965  24.746  25.918  1.00  0.00    -0.269 OA
ATOM      5  C   UNL A   1      40.897  24.848  26.521  1.00  0.00     0.251 C 
ATOM      6  H   UNL A   1      40.096  23.329  25.506  1.00  0.00     0.163 HD
BRANCH   5   7
ATOM      7  C   UNL A   1      40.753  25.894  27.566  1.00  0.00     0.039 A 
ATOM      8  C   UNL A   1      41.559  27.035  27.612  1.00  0.00     0.014 A 
ATOM      9  C   UNL A   1      39.722  25.749  28.503  1.00  0.00     0.014 A 
ATOM     10  C   UNL A   1      41.423  27.949  28.664  1.00  0.00     0.010 A 
ATOM     11  C   UNL A   1      39.546  26.696  29.518  1.00  0.00     0.010 A 
ATOM     12  C   UNL A   1      40.422  27.786  29.634  1.00  0.00    -0.014 A 
BRANCH  12  13
ATOM     13  C   UNL A   1      40.294  28.750  30.763  1.00  0.00     0.031 A 
ATOM     14  C   UNL A   1      41.191  28.644  31.971  1.00  0.00     0.074 A 
ATOM     15  C   UNL A   1      39.365  29.726  30.714  1.00  0.00     0.049 A 
ATOM     16  N   UNL A   1      41.226  29.398  33.043  1.00  0.00    -0.248 NA
ATOM     17  C   UNL A   1      42.169  27.544  31.982  1.00  0.00     0.031 C 
ATOM     18  C   UNL A   1      38.418  29.939  29.618  1.00  0.00     0.029 A 
ATOM     19  N   UNL A   1      39.070  30.727  31.607  1.00  0.00    -0.354 N 
ATOM     20  C   UNL A   1      42.208  28.852  33.863  1.00  0.00     0.074 A 
ATOM     21  C   UNL A   1      42.729  27.689  33.176  1.00  0.00     0.031 C 
ATOM     22  C   UNL A   1      37.670  31.020  29.889  1.00  0.00     0.029 A 
ATOM     23  C   UNL A   1      38.056  31.556  31.192  1.00  0.00     0.049 A 
ATOM     24  H   UNL A   1      39.540  30.839  32.466  1.00  0.00     0.167 HD
ATOM     25  C   UNL A   1      42.645  29.281  35.073  1.00  0.00     0.031 A 
ATOM     26  C   UNL A   1      37.495  32.627  31.786  1.00  0.00     0.031 A 
ATOM     27  C   UNL A   1      42.146  30.444  35.759  1.00  0.00     0.049 A 
ATOM     28  C   UNL A   1      37.999  33.085  33.126  1.00  0.00     0.074 A 
ATOM     29  C   UNL A   1      42.564  30.977  36.967  1.00  0.00     0.029 A 
ATOM     30  N   UNL A   1      41.119  31.254  35.301  1.00  0.00    -0.354 N 
ATOM     31  N   UNL A   1      38.961  32.581  33.861  1.00  0.00    -0.248 NA
ATOM     32  C   UNL A   1      37.349  34.268  33.709  1.00  0.00     0.031 C 
ATOM     33  C   UNL A   1      41.764  32.089  37.257  1.00  0.00     0.029 A 
ATOM     34  C   UNL A   1      40.880  32.273  36.208  1.00  0.00     0.049 A 
ATOM     35  H   UNL A   1      40.631  31.124  34.456  1.00  0.00     0.167 HD
ATOM     36  C   UNL A   1      39.048  33.401  34.982  1.00  0.00     0.074 A 
ATOM     37  C   UNL A   1      38.050  34.439  34.822  1.00  0.00     0.031 C 
ATOM     38  C   UNL A   1      39.886  33.303  36.043  1.00  0.00     0.031 A 
BRANCH  25  39
ATOM     39  C   UNL A   1      43.719  28.469  35.749  1.00  0.00    -0.014 A 
ATOM     40  C   UNL A   1      45.081  28.736  35.529  1.00  0.00     0.010 A 
ATOM     41  C   UNL A   1      43.358  27.448  36.649  1.00  0.00     0.010 A 
ATOM     42  C   UNL A   1      46.064  27.970  36.161  1.00  0.00     0.020 A 
ATOM     43  C   UNL A   1      44.338  26.695  37.301  1.00  0.00     0.020 A 
ATOM     44  C   UNL A   1      45.687  26.948  37.038  1.00  0.00     0.054 A 
BRANCH  44  45
ATOM     45  S   UNL A   1      46.981  25.973  37.855  1.00  0.00     0.124 S 
ATOM     46  O   UNL A   1      46.343  25.636  39.126  1.00  0.00    -0.237 OA
ATOM     47  O   UNL A   1      47.173  24.854  36.935  1.00  0.00    -0.237 OA
ATOM     48  O   UNL A   1      48.106  26.900  37.948  1.00  0.00    -0.744 OA
ENDBRANCH  44  45
ENDBRANCH  25  39
BRANCH  26  49
ATOM     49  C   UNL A   1      36.399  33.362  31.099  1.00  0.00    -0.014 A 
ATOM     50  C   UNL A   1      35.182  33.601  31.761  1.00  0.00     0.010 A 
ATOM     51  C   UNL A   1      36.574  33.840  29.788  1.00  0.00     0.010 A 
ATOM     52  C   UNL A   1      34.152  34.295  31.118  1.00  0.00     0.020 A 
ATOM     53  C   UNL A   1      35.556  34.554  29.152  1.00  0.00     0.020 A 
ATOM     54  C   UNL A   1      34.347  34.768  29.818  1.00  0.00     0.054 A 
BRANCH  54  55
ATOM     55  S   UNL A   1      33.022  35.721  29.024  1.00  0.00     0.124 S 
ATOM     56  O   UNL A   1      32.381  34.710  28.189  1.00  0.00    -0.237 OA
ATOM     57  O   UNL A   1      32.239  36.190  30.165  1.00  0.00    -0.237 OA
ATOM     58  O   UNL A   1      33.743  36.767  28.302  1.00  0.00    -0.744 OA
ENDBRANCH  54  55
ENDBRANCH  26  49
BRANCH  38  59
ATOM     59  C   UNL A   1      39.790  34.372  37.098  1.00  0.00    -0.014 A 
ATOM     60  C   UNL A   1      40.487  35.586  36.974  1.00  0.00     0.010 A 
ATOM     61  C   UNL A   1      38.965  34.166  38.219  1.00  0.00     0.010 A 
ATOM     62  C   UNL A   1      40.391  36.562  37.972  1.00  0.00     0.020 A 
ATOM     63  C   UNL A   1      38.848  35.148  39.207  1.00  0.00     0.020 A 
ATOM     64  C   UNL A   1      39.576  36.333  39.086  1.00  0.00     0.054 A 
BRANCH  64  65
ATOM     65  S   UNL A   1      39.443  37.621  40.357  1.00  0.00     0.124 S 
ATOM     66  O   UNL A   1      40.719  38.315  40.220  1.00  0.00    -0.237 OA
ATOM     67  O   UNL A   1      38.268  38.377  39.932  1.00  0.00    -0.237 OA
ATOM     68  O   UNL A   1      39.273  36.866  41.596  1.00  0.00    -0.744 OA
ENDBRANCH  64  65
ENDBRANCH  38  59
ENDBRANCH  12  13
ENDBRANCH   5   7
ENDBRANCH   2   3
ENDBRANCH   1   2
BRANCH   1  69
ATOM     69  C   UNL A   1      37.759  21.961  25.147  1.00  0.00     0.023 C 
BRANCH  69  70
ATOM     70  C   UNL A   1      36.530  21.051  25.177  1.00  0.00     0.116 C 
BRANCH  70  71
ATOM     71  N   UNL A   1      35.601  21.362  26.251  1.00  0.00    -0.352 N 
ATOM     72  C   UNL A   1      34.240  21.214  26.257  1.00  0.00     0.252 C 
ATOM     73  H   UNL A   1      35.999  21.725  27.075  1.00  0.00     0.163 HD
ATOM     74  O   UNL A   1      33.534  21.542  27.205  1.00  0.00    -0.269 OA
BRANCH  72  75
ATOM     75  C   UNL A   1      33.554  20.643  25.106  1.00  0.00     0.053 A 
ATOM     76  C   UNL A   1      33.440  19.240  25.143  1.00  0.00     0.015 A 
ATOM     77  C   UNL A   1      33.086  21.396  24.022  1.00  0.00     0.021 A 
ATOM     78  C   UNL A   1      32.771  18.564  24.134  1.00  0.00     0.001 A 
ATOM     79  C   UNL A   1      32.380  20.684  23.032  1.00  0.00     0.016 A 
ATOM     80  C   UNL A   1      32.220  19.291  23.088  1.00  0.00     0.001 A 
BRANCH  77  81
ATOM     81  S   UNL A   1      33.124  23.175  23.774  1.00  0.00    -0.109 SA
BRANCH  81  82
ATOM     82  C   UNL A   1      31.562  23.935  24.364  1.00  0.00     0.178 C 
ATOM     83  C   UNL A   1      30.698  24.690  23.387  1.00  0.00     0.156 C 
ATOM     84  C   UNL A   1      31.704  24.850  25.551  1.00  0.00     0.331 C 
ATOM     85  C   UNL A   1      30.096  25.755  24.263  1.00  0.00     0.319 C 
ATOM     86  N   UNL A   1      30.935  25.969  25.333  1.00  0.00    -0.123 N 
ATOM     87  O   UNL A   1      32.245  24.505  26.596  1.00  0.00    -0.245 OA
ATOM     88  O   UNL A   1      28.969  26.193  24.075  1.00  0.00    -0.246 OA
BRANCH  86  89
ATOM     89  C   UNL A   1      31.223  27.193  25.926  1.00  0.00     0.321 C 
ATOM     90  N   UNL A   1      31.238  27.370  27.210  1.00  0.00    -0.267 N 
ATOM     91  S   UNL A   1      31.721  28.544  24.937  1.00  0.00    -0.034 SA
ATOM     92  C   UNL A   1      31.908  28.646  27.534  1.00  0.00     0.246 C 
ATOM     93  H   UNL A   1      30.860  26.747  27.872  1.00  0.00     0.305 HD
ATOM     94  C   UNL A   1      31.803  29.617  26.376  1.00  0.00     0.128 C 
ENDBRANCH  86  89
ENDBRANCH  81  82
ENDBRANCH  77  81
ENDBRANCH  72  75
ENDBRANCH  70  71
ENDBRANCH  69  70
ENDBRANCH   1  69
TORSDOF 17
ENDMDL
MODEL 2
REMARK VINA RESULT:     -12.4      4.413      9.956
REMARK SMILES O=C(NCCCCNC(=O)c1ccccc1S[C@@H]1CC(=O)N(C2=[NH+]CCS2)C1=O)c1ccc(-c2c3nc(c(-c4ccc(S(=O)(=O)[O-])cc4)c4ccc([nH]4)c(-c4ccc(S(=O)(=O)[O-])cc4)c4nc(c(-c5ccc(S(=O)(=O)[O-])cc5)c5ccc2[nH]5)C=C4)C=C3)cc1
REMARK SMILES IDX 5 1 4 2 3 3 1 4 2 5 30 7 31 8 89 9 32 10 88 11 33 12 34 13
REMARK SMILES IDX 35 14 82 15 36 16 87 17 81 18 83 19 37 20 86 21 80 22 79 23
REMARK SMILES IDX 38 25 68 26 49 27 67 28 50 29 53 30 66 31 84 32 51 33 52 34
REMARK SMILES IDX 65 36 85 37 54 38 39 39 40 40 48 41 41 42 47 43 42 44 43 45
REMARK SMILES IDX 44 46 45 47 46 48 69 49 70 50 78 51 71 52 77 53 72 54 73 55
REMARK SMILES IDX 74 56 75 57 76 58 55 59 56 60 64 61 57 62 63 63 58 64 59 65
REMARK SMILES IDX 60 66 61 67 62 68 6 69 7 70 8 71 9 72 10 74 11 75 12 76
REMARK SMILES IDX 16 77 13 78 15 79 14 80 17 81 18 82 19 83 28 84 20 85 22 86
REMARK SMILES IDX 29 87 21 88 23 89 24 90 27 91 25 92 26 94
REMARK H PARENT 3 6 83 24 53 35 8 73 24 93
REMARK Flexibility Score: inf
ROOT
ATOM      1  C   UNL A   1      31.863  27.691  27.368  1.00  0.00     0.023 C 
ENDROOT
BRANCH   1   2
ATOM      2  C   UNL A   1      33.240  28.342  27.230  1.00  0.00     0.116 C 
BRANCH   2   3
ATOM      3  N   UNL A   1      33.216  29.781  27.444  1.00  0.00    -0.352 N 
ATOM      4  O   UNL A   1      33.887  31.820  28.085  1.00  0.00    -0.269 OA
ATOM      5  C   UNL A   1      34.184  30.640  27.903  1.00  0.00     0.251 C 
ATOM      6  H   UNL A   1      32.359  30.212  27.221  1.00  0.00     0.163 HD
BRANCH   5   7
ATOM      7  C   UNL A   1      35.561  30.182  28.224  1.00  0.00     0.039 A 
ATOM      8  C   UNL A   1      35.915  29.667  29.474  1.00  0.00     0.014 A 
ATOM      9  C   UNL A   1      36.519  30.215  27.204  1.00  0.00     0.014 A 
ATOM     10  C   UNL A   1      37.244  29.319  29.739  1.00  0.00     0.010 A 
ATOM     11  C   UNL A   1      37.835  29.808  27.451  1.00  0.00     0.010 A 
ATOM     12  C   UNL A   1      38.222  29.394  28.735  1.00  0.00    -0.014 A 
BRANCH  12  13
ATOM     13  C   UNL A   1      39.640  29.042  29.027  1.00  0.00     0.031 A 
ATOM     14  C   UNL A   1      40.558  30.036  29.695  1.00  0.00     0.074 A 
ATOM     15  C   UNL A   1      40.117  27.827  28.689  1.00  0.00     0.049 A 
ATOM     16  N   UNL A   1      41.818  29.901  30.030  1.00  0.00    -0.248 NA
ATOM     17  C   UNL A   1      39.991  31.355  30.018  1.00  0.00     0.031 C 
ATOM     18  C   UNL A   1      39.350  26.773  28.023  1.00  0.00     0.029 A 
ATOM     19  N   UNL A   1      41.361  27.272  28.865  1.00  0.00    -0.354 N 
ATOM     20  C   UNL A   1      42.200  31.120  30.581  1.00  0.00     0.074 A 
ATOM     21  C   UNL A   1      41.046  31.991  30.512  1.00  0.00     0.031 C 
ATOM     22  C   UNL A   1      40.130  25.690  27.876  1.00  0.00     0.029 A 
ATOM     23  C   UNL A   1      41.461  25.983  28.401  1.00  0.00     0.049 A 
ATOM     24  H   UNL A   1      42.111  27.754  29.283  1.00  0.00     0.167 HD
ATOM     25  C   UNL A   1      43.398  31.482  31.104  1.00  0.00     0.031 A 
ATOM     26  C   UNL A   1      42.501  25.127  28.395  1.00  0.00     0.031 A 
ATOM     27  C   UNL A   1      44.547  30.620  31.192  1.00  0.00     0.049 A 
ATOM     28  C   UNL A   1      43.818  25.551  28.985  1.00  0.00     0.074 A 
ATOM     29  C   UNL A   1      45.786  30.890  31.749  1.00  0.00     0.029 A 
ATOM     30  N   UNL A   1      44.603  29.322  30.710  1.00  0.00    -0.354 N 
ATOM     31  N   UNL A   1      44.142  26.693  29.542  1.00  0.00    -0.248 NA
ATOM     32  C   UNL A   1      44.905  24.562  28.955  1.00  0.00     0.031 C 
ATOM     33  C   UNL A   1      46.603  29.768  31.571  1.00  0.00     0.029 A 
ATOM     34  C   UNL A   1      45.858  28.784  30.943  1.00  0.00     0.049 A 
ATOM     35  H   UNL A   1      43.861  28.851  30.267  1.00  0.00     0.167 HD
ATOM     36  C   UNL A   1      45.463  26.549  29.953  1.00  0.00     0.074 A 
ATOM     37  C   UNL A   1      45.874  25.208  29.590  1.00  0.00     0.031 C 
ATOM     38  C   UNL A   1      46.260  27.449  30.581  1.00  0.00     0.031 A 
BRANCH  25  39
ATOM     39  C   UNL A   1      43.532  32.893  31.615  1.00  0.00    -0.014 A 
ATOM     40  C   UNL A   1      43.147  33.233  32.923  1.00  0.00     0.010 A 
ATOM     41  C   UNL A   1      44.088  33.884  30.784  1.00  0.00     0.010 A 
ATOM     42  C   UNL A   1      43.275  34.548  33.379  1.00  0.00     0.020 A 
ATOM     43  C   UNL A   1      44.239  35.196  31.244  1.00  0.00     0.020 A 
ATOM     44  C   UNL A   1      43.812  35.524  32.533  1.00  0.00     0.054 A 
BRANCH  44  45
ATOM     45  S   UNL A   1      43.978  37.222  33.150  1.00  0.00     0.124 S 
ATOM     46  O   UNL A   1      43.870  38.000  31.917  1.00  0.00    -0.237 OA
ATOM     47  O   UNL A   1      42.848  37.345  34.068  1.00  0.00    -0.237 OA
ATOM     48  O   UNL A   1      45.295  37.235  33.782  1.00  0.00    -0.744 OA
ENDBRANCH  44  45
ENDBRANCH  25  39
BRANCH  26  49
ATOM     49  C   UNL A   1      42.331  23.762  27.829  1.00  0.00    -0.014 A 
ATOM     50  C   UNL A   1      42.588  23.522  26.468  1.00  0.00     0.010 A 
ATOM     51  C   UNL A   1      41.928  22.695  28.651  1.00  0.00     0.010 A 
ATOM     52  C   UNL A   1      42.433  22.239  25.935  1.00  0.00     0.020 A 
ATOM     53  C   UNL A   1      41.794  21.406  28.127  1.00  0.00     0.020 A 
ATOM     54  C   UNL A   1      42.038  21.189  26.769  1.00  0.00     0.054 A 
BRANCH  54  55
ATOM     55  S   UNL A   1      41.902  19.519  26.072  1.00  0.00     0.124 S 
ATOM     56  O   UNL A   1      42.389  18.691  27.171  1.00  0.00    -0.237 OA
ATOM     57  O   UNL A   1      40.475  19.410  25.781  1.00  0.00    -0.237 OA
ATOM     58  O   UNL A   1      42.767  19.572  24.895  1.00  0.00    -0.744 OA
ENDBRANCH  54  55
ENDBRANCH  26  49
BRANCH  38  59
ATOM     59  C   UNL A   1      47.647  26.999  30.956  1.00  0.00    -0.014 A 
ATOM     60  C   UNL A   1      48.744  27.229  30.108  1.00  0.00     0.010 A 
ATOM     61  C   UNL A   1      47.857  26.359  32.191  1.00  0.00     0.010 A 
ATOM     62  C   UNL A   1      50.022  26.795  30.473  1.00  0.00     0.020 A 
ATOM     63  C   UNL A   1      49.137  25.943  32.569  1.00  0.00     0.020 A 
ATOM     64  C   UNL A   1      50.209  26.148  31.699  1.00  0.00     0.054 A 
BRANCH  64  65
ATOM     65  S   UNL A   1      51.879  25.614  32.166  1.00  0.00     0.124 S 
ATOM     66  O   UNL A   1      52.602  25.742  30.905  1.00  0.00    -0.237 OA
ATOM     67  O   UNL A   1      52.249  26.575  33.202  1.00  0.00    -0.237 OA
ATOM     68  O   UNL A   1      51.684  24.245  32.638  1.00  0.00    -0.744 OA
ENDBRANCH  64  65
ENDBRANCH  38  59
ENDBRANCH  12  13
ENDBRANCH   5   7
ENDBRANCH   2   3
ENDBRANCH   1   2
BRANCH   1  69
ATOM     69  C   UNL A   1      31.563  26.551  26.385  1.00  0.00     0.023 C 
BRANCH  69  70
ATOM     70  C   UNL A   1      32.714  25.576  26.130  1.00  0.00     0.116 C 
BRANCH  70  71
ATOM     71  N   UNL A   1      32.593  24.327  26.864  1.00  0.00    -0.352 N 
ATOM     72  C   UNL A   1      33.365  23.203  26.747  1.00  0.00     0.252 C 
ATOM     73  H   UNL A   1      31.865  24.284  27.526  1.00  0.00     0.163 HD
ATOM     74  O   UNL A   1      33.158  22.178  27.389  1.00  0.00    -0.269 OA
BRANCH  72  75
ATOM     75  C   UNL A   1      34.496  23.175  25.830  1.00  0.00     0.053 A 
ATOM     76  C   UNL A   1      35.681  23.716  26.365  1.00  0.00     0.015 A 
ATOM     77  C   UNL A   1      34.424  22.705  24.513  1.00  0.00     0.021 A 
ATOM     78  C   UNL A   1      36.851  23.716  25.620  1.00  0.00     0.001 A 
ATOM     79  C   UNL A   1      35.637  22.685  23.795  1.00  0.00     0.016 A 
ATOM     80  C   UNL A   1      36.833  23.178  24.340  1.00  0.00     0.001 A 
BRANCH  77  81
ATOM     81  S   UNL A   1      33.031  21.980  23.640  1.00  0.00    -0.109 SA
BRANCH  81  82
ATOM     82  C   UNL A   1      32.424  23.128  22.343  1.00  0.00     0.178 C 
ATOM     83  C   UNL A   1      33.394  23.659  21.320  1.00  0.00     0.156 C 
ATOM     84  C   UNL A   1      31.689  24.339  22.853  1.00  0.00     0.331 C 
ATOM     85  C   UNL A   1      32.837  25.030  21.046  1.00  0.00     0.319 C 
ATOM     86  N   UNL A   1      32.114  25.438  22.144  1.00  0.00    -0.123 N 
ATOM     87  O   UNL A   1      30.731  24.263  23.614  1.00  0.00    -0.245 OA
ATOM     88  O   UNL A   1      32.921  25.559  19.946  1.00  0.00    -0.246 OA
BRANCH  86  89
ATOM     89  C   UNL A   1      32.060  26.723  22.667  1.00  0.00     0.321 C 
ATOM     90  N   UNL A   1      33.105  27.355  23.102  1.00  0.00    -0.267 N 
ATOM     91  S   UNL A   1      30.557  27.614  22.636  1.00  0.00    -0.034 SA
ATOM     92  C   UNL A   1      32.796  28.790  23.260  1.00  0.00     0.246 C 
ATOM     93  H   UNL A   1      33.976  26.940  23.297  1.00  0.00     0.305 HD
ATOM     94  C   UNL A   1      31.315  28.998  23.495  1.00  0.00     0.128 C 
ENDBRANCH  86  89
ENDBRANCH  81  82
ENDBRANCH  77  81
ENDBRANCH  72  75
ENDBRANCH  70  71
ENDBRANCH  69  70
ENDBRANCH   1  69
TORSDOF 17
ENDMDL
MODEL 3
REMARK VINA RESULT:     -12.3      4.442     10.482
REMARK SMILES O=C(NCCCCNC(=O)c1ccccc1S[C@@H]1CC(=O)N(C2=[NH+]CCS2)C1=O)c1ccc(-c2c3nc(c(-c4ccc(S(=O)(=O)[O-])cc4)c4ccc([nH]4)c(-c4ccc(S(=O)(=O)[O-])cc4)c4nc(c(-c5ccc(S(=O)(=O)[O-])cc5)c5ccc2[nH]5)C=C4)C=C3)cc1
REMARK SMILES IDX 5 1 4 2 3 3 1 4 2 5 30 7 31 8 89 9 32 10 88 11 33 12 34 13
REMARK SMILES IDX 35 14 82 15 36 16 87 17 81 18 83 19 37 20 86 21 80 22 79 23
REMARK SMILES IDX 38 25 68 26 49 27 67 28 50 29 53 30 66 31 84 32 51 33 52 34
REMARK SMILES IDX 65 36 85 37 54 38 39 39 40 40 48 41 41 42 47 43 42 44 43 45
REMARK SMILES IDX 44 46 45 47 46 48 69 49 70 50 78 51 71 52 77 53 72 54 73 55
REMARK SMILES IDX 74 56 75 57 76 58 55 59 56 60 64 61 57 62 63 63 58 64 59 65
REMARK SMILES IDX 60 66 61 67 62 68 6 69 7 70 8 71 9 72 10 74 11 75 12 76
REMARK SMILES IDX 16 77 13 78 15 79 14 80 17 81 18 82 19 83 28 84 20 85 22 86
REMARK SMILES IDX 29 87 21 88 23 89 24 90 27 91 25 92 26 94
REMARK H PARENT 3 6 83 24 53 35 8 73 24 93
REMARK Flexibility Score: inf
ROOT
ATOM      1  C   UNL A   1      33.626  27.440  26.431  1.00  0.00     0.023 C 
ENDROOT
BRANCH   1   2
ATOM      2  C   UNL A   1      34.095  28.767  25.836  1.00  0.00     0.116 C 
BRANCH   2   3
ATOM      3  N   UNL A   1      33.804  29.911  26.687  1.00  0.00    -0.352 N 
ATOM      4  O   UNL A   1      34.023  31.411  28.337  1.00  0.00    -0.269 OA
ATOM      5  C   UNL A   1      34.532  30.494  27.695  1.00  0.00     0.251 C 
ATOM      6  H   UNL A   1      32.936  30.340  26.509  1.00  0.00     0.163 HD
BRANCH   5   7
ATOM      7  C   UNL A   1      35.895  30.025  28.058  1.00  0.00     0.039 A 
ATOM      8  C   UNL A   1      36.188  29.430  29.288  1.00  0.00     0.014 A 
ATOM      9  C   UNL A   1      36.906  30.134  27.095  1.00  0.00     0.014 A 
ATOM     10  C   UNL A   1      37.506  29.075  29.600  1.00  0.00     0.010 A 
ATOM     11  C   UNL A   1      38.212  29.722  27.385  1.00  0.00     0.010 A 
ATOM     12  C   UNL A   1      38.535  29.225  28.657  1.00  0.00    -0.014 A 
BRANCH  12  13
ATOM     13  C   UNL A   1      39.939  28.865  29.000  1.00  0.00     0.031 A 
ATOM     14  C   UNL A   1      40.832  29.848  29.718  1.00  0.00     0.074 A 
ATOM     15  C   UNL A   1      40.426  27.654  28.665  1.00  0.00     0.049 A 
ATOM     16  N   UNL A   1      42.077  29.705  30.101  1.00  0.00    -0.248 NA
ATOM     17  C   UNL A   1      40.256  31.164  30.035  1.00  0.00     0.031 C 
ATOM     18  C   UNL A   1      39.684  26.610  27.955  1.00  0.00     0.029 A 
ATOM     19  N   UNL A   1      41.661  27.093  28.883  1.00  0.00    -0.354 N 
ATOM     20  C   UNL A   1      42.440  30.915  30.683  1.00  0.00     0.074 A 
ATOM     21  C   UNL A   1      41.291  31.790  30.580  1.00  0.00     0.031 C 
ATOM     22  C   UNL A   1      40.467  25.527  27.825  1.00  0.00     0.029 A 
ATOM     23  C   UNL A   1      41.776  25.809  28.407  1.00  0.00     0.049 A 
ATOM     24  H   UNL A   1      42.395  27.567  29.338  1.00  0.00     0.167 HD
ATOM     25  C   UNL A   1      43.616  31.267  31.258  1.00  0.00     0.031 A 
ATOM     26  C   UNL A   1      42.814  24.951  28.431  1.00  0.00     0.031 A 
ATOM     27  C   UNL A   1      44.759  30.401  31.380  1.00  0.00     0.049 A 
ATOM     28  C   UNL A   1      44.107  25.363  29.078  1.00  0.00     0.074 A 
ATOM     29  C   UNL A   1      45.976  30.660  31.990  1.00  0.00     0.029 A 
ATOM     30  N   UNL A   1      44.832  29.109  30.883  1.00  0.00    -0.354 N 
ATOM     31  N   UNL A   1      44.412  26.497  29.663  1.00  0.00    -0.248 NA
ATOM     32  C   UNL A   1      45.192  24.372  29.079  1.00  0.00     0.031 C 
ATOM     33  C   UNL A   1      46.797  29.538  31.829  1.00  0.00     0.029 A 
ATOM     34  C   UNL A   1      46.075  28.564  31.159  1.00  0.00     0.049 A 
ATOM     35  H   UNL A   1      44.106  28.646  30.405  1.00  0.00     0.167 HD
ATOM     36  C   UNL A   1      45.715  26.344  30.124  1.00  0.00     0.074 A 
ATOM     37  C   UNL A   1      46.136  25.007  29.760  1.00  0.00     0.031 C 
ATOM     38  C   UNL A   1      46.488  27.233  30.796  1.00  0.00     0.031 A 
BRANCH  25  39
ATOM     39  C   UNL A   1      43.733  32.671  31.792  1.00  0.00    -0.014 A 
ATOM     40  C   UNL A   1      43.466  32.961  33.141  1.00  0.00     0.010 A 
ATOM     41  C   UNL A   1      44.156  33.707  30.939  1.00  0.00     0.010 A 
ATOM     42  C   UNL A   1      43.575  34.270  33.619  1.00  0.00     0.020 A 
ATOM     43  C   UNL A   1      44.289  35.014  31.418  1.00  0.00     0.020 A 
ATOM     44  C   UNL A   1      43.979  35.291  32.752  1.00  0.00     0.054 A 
BRANCH  44  45
ATOM     45  S   UNL A   1      44.124  36.980  33.397  1.00  0.00     0.124 S 
ATOM     46  O   UNL A   1      42.768  37.232  33.884  1.00  0.00    -0.237 OA
ATOM     47  O   UNL A   1      45.145  36.846  34.432  1.00  0.00    -0.237 OA
ATOM     48  O   UNL A   1      44.522  37.764  32.230  1.00  0.00    -0.744 OA
ENDBRANCH  44  45
ENDBRANCH  25  39
BRANCH  26  49
ATOM     49  C   UNL A   1      42.663  23.594  27.840  1.00  0.00    -0.014 A 
ATOM     50  C   UNL A   1      42.057  22.562  28.578  1.00  0.00     0.010 A 
ATOM     51  C   UNL A   1      43.111  23.334  26.533  1.00  0.00     0.010 A 
ATOM     52  C   UNL A   1      41.911  21.288  28.022  1.00  0.00     0.020 A 
ATOM     53  C   UNL A   1      42.945  22.067  25.966  1.00  0.00     0.020 A 
ATOM     54  C   UNL A   1      42.355  21.049  26.719  1.00  0.00     0.054 A 
BRANCH  54  55
ATOM     55  S   UNL A   1      42.101  19.406  25.993  1.00  0.00     0.124 S 
ATOM     56  O   UNL A   1      42.606  18.529  27.045  1.00  0.00    -0.237 OA
ATOM     57  O   UNL A   1      40.657  19.372  25.779  1.00  0.00    -0.237 OA
ATOM     58  O   UNL A   1      42.902  19.446  24.771  1.00  0.00    -0.744 OA
ENDBRANCH  54  55
ENDBRANCH  26  49
BRANCH  38  59
ATOM     59  C   UNL A   1      47.858  26.774  31.219  1.00  0.00    -0.014 A 
ATOM     60  C   UNL A   1      48.063  26.126  32.449  1.00  0.00     0.010 A 
ATOM     61  C   UNL A   1      48.952  26.972  30.356  1.00  0.00     0.010 A 
ATOM     62  C   UNL A   1      49.346  25.716  32.826  1.00  0.00     0.020 A 
ATOM     63  C   UNL A   1      50.231  26.544  30.720  1.00  0.00     0.020 A 
ATOM     64  C   UNL A   1      50.424  25.934  31.961  1.00  0.00     0.054 A 
BRANCH  64  65
ATOM     65  S   UNL A   1      52.077  25.372  32.456  1.00  0.00     0.124 S 
ATOM     66  O   UNL A   1      51.895  23.926  32.528  1.00  0.00    -0.237 OA
ATOM     67  O   UNL A   1      52.922  25.846  31.363  1.00  0.00    -0.237 OA
ATOM     68  O   UNL A   1      52.298  26.039  33.737  1.00  0.00    -0.744 OA
ENDBRANCH  64  65
ENDBRANCH  38  59
ENDBRANCH  12  13
ENDBRANCH   5   7
ENDBRANCH   2   3
ENDBRANCH   1   2
BRANCH   1  69
ATOM     69  C   UNL A   1      32.132  27.353  26.771  1.00  0.00     0.023 C 
BRANCH  69  70
ATOM     70  C   UNL A   1      31.475  25.993  26.526  1.00  0.00     0.116 C 
BRANCH  70  71
ATOM     71  N   UNL A   1      30.246  26.071  25.754  1.00  0.00    -0.352 N 
ATOM     72  C   UNL A   1      30.108  26.177  24.397  1.00  0.00     0.252 C 
ATOM     73  H   UNL A   1      29.408  26.045  26.272  1.00  0.00     0.163 HD
ATOM     74  O   UNL A   1      29.020  26.274  23.838  1.00  0.00    -0.269 OA
BRANCH  72  75
ATOM     75  C   UNL A   1      31.281  26.178  23.533  1.00  0.00     0.053 A 
ATOM     76  C   UNL A   1      31.720  27.465  23.164  1.00  0.00     0.015 A 
ATOM     77  C   UNL A   1      31.904  25.018  23.057  1.00  0.00     0.021 A 
ATOM     78  C   UNL A   1      32.853  27.621  22.379  1.00  0.00     0.001 A 
ATOM     79  C   UNL A   1      33.072  25.211  22.293  1.00  0.00     0.016 A 
ATOM     80  C   UNL A   1      33.543  26.491  21.962  1.00  0.00     0.001 A 
BRANCH  77  81
ATOM     81  S   UNL A   1      31.515  23.298  23.400  1.00  0.00    -0.109 SA
BRANCH  81  82
ATOM     82  C   UNL A   1      32.773  22.571  24.520  1.00  0.00     0.178 C 
ATOM     83  C   UNL A   1      34.165  22.323  24.000  1.00  0.00     0.156 C 
ATOM     84  C   UNL A   1      32.368  21.283  25.188  1.00  0.00     0.331 C 
ATOM     85  C   UNL A   1      34.571  21.096  24.771  1.00  0.00     0.319 C 
ATOM     86  N   UNL A   1      33.435  20.416  25.144  1.00  0.00    -0.123 N 
ATOM     87  O   UNL A   1      31.333  21.166  25.834  1.00  0.00    -0.245 OA
ATOM     88  O   UNL A   1      35.730  20.893  25.107  1.00  0.00    -0.246 OA
BRANCH  86  89
ATOM     89  C   UNL A   1      33.269  19.037  25.175  1.00  0.00     0.321 C 
ATOM     90  N   UNL A   1      32.773  18.407  26.194  1.00  0.00    -0.267 N 
ATOM     91  S   UNL A   1      33.610  18.086  23.750  1.00  0.00    -0.034 SA
ATOM     92  C   UNL A   1      32.401  17.032  25.804  1.00  0.00     0.246 C 
ATOM     93  H   UNL A   1      32.660  18.788  27.095  1.00  0.00     0.305 HD
ATOM     94  C   UNL A   1      33.234  16.564  24.628  1.00  0.00     0.128 C 
ENDBRANCH  86  89
ENDBRANCH  81  82
ENDBRANCH  77  81
ENDBRANCH  72  75
ENDBRANCH  70  71
ENDBRANCH  69  70
ENDBRANCH   1  69
TORSDOF 17
ENDMDL
