MODEL 1
REMARK VINA RESULT:     -12.8      0.000      0.000
REMARK SMILES CC1=NN(c2ccc(Cl)c(C(=O)NCCCCNC(=O)c3ccc(-c4c5nc(c(-c6ccc(S(=O)(=O)[O-])cc6)c6ccc([nH]6)c(-c6ccc(S(=O)(=O)[O-])cc6)c6nc(c(-c7ccc(S(=O)(=O)[O-])cc7)c7ccc4[nH]7)C=C6)C=C5)cc3)c2)C(=O)/C1=C\c1ccccc1Cl
REMARK SMILES IDX 16 1 15 2 14 3 13 4 11 5 12 6 10 8 5 9 6 10 81 11 7 12 8 13
REMARK SMILES IDX 9 14 4 15 1 16 2 17 3 18 84 19 82 20 85 21 83 22 86 23 87 24
REMARK SMILES IDX 91 25 88 26 90 27 92 28 89 29 17 30 18 31 19 32 20 34 21 35
REMARK SMILES IDX 22 36 80 37 23 38 79 39 24 40 25 41 26 42 73 43 27 44 78 45
REMARK SMILES IDX 72 46 74 47 28 48 77 49 71 50 70 51 29 53 59 54 40 55 58 56
REMARK SMILES IDX 41 57 44 58 57 59 75 60 42 61 43 62 56 64 76 65 45 66 30 67
REMARK SMILES IDX 31 68 39 69 32 70 38 71 33 72 34 73 35 74 36 75 37 76 60 77
REMARK SMILES IDX 61 78 69 79 62 80 68 81 63 82 64 83 65 84 66 85 67 86 46 87
REMARK SMILES IDX 47 88 55 89 48 90 54 91 49 92 50 93 51 94 52 95 53 96
REMARK H PARENT 13 7 18 33 74 52 44 63
REMARK Flexibility Score: inf
ROOT
ATOM      1  C   UNL A   1      40.043  22.801  26.895  1.00  0.00     0.023 C 
ENDROOT
BRANCH   1   2
ATOM      2  C   UNL A   1      38.972  23.853  26.621  1.00  0.00     0.023 C 
BRANCH   2   3
ATOM      3  C   UNL A   1      37.667  23.351  26.022  1.00  0.00     0.116 C 
BRANCH   3   4
ATOM      4  N   UNL A   1      37.625  23.321  24.570  1.00  0.00    -0.352 N 
ATOM      5  C   UNL A   1      36.677  22.788  23.721  1.00  0.00     0.252 C 
ATOM      6  O   UNL A   1      36.833  22.913  22.506  1.00  0.00    -0.269 OA
ATOM      7  H   UNL A   1      38.393  23.745  24.123  1.00  0.00     0.163 HD
BRANCH   5   8
ATOM      8  C   UNL A   1      35.513  22.003  24.212  1.00  0.00     0.060 A 
ATOM      9  C   UNL A   1      33.193  22.047  24.957  1.00  0.00     0.070 A 
ATOM     10  C   UNL A   1      33.241  20.657  25.114  1.00  0.00     0.030 A 
ATOM     11  C   UNL A   1      34.297  22.705  24.402  1.00  0.00     0.044 A 
ATOM     12  C   UNL A   1      34.432  19.967  24.953  1.00  0.00     0.023 A 
ATOM     13  C   UNL A   1      35.591  20.661  24.618  1.00  0.00     0.053 A 
ATOM     14  Cl  UNL A   1      37.069  19.826  24.948  1.00  0.00    -0.083 Cl
BRANCH   9  15
ATOM     15  N   UNL A   1      32.126  22.743  25.563  1.00  0.00    -0.196 N 
ATOM     16  C   UNL A   1      29.057  22.846  27.447  1.00  0.00     0.069 C 
ATOM     17  C   UNL A   1      30.259  23.045  26.584  1.00  0.00     0.071 C 
ATOM     18  N   UNL A   1      31.100  22.098  26.240  1.00  0.00    -0.169 NA
ATOM     19  C   UNL A   1      30.634  24.359  26.029  1.00  0.00     0.065 C 
ATOM     20  C   UNL A   1      31.961  24.131  25.428  1.00  0.00     0.280 C 
ATOM     21  C   UNL A   1      29.894  25.476  25.943  1.00  0.00     0.025 C 
ATOM     22  O   UNL A   1      32.683  24.971  24.922  1.00  0.00    -0.267 OA
BRANCH  21  23
ATOM     23  C   UNL A   1      30.310  26.616  25.103  1.00  0.00    -0.006 A 
ATOM     24  C   UNL A   1      29.853  26.693  23.781  1.00  0.00     0.009 A 
ATOM     25  C   UNL A   1      31.071  27.685  25.620  1.00  0.00     0.048 A 
ATOM     26  C   UNL A   1      30.125  27.823  23.003  1.00  0.00     0.001 A 
ATOM     27  C   UNL A   1      31.331  28.816  24.842  1.00  0.00     0.021 A 
ATOM     28  Cl  UNL A   1      31.699  27.660  27.234  1.00  0.00    -0.084 Cl
ATOM     29  C   UNL A   1      30.852  28.888  23.535  1.00  0.00     0.002 A 
ENDBRANCH  21  23
ENDBRANCH   9  15
ENDBRANCH   5   8
ENDBRANCH   3   4
ENDBRANCH   2   3
ENDBRANCH   1   2
BRANCH   1  30
ATOM     30  C   UNL A   1      41.487  23.289  26.984  1.00  0.00     0.116 C 
BRANCH  30  31
ATOM     31  N   UNL A   1      41.882  24.190  25.912  1.00  0.00    -0.352 N 
ATOM     32  C   UNL A   1      42.086  25.553  25.932  1.00  0.00     0.251 C 
ATOM     33  H   UNL A   1      42.026  23.761  25.037  1.00  0.00     0.163 HD
ATOM     34  O   UNL A   1      42.358  26.143  24.889  1.00  0.00    -0.269 OA
BRANCH  32  35
ATOM     35  C   UNL A   1      41.936  26.314  27.194  1.00  0.00     0.039 A 
ATOM     36  C   UNL A   1      42.813  27.372  27.451  1.00  0.00     0.014 A 
ATOM     37  C   UNL A   1      40.928  26.007  28.110  1.00  0.00     0.014 A 
ATOM     38  C   UNL A   1      42.622  28.173  28.581  1.00  0.00     0.010 A 
ATOM     39  C   UNL A   1      40.686  26.858  29.185  1.00  0.00     0.010 A 
ATOM     40  C   UNL A   1      41.528  27.951  29.434  1.00  0.00    -0.014 A 
BRANCH  40  41
ATOM     41  C   UNL A   1      41.251  28.849  30.587  1.00  0.00     0.031 A 
ATOM     42  C   UNL A   1      42.071  28.741  31.845  1.00  0.00     0.074 A 
ATOM     43  C   UNL A   1      40.220  29.718  30.529  1.00  0.00     0.049 A 
ATOM     44  N   UNL A   1      41.948  29.401  32.970  1.00  0.00    -0.248 NA
ATOM     45  C   UNL A   1      43.153  27.743  31.853  1.00  0.00     0.031 C 
ATOM     46  C   UNL A   1      39.316  29.888  29.388  1.00  0.00     0.029 A 
ATOM     47  N   UNL A   1      39.756  30.622  31.453  1.00  0.00    -0.354 N 
ATOM     48  C   UNL A   1      42.920  28.885  33.819  1.00  0.00     0.074 A 
ATOM     49  C   UNL A   1      43.585  27.820  33.102  1.00  0.00     0.031 C 
ATOM     50  C   UNL A   1      38.433  30.860  29.666  1.00  0.00     0.029 A 
ATOM     51  C   UNL A   1      38.677  31.356  31.018  1.00  0.00     0.049 A 
ATOM     52  H   UNL A   1      40.158  30.733  32.346  1.00  0.00     0.167 HD
ATOM     53  C   UNL A   1      43.248  29.275  35.075  1.00  0.00     0.031 A 
ATOM     54  C   UNL A   1      37.964  32.320  31.633  1.00  0.00     0.031 A 
ATOM     55  C   UNL A   1      42.596  30.345  35.781  1.00  0.00     0.049 A 
ATOM     56  C   UNL A   1      38.347  32.739  33.026  1.00  0.00     0.074 A 
ATOM     57  C   UNL A   1      42.891  30.854  37.035  1.00  0.00     0.029 A 
ATOM     58  N   UNL A   1      41.518  31.071  35.299  1.00  0.00    -0.354 N 
ATOM     59  N   UNL A   1      39.313  32.283  33.788  1.00  0.00    -0.248 NA
ATOM     60  C   UNL A   1      37.553  33.813  33.638  1.00  0.00     0.031 C 
ATOM     61  C   UNL A   1      41.962  31.857  37.328  1.00  0.00     0.029 A 
ATOM     62  C   UNL A   1      41.124  32.012  36.235  1.00  0.00     0.049 A 
ATOM     63  H   UNL A   1      41.096  30.938  34.420  1.00  0.00     0.167 HD
ATOM     64  C   UNL A   1      39.262  33.036  34.956  1.00  0.00     0.074 A 
ATOM     65  C   UNL A   1      38.178  33.983  34.796  1.00  0.00     0.031 C 
ATOM     66  C   UNL A   1      40.045  32.951  36.060  1.00  0.00     0.031 A 
BRANCH  53  67
ATOM     67  C   UNL A   1      44.368  28.536  35.760  1.00  0.00    -0.014 A 
ATOM     68  C   UNL A   1      44.107  27.437  36.599  1.00  0.00     0.010 A 
ATOM     69  C   UNL A   1      45.702  28.929  35.545  1.00  0.00     0.010 A 
ATOM     70  C   UNL A   1      45.152  26.778  37.250  1.00  0.00     0.020 A 
ATOM     71  C   UNL A   1      46.754  28.253  36.170  1.00  0.00     0.020 A 
ATOM     72  C   UNL A   1      46.469  27.193  37.036  1.00  0.00     0.054 A 
BRANCH  72  73
ATOM     73  S   UNL A   1      47.807  26.312  37.887  1.00  0.00     0.124 S 
ATOM     74  O   UNL A   1      47.583  26.696  39.278  1.00  0.00    -0.237 OA
ATOM     75  O   UNL A   1      47.525  24.915  37.567  1.00  0.00    -0.237 OA
ATOM     76  O   UNL A   1      49.020  26.854  37.279  1.00  0.00    -0.744 OA
ENDBRANCH  72  73
ENDBRANCH  53  67
BRANCH  54  77
ATOM     77  C   UNL A   1      36.835  32.980  30.921  1.00  0.00    -0.014 A 
ATOM     78  C   UNL A   1      35.505  32.647  31.232  1.00  0.00     0.010 A 
ATOM     79  C   UNL A   1      37.082  33.958  29.939  1.00  0.00     0.010 A 
ATOM     80  C   UNL A   1      34.443  33.267  30.566  1.00  0.00     0.020 A 
ATOM     81  C   UNL A   1      36.022  34.599  29.290  1.00  0.00     0.020 A 
ATOM     82  C   UNL A   1      34.709  34.241  29.600  1.00  0.00     0.054 A 
BRANCH  82  83
ATOM     83  S   UNL A   1      33.314  35.072  28.789  1.00  0.00     0.124 S 
ATOM     84  O   UNL A   1      33.986  36.124  28.032  1.00  0.00    -0.237 OA
ATOM     85  O   UNL A   1      32.725  33.998  27.995  1.00  0.00    -0.237 OA
ATOM     86  O   UNL A   1      32.494  35.531  29.908  1.00  0.00    -0.744 OA
ENDBRANCH  82  83
ENDBRANCH  54  77
BRANCH  66  87
ATOM     87  C   UNL A   1      39.788  33.936  37.170  1.00  0.00    -0.014 A 
ATOM     88  C   UNL A   1      38.939  33.620  38.245  1.00  0.00     0.010 A 
ATOM     89  C   UNL A   1      40.458  35.173  37.163  1.00  0.00     0.010 A 
ATOM     90  C   UNL A   1      38.741  34.539  39.280  1.00  0.00     0.020 A 
ATOM     91  C   UNL A   1      40.284  36.082  38.211  1.00  0.00     0.020 A 
ATOM     92  C   UNL A   1      39.416  35.764  39.256  1.00  0.00     0.054 A 
BRANCH  92  93
ATOM     93  S   UNL A   1      39.178  36.919  40.635  1.00  0.00     0.124 S 
ATOM     94  O   UNL A   1      40.544  37.364  40.898  1.00  0.00    -0.237 OA
ATOM     95  O   UNL A   1      38.289  37.925  40.061  1.00  0.00    -0.237 OA
ATOM     96  O   UNL A   1      38.580  36.092  41.680  1.00  0.00    -0.744 OA
ENDBRANCH  92  93
ENDBRANCH  66  87
ENDBRANCH  40  41
ENDBRANCH  32  35
ENDBRANCH  30  31
ENDBRANCH   1  30
TORSDOF 16
ENDMDL
MODEL 2
REMARK VINA RESULT:     -12.6      6.280     11.928
REMARK SMILES CC1=NN(c2ccc(Cl)c(C(=O)NCCCCNC(=O)c3ccc(-c4c5nc(c(-c6ccc(S(=O)(=O)[O-])cc6)c6ccc([nH]6)c(-c6ccc(S(=O)(=O)[O-])cc6)c6nc(c(-c7ccc(S(=O)(=O)[O-])cc7)c7ccc4[nH]7)C=C6)C=C5)cc3)c2)C(=O)/C1=C\c1ccccc1Cl
REMARK SMILES IDX 16 1 15 2 14 3 13 4 11 5 12 6 10 8 5 9 6 10 81 11 7 12 8 13
REMARK SMILES IDX 9 14 4 15 1 16 2 17 3 18 84 19 82 20 85 21 83 22 86 23 87 24
REMARK SMILES IDX 91 25 88 26 90 27 92 28 89 29 17 30 18 31 19 32 20 34 21 35
REMARK SMILES IDX 22 36 80 37 23 38 79 39 24 40 25 41 26 42 73 43 27 44 78 45
REMARK SMILES IDX 72 46 74 47 28 48 77 49 71 50 70 51 29 53 59 54 40 55 58 56
REMARK SMILES IDX 41 57 44 58 57 59 75 60 42 61 43 62 56 64 76 65 45 66 30 67
REMARK SMILES IDX 31 68 39 69 32 70 38 71 33 72 34 73 35 74 36 75 37 76 60 77
REMARK SMILES IDX 61 78 69 79 62 80 68 81 63 82 64 83 65 84 66 85 67 86 46 87
REMARK SMILES IDX 47 88 55 89 48 90 54 91 49 92 50 93 51 94 52 95 53 96
REMARK H PARENT 13 7 18 33 74 52 44 63
REMARK Flexibility Score: inf
ROOT
ATOM      1  C   UNL A   1      34.186  29.627  27.012  1.00  0.00     0.023 C 
ENDROOT
BRANCH   1   2
ATOM      2  C   UNL A   1      34.034  28.250  26.370  1.00  0.00     0.023 C 
BRANCH   2   3
ATOM      3  C   UNL A   1      32.724  27.522  26.635  1.00  0.00     0.116 C 
BRANCH   3   4
ATOM      4  N   UNL A   1      31.575  28.033  25.908  1.00  0.00    -0.352 N 
ATOM      5  C   UNL A   1      31.118  27.727  24.643  1.00  0.00     0.252 C 
ATOM      6  O   UNL A   1      30.086  28.265  24.240  1.00  0.00    -0.269 OA
ATOM      7  H   UNL A   1      31.041  28.703  26.393  1.00  0.00     0.163 HD
BRANCH   5   8
ATOM      8  C   UNL A   1      31.863  26.833  23.717  1.00  0.00     0.060 A 
ATOM      9  C   UNL A   1      32.680  24.579  23.277  1.00  0.00     0.070 A 
ATOM     10  C   UNL A   1      33.210  25.032  22.065  1.00  0.00     0.030 A 
ATOM     11  C   UNL A   1      31.912  25.457  24.052  1.00  0.00     0.044 A 
ATOM     12  C   UNL A   1      33.187  26.380  21.741  1.00  0.00     0.023 A 
ATOM     13  C   UNL A   1      32.618  27.291  22.626  1.00  0.00     0.053 A 
ATOM     14  Cl  UNL A   1      33.091  28.938  22.391  1.00  0.00    -0.083 Cl
BRANCH   9  15
ATOM     15  N   UNL A   1      33.122  23.332  23.767  1.00  0.00    -0.196 N 
ATOM     16  C   UNL A   1      32.514  20.000  24.998  1.00  0.00     0.069 C 
ATOM     17  C   UNL A   1      33.002  21.355  24.604  1.00  0.00     0.071 C 
ATOM     18  N   UNL A   1      32.246  22.312  24.118  1.00  0.00    -0.169 NA
ATOM     19  C   UNL A   1      34.417  21.758  24.716  1.00  0.00     0.065 C 
ATOM     20  C   UNL A   1      34.473  23.068  24.042  1.00  0.00     0.280 C 
ATOM     21  C   UNL A   1      35.407  21.161  25.398  1.00  0.00     0.025 C 
ATOM     22  O   UNL A   1      35.471  23.733  23.831  1.00  0.00    -0.267 OA
BRANCH  21  23
ATOM     23  C   UNL A   1      36.692  21.843  25.648  1.00  0.00    -0.006 A 
ATOM     24  C   UNL A   1      36.687  23.138  26.182  1.00  0.00     0.009 A 
ATOM     25  C   UNL A   1      37.929  21.191  25.464  1.00  0.00     0.048 A 
ATOM     26  C   UNL A   1      37.887  23.757  26.548  1.00  0.00     0.001 A 
ATOM     27  C   UNL A   1      39.125  21.810  25.840  1.00  0.00     0.021 A 
ATOM     28  Cl  UNL A   1      38.030  19.601  24.784  1.00  0.00    -0.084 Cl
ATOM     29  C   UNL A   1      39.102  23.091  26.389  1.00  0.00     0.002 A 
ENDBRANCH  21  23
ENDBRANCH   9  15
ENDBRANCH   5   8
ENDBRANCH   3   4
ENDBRANCH   2   3
ENDBRANCH   1   2
BRANCH   1  30
ATOM     30  C   UNL A   1      35.511  29.925  27.707  1.00  0.00     0.116 C 
BRANCH  30  31
ATOM     31  N   UNL A   1      35.429  29.969  29.160  1.00  0.00    -0.352 N 
ATOM     32  C   UNL A   1      36.422  29.843  30.106  1.00  0.00     0.251 C 
ATOM     33  H   UNL A   1      34.524  30.111  29.522  1.00  0.00     0.163 HD
ATOM     34  O   UNL A   1      36.130  29.846  31.299  1.00  0.00    -0.269 OA
BRANCH  32  35
ATOM     35  C   UNL A   1      37.833  29.660  29.691  1.00  0.00     0.039 A 
ATOM     36  C   UNL A   1      38.802  29.447  30.676  1.00  0.00     0.014 A 
ATOM     37  C   UNL A   1      38.200  29.674  28.345  1.00  0.00     0.014 A 
ATOM     38  C   UNL A   1      40.119  29.162  30.304  1.00  0.00     0.010 A 
ATOM     39  C   UNL A   1      39.490  29.303  27.974  1.00  0.00     0.010 A 
ATOM     40  C   UNL A   1      40.465  29.042  28.948  1.00  0.00    -0.014 A 
BRANCH  40  41
ATOM     41  C   UNL A   1      41.837  28.645  28.530  1.00  0.00     0.031 A 
ATOM     42  C   UNL A   1      42.935  29.674  28.463  1.00  0.00     0.074 A 
ATOM     43  C   UNL A   1      42.082  27.374  28.149  1.00  0.00     0.049 A 
ATOM     44  N   UNL A   1      44.178  29.530  28.077  1.00  0.00    -0.248 NA
ATOM     45  C   UNL A   1      42.585  31.049  28.855  1.00  0.00     0.031 C 
ATOM     46  C   UNL A   1      41.095  26.291  28.119  1.00  0.00     0.029 A 
ATOM     47  N   UNL A   1      43.238  26.777  27.710  1.00  0.00    -0.354 N 
ATOM     48  C   UNL A   1      44.749  30.795  28.161  1.00  0.00     0.074 A 
ATOM     49  C   UNL A   1      43.703  31.702  28.578  1.00  0.00     0.031 C 
ATOM     50  C   UNL A   1      41.696  25.158  27.721  1.00  0.00     0.029 A 
ATOM     51  C   UNL A   1      43.098  25.439  27.427  1.00  0.00     0.049 A 
ATOM     52  H   UNL A   1      44.089  27.263  27.605  1.00  0.00     0.167 HD
ATOM     53  C   UNL A   1      46.032  31.167  27.934  1.00  0.00     0.031 A 
ATOM     54  C   UNL A   1      43.994  24.535  26.983  1.00  0.00     0.031 A 
ATOM     55  C   UNL A   1      47.074  30.260  27.534  1.00  0.00     0.049 A 
ATOM     56  C   UNL A   1      45.414  24.970  26.740  1.00  0.00     0.074 A 
ATOM     57  C   UNL A   1      48.418  30.528  27.333  1.00  0.00     0.029 A 
ATOM     58  N   UNL A   1      46.892  28.910  27.272  1.00  0.00    -0.354 N 
ATOM     59  N   UNL A   1      45.949  26.158  26.888  1.00  0.00    -0.248 NA
ATOM     60  C   UNL A   1      46.355  23.938  26.282  1.00  0.00     0.031 C 
ATOM     61  C   UNL A   1      49.038  29.350  26.906  1.00  0.00     0.029 A 
ATOM     62  C   UNL A   1      48.094  28.335  26.895  1.00  0.00     0.049 A 
ATOM     63  H   UNL A   1      46.035  28.433  27.345  1.00  0.00     0.167 HD
ATOM     64  C   UNL A   1      47.295  26.010  26.573  1.00  0.00     0.074 A 
ATOM     65  C   UNL A   1      47.495  24.616  26.236  1.00  0.00     0.031 C 
ATOM     66  C   UNL A   1      48.277  26.944  26.566  1.00  0.00     0.031 A 
BRANCH  53  67
ATOM     67  C   UNL A   1      46.374  32.622  28.119  1.00  0.00    -0.014 A 
ATOM     68  C   UNL A   1      46.856  33.105  29.350  1.00  0.00     0.010 A 
ATOM     69  C   UNL A   1      46.234  33.518  27.043  1.00  0.00     0.010 A 
ATOM     70  C   UNL A   1      47.143  34.461  29.517  1.00  0.00     0.020 A 
ATOM     71  C   UNL A   1      46.551  34.871  27.196  1.00  0.00     0.020 A 
ATOM     72  C   UNL A   1      46.984  35.337  28.440  1.00  0.00     0.054 A 
BRANCH  72  73
ATOM     73  S   UNL A   1      47.374  37.092  28.682  1.00  0.00     0.124 S 
ATOM     74  O   UNL A   1      46.315  37.744  27.917  1.00  0.00    -0.237 OA
ATOM     75  O   UNL A   1      47.284  37.243  30.133  1.00  0.00    -0.237 OA
ATOM     76  O   UNL A   1      48.718  37.229  28.127  1.00  0.00    -0.744 OA
ENDBRANCH  72  73
ENDBRANCH  53  67
BRANCH  54  77
ATOM     77  C   UNL A   1      43.582  23.120  26.772  1.00  0.00    -0.014 A 
ATOM     78  C   UNL A   1      43.798  22.493  25.532  1.00  0.00     0.010 A 
ATOM     79  C   UNL A   1      42.988  22.384  27.814  1.00  0.00     0.010 A 
ATOM     80  C   UNL A   1      43.415  21.163  25.331  1.00  0.00     0.020 A 
ATOM     81  C   UNL A   1      42.627  21.046  27.626  1.00  0.00     0.020 A 
ATOM     82  C   UNL A   1      42.833  20.447  26.381  1.00  0.00     0.054 A 
BRANCH  82  83
ATOM     83  S   UNL A   1      42.395  18.706  26.116  1.00  0.00     0.124 S 
ATOM     84  O   UNL A   1      42.608  18.134  27.441  1.00  0.00    -0.237 OA
ATOM     85  O   UNL A   1      41.004  18.794  25.679  1.00  0.00    -0.237 OA
ATOM     86  O   UNL A   1      43.336  18.271  25.086  1.00  0.00    -0.744 OA
ENDBRANCH  82  83
ENDBRANCH  54  77
BRANCH  66  87
ATOM     87  C   UNL A   1      49.670  26.485  26.223  1.00  0.00    -0.014 A 
ATOM     88  C   UNL A   1      50.203  26.667  24.934  1.00  0.00     0.010 A 
ATOM     89  C   UNL A   1      50.477  25.918  27.226  1.00  0.00     0.010 A 
ATOM     90  C   UNL A   1      51.509  26.261  24.648  1.00  0.00     0.020 A 
ATOM     91  C   UNL A   1      51.793  25.538  26.950  1.00  0.00     0.020 A 
ATOM     92  C   UNL A   1      52.297  25.699  25.659  1.00  0.00     0.054 A 
BRANCH  92  93
ATOM     93  S   UNL A   1      54.004  25.224  25.274  1.00  0.00     0.124 S 
ATOM     94  O   UNL A   1      54.700  25.558  26.513  1.00  0.00    -0.237 OA
ATOM     95  O   UNL A   1      53.883  23.798  24.985  1.00  0.00    -0.237 OA
ATOM     96  O   UNL A   1      54.345  26.059  24.124  1.00  0.00    -0.744 OA
ENDBRANCH  92  93
ENDBRANCH  66  87
ENDBRANCH  40  41
ENDBRANCH  32  35
ENDBRANCH  30  31
ENDBRANCH   1  30
TORSDOF 16
ENDMDL
MODEL 3
REMARK VINA RESULT:     -12.5      4.195     10.117
REMARK SMILES CC1=NN(c2ccc(Cl)c(C(=O)NCCCCNC(=O)c3ccc(-c4c5nc(c(-c6ccc(S(=O)(=O)[O-])cc6)c6ccc([nH]6)c(-c6ccc(S(=O)(=O)[O-])cc6)c6nc(c(-c7ccc(S(=O)(=O)[O-])cc7)c7ccc4[nH]7)C=C6)C=C5)cc3)c2)C(=O)/C1=C\c1ccccc1Cl
REMARK SMILES IDX 16 1 15 2 14 3 13 4 11 5 12 6 10 8 5 9 6 10 81 11 7 12 8 13
REMARK SMILES IDX 9 14 4 15 1 16 2 17 3 18 84 19 82 20 85 21 83 22 86 23 87 24
REMARK SMILES IDX 91 25 88 26 90 27 92 28 89 29 17 30 18 31 19 32 20 34 21 35
REMARK SMILES IDX 22 36 80 37 23 38 79 39 24 40 25 41 26 42 73 43 27 44 78 45
REMARK SMILES IDX 72 46 74 47 28 48 77 49 71 50 70 51 29 53 59 54 40 55 58 56
REMARK SMILES IDX 41 57 44 58 57 59 75 60 42 61 43 62 56 64 76 65 45 66 30 67
REMARK SMILES IDX 31 68 39 69 32 70 38 71 33 72 34 73 35 74 36 75 37 76 60 77
REMARK SMILES IDX 61 78 69 79 62 80 68 81 63 82 64 83 65 84 66 85 67 86 46 87
REMARK SMILES IDX 47 88 55 89 48 90 54 91 49 92 50 93 51 94 52 95 53 96
REMARK H PARENT 13 7 18 33 74 52 44 63
REMARK Flexibility Score: inf
ROOT
ATOM      1  C   UNL A   1      32.658  28.230  25.928  1.00  0.00     0.023 C 
ENDROOT
BRANCH   1   2
ATOM      2  C   UNL A   1      32.591  26.731  26.209  1.00  0.00     0.023 C 
BRANCH   2   3
ATOM      3  C   UNL A   1      31.200  26.131  26.354  1.00  0.00     0.116 C 
BRANCH   3   4
ATOM      4  N   UNL A   1      30.193  26.683  25.466  1.00  0.00    -0.352 N 
ATOM      5  C   UNL A   1      30.048  26.555  24.100  1.00  0.00     0.252 C 
ATOM      6  O   UNL A   1      29.083  27.089  23.554  1.00  0.00    -0.269 OA
ATOM      7  H   UNL A   1      29.508  27.237  25.906  1.00  0.00     0.163 HD
BRANCH   5   8
ATOM      8  C   UNL A   1      31.052  25.860  23.250  1.00  0.00     0.060 A 
ATOM      9  C   UNL A   1      32.256  23.791  22.796  1.00  0.00     0.070 A 
ATOM     10  C   UNL A   1      32.893  24.423  21.723  1.00  0.00     0.030 A 
ATOM     11  C   UNL A   1      31.255  24.479  23.492  1.00  0.00     0.044 A 
ATOM     12  C   UNL A   1      32.718  25.780  21.495  1.00  0.00     0.023 A 
ATOM     13  C   UNL A   1      31.889  26.518  22.334  1.00  0.00     0.053 A 
ATOM     14  Cl  UNL A   1      32.140  28.228  22.297  1.00  0.00    -0.083 Cl
BRANCH   9  15
ATOM     15  N   UNL A   1      32.800  22.576  23.264  1.00  0.00    -0.196 N 
ATOM     16  C   UNL A   1      32.505  19.107  24.193  1.00  0.00     0.069 C 
ATOM     17  C   UNL A   1      32.848  20.540  23.954  1.00  0.00     0.071 C 
ATOM     18  N   UNL A   1      32.036  21.428  23.428  1.00  0.00    -0.169 NA
ATOM     19  C   UNL A   1      34.168  21.111  24.283  1.00  0.00     0.065 C 
ATOM     20  C   UNL A   1      34.129  22.467  23.705  1.00  0.00     0.280 C 
ATOM     21  C   UNL A   1      35.136  20.594  25.056  1.00  0.00     0.025 C 
ATOM     22  O   UNL A   1      35.045  23.269  23.674  1.00  0.00    -0.267 OA
BRANCH  21  23
ATOM     23  C   UNL A   1      36.272  21.413  25.521  1.00  0.00    -0.006 A 
ATOM     24  C   UNL A   1      37.558  21.134  25.041  1.00  0.00     0.009 A 
ATOM     25  C   UNL A   1      36.090  22.535  26.356  1.00  0.00     0.048 A 
ATOM     26  C   UNL A   1      38.631  21.972  25.363  1.00  0.00     0.001 A 
ATOM     27  C   UNL A   1      37.163  23.375  26.668  1.00  0.00     0.021 A 
ATOM     28  Cl  UNL A   1      34.540  22.937  27.017  1.00  0.00    -0.084 Cl
ATOM     29  C   UNL A   1      38.433  23.096  26.165  1.00  0.00     0.002 A 
ENDBRANCH  21  23
ENDBRANCH   9  15
ENDBRANCH   5   8
ENDBRANCH   3   4
ENDBRANCH   2   3
ENDBRANCH   1   2
BRANCH   1  30
ATOM     30  C   UNL A   1      33.968  28.939  26.258  1.00  0.00     0.116 C 
BRANCH  30  31
ATOM     31  N   UNL A   1      33.809  30.162  27.032  1.00  0.00    -0.352 N 
ATOM     32  C   UNL A   1      34.654  30.743  27.952  1.00  0.00     0.251 C 
ATOM     33  H   UNL A   1      32.968  30.649  26.875  1.00  0.00     0.163 HD
ATOM     34  O   UNL A   1      34.299  31.755  28.550  1.00  0.00    -0.269 OA
BRANCH  32  35
ATOM     35  C   UNL A   1      35.967  30.127  28.256  1.00  0.00     0.039 A 
ATOM     36  C   UNL A   1      36.977  30.184  27.290  1.00  0.00     0.014 A 
ATOM     37  C   UNL A   1      36.215  29.518  29.487  1.00  0.00     0.014 A 
ATOM     38  C   UNL A   1      38.255  29.708  27.594  1.00  0.00     0.010 A 
ATOM     39  C   UNL A   1      37.509  29.126  29.818  1.00  0.00     0.010 A 
ATOM     40  C   UNL A   1      38.546  29.217  28.878  1.00  0.00    -0.014 A 
BRANCH  40  41
ATOM     41  C   UNL A   1      39.923  28.795  29.254  1.00  0.00     0.031 A 
ATOM     42  C   UNL A   1      40.830  29.743  29.992  1.00  0.00     0.074 A 
ATOM     43  C   UNL A   1      40.380  27.584  28.875  1.00  0.00     0.049 A 
ATOM     44  N   UNL A   1      42.075  29.575  30.361  1.00  0.00    -0.248 NA
ATOM     45  C   UNL A   1      40.277  31.063  30.336  1.00  0.00     0.031 C 
ATOM     46  C   UNL A   1      39.620  26.589  28.113  1.00  0.00     0.029 A 
ATOM     47  N   UNL A   1      41.598  26.983  29.078  1.00  0.00    -0.354 N 
ATOM     48  C   UNL A   1      42.457  30.770  30.961  1.00  0.00     0.074 A 
ATOM     49  C   UNL A   1      41.333  31.673  30.854  1.00  0.00     0.031 C 
ATOM     50  C   UNL A   1      40.375  25.492  27.946  1.00  0.00     0.029 A 
ATOM     51  C   UNL A   1      41.685  25.716  28.550  1.00  0.00     0.049 A 
ATOM     52  H   UNL A   1      42.341  27.418  29.556  1.00  0.00     0.167 HD
ATOM     53  C   UNL A   1      43.628  31.083  31.567  1.00  0.00     0.031 A 
ATOM     54  C   UNL A   1      42.702  24.831  28.550  1.00  0.00     0.031 A 
ATOM     55  C   UNL A   1      44.739  30.178  31.685  1.00  0.00     0.049 A 
ATOM     56  C   UNL A   1      43.993  25.198  29.231  1.00  0.00     0.074 A 
ATOM     57  C   UNL A   1      45.949  30.379  32.329  1.00  0.00     0.029 A 
ATOM     58  N   UNL A   1      44.781  28.900  31.148  1.00  0.00    -0.354 N 
ATOM     59  N   UNL A   1      44.310  26.310  29.850  1.00  0.00    -0.248 NA
ATOM     60  C   UNL A   1      45.058  24.186  29.225  1.00  0.00     0.031 C 
ATOM     61  C   UNL A   1      46.738  29.241  32.142  1.00  0.00     0.029 A 
ATOM     62  C   UNL A   1      46.000  28.307  31.431  1.00  0.00     0.049 A 
ATOM     63  H   UNL A   1      44.051  28.477  30.642  1.00  0.00     0.167 HD
ATOM     64  C   UNL A   1      45.600  26.119  30.335  1.00  0.00     0.074 A 
ATOM     65  C   UNL A   1      45.999  24.782  29.946  1.00  0.00     0.031 C 
ATOM     66  C   UNL A   1      46.381  26.973  31.040  1.00  0.00     0.031 A 
BRANCH  53  67
ATOM     67  C   UNL A   1      43.758  32.466  32.150  1.00  0.00    -0.014 A 
ATOM     68  C   UNL A   1      43.360  32.737  33.472  1.00  0.00     0.010 A 
ATOM     69  C   UNL A   1      44.307  33.504  31.376  1.00  0.00     0.010 A 
ATOM     70  C   UNL A   1      43.460  34.029  33.992  1.00  0.00     0.020 A 
ATOM     71  C   UNL A   1      44.439  34.793  31.903  1.00  0.00     0.020 A 
ATOM     72  C   UNL A   1      43.994  35.051  33.202  1.00  0.00     0.054 A 
BRANCH  72  73
ATOM     73  S   UNL A   1      44.122  36.718  33.906  1.00  0.00     0.124 S 
ATOM     74  O   UNL A   1      45.566  36.934  33.907  1.00  0.00    -0.237 OA
ATOM     75  O   UNL A   1      43.366  37.527  32.953  1.00  0.00    -0.237 OA
ATOM     76  O   UNL A   1      43.511  36.584  35.226  1.00  0.00    -0.744 OA
ENDBRANCH  72  73
ENDBRANCH  53  67
BRANCH  54  77
ATOM     77  C   UNL A   1      42.528  23.496  27.913  1.00  0.00    -0.014 A 
ATOM     78  C   UNL A   1      43.199  23.185  26.717  1.00  0.00     0.010 A 
ATOM     79  C   UNL A   1      41.705  22.522  28.507  1.00  0.00     0.010 A 
ATOM     80  C   UNL A   1      43.039  21.932  26.118  1.00  0.00     0.020 A 
ATOM     81  C   UNL A   1      41.564  21.258  27.925  1.00  0.00     0.020 A 
ATOM     82  C   UNL A   1      42.224  20.975  26.728  1.00  0.00     0.054 A 
BRANCH  82  83
ATOM     83  S   UNL A   1      42.076  19.336  25.962  1.00  0.00     0.124 S 
ATOM     84  O   UNL A   1      40.637  19.233  25.741  1.00  0.00    -0.237 OA
ATOM     85  O   UNL A   1      42.893  19.476  24.759  1.00  0.00    -0.237 OA
ATOM     86  O   UNL A   1      42.622  18.436  26.975  1.00  0.00    -0.744 OA
ENDBRANCH  82  83
ENDBRANCH  54  77
BRANCH  66  87
ATOM     87  C   UNL A   1      47.734  26.477  31.477  1.00  0.00    -0.014 A 
ATOM     88  C   UNL A   1      47.929  25.903  32.745  1.00  0.00     0.010 A 
ATOM     89  C   UNL A   1      48.813  26.532  30.575  1.00  0.00     0.010 A 
ATOM     90  C   UNL A   1      49.188  25.422  33.115  1.00  0.00     0.020 A 
ATOM     91  C   UNL A   1      50.065  26.025  30.932  1.00  0.00     0.020 A 
ATOM     92  C   UNL A   1      50.248  25.485  32.205  1.00  0.00     0.054 A 
BRANCH  92  93
ATOM     93  S   UNL A   1      51.859  24.809  32.693  1.00  0.00     0.124 S 
ATOM     94  O   UNL A   1      52.776  25.562  31.842  1.00  0.00    -0.237 OA
ATOM     95  O   UNL A   1      51.922  25.125  34.118  1.00  0.00    -0.237 OA
ATOM     96  O   UNL A   1      51.747  23.386  32.382  1.00  0.00    -0.744 OA
ENDBRANCH  92  93
ENDBRANCH  66  87
ENDBRANCH  40  41
ENDBRANCH  32  35
ENDBRANCH  30  31
ENDBRANCH   1  30
TORSDOF 16
ENDMDL
