MODEL 1
REMARK VINA RESULT:      -9.1      0.000      0.000
REMARK SMILES Nc1c(CC(=O)NCCCCNC(=O)c2ccc(-c3c4nc(c(-c5ccc(S(=O)(=O)[O-])cc5)c5ccc([nH]5)c(-c5ccc(S(=O)(=O)[O-])cc5)c5nc(c(-c6ccc(S(=O)(=O)[O-])cc6)c6ccc3[nH]6)C=C5)C=C4)cc2)cccc1C(=O)c1ccc(Br)cc1
REMARK SMILES IDX 9 1 8 2 7 3 5 4 6 5 4 7 3 8 2 9 78 10 75 11 77 12 76 13 1 14
REMARK SMILES IDX 79 17 80 18 81 19 82 20 87 21 83 22 86 23 84 24 85 25 10 26
REMARK SMILES IDX 11 27 12 28 13 29 14 31 15 32 16 33 74 34 17 35 73 36 18 37
REMARK SMILES IDX 19 38 20 39 67 40 21 41 72 42 66 43 68 44 22 45 71 46 65 47
REMARK SMILES IDX 64 48 23 50 53 51 34 52 52 53 35 54 38 55 51 56 69 57 36 58
REMARK SMILES IDX 37 59 50 61 70 62 39 63 24 64 25 65 33 66 26 67 32 68 27 69
REMARK SMILES IDX 28 70 29 71 30 72 31 73 54 74 55 75 63 76 56 77 62 78 57 79
REMARK SMILES IDX 58 80 59 81 60 82 61 83 40 84 41 85 49 86 42 87 48 88 43 89
REMARK SMILES IDX 44 90 45 91 46 92 47 93
REMARK H PARENT 7 6 1 15 1 16 12 30 68 49 38 60
REMARK Flexibility Score: inf
ROOT
ATOM      1  C   UNL A   1      42.370  19.619  26.948  1.00  0.00     0.023 C 
ENDROOT
BRANCH   1   2
ATOM      2  C   UNL A   1      42.825  20.307  25.661  1.00  0.00     0.116 C 
BRANCH   2   3
ATOM      3  N   UNL A   1      44.239  20.619  25.690  1.00  0.00    -0.356 N 
ATOM      4  C   UNL A   1      44.848  21.821  25.907  1.00  0.00     0.224 C 
ATOM      5  O   UNL A   1      46.076  21.880  25.814  1.00  0.00    -0.275 OA
ATOM      6  H   UNL A   1      44.844  19.859  25.532  1.00  0.00     0.163 HD
BRANCH   4   7
ATOM      7  C   UNL A   1      44.038  23.039  26.327  1.00  0.00     0.137 C 
BRANCH   7   8
ATOM      8  C   UNL A   1      44.865  24.251  26.722  1.00  0.00    -0.015 A 
ATOM      9  C   UNL A   1      44.793  25.494  26.033  1.00  0.00     0.046 A 
ATOM     10  C   UNL A   1      45.680  26.538  26.408  1.00  0.00     0.046 A 
ATOM     11  C   UNL A   1      45.775  24.088  27.784  1.00  0.00     0.006 A 
ATOM     12  C   UNL A   1      46.591  26.323  27.462  1.00  0.00     0.014 A 
ATOM     13  C   UNL A   1      46.634  25.114  28.148  1.00  0.00     0.001 A 
BRANCH   9  14
ATOM     14  N   UNL A   1      43.890  25.619  24.983  1.00  0.00    -0.398 N 
ATOM     15  H   UNL A   1      42.922  25.551  25.154  1.00  0.00     0.156 HD
ATOM     16  H   UNL A   1      44.216  25.776  24.068  1.00  0.00     0.156 HD
ENDBRANCH   9  14
BRANCH  10  17
ATOM     17  C   UNL A   1      45.787  27.891  25.755  1.00  0.00     0.195 C 
ATOM     18  O   UNL A   1      45.991  27.985  24.545  1.00  0.00    -0.289 OA
BRANCH  17  19
ATOM     19  C   UNL A   1      45.599  29.159  26.480  1.00  0.00     0.023 A 
ATOM     20  C   UNL A   1      46.731  29.936  26.757  1.00  0.00     0.013 A 
ATOM     21  C   UNL A   1      44.326  29.603  26.851  1.00  0.00     0.013 A 
ATOM     22  C   UNL A   1      46.581  31.196  27.337  1.00  0.00     0.016 A 
ATOM     23  C   UNL A   1      44.178  30.872  27.417  1.00  0.00     0.016 A 
ATOM     24  C   UNL A   1      45.304  31.665  27.646  1.00  0.00     0.018 A 
ATOM     25  Br  UNL A   1      45.094  33.402  28.361  1.00  0.00    -0.051 Br
ENDBRANCH  17  19
ENDBRANCH  10  17
ENDBRANCH   7   8
ENDBRANCH   4   7
ENDBRANCH   2   3
ENDBRANCH   1   2
BRANCH   1  26
ATOM     26  C   UNL A   1      41.062  20.172  27.518  1.00  0.00     0.023 C 
BRANCH  26  27
ATOM     27  C   UNL A   1      40.796  21.638  27.205  1.00  0.00     0.116 C 
BRANCH  27  28
ATOM     28  N   UNL A   1      39.632  21.836  26.356  1.00  0.00    -0.352 N 
ATOM     29  C   UNL A   1      38.872  22.967  26.195  1.00  0.00     0.251 C 
ATOM     30  H   UNL A   1      39.352  21.054  25.828  1.00  0.00     0.163 HD
ATOM     31  O   UNL A   1      37.835  22.916  25.536  1.00  0.00    -0.269 OA
BRANCH  29  32
ATOM     32  C   UNL A   1      39.288  24.231  26.839  1.00  0.00     0.039 A 
ATOM     33  C   UNL A   1      38.883  24.484  28.151  1.00  0.00     0.014 A 
ATOM     34  C   UNL A   1      40.078  25.162  26.157  1.00  0.00     0.014 A 
ATOM     35  C   UNL A   1      39.304  25.651  28.791  1.00  0.00     0.010 A 
ATOM     36  C   UNL A   1      40.567  26.282  26.826  1.00  0.00     0.010 A 
ATOM     37  C   UNL A   1      40.170  26.549  28.144  1.00  0.00    -0.014 A 
BRANCH  37  38
ATOM     38  C   UNL A   1      40.642  27.780  28.828  1.00  0.00     0.031 A 
ATOM     39  C   UNL A   1      42.054  27.867  29.347  1.00  0.00     0.074 A 
ATOM     40  C   UNL A   1      39.794  28.813  29.005  1.00  0.00     0.049 A 
ATOM     41  N   UNL A   1      42.649  28.863  29.953  1.00  0.00    -0.248 NA
ATOM     42  C   UNL A   1      42.900  26.673  29.189  1.00  0.00     0.031 C 
ATOM     43  C   UNL A   1      38.387  28.833  28.594  1.00  0.00     0.029 A 
ATOM     44  N   UNL A   1      39.990  30.047  29.572  1.00  0.00    -0.354 N 
ATOM     45  C   UNL A   1      43.930  28.412  30.254  1.00  0.00     0.074 A 
ATOM     46  C   UNL A   1      44.005  27.035  29.824  1.00  0.00     0.031 C 
ATOM     47  C   UNL A   1      37.863  30.035  28.883  1.00  0.00     0.029 A 
ATOM     48  C   UNL A   1      38.878  30.856  29.534  1.00  0.00     0.049 A 
ATOM     49  H   UNL A   1      40.846  30.327  29.969  1.00  0.00     0.167 HD
ATOM     50  C   UNL A   1      44.961  29.090  30.815  1.00  0.00     0.031 A 
ATOM     51  C   UNL A   1      38.697  32.117  29.970  1.00  0.00     0.031 A 
ATOM     52  C   UNL A   1      44.884  30.464  31.236  1.00  0.00     0.049 A 
ATOM     53  C   UNL A   1      39.855  32.848  30.594  1.00  0.00     0.074 A 
ATOM     54  C   UNL A   1      45.888  31.259  31.763  1.00  0.00     0.029 A 
ATOM     55  N   UNL A   1      43.741  31.246  31.182  1.00  0.00    -0.354 N 
ATOM     56  N   UNL A   1      41.082  32.429  30.799  1.00  0.00    -0.248 NA
ATOM     57  C   UNL A   1      39.608  34.229  31.030  1.00  0.00     0.031 C 
ATOM     58  C   UNL A   1      45.335  32.503  32.085  1.00  0.00     0.029 A 
ATOM     59  C   UNL A   1      44.006  32.507  31.693  1.00  0.00     0.049 A 
ATOM     60  H   UNL A   1      42.870  30.951  30.833  1.00  0.00     0.167 HD
ATOM     61  C   UNL A   1      41.759  33.505  31.363  1.00  0.00     0.074 A 
ATOM     62  C   UNL A   1      40.812  34.598  31.443  1.00  0.00     0.031 C 
ATOM     63  C   UNL A   1      43.050  33.582  31.778  1.00  0.00     0.031 A 
BRANCH  50  64
ATOM     64  C   UNL A   1      46.260  28.349  31.009  1.00  0.00    -0.014 A 
ATOM     65  C   UNL A   1      47.307  28.456  30.074  1.00  0.00     0.010 A 
ATOM     66  C   UNL A   1      46.452  27.565  32.160  1.00  0.00     0.010 A 
ATOM     67  C   UNL A   1      48.503  27.759  30.265  1.00  0.00     0.020 A 
ATOM     68  C   UNL A   1      47.660  26.891  32.371  1.00  0.00     0.020 A 
ATOM     69  C   UNL A   1      48.671  26.979  31.413  1.00  0.00     0.054 A 
BRANCH  69  70
ATOM     70  S   UNL A   1      50.242  26.104  31.645  1.00  0.00     0.124 S 
ATOM     71  O   UNL A   1      50.221  25.148  30.539  1.00  0.00    -0.237 OA
ATOM     72  O   UNL A   1      51.226  27.177  31.527  1.00  0.00    -0.237 OA
ATOM     73  O   UNL A   1      50.120  25.515  32.976  1.00  0.00    -0.744 OA
ENDBRANCH  69  70
ENDBRANCH  50  64
BRANCH  51  74
ATOM     74  C   UNL A   1      37.371  32.777  29.812  1.00  0.00    -0.014 A 
ATOM     75  C   UNL A   1      36.394  32.677  30.819  1.00  0.00     0.010 A 
ATOM     76  C   UNL A   1      37.080  33.517  28.651  1.00  0.00     0.010 A 
ATOM     77  C   UNL A   1      35.145  33.285  30.658  1.00  0.00     0.020 A 
ATOM     78  C   UNL A   1      35.844  34.152  28.501  1.00  0.00     0.020 A 
ATOM     79  C   UNL A   1      34.879  34.021  29.501  1.00  0.00     0.054 A 
BRANCH  79  80
ATOM     80  S   UNL A   1      33.269  34.839  29.336  1.00  0.00     0.124 S 
ATOM     81  O   UNL A   1      32.821  34.909  30.723  1.00  0.00    -0.237 OA
ATOM     82  O   UNL A   1      33.625  36.114  28.720  1.00  0.00    -0.237 OA
ATOM     83  O   UNL A   1      32.510  33.931  28.478  1.00  0.00    -0.744 OA
ENDBRANCH  79  80
ENDBRANCH  51  74
BRANCH  63  84
ATOM     84  C   UNL A   1      43.518  34.904  32.329  1.00  0.00    -0.014 A 
ATOM     85  C   UNL A   1      44.050  35.901  31.490  1.00  0.00     0.010 A 
ATOM     86  C   UNL A   1      43.398  35.162  33.707  1.00  0.00     0.010 A 
ATOM     87  C   UNL A   1      44.501  37.109  32.026  1.00  0.00     0.020 A 
ATOM     88  C   UNL A   1      43.815  36.384  34.242  1.00  0.00     0.020 A 
ATOM     89  C   UNL A   1      44.385  37.342  33.401  1.00  0.00     0.054 A 
BRANCH  89  90
ATOM     90  S   UNL A   1      44.964  38.923  34.071  1.00  0.00     0.124 S 
ATOM     91  O   UNL A   1      43.712  39.651  34.258  1.00  0.00    -0.237 OA
ATOM     92  O   UNL A   1      45.645  38.520  35.299  1.00  0.00    -0.237 OA
ATOM     93  O   UNL A   1      45.838  39.445  33.024  1.00  0.00    -0.744 OA
ENDBRANCH  89  90
ENDBRANCH  63  84
ENDBRANCH  37  38
ENDBRANCH  29  32
ENDBRANCH  27  28
ENDBRANCH  26  27
ENDBRANCH   1  26
TORSDOF 18
ENDMDL
MODEL 2
REMARK VINA RESULT:      -9.0      4.924     11.600
REMARK SMILES Nc1c(CC(=O)NCCCCNC(=O)c2ccc(-c3c4nc(c(-c5ccc(S(=O)(=O)[O-])cc5)c5ccc([nH]5)c(-c5ccc(S(=O)(=O)[O-])cc5)c5nc(c(-c6ccc(S(=O)(=O)[O-])cc6)c6ccc3[nH]6)C=C5)C=C4)cc2)cccc1C(=O)c1ccc(Br)cc1
REMARK SMILES IDX 9 1 8 2 7 3 5 4 6 5 4 7 3 8 2 9 78 10 75 11 77 12 76 13 1 14
REMARK SMILES IDX 79 17 80 18 81 19 82 20 87 21 83 22 86 23 84 24 85 25 10 26
REMARK SMILES IDX 11 27 12 28 13 29 14 31 15 32 16 33 74 34 17 35 73 36 18 37
REMARK SMILES IDX 19 38 20 39 67 40 21 41 72 42 66 43 68 44 22 45 71 46 65 47
REMARK SMILES IDX 64 48 23 50 53 51 34 52 52 53 35 54 38 55 51 56 69 57 36 58
REMARK SMILES IDX 37 59 50 61 70 62 39 63 24 64 25 65 33 66 26 67 32 68 27 69
REMARK SMILES IDX 28 70 29 71 30 72 31 73 54 74 55 75 63 76 56 77 62 78 57 79
REMARK SMILES IDX 58 80 59 81 60 82 61 83 40 84 41 85 49 86 42 87 48 88 43 89
REMARK SMILES IDX 44 90 45 91 46 92 47 93
REMARK H PARENT 7 6 1 15 1 16 12 30 68 49 38 60
REMARK Flexibility Score: inf
ROOT
ATOM      1  C   UNL A   1      32.987  29.011  24.704  1.00  0.00     0.023 C 
ENDROOT
BRANCH   1   2
ATOM      2  C   UNL A   1      31.486  29.240  24.881  1.00  0.00     0.116 C 
BRANCH   2   3
ATOM      3  N   UNL A   1      30.836  29.535  23.620  1.00  0.00    -0.356 N 
ATOM      4  C   UNL A   1      30.145  28.698  22.795  1.00  0.00     0.224 C 
ATOM      5  O   UNL A   1      29.732  29.143  21.722  1.00  0.00    -0.275 OA
ATOM      6  H   UNL A   1      30.905  30.470  23.317  1.00  0.00     0.163 HD
BRANCH   4   7
ATOM      7  C   UNL A   1      29.823  27.273  23.223  1.00  0.00     0.137 C 
BRANCH   7   8
ATOM      8  C   UNL A   1      30.983  26.297  23.117  1.00  0.00    -0.015 A 
ATOM      9  C   UNL A   1      31.337  25.400  24.164  1.00  0.00     0.046 A 
ATOM     10  C   UNL A   1      32.500  24.599  24.015  1.00  0.00     0.046 A 
ATOM     11  C   UNL A   1      31.756  26.346  21.942  1.00  0.00     0.006 A 
ATOM     12  C   UNL A   1      33.258  24.697  22.831  1.00  0.00     0.014 A 
ATOM     13  C   UNL A   1      32.887  25.556  21.802  1.00  0.00     0.001 A 
BRANCH   9  14
ATOM     14  N   UNL A   1      30.557  25.383  25.315  1.00  0.00    -0.398 N 
ATOM     15  H   UNL A   1      29.879  24.681  25.441  1.00  0.00     0.156 HD
ATOM     16  H   UNL A   1      30.682  26.073  26.006  1.00  0.00     0.156 HD
ENDBRANCH   9  14
BRANCH  10  17
ATOM     17  C   UNL A   1      33.058  23.645  25.038  1.00  0.00     0.195 C 
ATOM     18  O   UNL A   1      33.237  24.009  26.200  1.00  0.00    -0.289 OA
BRANCH  17  19
ATOM     19  C   UNL A   1      33.362  22.233  24.749  1.00  0.00     0.023 A 
ATOM     20  C   UNL A   1      34.634  21.749  25.083  1.00  0.00     0.013 A 
ATOM     21  C   UNL A   1      32.403  21.381  24.193  1.00  0.00     0.013 A 
ATOM     22  C   UNL A   1      34.920  20.391  24.933  1.00  0.00     0.016 A 
ATOM     23  C   UNL A   1      32.687  20.019  24.059  1.00  0.00     0.016 A 
ATOM     24  C   UNL A   1      33.939  19.531  24.440  1.00  0.00     0.018 A 
ATOM     25  Br  UNL A   1      34.299  17.680  24.308  1.00  0.00    -0.051 Br
ENDBRANCH  17  19
ENDBRANCH  10  17
ENDBRANCH   7   8
ENDBRANCH   4   7
ENDBRANCH   2   3
ENDBRANCH   1   2
BRANCH   1  26
ATOM     26  C   UNL A   1      33.534  27.830  25.511  1.00  0.00     0.023 C 
BRANCH  26  27
ATOM     27  C   UNL A   1      34.156  28.204  26.850  1.00  0.00     0.116 C 
BRANCH  27  28
ATOM     28  N   UNL A   1      33.800  29.546  27.286  1.00  0.00    -0.352 N 
ATOM     29  C   UNL A   1      34.552  30.437  28.010  1.00  0.00     0.251 C 
ATOM     30  H   UNL A   1      32.902  29.854  27.029  1.00  0.00     0.163 HD
ATOM     31  O   UNL A   1      34.041  31.481  28.411  1.00  0.00    -0.269 OA
BRANCH  29  32
ATOM     32  C   UNL A   1      35.961  30.124  28.329  1.00  0.00     0.039 A 
ATOM     33  C   UNL A   1      36.269  29.623  29.595  1.00  0.00     0.014 A 
ATOM     34  C   UNL A   1      36.975  30.317  27.385  1.00  0.00     0.014 A 
ATOM     35  C   UNL A   1      37.588  29.279  29.900  1.00  0.00     0.010 A 
ATOM     36  C   UNL A   1      38.272  29.892  27.661  1.00  0.00     0.010 A 
ATOM     37  C   UNL A   1      38.597  29.386  28.928  1.00  0.00    -0.014 A 
BRANCH  37  38
ATOM     38  C   UNL A   1      39.998  28.998  29.237  1.00  0.00     0.031 A 
ATOM     39  C   UNL A   1      40.917  29.965  29.935  1.00  0.00     0.074 A 
ATOM     40  C   UNL A   1      40.450  27.783  28.868  1.00  0.00     0.049 A 
ATOM     41  N   UNL A   1      42.163  29.799  30.303  1.00  0.00    -0.248 NA
ATOM     42  C   UNL A   1      40.379  31.302  30.237  1.00  0.00     0.031 C 
ATOM     43  C   UNL A   1      39.674  26.774  28.141  1.00  0.00     0.029 A 
ATOM     44  N   UNL A   1      41.672  27.186  29.057  1.00  0.00    -0.354 N 
ATOM     45  C   UNL A   1      42.556  31.007  30.868  1.00  0.00     0.074 A 
ATOM     46  C   UNL A   1      41.441  31.917  30.737  1.00  0.00     0.031 C 
ATOM     47  C   UNL A   1      40.423  25.671  27.986  1.00  0.00     0.029 A 
ATOM     48  C   UNL A   1      41.743  25.905  28.564  1.00  0.00     0.049 A 
ATOM     49  H   UNL A   1      42.426  27.634  29.504  1.00  0.00     0.167 HD
ATOM     50  C   UNL A   1      43.729  31.325  31.466  1.00  0.00     0.031 A 
ATOM     51  C   UNL A   1      42.755  25.015  28.578  1.00  0.00     0.031 A 
ATOM     52  C   UNL A   1      44.835  30.414  31.601  1.00  0.00     0.049 A 
ATOM     53  C   UNL A   1      44.050  25.393  29.243  1.00  0.00     0.074 A 
ATOM     54  C   UNL A   1      46.046  30.620  32.240  1.00  0.00     0.029 A 
ATOM     55  N   UNL A   1      44.868  29.127  31.087  1.00  0.00    -0.354 N 
ATOM     56  N   UNL A   1      44.374  26.515  29.842  1.00  0.00    -0.248 NA
ATOM     57  C   UNL A   1      45.110  24.376  29.251  1.00  0.00     0.031 C 
ATOM     58  C   UNL A   1      46.835  29.479  32.058  1.00  0.00     0.029 A 
ATOM     59  C   UNL A   1      46.090  28.536  31.368  1.00  0.00     0.049 A 
ATOM     60  H   UNL A   1      44.133  28.696  30.594  1.00  0.00     0.167 HD
ATOM     61  C   UNL A   1      45.668  26.328  30.320  1.00  0.00     0.074 A 
ATOM     62  C   UNL A   1      46.053  24.978  29.963  1.00  0.00     0.031 C 
ATOM     63  C   UNL A   1      46.465  27.195  30.995  1.00  0.00     0.031 A 
BRANCH  50  64
ATOM     64  C   UNL A   1      43.877  32.721  32.016  1.00  0.00    -0.014 A 
ATOM     65  C   UNL A   1      43.551  33.017  33.354  1.00  0.00     0.010 A 
ATOM     66  C   UNL A   1      44.383  33.746  31.197  1.00  0.00     0.010 A 
ATOM     67  C   UNL A   1      43.687  34.317  33.847  1.00  0.00     0.020 A 
ATOM     68  C   UNL A   1      44.552  35.041  31.696  1.00  0.00     0.020 A 
ATOM     69  C   UNL A   1      44.186  35.322  33.013  1.00  0.00     0.054 A 
BRANCH  69  70
ATOM     70  S   UNL A   1      44.374  36.995  33.688  1.00  0.00     0.124 S 
ATOM     71  O   UNL A   1      44.438  36.735  35.125  1.00  0.00    -0.237 OA
ATOM     72  O   UNL A   1      45.620  37.449  33.077  1.00  0.00    -0.237 OA
ATOM     73  O   UNL A   1      43.171  37.690  33.237  1.00  0.00    -0.744 OA
ENDBRANCH  69  70
ENDBRANCH  50  64
BRANCH  51  74
ATOM     74  C   UNL A   1      42.575  23.671  27.959  1.00  0.00    -0.014 A 
ATOM     75  C   UNL A   1      42.007  22.614  28.692  1.00  0.00     0.010 A 
ATOM     76  C   UNL A   1      42.968  23.445  26.627  1.00  0.00     0.010 A 
ATOM     77  C   UNL A   1      41.855  21.351  28.112  1.00  0.00     0.020 A 
ATOM     78  C   UNL A   1      42.789  22.192  26.035  1.00  0.00     0.020 A 
ATOM     79  C   UNL A   1      42.246  21.149  26.786  1.00  0.00     0.054 A 
BRANCH  79  80
ATOM     80  S   UNL A   1      41.996  19.514  26.040  1.00  0.00     0.124 S 
ATOM     81  O   UNL A   1      42.808  19.604  24.831  1.00  0.00    -0.237 OA
ATOM     82  O   UNL A   1      42.499  18.615  27.077  1.00  0.00    -0.237 OA
ATOM     83  O   UNL A   1      40.551  19.455  25.822  1.00  0.00    -0.744 OA
ENDBRANCH  79  80
ENDBRANCH  51  74
BRANCH  63  84
ATOM     84  C   UNL A   1      47.823  26.698  31.415  1.00  0.00    -0.014 A 
ATOM     85  C   UNL A   1      48.970  26.958  30.644  1.00  0.00     0.010 A 
ATOM     86  C   UNL A   1      47.957  25.980  32.618  1.00  0.00     0.010 A 
ATOM     87  C   UNL A   1      50.216  26.466  31.040  1.00  0.00     0.020 A 
ATOM     88  C   UNL A   1      49.207  25.517  33.037  1.00  0.00     0.020 A 
ATOM     89  C   UNL A   1      50.326  25.744  32.233  1.00  0.00     0.054 A 
BRANCH  89  90
ATOM     90  S   UNL A   1      51.956  25.128  32.733  1.00  0.00     0.124 S 
ATOM     91  O   UNL A   1      52.701  25.188  31.479  1.00  0.00    -0.237 OA
ATOM     92  O   UNL A   1      52.364  26.092  33.752  1.00  0.00    -0.237 OA
ATOM     93  O   UNL A   1      51.681  23.783  33.231  1.00  0.00    -0.744 OA
ENDBRANCH  89  90
ENDBRANCH  63  84
ENDBRANCH  37  38
ENDBRANCH  29  32
ENDBRANCH  27  28
ENDBRANCH  26  27
ENDBRANCH   1  26
TORSDOF 18
ENDMDL
MODEL 3
REMARK VINA RESULT:      -9.0      1.383      2.344
REMARK SMILES Nc1c(CC(=O)NCCCCNC(=O)c2ccc(-c3c4nc(c(-c5ccc(S(=O)(=O)[O-])cc5)c5ccc([nH]5)c(-c5ccc(S(=O)(=O)[O-])cc5)c5nc(c(-c6ccc(S(=O)(=O)[O-])cc6)c6ccc3[nH]6)C=C5)C=C4)cc2)cccc1C(=O)c1ccc(Br)cc1
REMARK SMILES IDX 9 1 8 2 7 3 5 4 6 5 4 7 3 8 2 9 78 10 75 11 77 12 76 13 1 14
REMARK SMILES IDX 79 17 80 18 81 19 82 20 87 21 83 22 86 23 84 24 85 25 10 26
REMARK SMILES IDX 11 27 12 28 13 29 14 31 15 32 16 33 74 34 17 35 73 36 18 37
REMARK SMILES IDX 19 38 20 39 67 40 21 41 72 42 66 43 68 44 22 45 71 46 65 47
REMARK SMILES IDX 64 48 23 50 53 51 34 52 52 53 35 54 38 55 51 56 69 57 36 58
REMARK SMILES IDX 37 59 50 61 70 62 39 63 24 64 25 65 33 66 26 67 32 68 27 69
REMARK SMILES IDX 28 70 29 71 30 72 31 73 54 74 55 75 63 76 56 77 62 78 57 79
REMARK SMILES IDX 58 80 59 81 60 82 61 83 40 84 41 85 49 86 42 87 48 88 43 89
REMARK SMILES IDX 44 90 45 91 46 92 47 93
REMARK H PARENT 7 6 1 15 1 16 12 30 68 49 38 60
REMARK Flexibility Score: inf
ROOT
ATOM      1  C   UNL A   1      42.951  23.390  25.694  1.00  0.00     0.023 C 
ENDROOT
BRANCH   1   2
ATOM      2  C   UNL A   1      44.451  23.372  25.988  1.00  0.00     0.116 C 
BRANCH   2   3
ATOM      3  N   UNL A   1      45.178  24.275  25.119  1.00  0.00    -0.356 N 
ATOM      4  C   UNL A   1      45.554  25.567  25.344  1.00  0.00     0.224 C 
ATOM      5  O   UNL A   1      46.107  26.183  24.431  1.00  0.00    -0.275 OA
ATOM      6  H   UNL A   1      45.436  23.904  24.243  1.00  0.00     0.163 HD
BRANCH   4   7
ATOM      7  C   UNL A   1      45.365  26.204  26.713  1.00  0.00     0.137 C 
BRANCH   7   8
ATOM      8  C   UNL A   1      44.697  27.569  26.696  1.00  0.00    -0.015 A 
ATOM      9  C   UNL A   1      45.292  28.728  27.268  1.00  0.00     0.046 A 
ATOM     10  C   UNL A   1      44.547  29.937  27.298  1.00  0.00     0.046 A 
ATOM     11  C   UNL A   1      43.408  27.645  26.134  1.00  0.00     0.006 A 
ATOM     12  C   UNL A   1      43.251  29.962  26.744  1.00  0.00     0.014 A 
ATOM     13  C   UNL A   1      42.689  28.830  26.162  1.00  0.00     0.001 A 
BRANCH   9  14
ATOM     14  N   UNL A   1      46.562  28.617  27.823  1.00  0.00    -0.398 N 
ATOM     15  H   UNL A   1      47.110  27.818  27.645  1.00  0.00     0.156 HD
ATOM     16  H   UNL A   1      46.916  29.337  28.394  1.00  0.00     0.156 HD
ENDBRANCH   9  14
BRANCH  10  17
ATOM     17  C   UNL A   1      44.989  31.238  27.913  1.00  0.00     0.195 C 
ATOM     18  O   UNL A   1      45.960  31.274  28.669  1.00  0.00    -0.289 OA
BRANCH  17  19
ATOM     19  C   UNL A   1      44.352  32.533  27.618  1.00  0.00     0.023 A 
ATOM     20  C   UNL A   1      43.669  33.185  28.653  1.00  0.00     0.013 A 
ATOM     21  C   UNL A   1      44.454  33.122  26.354  1.00  0.00     0.013 A 
ATOM     22  C   UNL A   1      43.153  34.465  28.444  1.00  0.00     0.016 A 
ATOM     23  C   UNL A   1      43.950  34.411  26.153  1.00  0.00     0.016 A 
ATOM     24  C   UNL A   1      43.314  35.078  27.202  1.00  0.00     0.018 A 
ATOM     25  Br  UNL A   1      42.684  36.841  26.941  1.00  0.00    -0.051 Br
ENDBRANCH  17  19
ENDBRANCH  10  17
ENDBRANCH   7   8
ENDBRANCH   4   7
ENDBRANCH   2   3
ENDBRANCH   1   2
BRANCH   1  26
ATOM     26  C   UNL A   1      42.289  22.011  25.756  1.00  0.00     0.023 C 
BRANCH  26  27
ATOM     27  C   UNL A   1      41.135  21.899  26.743  1.00  0.00     0.116 C 
BRANCH  27  28
ATOM     28  N   UNL A   1      39.831  22.007  26.108  1.00  0.00    -0.352 N 
ATOM     29  C   UNL A   1      38.927  23.037  26.179  1.00  0.00     0.251 C 
ATOM     30  H   UNL A   1      39.562  21.240  25.553  1.00  0.00     0.163 HD
ATOM     31  O   UNL A   1      37.809  22.902  25.686  1.00  0.00    -0.269 OA
BRANCH  29  32
ATOM     32  C   UNL A   1      39.292  24.290  26.875  1.00  0.00     0.039 A 
ATOM     33  C   UNL A   1      38.947  24.438  28.220  1.00  0.00     0.014 A 
ATOM     34  C   UNL A   1      39.975  25.313  26.209  1.00  0.00     0.014 A 
ATOM     35  C   UNL A   1      39.323  25.595  28.906  1.00  0.00     0.010 A 
ATOM     36  C   UNL A   1      40.424  26.425  26.917  1.00  0.00     0.010 A 
ATOM     37  C   UNL A   1      40.086  26.588  28.268  1.00  0.00    -0.014 A 
BRANCH  37  38
ATOM     38  C   UNL A   1      40.511  27.810  28.999  1.00  0.00     0.031 A 
ATOM     39  C   UNL A   1      41.879  27.882  29.626  1.00  0.00     0.074 A 
ATOM     40  C   UNL A   1      39.658  28.846  29.120  1.00  0.00     0.049 A 
ATOM     41  N   UNL A   1      42.431  28.868  30.286  1.00  0.00    -0.248 NA
ATOM     42  C   UNL A   1      42.728  26.684  29.522  1.00  0.00     0.031 C 
ATOM     43  C   UNL A   1      38.287  28.880  28.601  1.00  0.00     0.029 A 
ATOM     44  N   UNL A   1      39.816  30.073  29.713  1.00  0.00    -0.354 N 
ATOM     45  C   UNL A   1      43.682  28.406  30.681  1.00  0.00     0.074 A 
ATOM     46  C   UNL A   1      43.782  27.033  30.245  1.00  0.00     0.031 C 
ATOM     47  C   UNL A   1      37.749  30.082  28.860  1.00  0.00     0.029 A 
ATOM     48  C   UNL A   1      38.716  30.890  29.597  1.00  0.00     0.049 A 
ATOM     49  H   UNL A   1      40.641  30.344  30.178  1.00  0.00     0.167 HD
ATOM     50  C   UNL A   1      44.670  29.072  31.327  1.00  0.00     0.031 A 
ATOM     51  C   UNL A   1      38.509  32.149  30.030  1.00  0.00     0.031 A 
ATOM     52  C   UNL A   1      44.570  30.443  31.754  1.00  0.00     0.049 A 
ATOM     53  C   UNL A   1      39.619  32.866  30.749  1.00  0.00     0.074 A 
ATOM     54  C   UNL A   1      45.534  31.225  32.365  1.00  0.00     0.029 A 
ATOM     55  N   UNL A   1      43.439  31.233  31.619  1.00  0.00    -0.354 N 
ATOM     56  N   UNL A   1      40.824  32.437  31.044  1.00  0.00    -0.248 NA
ATOM     57  C   UNL A   1      39.348  34.244  31.177  1.00  0.00     0.031 C 
ATOM     58  C   UNL A   1      44.965  32.470  32.656  1.00  0.00     0.029 A 
ATOM     59  C   UNL A   1      43.670  32.487  32.163  1.00  0.00     0.049 A 
ATOM     60  H   UNL A   1      42.595  30.947  31.201  1.00  0.00     0.167 HD
ATOM     61  C   UNL A   1      41.462  33.503  31.669  1.00  0.00     0.074 A 
ATOM     62  C   UNL A   1      40.518  34.602  31.686  1.00  0.00     0.031 C 
ATOM     63  C   UNL A   1      42.717  33.568  32.183  1.00  0.00     0.031 A 
BRANCH  50  64
ATOM     64  C   UNL A   1      45.946  28.321  31.614  1.00  0.00    -0.014 A 
ATOM     65  C   UNL A   1      47.065  28.435  30.767  1.00  0.00     0.010 A 
ATOM     66  C   UNL A   1      46.042  27.519  32.765  1.00  0.00     0.010 A 
ATOM     67  C   UNL A   1      48.239  27.727  31.043  1.00  0.00     0.020 A 
ATOM     68  C   UNL A   1      47.225  26.835  33.062  1.00  0.00     0.020 A 
ATOM     69  C   UNL A   1      48.310  26.930  32.190  1.00  0.00     0.054 A 
BRANCH  69  70
ATOM     70  S   UNL A   1      49.854  26.043  32.534  1.00  0.00     0.124 S 
ATOM     71  O   UNL A   1      49.360  24.746  32.992  1.00  0.00    -0.237 OA
ATOM     72  O   UNL A   1      50.517  26.038  31.232  1.00  0.00    -0.237 OA
ATOM     73  O   UNL A   1      50.503  26.857  33.559  1.00  0.00    -0.744 OA
ENDBRANCH  69  70
ENDBRANCH  50  64
BRANCH  51  74
ATOM     74  C   UNL A   1      37.203  32.819  29.776  1.00  0.00    -0.014 A 
ATOM     75  C   UNL A   1      36.204  32.842  30.765  1.00  0.00     0.010 A 
ATOM     76  C   UNL A   1      36.954  33.445  28.540  1.00  0.00     0.010 A 
ATOM     77  C   UNL A   1      34.973  33.458  30.516  1.00  0.00     0.020 A 
ATOM     78  C   UNL A   1      35.737  34.089  28.300  1.00  0.00     0.020 A 
ATOM     79  C   UNL A   1      34.749  34.080  29.285  1.00  0.00     0.054 A 
BRANCH  79  80
ATOM     80  S   UNL A   1      33.163  34.914  29.002  1.00  0.00     0.124 S 
ATOM     81  O   UNL A   1      32.558  34.872  30.329  1.00  0.00    -0.237 OA
ATOM     82  O   UNL A   1      33.580  36.234  28.536  1.00  0.00    -0.237 OA
ATOM     83  O   UNL A   1      32.515  34.080  27.991  1.00  0.00    -0.744 OA
ENDBRANCH  79  80
ENDBRANCH  51  74
BRANCH  63  84
ATOM     84  C   UNL A   1      43.149  34.881  32.782  1.00  0.00    -0.014 A 
ATOM     85  C   UNL A   1      42.965  35.160  34.149  1.00  0.00     0.010 A 
ATOM     86  C   UNL A   1      43.776  35.841  31.967  1.00  0.00     0.010 A 
ATOM     87  C   UNL A   1      43.351  36.394  34.677  1.00  0.00     0.020 A 
ATOM     88  C   UNL A   1      44.196  37.063  32.499  1.00  0.00     0.020 A 
ATOM     89  C   UNL A   1      43.961  37.340  33.847  1.00  0.00     0.054 A 
BRANCH  89  90
ATOM     90  S   UNL A   1      44.467  38.929  34.559  1.00  0.00     0.124 S 
ATOM     91  O   UNL A   1      45.769  39.142  33.933  1.00  0.00    -0.237 OA
ATOM     92  O   UNL A   1      43.404  39.830  34.116  1.00  0.00    -0.237 OA
ATOM     93  O   UNL A   1      44.499  38.672  35.996  1.00  0.00    -0.744 OA
ENDBRANCH  89  90
ENDBRANCH  63  84
ENDBRANCH  37  38
ENDBRANCH  29  32
ENDBRANCH  27  28
ENDBRANCH  26  27
ENDBRANCH   1  26
TORSDOF 18
ENDMDL
