MODEL 1
REMARK VINA RESULT:     -11.0      0.000      0.000
REMARK SMILES Cc1ccc(O[C@H](C)C(=O)NNC(=O)[C@@H]2[C@@H](C(=O)NCCCCNC(=O)c3ccc(-c4c5nc(c(-c6ccc(S(=O)(=O)[O-])cc6)c6ccc([nH]6)c(-c6ccc(S(=O)(=O)[O-])cc6)c6nc(c(-c7ccc(S(=O)(=O)[O-])cc7)c7ccc4[nH]7)C=C6)C=C5)cc3)[C@@H]3C=C[C@H]2C3)cc1C
REMARK SMILES IDX 20 1 19 2 17 3 18 4 16 6 15 7 90 8 87 9 89 10 91 11 88 12
REMARK SMILES IDX 13 13 12 14 14 16 11 17 9 18 10 19 7 21 8 22 6 23 5 24 1 25
REMARK SMILES IDX 2 26 3 27 93 28 4 29 92 30 94 31 21 32 22 33 23 34 24 35
REMARK SMILES IDX 25 36 26 38 27 39 28 40 86 41 29 42 85 43 30 44 31 45 32 46
REMARK SMILES IDX 79 47 33 48 84 49 78 50 80 51 34 52 83 53 77 54 76 55 35 57
REMARK SMILES IDX 65 58 46 59 64 60 47 61 50 62 63 63 81 64 48 65 49 66 62 68
REMARK SMILES IDX 82 69 51 70 36 71 37 72 45 73 38 74 44 75 39 76 40 77 41 78
REMARK SMILES IDX 42 79 43 80 66 81 67 82 75 83 68 84 74 85 69 86 70 87 71 88
REMARK SMILES IDX 72 89 73 90 52 91 53 92 61 93 54 94 60 95 55 96 56 97 57 98
REMARK SMILES IDX 58 99 59 100
REMARK H PARENT 19 5 12 15 11 20 24 37 80 56 50 67
REMARK Flexibility Score: inf
ROOT
ATOM      1  C   UNL A   1      34.045  23.501  23.271  1.00  0.00     0.116 C 
ENDROOT
BRANCH   1   2
ATOM      2  N   UNL A   1      33.663  24.209  22.069  1.00  0.00    -0.356 N 
ATOM      3  C   UNL A   1      33.456  25.540  21.881  1.00  0.00     0.224 C 
ATOM      4  O   UNL A   1      33.155  25.906  20.744  1.00  0.00    -0.275 OA
ATOM      5  H   UNL A   1      33.533  23.646  21.271  1.00  0.00     0.163 HD
BRANCH   3   6
ATOM      6  C   UNL A   1      33.614  26.525  23.042  1.00  0.00     0.098 C 
ATOM      7  C   UNL A   1      32.406  26.512  24.067  1.00  0.00     0.100 C 
ATOM      8  C   UNL A   1      31.847  27.954  23.919  1.00  0.00     0.025 C 
ATOM      9  C   UNL A   1      33.566  27.982  22.501  1.00  0.00     0.025 C 
ATOM     10  C   UNL A   1      32.855  28.927  24.477  1.00  0.00    -0.027 C 
ATOM     11  C   UNL A   1      32.060  28.233  22.431  1.00  0.00     0.017 C 
ATOM     12  C   UNL A   1      33.900  28.927  23.637  1.00  0.00    -0.027 C 
BRANCH   7  13
ATOM     13  C   UNL A   1      32.878  26.084  25.468  1.00  0.00     0.242 C 
ATOM     14  N   UNL A   1      32.045  25.543  26.406  1.00  0.00    -0.267 N 
ATOM     15  H   UNL A   1      32.465  25.001  27.113  1.00  0.00     0.191 HD
ATOM     16  O   UNL A   1      34.075  26.100  25.775  1.00  0.00    -0.273 OA
BRANCH  14  17
ATOM     17  N   UNL A   1      30.671  25.679  26.461  1.00  0.00    -0.264 N 
ATOM     18  C   UNL A   1      29.826  24.663  26.843  1.00  0.00     0.279 C 
ATOM     19  O   UNL A   1      28.656  24.939  27.124  1.00  0.00    -0.269 OA
ATOM     20  H   UNL A   1      30.278  26.547  26.216  1.00  0.00     0.191 HD
BRANCH  18  21
ATOM     21  C   UNL A   1      30.309  23.200  26.780  1.00  0.00     0.260 C 
ATOM     22  C   UNL A   1      29.165  22.303  27.275  1.00  0.00     0.064 C 
BRANCH  21  23
ATOM     23  O   UNL A   1      30.741  22.821  25.471  1.00  0.00    -0.481 OA
BRANCH  23  24
ATOM     24  C   UNL A   1      31.815  21.973  25.363  1.00  0.00     0.120 A 
ATOM     25  C   UNL A   1      34.945  19.007  24.903  1.00  0.00     0.044 C 
ATOM     26  C   UNL A   1      33.851  20.034  25.012  1.00  0.00    -0.048 A 
ATOM     27  C   UNL A   1      33.955  21.027  25.996  1.00  0.00     0.007 A 
ATOM     28  C   UNL A   1      32.725  20.032  24.168  1.00  0.00    -0.045 A 
ATOM     29  C   UNL A   1      32.955  21.990  26.162  1.00  0.00     0.047 A 
ATOM     30  C   UNL A   1      31.718  21.003  24.359  1.00  0.00     0.050 A 
ATOM     31  C   UNL A   1      32.542  19.032  23.057  1.00  0.00     0.045 C 
ENDBRANCH  23  24
ENDBRANCH  21  23
ENDBRANCH  18  21
ENDBRANCH  14  17
ENDBRANCH   7  13
ENDBRANCH   3   6
ENDBRANCH   1   2
BRANCH   1  32
ATOM     32  C   UNL A   1      35.467  22.953  23.155  1.00  0.00     0.023 C 
BRANCH  32  33
ATOM     33  C   UNL A   1      36.531  23.829  23.820  1.00  0.00     0.023 C 
BRANCH  33  34
ATOM     34  C   UNL A   1      36.791  23.516  25.290  1.00  0.00     0.116 C 
BRANCH  34  35
ATOM     35  N   UNL A   1      37.857  22.547  25.494  1.00  0.00    -0.352 N 
ATOM     36  C   UNL A   1      39.074  22.741  26.108  1.00  0.00     0.251 C 
ATOM     37  H   UNL A   1      37.688  21.640  25.151  1.00  0.00     0.163 HD
ATOM     38  O   UNL A   1      39.918  21.858  26.114  1.00  0.00    -0.269 OA
BRANCH  36  39
ATOM     39  C   UNL A   1      39.352  24.056  26.721  1.00  0.00     0.039 A 
ATOM     40  C   UNL A   1      38.961  24.280  28.042  1.00  0.00     0.014 A 
ATOM     41  C   UNL A   1      40.054  25.032  26.008  1.00  0.00     0.014 A 
ATOM     42  C   UNL A   1      39.339  25.465  28.675  1.00  0.00     0.010 A 
ATOM     43  C   UNL A   1      40.490  26.177  26.664  1.00  0.00     0.010 A 
ATOM     44  C   UNL A   1      40.138  26.404  28.003  1.00  0.00    -0.014 A 
BRANCH  44  45
ATOM     45  C   UNL A   1      40.620  27.631  28.683  1.00  0.00     0.031 A 
ATOM     46  C   UNL A   1      42.008  27.673  29.261  1.00  0.00     0.074 A 
ATOM     47  C   UNL A   1      39.785  28.677  28.843  1.00  0.00     0.049 A 
ATOM     48  N   UNL A   1      42.587  28.626  29.944  1.00  0.00    -0.248 NA
ATOM     49  C   UNL A   1      42.845  26.477  29.069  1.00  0.00     0.031 C 
ATOM     50  C   UNL A   1      38.397  28.735  28.373  1.00  0.00     0.029 A 
ATOM     51  N   UNL A   1      39.978  29.890  29.453  1.00  0.00    -0.354 N 
ATOM     52  C   UNL A   1      43.843  28.136  30.283  1.00  0.00     0.074 A 
ATOM     53  C   UNL A   1      43.923  26.786  29.773  1.00  0.00     0.031 C 
ATOM     54  C   UNL A   1      37.876  29.932  28.688  1.00  0.00     0.029 A 
ATOM     55  C   UNL A   1      38.875  30.710  29.413  1.00  0.00     0.049 A 
ATOM     56  H   UNL A   1      40.826  30.149  29.881  1.00  0.00     0.167 HD
ATOM     57  C   UNL A   1      44.847  28.763  30.941  1.00  0.00     0.031 A 
ATOM     58  C   UNL A   1      38.689  31.950  29.905  1.00  0.00     0.031 A 
ATOM     59  C   UNL A   1      44.769  30.114  31.429  1.00  0.00     0.049 A 
ATOM     60  C   UNL A   1      39.824  32.632  30.618  1.00  0.00     0.074 A 
ATOM     61  C   UNL A   1      45.751  30.860  32.055  1.00  0.00     0.029 A 
ATOM     62  N   UNL A   1      43.645  30.921  31.343  1.00  0.00    -0.354 N 
ATOM     63  N   UNL A   1      41.028  32.177  30.871  1.00  0.00    -0.248 NA
ATOM     64  C   UNL A   1      39.581  33.999  31.098  1.00  0.00     0.031 C 
ATOM     65  C   UNL A   1      45.208  32.107  32.384  1.00  0.00     0.029 A 
ATOM     66  C   UNL A   1      43.904  32.154  31.917  1.00  0.00     0.049 A 
ATOM     67  H   UNL A   1      42.789  30.657  30.933  1.00  0.00     0.167 HD
ATOM     68  C   UNL A   1      41.695  33.212  31.515  1.00  0.00     0.074 A 
ATOM     69  C   UNL A   1      40.765  34.320  31.602  1.00  0.00     0.031 C 
ATOM     70  C   UNL A   1      42.965  33.245  31.991  1.00  0.00     0.031 A 
BRANCH  57  71
ATOM     71  C   UNL A   1      46.116  27.986  31.169  1.00  0.00    -0.014 A 
ATOM     72  C   UNL A   1      47.182  28.055  30.254  1.00  0.00     0.010 A 
ATOM     73  C   UNL A   1      46.257  27.197  32.324  1.00  0.00     0.010 A 
ATOM     74  C   UNL A   1      48.347  27.313  30.465  1.00  0.00     0.020 A 
ATOM     75  C   UNL A   1      47.432  26.475  32.554  1.00  0.00     0.020 A 
ATOM     76  C   UNL A   1      48.462  26.523  31.613  1.00  0.00     0.054 A 
BRANCH  76  77
ATOM     77  S   UNL A   1      49.991  25.583  31.870  1.00  0.00     0.124 S 
ATOM     78  O   UNL A   1      50.105  24.846  30.614  1.00  0.00    -0.237 OA
ATOM     79  O   UNL A   1      50.984  26.633  32.074  1.00  0.00    -0.237 OA
ATOM     80  O   UNL A   1      49.702  24.766  33.047  1.00  0.00    -0.744 OA
ENDBRANCH  76  77
ENDBRANCH  57  71
BRANCH  58  81
ATOM     81  C   UNL A   1      37.382  32.636  29.716  1.00  0.00    -0.014 A 
ATOM     82  C   UNL A   1      36.327  32.422  30.622  1.00  0.00     0.010 A 
ATOM     83  C   UNL A   1      37.188  33.521  28.640  1.00  0.00     0.010 A 
ATOM     84  C   UNL A   1      35.099  33.065  30.445  1.00  0.00     0.020 A 
ATOM     85  C   UNL A   1      35.970  34.186  28.475  1.00  0.00     0.020 A 
ATOM     86  C   UNL A   1      34.929  33.944  29.373  1.00  0.00     0.054 A 
BRANCH  86  87
ATOM     87  S   UNL A   1      33.344  34.811  29.194  1.00  0.00     0.124 S 
ATOM     88  O   UNL A   1      32.849  34.823  30.567  1.00  0.00    -0.237 OA
ATOM     89  O   UNL A   1      33.751  36.106  28.657  1.00  0.00    -0.237 OA
ATOM     90  O   UNL A   1      32.597  33.967  28.265  1.00  0.00    -0.744 OA
ENDBRANCH  86  87
ENDBRANCH  58  81
BRANCH  70  91
ATOM     91  C   UNL A   1      43.436  34.529  32.617  1.00  0.00    -0.014 A 
ATOM     92  C   UNL A   1      43.983  35.562  31.837  1.00  0.00     0.010 A 
ATOM     93  C   UNL A   1      43.275  34.722  34.002  1.00  0.00     0.010 A 
ATOM     94  C   UNL A   1      44.389  36.757  32.437  1.00  0.00     0.020 A 
ATOM     95  C   UNL A   1      43.656  35.925  34.600  1.00  0.00     0.020 A 
ATOM     96  C   UNL A   1      44.224  36.930  33.816  1.00  0.00     0.054 A 
BRANCH  96  97
ATOM     97  S   UNL A   1      44.718  38.507  34.564  1.00  0.00     0.124 S 
ATOM     98  O   UNL A   1      44.382  39.462  33.510  1.00  0.00    -0.237 OA
ATOM     99  O   UNL A   1      43.882  38.571  35.760  1.00  0.00    -0.237 OA
ATOM    100  O   UNL A   1      46.147  38.337  34.818  1.00  0.00    -0.744 OA
ENDBRANCH  96  97
ENDBRANCH  70  91
ENDBRANCH  44  45
ENDBRANCH  36  39
ENDBRANCH  34  35
ENDBRANCH  33  34
ENDBRANCH  32  33
ENDBRANCH   1  32
TORSDOF 19
ENDMDL
MODEL 2
REMARK VINA RESULT:     -10.9      3.492      9.364
REMARK SMILES Cc1ccc(O[C@H](C)C(=O)NNC(=O)[C@@H]2[C@@H](C(=O)NCCCCNC(=O)c3ccc(-c4c5nc(c(-c6ccc(S(=O)(=O)[O-])cc6)c6ccc([nH]6)c(-c6ccc(S(=O)(=O)[O-])cc6)c6nc(c(-c7ccc(S(=O)(=O)[O-])cc7)c7ccc4[nH]7)C=C6)C=C5)cc3)[C@@H]3C=C[C@H]2C3)cc1C
REMARK SMILES IDX 20 1 19 2 17 3 18 4 16 6 15 7 90 8 87 9 89 10 91 11 88 12
REMARK SMILES IDX 13 13 12 14 14 16 11 17 9 18 10 19 7 21 8 22 6 23 5 24 1 25
REMARK SMILES IDX 2 26 3 27 93 28 4 29 92 30 94 31 21 32 22 33 23 34 24 35
REMARK SMILES IDX 25 36 26 38 27 39 28 40 86 41 29 42 85 43 30 44 31 45 32 46
REMARK SMILES IDX 79 47 33 48 84 49 78 50 80 51 34 52 83 53 77 54 76 55 35 57
REMARK SMILES IDX 65 58 46 59 64 60 47 61 50 62 63 63 81 64 48 65 49 66 62 68
REMARK SMILES IDX 82 69 51 70 36 71 37 72 45 73 38 74 44 75 39 76 40 77 41 78
REMARK SMILES IDX 42 79 43 80 66 81 67 82 75 83 68 84 74 85 69 86 70 87 71 88
REMARK SMILES IDX 72 89 73 90 52 91 53 92 61 93 54 94 60 95 55 96 56 97 57 98
REMARK SMILES IDX 58 99 59 100
REMARK H PARENT 19 5 12 15 11 20 24 37 80 56 50 67
REMARK Flexibility Score: inf
ROOT
ATOM      1  C   UNL A   1      36.817  21.457  25.465  1.00  0.00     0.116 C 
ENDROOT
BRANCH   1   2
ATOM      2  N   UNL A   1      35.863  22.011  26.400  1.00  0.00    -0.356 N 
ATOM      3  C   UNL A   1      34.591  22.442  26.181  1.00  0.00     0.224 C 
ATOM      4  O   UNL A   1      33.964  22.857  27.156  1.00  0.00    -0.275 OA
ATOM      5  H   UNL A   1      36.180  22.088  27.329  1.00  0.00     0.163 HD
BRANCH   3   6
ATOM      6  C   UNL A   1      33.980  22.387  24.779  1.00  0.00     0.098 C 
ATOM      7  C   UNL A   1      32.795  23.413  24.551  1.00  0.00     0.100 C 
ATOM      8  C   UNL A   1      31.597  22.462  24.284  1.00  0.00     0.025 C 
ATOM      9  C   UNL A   1      33.270  21.019  24.572  1.00  0.00     0.025 C 
ATOM     10  C   UNL A   1      31.808  21.773  22.960  1.00  0.00    -0.027 C 
ATOM     11  C   UNL A   1      31.905  21.283  25.207  1.00  0.00     0.017 C 
ATOM     12  C   UNL A   1      32.830  20.921  23.125  1.00  0.00    -0.027 C 
BRANCH   7  13
ATOM     13  C   UNL A   1      33.147  24.425  23.446  1.00  0.00     0.242 C 
ATOM     14  N   UNL A   1      32.271  25.368  22.987  1.00  0.00    -0.267 N 
ATOM     15  H   UNL A   1      32.661  26.160  22.551  1.00  0.00     0.191 HD
ATOM     16  O   UNL A   1      34.295  24.510  22.997  1.00  0.00    -0.273 OA
BRANCH  14  17
ATOM     17  N   UNL A   1      30.893  25.321  23.074  1.00  0.00    -0.264 N 
ATOM     18  C   UNL A   1      30.159  26.145  23.895  1.00  0.00     0.279 C 
ATOM     19  O   UNL A   1      28.941  26.227  23.717  1.00  0.00    -0.269 OA
ATOM     20  H   UNL A   1      30.413  24.664  22.521  1.00  0.00     0.191 HD
BRANCH  18  21
ATOM     21  C   UNL A   1      30.841  26.837  25.093  1.00  0.00     0.260 C 
ATOM     22  C   UNL A   1      30.988  25.799  26.215  1.00  0.00     0.064 C 
BRANCH  21  23
ATOM     23  O   UNL A   1      32.102  27.415  24.746  1.00  0.00    -0.481 OA
BRANCH  23  24
ATOM     24  C   UNL A   1      32.640  28.351  25.595  1.00  0.00     0.120 A 
ATOM     25  C   UNL A   1      34.173  31.590  28.036  1.00  0.00     0.044 C 
ATOM     26  C   UNL A   1      33.594  30.480  27.202  1.00  0.00    -0.048 A 
ATOM     27  C   UNL A   1      34.319  29.288  27.070  1.00  0.00     0.007 A 
ATOM     28  C   UNL A   1      32.355  30.595  26.546  1.00  0.00    -0.045 A 
ATOM     29  C   UNL A   1      33.843  28.233  26.285  1.00  0.00     0.047 A 
ATOM     30  C   UNL A   1      31.897  29.526  25.745  1.00  0.00     0.050 A 
ATOM     31  C   UNL A   1      31.484  31.818  26.658  1.00  0.00     0.045 C 
ENDBRANCH  23  24
ENDBRANCH  21  23
ENDBRANCH  18  21
ENDBRANCH  14  17
ENDBRANCH   7  13
ENDBRANCH   3   6
ENDBRANCH   1   2
BRANCH   1  32
ATOM     32  C   UNL A   1      38.147  22.205  25.531  1.00  0.00     0.023 C 
BRANCH  32  33
ATOM     33  C   UNL A   1      38.075  23.544  26.270  1.00  0.00     0.023 C 
BRANCH  33  34
ATOM     34  C   UNL A   1      39.381  23.989  26.918  1.00  0.00     0.116 C 
BRANCH  34  35
ATOM     35  N   UNL A   1      40.355  24.500  25.965  1.00  0.00    -0.352 N 
ATOM     36  C   UNL A   1      40.980  25.727  25.966  1.00  0.00     0.251 C 
ATOM     37  H   UNL A   1      40.597  23.895  25.228  1.00  0.00     0.163 HD
ATOM     38  O   UNL A   1      41.700  26.062  25.038  1.00  0.00    -0.269 OA
BRANCH  36  39
ATOM     39  C   UNL A   1      40.724  26.648  27.093  1.00  0.00     0.039 A 
ATOM     40  C   UNL A   1      39.867  26.239  28.116  1.00  0.00     0.014 A 
ATOM     41  C   UNL A   1      41.382  27.879  27.162  1.00  0.00     0.014 A 
ATOM     42  C   UNL A   1      39.725  27.040  29.250  1.00  0.00     0.010 A 
ATOM     43  C   UNL A   1      41.295  28.637  28.323  1.00  0.00     0.010 A 
ATOM     44  C   UNL A   1      40.467  28.225  29.378  1.00  0.00    -0.014 A 
BRANCH  44  45
ATOM     45  C   UNL A   1      40.394  29.050  30.609  1.00  0.00     0.031 A 
ATOM     46  C   UNL A   1      39.369  30.145  30.720  1.00  0.00     0.074 A 
ATOM     47  C   UNL A   1      41.296  28.860  31.593  1.00  0.00     0.049 A 
ATOM     48  N   UNL A   1      39.190  31.011  31.683  1.00  0.00    -0.248 NA
ATOM     49  C   UNL A   1      38.443  30.306  29.586  1.00  0.00     0.031 C 
ATOM     50  C   UNL A   1      42.372  27.864  31.578  1.00  0.00     0.029 A 
ATOM     51  N   UNL A   1      41.457  29.503  32.794  1.00  0.00    -0.354 N 
ATOM     52  C   UNL A   1      38.150  31.831  31.263  1.00  0.00     0.074 A 
ATOM     53  C   UNL A   1      37.770  31.390  29.939  1.00  0.00     0.031 C 
ATOM     54  C   UNL A   1      43.061  27.945  32.728  1.00  0.00     0.029 A 
ATOM     55  C   UNL A   1      42.504  29.020  33.543  1.00  0.00     0.049 A 
ATOM     56  H   UNL A   1      40.878  30.241  33.091  1.00  0.00     0.167 HD
ATOM     57  C   UNL A   1      37.549  32.846  31.929  1.00  0.00     0.031 A 
ATOM     58  C   UNL A   1      42.964  29.400  34.750  1.00  0.00     0.031 A 
ATOM     59  C   UNL A   1      37.917  33.267  33.255  1.00  0.00     0.049 A 
ATOM     60  C   UNL A   1      42.271  30.519  35.478  1.00  0.00     0.074 A 
ATOM     61  C   UNL A   1      37.333  34.244  34.040  1.00  0.00     0.029 A 
ATOM     62  N   UNL A   1      38.964  32.733  33.991  1.00  0.00    -0.354 N 
ATOM     63  N   UNL A   1      41.245  31.239  35.092  1.00  0.00    -0.248 NA
ATOM     64  C   UNL A   1      42.787  30.865  36.809  1.00  0.00     0.031 C 
ATOM     65  C   UNL A   1      38.052  34.329  35.237  1.00  0.00     0.029 A 
ATOM     66  C   UNL A   1      39.052  33.370  35.216  1.00  0.00     0.049 A 
ATOM     67  H   UNL A   1      39.556  32.007  33.687  1.00  0.00     0.167 HD
ATOM     68  C   UNL A   1      40.976  32.106  36.145  1.00  0.00     0.074 A 
ATOM     69  C   UNL A   1      41.938  31.811  37.187  1.00  0.00     0.031 C 
ATOM     70  C   UNL A   1      40.016  33.060  36.242  1.00  0.00     0.031 A 
BRANCH  57  71
ATOM     71  C   UNL A   1      36.430  33.568  31.228  1.00  0.00    -0.014 A 
ATOM     72  C   UNL A   1      36.560  33.979  29.888  1.00  0.00     0.010 A 
ATOM     73  C   UNL A   1      35.224  33.819  31.906  1.00  0.00     0.010 A 
ATOM     74  C   UNL A   1      35.523  34.668  29.255  1.00  0.00     0.020 A 
ATOM     75  C   UNL A   1      34.173  34.483  31.267  1.00  0.00     0.020 A 
ATOM     76  C   UNL A   1      34.336  34.920  29.951  1.00  0.00     0.054 A 
BRANCH  76  77
ATOM     77  S   UNL A   1      33.000  35.802  29.100  1.00  0.00     0.124 S 
ATOM     78  O   UNL A   1      32.165  36.234  30.218  1.00  0.00    -0.237 OA
ATOM     79  O   UNL A   1      33.712  36.868  28.401  1.00  0.00    -0.237 OA
ATOM     80  O   UNL A   1      32.408  34.783  28.236  1.00  0.00    -0.744 OA
ENDBRANCH  76  77
ENDBRANCH  57  71
BRANCH  58  81
ATOM     81  C   UNL A   1      44.126  28.697  35.357  1.00  0.00    -0.014 A 
ATOM     82  C   UNL A   1      43.930  27.563  36.166  1.00  0.00     0.010 A 
ATOM     83  C   UNL A   1      45.438  29.145  35.118  1.00  0.00     0.010 A 
ATOM     84  C   UNL A   1      45.021  26.902  36.737  1.00  0.00     0.020 A 
ATOM     85  C   UNL A   1      46.533  28.471  35.666  1.00  0.00     0.020 A 
ATOM     86  C   UNL A   1      46.315  27.359  36.482  1.00  0.00     0.054 A 
BRANCH  86  87
ATOM     87  S   UNL A   1      47.720  26.453  37.188  1.00  0.00     0.124 S 
ATOM     88  O   UNL A   1      48.056  27.270  38.350  1.00  0.00    -0.237 OA
ATOM     89  O   UNL A   1      47.139  25.145  37.481  1.00  0.00    -0.237 OA
ATOM     90  O   UNL A   1      48.707  26.459  36.111  1.00  0.00    -0.744 OA
ENDBRANCH  86  87
ENDBRANCH  58  81
BRANCH  70  91
ATOM     91  C   UNL A   1      39.936  33.831  37.531  1.00  0.00    -0.014 A 
ATOM     92  C   UNL A   1      39.129  33.392  38.594  1.00  0.00     0.010 A 
ATOM     93  C   UNL A   1      40.726  34.984  37.696  1.00  0.00     0.010 A 
ATOM     94  C   UNL A   1      39.091  34.110  39.792  1.00  0.00     0.020 A 
ATOM     95  C   UNL A   1      40.709  35.690  38.902  1.00  0.00     0.020 A 
ATOM     96  C   UNL A   1      39.881  35.255  39.938  1.00  0.00     0.054 A 
BRANCH  96  97
ATOM     97  S   UNL A   1      39.848  36.145  41.518  1.00  0.00     0.124 S 
ATOM     98  O   UNL A   1      41.247  36.534  41.677  1.00  0.00    -0.237 OA
ATOM     99  O   UNL A   1      38.918  37.239  41.252  1.00  0.00    -0.237 OA
ATOM    100  O   UNL A   1      39.367  35.145  42.468  1.00  0.00    -0.744 OA
ENDBRANCH  96  97
ENDBRANCH  70  91
ENDBRANCH  44  45
ENDBRANCH  36  39
ENDBRANCH  34  35
ENDBRANCH  33  34
ENDBRANCH  32  33
ENDBRANCH   1  32
TORSDOF 19
ENDMDL
MODEL 3
REMARK VINA RESULT:     -10.5      2.034      2.667
REMARK SMILES Cc1ccc(O[C@H](C)C(=O)NNC(=O)[C@@H]2[C@@H](C(=O)NCCCCNC(=O)c3ccc(-c4c5nc(c(-c6ccc(S(=O)(=O)[O-])cc6)c6ccc([nH]6)c(-c6ccc(S(=O)(=O)[O-])cc6)c6nc(c(-c7ccc(S(=O)(=O)[O-])cc7)c7ccc4[nH]7)C=C6)C=C5)cc3)[C@@H]3C=C[C@H]2C3)cc1C
REMARK SMILES IDX 20 1 19 2 17 3 18 4 16 6 15 7 90 8 87 9 89 10 91 11 88 12
REMARK SMILES IDX 13 13 12 14 14 16 11 17 9 18 10 19 7 21 8 22 6 23 5 24 1 25
REMARK SMILES IDX 2 26 3 27 93 28 4 29 92 30 94 31 21 32 22 33 23 34 24 35
REMARK SMILES IDX 25 36 26 38 27 39 28 40 86 41 29 42 85 43 30 44 31 45 32 46
REMARK SMILES IDX 79 47 33 48 84 49 78 50 80 51 34 52 83 53 77 54 76 55 35 57
REMARK SMILES IDX 65 58 46 59 64 60 47 61 50 62 63 63 81 64 48 65 49 66 62 68
REMARK SMILES IDX 82 69 51 70 36 71 37 72 45 73 38 74 44 75 39 76 40 77 41 78
REMARK SMILES IDX 42 79 43 80 66 81 67 82 75 83 68 84 74 85 69 86 70 87 71 88
REMARK SMILES IDX 72 89 73 90 52 91 53 92 61 93 54 94 60 95 55 96 56 97 57 98
REMARK SMILES IDX 58 99 59 100
REMARK H PARENT 19 5 12 15 11 20 24 37 80 56 50 67
REMARK Flexibility Score: inf
ROOT
ATOM      1  C   UNL A   1      33.907  23.777  23.498  1.00  0.00     0.116 C 
ENDROOT
BRANCH   1   2
ATOM      2  N   UNL A   1      33.682  24.442  22.233  1.00  0.00    -0.356 N 
ATOM      3  C   UNL A   1      33.346  25.737  21.988  1.00  0.00     0.224 C 
ATOM      4  O   UNL A   1      33.231  26.072  20.808  1.00  0.00    -0.275 OA
ATOM      5  H   UNL A   1      33.787  23.875  21.435  1.00  0.00     0.163 HD
BRANCH   3   6
ATOM      6  C   UNL A   1      33.142  26.721  23.141  1.00  0.00     0.098 C 
ATOM      7  C   UNL A   1      32.236  26.162  24.315  1.00  0.00     0.100 C 
ATOM      8  C   UNL A   1      31.027  27.135  24.275  1.00  0.00     0.025 C 
ATOM      9  C   UNL A   1      32.315  27.942  22.646  1.00  0.00     0.025 C 
ATOM     10  C   UNL A   1      31.485  28.500  24.720  1.00  0.00    -0.027 C 
ATOM     11  C   UNL A   1      30.886  27.418  22.779  1.00  0.00     0.017 C 
ATOM     12  C   UNL A   1      32.280  28.977  23.751  1.00  0.00    -0.027 C 
BRANCH   7  13
ATOM     13  C   UNL A   1      33.029  26.082  25.632  1.00  0.00     0.242 C 
ATOM     14  N   UNL A   1      32.754  25.176  26.617  1.00  0.00    -0.267 N 
ATOM     15  H   UNL A   1      33.485  24.968  27.244  1.00  0.00     0.191 HD
ATOM     16  O   UNL A   1      34.042  26.766  25.813  1.00  0.00    -0.273 OA
BRANCH  14  17
ATOM     17  N   UNL A   1      31.554  24.524  26.822  1.00  0.00    -0.264 N 
ATOM     18  C   UNL A   1      31.442  23.155  26.901  1.00  0.00     0.279 C 
ATOM     19  O   UNL A   1      30.400  22.670  27.350  1.00  0.00    -0.269 OA
ATOM     20  H   UNL A   1      30.738  25.066  26.916  1.00  0.00     0.191 HD
BRANCH  18  21
ATOM     21  C   UNL A   1      32.550  22.260  26.309  1.00  0.00     0.260 C 
ATOM     22  C   UNL A   1      33.393  21.721  27.475  1.00  0.00     0.064 C 
BRANCH  21  23
ATOM     23  O   UNL A   1      32.026  21.198  25.509  1.00  0.00    -0.481 OA
BRANCH  23  24
ATOM     24  C   UNL A   1      32.842  20.125  25.242  1.00  0.00     0.120 A 
ATOM     25  C   UNL A   1      35.222  16.542  24.699  1.00  0.00     0.044 C 
ATOM     26  C   UNL A   1      34.355  17.759  24.872  1.00  0.00    -0.048 A 
ATOM     27  C   UNL A   1      34.911  19.022  24.630  1.00  0.00     0.007 A 
ATOM     28  C   UNL A   1      33.009  17.677  25.273  1.00  0.00    -0.045 A 
ATOM     29  C   UNL A   1      34.161  20.190  24.803  1.00  0.00     0.047 A 
ATOM     30  C   UNL A   1      32.271  18.866  25.457  1.00  0.00     0.050 A 
ATOM     31  C   UNL A   1      32.310  16.366  25.519  1.00  0.00     0.045 C 
ENDBRANCH  23  24
ENDBRANCH  21  23
ENDBRANCH  18  21
ENDBRANCH  14  17
ENDBRANCH   7  13
ENDBRANCH   3   6
ENDBRANCH   1   2
BRANCH   1  32
ATOM     32  C   UNL A   1      35.327  23.217  23.578  1.00  0.00     0.023 C 
BRANCH  32  33
ATOM     33  C   UNL A   1      36.254  23.996  24.513  1.00  0.00     0.023 C 
BRANCH  33  34
ATOM     34  C   UNL A   1      36.394  23.408  25.912  1.00  0.00     0.116 C 
BRANCH  34  35
ATOM     35  N   UNL A   1      37.432  22.392  26.011  1.00  0.00    -0.352 N 
ATOM     36  C   UNL A   1      38.753  22.559  26.359  1.00  0.00     0.251 C 
ATOM     37  H   UNL A   1      37.155  21.471  25.802  1.00  0.00     0.163 HD
ATOM     38  O   UNL A   1      39.539  21.626  26.296  1.00  0.00    -0.269 OA
BRANCH  36  39
ATOM     39  C   UNL A   1      39.210  23.903  26.767  1.00  0.00     0.039 A 
ATOM     40  C   UNL A   1      39.126  24.263  28.113  1.00  0.00     0.014 A 
ATOM     41  C   UNL A   1      39.776  24.771  25.829  1.00  0.00     0.014 A 
ATOM     42  C   UNL A   1      39.678  25.474  28.532  1.00  0.00     0.010 A 
ATOM     43  C   UNL A   1      40.389  25.941  26.262  1.00  0.00     0.010 A 
ATOM     44  C   UNL A   1      40.347  26.303  27.617  1.00  0.00    -0.014 A 
BRANCH  44  45
ATOM     45  C   UNL A   1      41.013  27.554  28.055  1.00  0.00     0.031 A 
ATOM     46  C   UNL A   1      42.510  27.675  27.973  1.00  0.00     0.074 A 
ATOM     47  C   UNL A   1      40.279  28.548  28.593  1.00  0.00     0.049 A 
ATOM     48  N   UNL A   1      43.279  28.658  28.365  1.00  0.00    -0.248 NA
ATOM     49  C   UNL A   1      43.240  26.531  27.402  1.00  0.00     0.031 C 
ATOM     50  C   UNL A   1      38.824  28.525  28.775  1.00  0.00     0.029 A 
ATOM     51  N   UNL A   1      40.656  29.768  29.094  1.00  0.00    -0.354 N 
ATOM     52  C   UNL A   1      44.580  28.242  28.109  1.00  0.00     0.074 A 
ATOM     53  C   UNL A   1      44.500  26.900  27.576  1.00  0.00     0.031 C 
ATOM     54  C   UNL A   1      38.432  29.689  29.320  1.00  0.00     0.029 A 
ATOM     55  C   UNL A   1      39.605  30.521  29.561  1.00  0.00     0.049 A 
ATOM     56  H   UNL A   1      41.591  30.074  29.118  1.00  0.00     0.167 HD
ATOM     57  C   UNL A   1      45.738  28.924  28.284  1.00  0.00     0.031 A 
ATOM     58  C   UNL A   1      39.589  31.746  30.122  1.00  0.00     0.031 A 
ATOM     59  C   UNL A   1      45.811  30.266  28.797  1.00  0.00     0.049 A 
ATOM     60  C   UNL A   1      40.885  32.491  30.290  1.00  0.00     0.074 A 
ATOM     61  C   UNL A   1      46.927  31.066  28.955  1.00  0.00     0.029 A 
ATOM     62  N   UNL A   1      44.721  31.006  29.231  1.00  0.00    -0.354 N 
ATOM     63  N   UNL A   1      42.100  32.107  29.981  1.00  0.00    -0.248 NA
ATOM     64  C   UNL A   1      40.805  33.840  30.867  1.00  0.00     0.031 C 
ATOM     65  C   UNL A   1      46.519  32.278  29.524  1.00  0.00     0.029 A 
ATOM     66  C   UNL A   1      45.141  32.249  29.672  1.00  0.00     0.049 A 
ATOM     67  H   UNL A   1      43.788  30.693  29.226  1.00  0.00     0.167 HD
ATOM     68  C   UNL A   1      42.927  33.177  30.301  1.00  0.00     0.074 A 
ATOM     69  C   UNL A   1      42.072  34.228  30.816  1.00  0.00     0.031 C 
ATOM     70  C   UNL A   1      44.273  33.283  30.179  1.00  0.00     0.031 A 
BRANCH  57  71
ATOM     71  C   UNL A   1      47.017  28.222  27.915  1.00  0.00    -0.014 A 
ATOM     72  C   UNL A   1      47.681  27.392  28.837  1.00  0.00     0.010 A 
ATOM     73  C   UNL A   1      47.552  28.373  26.623  1.00  0.00     0.010 A 
ATOM     74  C   UNL A   1      48.880  26.764  28.490  1.00  0.00     0.020 A 
ATOM     75  C   UNL A   1      48.736  27.724  26.262  1.00  0.00     0.020 A 
ATOM     76  C   UNL A   1      49.402  26.938  27.204  1.00  0.00     0.054 A 
BRANCH  76  77
ATOM     77  S   UNL A   1      50.951  26.098  26.775  1.00  0.00     0.124 S 
ATOM     78  O   UNL A   1      50.741  24.771  27.348  1.00  0.00    -0.237 OA
ATOM     79  O   UNL A   1      50.956  26.158  25.316  1.00  0.00    -0.237 OA
ATOM     80  O   UNL A   1      51.976  26.906  27.432  1.00  0.00    -0.744 OA
ENDBRANCH  76  77
ENDBRANCH  57  71
BRANCH  58  81
ATOM     81  C   UNL A   1      38.297  32.355  30.539  1.00  0.00    -0.014 A 
ATOM     82  C   UNL A   1      37.825  32.192  31.855  1.00  0.00     0.010 A 
ATOM     83  C   UNL A   1      37.537  33.115  29.631  1.00  0.00     0.010 A 
ATOM     84  C   UNL A   1      36.612  32.762  32.248  1.00  0.00     0.020 A 
ATOM     85  C   UNL A   1      36.336  33.708  30.029  1.00  0.00     0.020 A 
ATOM     86  C   UNL A   1      35.875  33.518  31.333  1.00  0.00     0.054 A 
BRANCH  86  87
ATOM     87  S   UNL A   1      34.330  34.296  31.881  1.00  0.00     0.124 S 
ATOM     88  O   UNL A   1      33.604  34.448  30.624  1.00  0.00    -0.237 OA
ATOM     89  O   UNL A   1      33.789  33.306  32.809  1.00  0.00    -0.237 OA
ATOM     90  O   UNL A   1      34.776  35.541  32.502  1.00  0.00    -0.744 OA
ENDBRANCH  86  87
ENDBRANCH  58  81
BRANCH  70  91
ATOM     91  C   UNL A   1      44.903  34.589  30.575  1.00  0.00    -0.014 A 
ATOM     92  C   UNL A   1      45.380  34.803  31.880  1.00  0.00     0.010 A 
ATOM     93  C   UNL A   1      45.070  35.597  29.607  1.00  0.00     0.010 A 
ATOM     94  C   UNL A   1      45.986  36.016  32.218  1.00  0.00     0.020 A 
ATOM     95  C   UNL A   1      45.699  36.801  29.936  1.00  0.00     0.020 A 
ATOM     96  C   UNL A   1      46.141  37.008  31.244  1.00  0.00     0.054 A 
BRANCH  96  97
ATOM     97  S   UNL A   1      46.971  38.556  31.695  1.00  0.00     0.124 S 
ATOM     98  O   UNL A   1      48.377  38.159  31.691  1.00  0.00    -0.237 OA
ATOM     99  O   UNL A   1      46.570  39.461  30.622  1.00  0.00    -0.237 OA
ATOM    100  O   UNL A   1      46.417  38.874  33.010  1.00  0.00    -0.744 OA
ENDBRANCH  96  97
ENDBRANCH  70  91
ENDBRANCH  44  45
ENDBRANCH  36  39
ENDBRANCH  34  35
ENDBRANCH  33  34
ENDBRANCH  32  33
ENDBRANCH   1  32
TORSDOF 19
ENDMDL
