MODEL 1
REMARK VINA RESULT:     -10.7      0.000      0.000
REMARK SMILES Cc1cc(-c2ccc(/C=C/C(=O)NCCCCNC(=O)c3ccc(-c4c5nc(c(-c6ccc(S(=O)(=O)[O-])cc6)c6ccc([nH]6)c(-c6ccc(S(=O)(=O)[O-])cc6)c6nc(c(-c7ccc(S(=O)(=O)[O-])cc7)c7ccc4[nH]7)C=C6)C=C5)cc3)o2)c(C)cc1Br
REMARK SMILES IDX 16 1 15 2 14 3 13 4 11 5 12 6 10 8 9 9 8 10 5 11 6 12 81 13
REMARK SMILES IDX 7 14 4 15 1 16 2 17 3 18 85 19 84 20 86 21 82 22 83 23 17 24
REMARK SMILES IDX 18 25 19 26 20 28 21 29 22 30 80 31 23 32 79 33 24 34 25 35
REMARK SMILES IDX 26 36 73 37 27 38 78 39 72 40 74 41 28 42 77 43 71 44 70 45
REMARK SMILES IDX 29 47 59 48 40 49 58 50 41 51 44 52 57 53 75 54 42 55 43 56
REMARK SMILES IDX 56 58 76 59 45 60 30 61 31 62 39 63 32 64 38 65 33 66 34 67
REMARK SMILES IDX 35 68 36 69 37 70 60 71 61 72 69 73 62 74 68 75 63 76 64 77
REMARK SMILES IDX 65 78 66 79 67 80 46 81 47 82 55 83 48 84 54 85 49 86 50 87
REMARK SMILES IDX 51 88 52 89 53 90
REMARK H PARENT 13 7 18 27 74 46 44 57
REMARK Flexibility Score: inf
ROOT
ATOM      1  C   UNL A   1      34.588  34.629  28.235  1.00  0.00     0.023 C 
ENDROOT
BRANCH   1   2
ATOM      2  C   UNL A   1      33.782  35.824  28.744  1.00  0.00     0.023 C 
BRANCH   2   3
ATOM      3  C   UNL A   1      32.830  35.512  29.902  1.00  0.00     0.116 C 
BRANCH   3   4
ATOM      4  N   UNL A   1      32.597  36.680  30.733  1.00  0.00    -0.353 N 
ATOM      5  C   UNL A   1      33.299  37.167  31.794  1.00  0.00     0.244 C 
ATOM      6  O   UNL A   1      33.002  38.259  32.270  1.00  0.00    -0.270 OA
ATOM      7  H   UNL A   1      31.802  37.206  30.491  1.00  0.00     0.163 HD
BRANCH   5   8
ATOM      8  C   UNL A   1      34.470  36.442  32.336  1.00  0.00     0.075 C 
ATOM      9  C   UNL A   1      34.421  35.626  33.396  1.00  0.00     0.053 C 
BRANCH   9  10
ATOM     10  C   UNL A   1      35.582  34.966  33.868  1.00  0.00     0.127 A 
ATOM     11  C   UNL A   1      37.718  34.417  34.077  1.00  0.00     0.135 A 
ATOM     12  C   UNL A   1      37.047  33.694  35.035  1.00  0.00     0.051 A 
ATOM     13  O   UNL A   1      36.838  35.149  33.345  1.00  0.00    -0.457 OA
ATOM     14  C   UNL A   1      35.688  34.065  34.920  1.00  0.00     0.051 A 
BRANCH  11  15
ATOM     15  C   UNL A   1      39.120  34.551  33.718  1.00  0.00     0.020 A 
ATOM     16  C   UNL A   1      41.307  33.367  30.833  1.00  0.00     0.045 C 
ATOM     17  C   UNL A   1      40.914  34.030  32.123  1.00  0.00    -0.036 A 
ATOM     18  C   UNL A   1      39.565  33.975  32.516  1.00  0.00     0.016 A 
ATOM     19  C   UNL A   1      41.829  34.648  32.983  1.00  0.00     0.021 A 
ATOM     20  C   UNL A   1      41.399  35.235  34.178  1.00  0.00     0.020 A 
ATOM     21  Br  UNL A   1      43.691  34.711  32.607  1.00  0.00    -0.051 Br
ATOM     22  C   UNL A   1      40.048  35.193  34.561  1.00  0.00    -0.039 A 
ATOM     23  C   UNL A   1      39.636  35.835  35.859  1.00  0.00     0.045 C 
ENDBRANCH  11  15
ENDBRANCH   9  10
ENDBRANCH   5   8
ENDBRANCH   3   4
ENDBRANCH   2   3
ENDBRANCH   1   2
BRANCH   1  24
ATOM     24  C   UNL A   1      34.176  33.279  28.811  1.00  0.00     0.116 C 
BRANCH  24  25
ATOM     25  N   UNL A   1      33.495  32.415  27.857  1.00  0.00    -0.352 N 
ATOM     26  C   UNL A   1      33.951  31.238  27.305  1.00  0.00     0.251 C 
ATOM     27  H   UNL A   1      32.599  32.707  27.572  1.00  0.00     0.163 HD
ATOM     28  O   UNL A   1      33.297  30.657  26.449  1.00  0.00    -0.269 OA
BRANCH  26  29
ATOM     29  C   UNL A   1      35.275  30.726  27.721  1.00  0.00     0.039 A 
ATOM     30  C   UNL A   1      35.417  29.406  28.152  1.00  0.00     0.014 A 
ATOM     31  C   UNL A   1      36.358  31.607  27.769  1.00  0.00     0.014 A 
ATOM     32  C   UNL A   1      36.586  29.020  28.797  1.00  0.00     0.010 A 
ATOM     33  C   UNL A   1      37.560  31.192  28.349  1.00  0.00     0.010 A 
ATOM     34  C   UNL A   1      37.662  29.915  28.922  1.00  0.00    -0.014 A 
BRANCH  34  35
ATOM     35  C   UNL A   1      38.862  29.503  29.693  1.00  0.00     0.031 A 
ATOM     36  C   UNL A   1      39.012  29.890  31.140  1.00  0.00     0.074 A 
ATOM     37  C   UNL A   1      39.778  28.704  29.110  1.00  0.00     0.049 A 
ATOM     38  N   UNL A   1      39.965  29.571  31.980  1.00  0.00    -0.248 NA
ATOM     39  C   UNL A   1      37.961  30.739  31.726  1.00  0.00     0.031 C 
ATOM     40  C   UNL A   1      39.720  28.234  27.724  1.00  0.00     0.029 A 
ATOM     41  N   UNL A   1      40.907  28.112  29.617  1.00  0.00    -0.354 N 
ATOM     42  C   UNL A   1      39.638  30.191  33.180  1.00  0.00     0.074 A 
ATOM     43  C   UNL A   1      38.412  30.924  32.959  1.00  0.00     0.031 C 
ATOM     44  C   UNL A   1      40.725  27.370  27.514  1.00  0.00     0.029 A 
ATOM     45  C   UNL A   1      41.532  27.272  28.726  1.00  0.00     0.049 A 
ATOM     46  H   UNL A   1      41.236  28.274  30.530  1.00  0.00     0.167 HD
ATOM     47  C   UNL A   1      40.296  30.143  34.363  1.00  0.00     0.031 A 
ATOM     48  C   UNL A   1      42.631  26.505  28.863  1.00  0.00     0.031 A 
ATOM     49  C   UNL A   1      41.506  29.397  34.586  1.00  0.00     0.049 A 
ATOM     50  C   UNL A   1      43.364  26.497  30.173  1.00  0.00     0.074 A 
ATOM     51  C   UNL A   1      42.244  29.292  35.752  1.00  0.00     0.029 A 
ATOM     52  N   UNL A   1      42.150  28.622  33.633  1.00  0.00    -0.354 N 
ATOM     53  N   UNL A   1      43.053  27.113  31.288  1.00  0.00    -0.248 NA
ATOM     54  C   UNL A   1      44.596  25.701  30.244  1.00  0.00     0.031 C 
ATOM     55  C   UNL A   1      43.357  28.489  35.493  1.00  0.00     0.029 A 
ATOM     56  C   UNL A   1      43.285  28.050  34.180  1.00  0.00     0.049 A 
ATOM     57  H   UNL A   1      41.845  28.498  32.705  1.00  0.00     0.167 HD
ATOM     58  C   UNL A   1      44.049  26.777  32.195  1.00  0.00     0.074 A 
ATOM     59  C   UNL A   1      44.963  25.889  31.506  1.00  0.00     0.031 C 
ATOM     60  C   UNL A   1      44.192  27.175  33.482  1.00  0.00     0.031 A 
BRANCH  47  61
ATOM     61  C   UNL A   1      39.735  30.924  35.521  1.00  0.00    -0.014 A 
ATOM     62  C   UNL A   1      40.484  31.977  36.078  1.00  0.00     0.010 A 
ATOM     63  C   UNL A   1      38.520  30.553  36.122  1.00  0.00     0.010 A 
ATOM     64  C   UNL A   1      40.039  32.633  37.228  1.00  0.00     0.020 A 
ATOM     65  C   UNL A   1      38.060  31.222  37.260  1.00  0.00     0.020 A 
ATOM     66  C   UNL A   1      38.832  32.245  37.818  1.00  0.00     0.054 A 
BRANCH  66  67
ATOM     67  S   UNL A   1      38.265  33.105  39.312  1.00  0.00     0.124 S 
ATOM     68  O   UNL A   1      38.761  34.460  39.095  1.00  0.00    -0.237 OA
ATOM     69  O   UNL A   1      36.814  32.944  39.245  1.00  0.00    -0.237 OA
ATOM     70  O   UNL A   1      38.913  32.365  40.393  1.00  0.00    -0.744 OA
ENDBRANCH  66  67
ENDBRANCH  47  61
BRANCH  48  71
ATOM     71  C   UNL A   1      43.071  25.666  27.718  1.00  0.00    -0.014 A 
ATOM     72  C   UNL A   1      42.685  24.316  27.636  1.00  0.00     0.010 A 
ATOM     73  C   UNL A   1      43.962  26.184  26.763  1.00  0.00     0.010 A 
ATOM     74  C   UNL A   1      43.228  23.481  26.657  1.00  0.00     0.020 A 
ATOM     75  C   UNL A   1      44.489  25.357  25.765  1.00  0.00     0.020 A 
ATOM     76  C   UNL A   1      44.142  24.003  25.739  1.00  0.00     0.054 A 
BRANCH  76  77
ATOM     77  S   UNL A   1      44.887  22.892  24.515  1.00  0.00     0.124 S 
ATOM     78  O   UNL A   1      45.321  21.776  25.351  1.00  0.00    -0.237 OA
ATOM     79  O   UNL A   1      43.773  22.609  23.615  1.00  0.00    -0.237 OA
ATOM     80  O   UNL A   1      45.961  23.697  23.936  1.00  0.00    -0.744 OA
ENDBRANCH  76  77
ENDBRANCH  48  71
BRANCH  60  81
ATOM     81  C   UNL A   1      45.380  26.668  34.252  1.00  0.00    -0.014 A 
ATOM     82  C   UNL A   1      45.249  25.530  35.068  1.00  0.00     0.010 A 
ATOM     83  C   UNL A   1      46.585  27.393  34.269  1.00  0.00     0.010 A 
ATOM     84  C   UNL A   1      46.291  25.142  35.914  1.00  0.00     0.020 A 
ATOM     85  C   UNL A   1      47.637  26.996  35.098  1.00  0.00     0.020 A 
ATOM     86  C   UNL A   1      47.474  25.887  35.933  1.00  0.00     0.054 A 
BRANCH  86  87
ATOM     87  S   UNL A   1      48.807  25.390  37.059  1.00  0.00     0.124 S 
ATOM     88  O   UNL A   1      49.972  26.032  36.456  1.00  0.00    -0.237 OA
ATOM     89  O   UNL A   1      48.375  25.945  38.339  1.00  0.00    -0.237 OA
ATOM     90  O   UNL A   1      48.788  23.930  36.984  1.00  0.00    -0.744 OA
ENDBRANCH  86  87
ENDBRANCH  60  81
ENDBRANCH  34  35
ENDBRANCH  26  29
ENDBRANCH  24  25
ENDBRANCH   1  24
TORSDOF 16
ENDMDL
MODEL 2
REMARK VINA RESULT:     -10.3      2.968      4.117
REMARK SMILES Cc1cc(-c2ccc(/C=C/C(=O)NCCCCNC(=O)c3ccc(-c4c5nc(c(-c6ccc(S(=O)(=O)[O-])cc6)c6ccc([nH]6)c(-c6ccc(S(=O)(=O)[O-])cc6)c6nc(c(-c7ccc(S(=O)(=O)[O-])cc7)c7ccc4[nH]7)C=C6)C=C5)cc3)o2)c(C)cc1Br
REMARK SMILES IDX 16 1 15 2 14 3 13 4 11 5 12 6 10 8 9 9 8 10 5 11 6 12 81 13
REMARK SMILES IDX 7 14 4 15 1 16 2 17 3 18 85 19 84 20 86 21 82 22 83 23 17 24
REMARK SMILES IDX 18 25 19 26 20 28 21 29 22 30 80 31 23 32 79 33 24 34 25 35
REMARK SMILES IDX 26 36 73 37 27 38 78 39 72 40 74 41 28 42 77 43 71 44 70 45
REMARK SMILES IDX 29 47 59 48 40 49 58 50 41 51 44 52 57 53 75 54 42 55 43 56
REMARK SMILES IDX 56 58 76 59 45 60 30 61 31 62 39 63 32 64 38 65 33 66 34 67
REMARK SMILES IDX 35 68 36 69 37 70 60 71 61 72 69 73 62 74 68 75 63 76 64 77
REMARK SMILES IDX 65 78 66 79 67 80 46 81 47 82 55 83 48 84 54 85 49 86 50 87
REMARK SMILES IDX 51 88 52 89 53 90
REMARK H PARENT 13 7 18 27 74 46 44 57
REMARK Flexibility Score: inf
ROOT
ATOM      1  C   UNL A   1      35.036  34.416  28.027  1.00  0.00     0.023 C 
ENDROOT
BRANCH   1   2
ATOM      2  C   UNL A   1      34.160  35.594  28.451  1.00  0.00     0.023 C 
BRANCH   2   3
ATOM      3  C   UNL A   1      33.232  35.313  29.636  1.00  0.00     0.116 C 
BRANCH   3   4
ATOM      4  N   UNL A   1      32.897  36.528  30.355  1.00  0.00    -0.353 N 
ATOM      5  C   UNL A   1      33.194  36.916  31.627  1.00  0.00     0.244 C 
ATOM      6  O   UNL A   1      32.929  38.058  31.993  1.00  0.00    -0.270 OA
ATOM      7  H   UNL A   1      32.368  37.180  29.840  1.00  0.00     0.163 HD
BRANCH   5   8
ATOM      8  C   UNL A   1      33.907  36.012  32.557  1.00  0.00     0.075 C 
ATOM      9  C   UNL A   1      34.906  35.199  32.193  1.00  0.00     0.053 C 
BRANCH   9  10
ATOM     10  C   UNL A   1      35.544  34.354  33.133  1.00  0.00     0.127 A 
ATOM     11  C   UNL A   1      36.919  32.820  33.948  1.00  0.00     0.135 A 
ATOM     12  C   UNL A   1      36.258  33.348  35.032  1.00  0.00     0.051 A 
ATOM     13  O   UNL A   1      36.463  33.389  32.801  1.00  0.00    -0.457 OA
ATOM     14  C   UNL A   1      35.402  34.347  34.515  1.00  0.00     0.051 A 
BRANCH  11  15
ATOM     15  C   UNL A   1      37.967  31.824  33.798  1.00  0.00     0.020 A 
ATOM     16  C   UNL A   1      38.161  28.272  32.435  1.00  0.00     0.045 C 
ATOM     17  C   UNL A   1      38.597  29.567  33.061  1.00  0.00    -0.036 A 
ATOM     18  C   UNL A   1      37.646  30.592  33.204  1.00  0.00     0.016 A 
ATOM     19  C   UNL A   1      39.885  29.785  33.564  1.00  0.00     0.021 A 
ATOM     20  C   UNL A   1      40.223  31.011  34.148  1.00  0.00     0.020 A 
ATOM     21  Br  UNL A   1      41.235  28.449  33.511  1.00  0.00    -0.051 Br
ATOM     22  C   UNL A   1      39.275  32.039  34.275  1.00  0.00    -0.039 A 
ATOM     23  C   UNL A   1      39.687  33.338  34.917  1.00  0.00     0.045 C 
ENDBRANCH  11  15
ENDBRANCH   9  10
ENDBRANCH   5   8
ENDBRANCH   3   4
ENDBRANCH   2   3
ENDBRANCH   1   2
BRANCH   1  24
ATOM     24  C   UNL A   1      34.885  33.159  28.876  1.00  0.00     0.116 C 
BRANCH  24  25
ATOM     25  N   UNL A   1      33.879  32.230  28.380  1.00  0.00    -0.352 N 
ATOM     26  C   UNL A   1      34.045  30.905  28.039  1.00  0.00     0.251 C 
ATOM     27  H   UNL A   1      32.970  32.593  28.276  1.00  0.00     0.163 HD
ATOM     28  O   UNL A   1      33.120  30.266  27.557  1.00  0.00    -0.269 OA
BRANCH  26  29
ATOM     29  C   UNL A   1      35.380  30.292  28.209  1.00  0.00     0.039 A 
ATOM     30  C   UNL A   1      35.769  29.783  29.449  1.00  0.00     0.014 A 
ATOM     31  C   UNL A   1      36.278  30.316  27.139  1.00  0.00     0.014 A 
ATOM     32  C   UNL A   1      37.105  29.468  29.669  1.00  0.00     0.010 A 
ATOM     33  C   UNL A   1      37.604  29.925  27.343  1.00  0.00     0.010 A 
ATOM     34  C   UNL A   1      38.041  29.556  28.625  1.00  0.00    -0.014 A 
BRANCH  34  35
ATOM     35  C   UNL A   1      39.475  29.298  28.913  1.00  0.00     0.031 A 
ATOM     36  C   UNL A   1      40.292  30.300  29.685  1.00  0.00     0.074 A 
ATOM     37  C   UNL A   1      40.018  28.119  28.552  1.00  0.00     0.049 A 
ATOM     38  N   UNL A   1      41.540  30.215  30.073  1.00  0.00    -0.248 NA
ATOM     39  C   UNL A   1      39.630  31.556  30.075  1.00  0.00     0.031 C 
ATOM     40  C   UNL A   1      39.314  27.055  27.833  1.00  0.00     0.029 A 
ATOM     41  N   UNL A   1      41.267  27.599  28.778  1.00  0.00    -0.354 N 
ATOM     42  C   UNL A   1      41.815  31.406  30.736  1.00  0.00     0.074 A 
ATOM     43  C   UNL A   1      40.614  32.209  30.679  1.00  0.00     0.031 C 
ATOM     44  C   UNL A   1      40.116  25.985  27.741  1.00  0.00     0.029 A 
ATOM     45  C   UNL A   1      41.409  26.304  28.338  1.00  0.00     0.049 A 
ATOM     46  H   UNL A   1      41.991  28.104  29.214  1.00  0.00     0.167 HD
ATOM     47  C   UNL A   1      42.961  31.790  31.345  1.00  0.00     0.031 A 
ATOM     48  C   UNL A   1      42.459  25.462  28.405  1.00  0.00     0.031 A 
ATOM     49  C   UNL A   1      44.149  30.980  31.417  1.00  0.00     0.049 A 
ATOM     50  C   UNL A   1      43.731  25.923  29.054  1.00  0.00     0.074 A 
ATOM     51  C   UNL A   1      45.359  31.288  32.013  1.00  0.00     0.029 A 
ATOM     52  N   UNL A   1      44.275  29.705  30.889  1.00  0.00    -0.354 N 
ATOM     53  N   UNL A   1      43.979  27.065  29.650  1.00  0.00    -0.248 NA
ATOM     54  C   UNL A   1      44.867  24.992  29.034  1.00  0.00     0.031 C 
ATOM     55  C   UNL A   1      46.232  30.217  31.808  1.00  0.00     0.029 A 
ATOM     56  C   UNL A   1      45.548  29.219  31.130  1.00  0.00     0.049 A 
ATOM     57  H   UNL A   1      43.565  29.218  30.412  1.00  0.00     0.167 HD
ATOM     58  C   UNL A   1      45.297  26.988  30.079  1.00  0.00     0.074 A 
ATOM     59  C   UNL A   1      45.790  25.682  29.692  1.00  0.00     0.031 C 
ATOM     60  C   UNL A   1      46.031  27.921  30.732  1.00  0.00     0.031 A 
BRANCH  47  61
ATOM     61  C   UNL A   1      43.006  33.151  31.985  1.00  0.00    -0.014 A 
ATOM     62  C   UNL A   1      43.336  34.275  31.206  1.00  0.00     0.010 A 
ATOM     63  C   UNL A   1      42.824  33.306  33.370  1.00  0.00     0.010 A 
ATOM     64  C   UNL A   1      43.504  35.527  31.803  1.00  0.00     0.020 A 
ATOM     65  C   UNL A   1      42.968  34.562  33.967  1.00  0.00     0.020 A 
ATOM     66  C   UNL A   1      43.327  35.661  33.183  1.00  0.00     0.054 A 
BRANCH  66  67
ATOM     67  S   UNL A   1      43.548  37.293  33.946  1.00  0.00     0.124 S 
ATOM     68  O   UNL A   1      42.412  37.363  34.859  1.00  0.00    -0.237 OA
ATOM     69  O   UNL A   1      44.861  37.177  34.578  1.00  0.00    -0.237 OA
ATOM     70  O   UNL A   1      43.497  38.207  32.807  1.00  0.00    -0.744 OA
ENDBRANCH  66  67
ENDBRANCH  47  61
BRANCH  48  71
ATOM     71  C   UNL A   1      42.316  24.088  27.857  1.00  0.00    -0.014 A 
ATOM     72  C   UNL A   1      42.188  22.987  28.723  1.00  0.00     0.010 A 
ATOM     73  C   UNL A   1      42.413  23.865  26.473  1.00  0.00     0.010 A 
ATOM     74  C   UNL A   1      42.221  21.684  28.223  1.00  0.00     0.020 A 
ATOM     75  C   UNL A   1      42.421  22.561  25.965  1.00  0.00     0.020 A 
ATOM     76  C   UNL A   1      42.358  21.479  26.847  1.00  0.00     0.054 A 
BRANCH  76  77
ATOM     77  S   UNL A   1      42.464  19.781  26.220  1.00  0.00     0.124 S 
ATOM     78  O   UNL A   1      41.285  19.707  25.362  1.00  0.00    -0.237 OA
ATOM     79  O   UNL A   1      43.749  19.773  25.526  1.00  0.00    -0.237 OA
ATOM     80  O   UNL A   1      42.410  18.967  27.432  1.00  0.00    -0.744 OA
ENDBRANCH  76  77
ENDBRANCH  48  71
BRANCH  60  81
ATOM     81  C   UNL A   1      47.456  27.587  31.077  1.00  0.00    -0.014 A 
ATOM     82  C   UNL A   1      48.501  28.071  30.269  1.00  0.00     0.010 A 
ATOM     83  C   UNL A   1      47.749  26.690  32.119  1.00  0.00     0.010 A 
ATOM     84  C   UNL A   1      49.814  27.640  30.476  1.00  0.00     0.020 A 
ATOM     85  C   UNL A   1      49.063  26.273  32.342  1.00  0.00     0.020 A 
ATOM     86  C   UNL A   1      50.084  26.731  31.504  1.00  0.00     0.054 A 
BRANCH  86  87
ATOM     87  S   UNL A   1      51.787  26.155  31.742  1.00  0.00     0.124 S 
ATOM     88  O   UNL A   1      52.365  27.229  32.544  1.00  0.00    -0.237 OA
ATOM     89  O   UNL A   1      51.606  24.881  32.433  1.00  0.00    -0.237 OA
ATOM     90  O   UNL A   1      52.302  26.045  30.378  1.00  0.00    -0.744 OA
ENDBRANCH  86  87
ENDBRANCH  60  81
ENDBRANCH  34  35
ENDBRANCH  26  29
ENDBRANCH  24  25
ENDBRANCH   1  24
TORSDOF 16
ENDMDL
MODEL 3
REMARK VINA RESULT:     -10.0      3.258     11.391
REMARK SMILES Cc1cc(-c2ccc(/C=C/C(=O)NCCCCNC(=O)c3ccc(-c4c5nc(c(-c6ccc(S(=O)(=O)[O-])cc6)c6ccc([nH]6)c(-c6ccc(S(=O)(=O)[O-])cc6)c6nc(c(-c7ccc(S(=O)(=O)[O-])cc7)c7ccc4[nH]7)C=C6)C=C5)cc3)o2)c(C)cc1Br
REMARK SMILES IDX 16 1 15 2 14 3 13 4 11 5 12 6 10 8 9 9 8 10 5 11 6 12 81 13
REMARK SMILES IDX 7 14 4 15 1 16 2 17 3 18 85 19 84 20 86 21 82 22 83 23 17 24
REMARK SMILES IDX 18 25 19 26 20 28 21 29 22 30 80 31 23 32 79 33 24 34 25 35
REMARK SMILES IDX 26 36 73 37 27 38 78 39 72 40 74 41 28 42 77 43 71 44 70 45
REMARK SMILES IDX 29 47 59 48 40 49 58 50 41 51 44 52 57 53 75 54 42 55 43 56
REMARK SMILES IDX 56 58 76 59 45 60 30 61 31 62 39 63 32 64 38 65 33 66 34 67
REMARK SMILES IDX 35 68 36 69 37 70 60 71 61 72 69 73 62 74 68 75 63 76 64 77
REMARK SMILES IDX 65 78 66 79 67 80 46 81 47 82 55 83 48 84 54 85 49 86 50 87
REMARK SMILES IDX 51 88 52 89 53 90
REMARK H PARENT 13 7 18 27 74 46 44 57
REMARK Flexibility Score: inf
ROOT
ATOM      1  C   UNL A   1      40.980  22.088  27.739  1.00  0.00     0.023 C 
ENDROOT
BRANCH   1   2
ATOM      2  C   UNL A   1      41.149  20.839  26.874  1.00  0.00     0.023 C 
BRANCH   2   3
ATOM      3  C   UNL A   1      42.594  20.522  26.476  1.00  0.00     0.116 C 
BRANCH   3   4
ATOM      4  N   UNL A   1      42.974  21.202  25.251  1.00  0.00    -0.353 N 
ATOM      5  C   UNL A   1      43.626  22.382  25.058  1.00  0.00     0.244 C 
ATOM      6  O   UNL A   1      43.974  22.706  23.925  1.00  0.00    -0.270 OA
ATOM      7  H   UNL A   1      42.721  20.732  24.424  1.00  0.00     0.163 HD
BRANCH   5   8
ATOM      8  C   UNL A   1      43.997  23.249  26.198  1.00  0.00     0.075 C 
ATOM      9  C   UNL A   1      44.596  24.439  26.071  1.00  0.00     0.053 C 
BRANCH   9  10
ATOM     10  C   UNL A   1      44.929  25.218  27.205  1.00  0.00     0.127 A 
ATOM     11  C   UNL A   1      45.309  25.745  29.323  1.00  0.00     0.135 A 
ATOM     12  C   UNL A   1      45.620  26.869  28.594  1.00  0.00     0.051 A 
ATOM     13  O   UNL A   1      44.851  24.766  28.499  1.00  0.00    -0.457 OA
ATOM     14  C   UNL A   1      45.405  26.523  27.239  1.00  0.00     0.051 A 
BRANCH  11  15
ATOM     15  C   UNL A   1      45.378  25.415  30.737  1.00  0.00     0.020 A 
ATOM     16  C   UNL A   1      43.559  22.997  33.051  1.00  0.00     0.045 C 
ATOM     17  C   UNL A   1      44.514  24.065  32.599  1.00  0.00    -0.036 A 
ATOM     18  C   UNL A   1      44.530  24.412  31.236  1.00  0.00     0.016 A 
ATOM     19  C   UNL A   1      45.346  24.777  33.472  1.00  0.00     0.021 A 
ATOM     20  C   UNL A   1      46.203  25.771  32.988  1.00  0.00     0.020 A 
ATOM     21  Br  UNL A   1      45.352  24.464  35.346  1.00  0.00    -0.051 Br
ATOM     22  C   UNL A   1      46.229  26.103  31.623  1.00  0.00    -0.039 A 
ATOM     23  C   UNL A   1      47.165  27.185  31.152  1.00  0.00     0.045 C 
ENDBRANCH  11  15
ENDBRANCH   9  10
ENDBRANCH   5   8
ENDBRANCH   3   4
ENDBRANCH   2   3
ENDBRANCH   1   2
BRANCH   1  24
ATOM     24  C   UNL A   1      39.966  23.101  27.221  1.00  0.00     0.116 C 
BRANCH  24  25
ATOM     25  N   UNL A   1      40.477  23.952  26.156  1.00  0.00    -0.352 N 
ATOM     26  C   UNL A   1      40.886  25.265  26.244  1.00  0.00     0.251 C 
ATOM     27  H   UNL A   1      40.537  23.540  25.263  1.00  0.00     0.163 HD
ATOM     28  O   UNL A   1      41.219  25.882  25.240  1.00  0.00    -0.269 OA
BRANCH  26  29
ATOM     29  C   UNL A   1      40.856  25.930  27.564  1.00  0.00     0.039 A 
ATOM     30  C   UNL A   1      39.735  25.813  28.387  1.00  0.00     0.014 A 
ATOM     31  C   UNL A   1      41.924  26.753  27.933  1.00  0.00     0.014 A 
ATOM     32  C   UNL A   1      39.603  26.655  29.485  1.00  0.00     0.010 A 
ATOM     33  C   UNL A   1      41.820  27.543  29.081  1.00  0.00     0.010 A 
ATOM     34  C   UNL A   1      40.635  27.545  29.831  1.00  0.00    -0.014 A 
BRANCH  34  35
ATOM     35  C   UNL A   1      40.427  28.493  30.955  1.00  0.00     0.031 A 
ATOM     36  C   UNL A   1      41.370  28.507  32.129  1.00  0.00     0.074 A 
ATOM     37  C   UNL A   1      39.436  29.403  30.875  1.00  0.00     0.049 A 
ATOM     38  N   UNL A   1      41.373  29.302  33.169  1.00  0.00    -0.248 NA
ATOM     39  C   UNL A   1      42.451  27.506  32.140  1.00  0.00     0.031 C 
ATOM     40  C   UNL A   1      38.482  29.510  29.769  1.00  0.00     0.029 A 
ATOM     41  N   UNL A   1      39.094  30.434  31.712  1.00  0.00    -0.354 N 
ATOM     42  C   UNL A   1      42.438  28.890  33.962  1.00  0.00     0.074 A 
ATOM     43  C   UNL A   1      43.047  27.759  33.297  1.00  0.00     0.031 C 
ATOM     44  C   UNL A   1      37.711  30.590  29.959  1.00  0.00     0.029 A 
ATOM     45  C   UNL A   1      38.073  31.217  31.228  1.00  0.00     0.049 A 
ATOM     46  H   UNL A   1      39.537  30.597  32.576  1.00  0.00     0.167 HD
ATOM     47  C   UNL A   1      42.874  29.413  35.132  1.00  0.00     0.031 A 
ATOM     48  C   UNL A   1      37.488  32.317  31.740  1.00  0.00     0.031 A 
ATOM     49  C   UNL A   1      42.277  30.551  35.781  1.00  0.00     0.049 A 
ATOM     50  C   UNL A   1      37.965  32.858  33.057  1.00  0.00     0.074 A 
ATOM     51  C   UNL A   1      42.650  31.150  36.971  1.00  0.00     0.029 A 
ATOM     52  N   UNL A   1      41.194  31.266  35.295  1.00  0.00    -0.354 N 
ATOM     53  N   UNL A   1      38.956  32.435  33.804  1.00  0.00    -0.248 NA
ATOM     54  C   UNL A   1      37.245  34.014  33.604  1.00  0.00     0.031 C 
ATOM     55  C   UNL A   1      41.767  32.201  37.226  1.00  0.00     0.029 A 
ATOM     56  C   UNL A   1      40.875  32.291  36.169  1.00  0.00     0.049 A 
ATOM     57  H   UNL A   1      40.721  31.074  34.453  1.00  0.00     0.167 HD
ATOM     58  C   UNL A   1      38.981  33.275  34.909  1.00  0.00     0.074 A 
ATOM     59  C   UNL A   1      37.918  34.243  34.725  1.00  0.00     0.031 C 
ATOM     60  C   UNL A   1      39.810  33.242  35.980  1.00  0.00     0.031 A 
BRANCH  47  61
ATOM     61  C   UNL A   1      44.053  28.765  35.806  1.00  0.00    -0.014 A 
ATOM     62  C   UNL A   1      43.839  27.857  36.859  1.00  0.00     0.010 A 
ATOM     63  C   UNL A   1      45.368  29.130  35.470  1.00  0.00     0.010 A 
ATOM     64  C   UNL A   1      44.919  27.339  37.578  1.00  0.00     0.020 A 
ATOM     65  C   UNL A   1      46.452  28.596  36.173  1.00  0.00     0.020 A 
ATOM     66  C   UNL A   1      46.220  27.720  37.236  1.00  0.00     0.054 A 
BRANCH  66  67
ATOM     67  S   UNL A   1      47.614  27.040  38.179  1.00  0.00     0.124 S 
ATOM     68  O   UNL A   1      47.421  25.602  38.021  1.00  0.00    -0.237 OA
ATOM     69  O   UNL A   1      48.774  27.602  37.489  1.00  0.00    -0.237 OA
ATOM     70  O   UNL A   1      47.394  27.559  39.527  1.00  0.00    -0.744 OA
ENDBRANCH  66  67
ENDBRANCH  47  61
BRANCH  48  71
ATOM     71  C   UNL A   1      36.403  32.981  30.971  1.00  0.00    -0.014 A 
ATOM     72  C   UNL A   1      36.705  33.732  29.820  1.00  0.00     0.010 A 
ATOM     73  C   UNL A   1      35.081  32.953  31.445  1.00  0.00     0.010 A 
ATOM     74  C   UNL A   1      35.717  34.492  29.191  1.00  0.00     0.020 A 
ATOM     75  C   UNL A   1      34.083  33.693  30.802  1.00  0.00     0.020 A 
ATOM     76  C   UNL A   1      34.416  34.483  29.699  1.00  0.00     0.054 A 
BRANCH  76  77
ATOM     77  S   UNL A   1      33.159  35.526  28.909  1.00  0.00     0.124 S 
ATOM     78  O   UNL A   1      33.984  36.481  28.175  1.00  0.00    -0.237 OA
ATOM     79  O   UNL A   1      32.418  34.573  28.089  1.00  0.00    -0.237 OA
ATOM     80  O   UNL A   1      32.417  36.078  30.041  1.00  0.00    -0.744 OA
ENDBRANCH  76  77
ENDBRANCH  48  71
BRANCH  60  81
ATOM     81  C   UNL A   1      39.616  34.273  37.058  1.00  0.00    -0.014 A 
ATOM     82  C   UNL A   1      40.233  35.531  36.939  1.00  0.00     0.010 A 
ATOM     83  C   UNL A   1      38.933  33.949  38.244  1.00  0.00     0.010 A 
ATOM     84  C   UNL A   1      40.200  36.439  38.000  1.00  0.00     0.020 A 
ATOM     85  C   UNL A   1      38.880  34.863  39.299  1.00  0.00     0.020 A 
ATOM     86  C   UNL A   1      39.534  36.092  39.180  1.00  0.00     0.054 A 
BRANCH  86  87
ATOM     87  S   UNL A   1      39.525  37.268  40.562  1.00  0.00     0.124 S 
ATOM     88  O   UNL A   1      38.800  36.527  41.589  1.00  0.00    -0.237 OA
ATOM     89  O   UNL A   1      40.948  37.475  40.821  1.00  0.00    -0.237 OA
ATOM     90  O   UNL A   1      38.825  38.429  40.015  1.00  0.00    -0.744 OA
ENDBRANCH  86  87
ENDBRANCH  60  81
ENDBRANCH  34  35
ENDBRANCH  26  29
ENDBRANCH  24  25
ENDBRANCH   1  24
TORSDOF 16
ENDMDL
