MODEL 1
REMARK VINA RESULT:     -12.1      0.000      0.000
REMARK SMILES Cc1ccc2nc3c(c(C(=O)NCCCCNC(=O)c4ccc(-c5c6nc(c(-c7ccc(S(=O)(=O)[O-])cc7)c7ccc([nH]7)c(-c7ccc(S(=O)(=O)[O-])cc7)c7nc(c(-c8ccc(S(=O)(=O)[O-])cc8)c8ccc5[nH]8)C=C7)C=C6)cc4)c2c1)C[C@H](C)CC3
REMARK SMILES IDX 16 1 15 2 14 3 13 4 12 5 10 6 11 7 9 9 1 10 2 11 3 12 81 13
REMARK SMILES IDX 4 14 80 15 5 16 6 17 8 18 7 19 82 20 86 21 83 22 85 23 84 24
REMARK SMILES IDX 17 25 18 26 19 28 20 29 21 30 79 31 22 32 78 33 23 34 24 35
REMARK SMILES IDX 25 36 72 37 26 38 77 39 71 40 73 41 27 42 76 43 70 44 69 45
REMARK SMILES IDX 28 47 58 48 39 49 57 50 40 51 43 52 56 53 74 54 41 55 42 56
REMARK SMILES IDX 55 58 75 59 44 60 29 61 30 62 38 63 31 64 37 65 32 66 33 67
REMARK SMILES IDX 34 68 35 69 36 70 59 71 60 72 68 73 61 74 67 75 62 76 63 77
REMARK SMILES IDX 64 78 65 79 66 80 45 81 46 82 54 83 47 84 53 85 48 86 49 87
REMARK SMILES IDX 50 88 51 89 52 90
REMARK H PARENT 12 8 17 27 73 46 43 57
REMARK Flexibility Score: inf
ROOT
ATOM      1  C   UNL A   1      32.722  32.847  26.933  1.00  0.00     0.116 C 
ENDROOT
BRANCH   1   2
ATOM      2  C   UNL A   1      31.491  31.959  26.891  1.00  0.00     0.023 C 
BRANCH   2   3
ATOM      3  C   UNL A   1      31.791  30.472  26.823  1.00  0.00     0.023 C 
BRANCH   3   4
ATOM      4  C   UNL A   1      33.212  30.077  26.374  1.00  0.00     0.116 C 
BRANCH   4   5
ATOM      5  N   UNL A   1      33.246  29.998  24.925  1.00  0.00    -0.352 N 
ATOM      6  C   UNL A   1      32.893  29.021  24.021  1.00  0.00     0.252 C 
ATOM      7  O   UNL A   1      33.617  28.980  23.025  1.00  0.00    -0.269 OA
ATOM      8  H   UNL A   1      33.597  30.814  24.499  1.00  0.00     0.163 HD
BRANCH   6   9
ATOM      9  C   UNL A   1      31.667  28.132  24.084  1.00  0.00     0.054 A 
ATOM     10  C   UNL A   1      28.329  31.621  22.641  1.00  0.00     0.044 C 
ATOM     11  C   UNL A   1      28.637  30.208  23.037  1.00  0.00    -0.050 A 
ATOM     12  C   UNL A   1      27.720  29.188  22.858  1.00  0.00     0.005 A 
ATOM     13  C   UNL A   1      29.894  29.880  23.562  1.00  0.00     0.014 A 
ATOM     14  C   UNL A   1      28.069  27.890  23.229  1.00  0.00     0.029 A 
ATOM     15  C   UNL A   1      30.339  28.555  23.763  1.00  0.00     0.013 A 
ATOM     16  C   UNL A   1      29.342  27.567  23.683  1.00  0.00     0.071 A 
ATOM     17  N   UNL A   1      29.539  26.306  24.055  1.00  0.00    -0.253 NA
ATOM     18  C   UNL A   1      31.862  26.788  24.525  1.00  0.00    -0.013 A 
ATOM     19  C   UNL A   1      30.751  25.937  24.516  1.00  0.00     0.045 A 
ATOM     20  C   UNL A   1      33.213  26.216  24.928  1.00  0.00     0.041 C 
ATOM     21  C   UNL A   1      30.785  24.556  25.110  1.00  0.00     0.057 C 
ATOM     22  C   UNL A   1      33.172  24.885  25.703  1.00  0.00    -0.009 C 
ATOM     23  C   UNL A   1      32.166  23.925  25.080  1.00  0.00     0.010 C 
ATOM     24  C   UNL A   1      34.559  24.247  25.768  1.00  0.00     0.008 C 
ENDBRANCH   6   9
ENDBRANCH   4   5
ENDBRANCH   3   4
ENDBRANCH   2   3
ENDBRANCH   1   2
BRANCH   1  25
ATOM     25  N   UNL A   1      32.566  34.068  27.719  1.00  0.00    -0.352 N 
ATOM     26  C   UNL A   1      33.403  34.543  28.708  1.00  0.00     0.251 C 
ATOM     27  H   UNL A   1      31.774  34.617  27.520  1.00  0.00     0.163 HD
ATOM     28  O   UNL A   1      33.145  35.574  29.319  1.00  0.00    -0.269 OA
BRANCH  26  29
ATOM     29  C   UNL A   1      34.585  33.728  29.047  1.00  0.00     0.039 A 
ATOM     30  C   UNL A   1      34.406  32.534  29.747  1.00  0.00     0.014 A 
ATOM     31  C   UNL A   1      35.858  34.269  28.857  1.00  0.00     0.014 A 
ATOM     32  C   UNL A   1      35.475  32.010  30.455  1.00  0.00     0.010 A 
ATOM     33  C   UNL A   1      36.951  33.667  29.482  1.00  0.00     0.010 A 
ATOM     34  C   UNL A   1      36.756  32.577  30.343  1.00  0.00    -0.014 A 
BRANCH  34  35
ATOM     35  C   UNL A   1      37.867  32.022  31.159  1.00  0.00     0.031 A 
ATOM     36  C   UNL A   1      38.780  30.959  30.606  1.00  0.00     0.074 A 
ATOM     37  C   UNL A   1      38.097  32.546  32.379  1.00  0.00     0.049 A 
ATOM     38  N   UNL A   1      39.787  30.361  31.192  1.00  0.00    -0.248 NA
ATOM     39  C   UNL A   1      38.543  30.505  29.225  1.00  0.00     0.031 C 
ATOM     40  C   UNL A   1      37.306  33.614  32.997  1.00  0.00     0.029 A 
ATOM     41  N   UNL A   1      39.084  32.291  33.296  1.00  0.00    -0.354 N 
ATOM     42  C   UNL A   1      40.278  29.443  30.270  1.00  0.00     0.074 A 
ATOM     43  C   UNL A   1      39.455  29.553  29.086  1.00  0.00     0.031 C 
ATOM     44  C   UNL A   1      37.886  33.980  34.147  1.00  0.00     0.029 A 
ATOM     45  C   UNL A   1      39.031  33.112  34.398  1.00  0.00     0.049 A 
ATOM     46  H   UNL A   1      39.763  31.590  33.178  1.00  0.00     0.167 HD
ATOM     47  C   UNL A   1      41.323  28.593  30.402  1.00  0.00     0.031 A 
ATOM     48  C   UNL A   1      39.801  33.156  35.501  1.00  0.00     0.031 A 
ATOM     49  C   UNL A   1      42.154  28.514  31.576  1.00  0.00     0.049 A 
ATOM     50  C   UNL A   1      40.923  32.175  35.642  1.00  0.00     0.074 A 
ATOM     51  C   UNL A   1      43.234  27.679  31.805  1.00  0.00     0.029 A 
ATOM     52  N   UNL A   1      42.011  29.303  32.706  1.00  0.00    -0.354 N 
ATOM     53  N   UNL A   1      41.333  31.275  34.782  1.00  0.00    -0.248 NA
ATOM     54  C   UNL A   1      41.672  32.197  36.905  1.00  0.00     0.031 C 
ATOM     55  C   UNL A   1      43.714  27.931  33.093  1.00  0.00     0.029 A 
ATOM     56  C   UNL A   1      42.970  28.961  33.644  1.00  0.00     0.049 A 
ATOM     57  H   UNL A   1      41.328  30.002  32.824  1.00  0.00     0.167 HD
ATOM     58  C   UNL A   1      42.385  30.614  35.402  1.00  0.00     0.074 A 
ATOM     59  C   UNL A   1      42.566  31.237  36.697  1.00  0.00     0.031 C 
ATOM     60  C   UNL A   1      43.126  29.579  34.937  1.00  0.00     0.031 A 
BRANCH  47  61
ATOM     61  C   UNL A   1      41.636  27.656  29.264  1.00  0.00    -0.014 A 
ATOM     62  C   UNL A   1      40.915  26.453  29.137  1.00  0.00     0.010 A 
ATOM     63  C   UNL A   1      42.712  27.902  28.393  1.00  0.00     0.010 A 
ATOM     64  C   UNL A   1      41.278  25.502  28.180  1.00  0.00     0.020 A 
ATOM     65  C   UNL A   1      43.066  26.961  27.419  1.00  0.00     0.020 A 
ATOM     66  C   UNL A   1      42.360  25.758  27.333  1.00  0.00     0.054 A 
BRANCH  66  67
ATOM     67  S   UNL A   1      42.828  24.508  26.104  1.00  0.00     0.124 S 
ATOM     68  O   UNL A   1      42.901  25.294  24.877  1.00  0.00    -0.237 OA
ATOM     69  O   UNL A   1      44.105  24.014  26.616  1.00  0.00    -0.237 OA
ATOM     70  O   UNL A   1      41.730  23.543  26.167  1.00  0.00    -0.744 OA
ENDBRANCH  66  67
ENDBRANCH  47  61
BRANCH  48  71
ATOM     71  C   UNL A   1      39.500  34.174  36.542  1.00  0.00    -0.014 A 
ATOM     72  C   UNL A   1      40.097  35.447  36.479  1.00  0.00     0.010 A 
ATOM     73  C   UNL A   1      38.726  33.833  37.664  1.00  0.00     0.010 A 
ATOM     74  C   UNL A   1      39.987  36.334  37.552  1.00  0.00     0.020 A 
ATOM     75  C   UNL A   1      38.589  34.731  38.726  1.00  0.00     0.020 A 
ATOM     76  C   UNL A   1      39.251  35.961  38.678  1.00  0.00     0.054 A 
BRANCH  76  77
ATOM     77  S   UNL A   1      39.183  37.093  40.094  1.00  0.00     0.124 S 
ATOM     78  O   UNL A   1      38.451  36.297  41.075  1.00  0.00    -0.237 OA
ATOM     79  O   UNL A   1      40.594  37.321  40.394  1.00  0.00    -0.237 OA
ATOM     80  O   UNL A   1      38.467  38.251  39.566  1.00  0.00    -0.744 OA
ENDBRANCH  76  77
ENDBRANCH  48  71
BRANCH  60  81
ATOM     81  C   UNL A   1      44.198  29.028  35.834  1.00  0.00    -0.014 A 
ATOM     82  C   UNL A   1      43.896  27.979  36.722  1.00  0.00     0.010 A 
ATOM     83  C   UNL A   1      45.467  29.629  35.881  1.00  0.00     0.010 A 
ATOM     84  C   UNL A   1      44.836  27.561  37.666  1.00  0.00     0.020 A 
ATOM     85  C   UNL A   1      46.418  29.198  36.810  1.00  0.00     0.020 A 
ATOM     86  C   UNL A   1      46.087  28.182  37.711  1.00  0.00     0.054 A 
BRANCH  86  87
ATOM     87  S   UNL A   1      47.289  27.647  38.960  1.00  0.00     0.124 S 
ATOM     88  O   UNL A   1      48.169  28.807  39.056  1.00  0.00    -0.237 OA
ATOM     89  O   UNL A   1      46.449  27.397  40.129  1.00  0.00    -0.237 OA
ATOM     90  O   UNL A   1      47.887  26.453  38.367  1.00  0.00    -0.744 OA
ENDBRANCH  86  87
ENDBRANCH  60  81
ENDBRANCH  34  35
ENDBRANCH  26  29
ENDBRANCH   1  25
TORSDOF 14
ENDMDL
MODEL 2
REMARK VINA RESULT:     -12.1      4.234      5.395
REMARK SMILES Cc1ccc2nc3c(c(C(=O)NCCCCNC(=O)c4ccc(-c5c6nc(c(-c7ccc(S(=O)(=O)[O-])cc7)c7ccc([nH]7)c(-c7ccc(S(=O)(=O)[O-])cc7)c7nc(c(-c8ccc(S(=O)(=O)[O-])cc8)c8ccc5[nH]8)C=C7)C=C6)cc4)c2c1)C[C@H](C)CC3
REMARK SMILES IDX 16 1 15 2 14 3 13 4 12 5 10 6 11 7 9 9 1 10 2 11 3 12 81 13
REMARK SMILES IDX 4 14 80 15 5 16 6 17 8 18 7 19 82 20 86 21 83 22 85 23 84 24
REMARK SMILES IDX 17 25 18 26 19 28 20 29 21 30 79 31 22 32 78 33 23 34 24 35
REMARK SMILES IDX 25 36 72 37 26 38 77 39 71 40 73 41 27 42 76 43 70 44 69 45
REMARK SMILES IDX 28 47 58 48 39 49 57 50 40 51 43 52 56 53 74 54 41 55 42 56
REMARK SMILES IDX 55 58 75 59 44 60 29 61 30 62 38 63 31 64 37 65 32 66 33 67
REMARK SMILES IDX 34 68 35 69 36 70 59 71 60 72 68 73 61 74 67 75 62 76 63 77
REMARK SMILES IDX 64 78 65 79 66 80 45 81 46 82 54 83 47 84 53 85 48 86 49 87
REMARK SMILES IDX 50 88 51 89 52 90
REMARK H PARENT 12 8 17 27 73 46 43 57
REMARK Flexibility Score: inf
ROOT
ATOM      1  C   UNL A   1      33.576  29.063  26.927  1.00  0.00     0.116 C 
ENDROOT
BRANCH   1   2
ATOM      2  C   UNL A   1      33.062  29.094  25.499  1.00  0.00     0.023 C 
BRANCH   2   3
ATOM      3  C   UNL A   1      33.951  28.380  24.496  1.00  0.00     0.023 C 
BRANCH   3   4
ATOM      4  C   UNL A   1      34.150  29.078  23.136  1.00  0.00     0.116 C 
BRANCH   4   5
ATOM      5  N   UNL A   1      33.745  28.173  22.075  1.00  0.00    -0.352 N 
ATOM      6  C   UNL A   1      33.084  26.965  22.061  1.00  0.00     0.252 C 
ATOM      7  O   UNL A   1      33.473  26.196  21.180  1.00  0.00    -0.269 OA
ATOM      8  H   UNL A   1      33.996  28.490  21.177  1.00  0.00     0.163 HD
BRANCH   6   9
ATOM      9  C   UNL A   1      31.887  26.580  22.906  1.00  0.00     0.054 A 
ATOM     10  C   UNL A   1      28.996  30.518  21.667  1.00  0.00     0.044 C 
ATOM     11  C   UNL A   1      29.177  29.226  22.405  1.00  0.00    -0.050 A 
ATOM     12  C   UNL A   1      28.107  28.559  22.975  1.00  0.00     0.005 A 
ATOM     13  C   UNL A   1      30.445  28.636  22.494  1.00  0.00     0.014 A 
ATOM     14  C   UNL A   1      28.334  27.352  23.634  1.00  0.00     0.029 A 
ATOM     15  C   UNL A   1      30.670  27.330  22.982  1.00  0.00     0.013 A 
ATOM     16  C   UNL A   1      29.584  26.744  23.654  1.00  0.00     0.071 A 
ATOM     17  N   UNL A   1      29.688  25.621  24.359  1.00  0.00    -0.253 NA
ATOM     18  C   UNL A   1      32.005  25.399  23.699  1.00  0.00    -0.013 A 
ATOM     19  C   UNL A   1      30.880  24.993  24.425  1.00  0.00     0.045 A 
ATOM     20  C   UNL A   1      33.249  24.526  23.739  1.00  0.00     0.041 C 
ATOM     21  C   UNL A   1      30.924  23.870  25.424  1.00  0.00     0.057 C 
ATOM     22  C   UNL A   1      33.323  23.518  24.901  1.00  0.00    -0.009 C 
ATOM     23  C   UNL A   1      31.980  22.827  25.105  1.00  0.00     0.010 C 
ATOM     24  C   UNL A   1      34.429  22.490  24.664  1.00  0.00     0.008 C 
ENDBRANCH   6   9
ENDBRANCH   4   5
ENDBRANCH   3   4
ENDBRANCH   2   3
ENDBRANCH   1   2
BRANCH   1  25
ATOM     25  N   UNL A   1      33.648  30.369  27.577  1.00  0.00    -0.352 N 
ATOM     26  C   UNL A   1      34.723  30.915  28.250  1.00  0.00     0.251 C 
ATOM     27  H   UNL A   1      32.837  30.926  27.530  1.00  0.00     0.163 HD
ATOM     28  O   UNL A   1      34.647  32.016  28.783  1.00  0.00    -0.269 OA
BRANCH  26  29
ATOM     29  C   UNL A   1      35.942  30.093  28.361  1.00  0.00     0.039 A 
ATOM     30  C   UNL A   1      36.247  29.495  29.584  1.00  0.00     0.014 A 
ATOM     31  C   UNL A   1      36.869  30.112  27.317  1.00  0.00     0.014 A 
ATOM     32  C   UNL A   1      37.558  29.125  29.839  1.00  0.00     0.010 A 
ATOM     33  C   UNL A   1      38.159  29.631  27.546  1.00  0.00     0.010 A 
ATOM     34  C   UNL A   1      38.532  29.202  28.829  1.00  0.00    -0.014 A 
BRANCH  34  35
ATOM     35  C   UNL A   1      39.939  28.850  29.152  1.00  0.00     0.031 A 
ATOM     36  C   UNL A   1      40.526  27.529  28.727  1.00  0.00     0.074 A 
ATOM     37  C   UNL A   1      40.711  29.769  29.763  1.00  0.00     0.049 A 
ATOM     38  N   UNL A   1      41.730  27.063  28.941  1.00  0.00    -0.248 NA
ATOM     39  C   UNL A   1      39.661  26.611  27.965  1.00  0.00     0.031 C 
ATOM     40  C   UNL A   1      40.262  31.101  30.177  1.00  0.00     0.029 A 
ATOM     41  N   UNL A   1      42.040  29.747  30.100  1.00  0.00    -0.354 N 
ATOM     42  C   UNL A   1      41.757  25.793  28.374  1.00  0.00     0.074 A 
ATOM     43  C   UNL A   1      40.446  25.553  27.814  1.00  0.00     0.031 C 
ATOM     44  C   UNL A   1      41.312  31.796  30.632  1.00  0.00     0.029 A 
ATOM     45  C   UNL A   1      42.488  30.933  30.633  1.00  0.00     0.049 A 
ATOM     46  H   UNL A   1      42.617  28.961  29.972  1.00  0.00     0.167 HD
ATOM     47  C   UNL A   1      42.785  24.913  28.326  1.00  0.00     0.031 A 
ATOM     48  C   UNL A   1      43.701  31.288  31.094  1.00  0.00     0.031 A 
ATOM     49  C   UNL A   1      44.096  25.176  28.862  1.00  0.00     0.049 A 
ATOM     50  C   UNL A   1      44.810  30.282  31.069  1.00  0.00     0.074 A 
ATOM     51  C   UNL A   1      45.201  24.343  28.865  1.00  0.00     0.029 A 
ATOM     52  N   UNL A   1      44.482  26.358  29.474  1.00  0.00    -0.354 N 
ATOM     53  N   UNL A   1      44.798  29.065  30.582  1.00  0.00    -0.248 NA
ATOM     54  C   UNL A   1      46.088  30.684  31.671  1.00  0.00     0.031 C 
ATOM     55  C   UNL A   1      46.244  25.005  29.521  1.00  0.00     0.029 A 
ATOM     56  C   UNL A   1      45.804  26.270  29.877  1.00  0.00     0.049 A 
ATOM     57  H   UNL A   1      43.903  27.143  29.605  1.00  0.00     0.167 HD
ATOM     58  C   UNL A   1      46.062  28.548  30.827  1.00  0.00     0.074 A 
ATOM     59  C   UNL A   1      46.823  29.595  31.479  1.00  0.00     0.031 C 
ATOM     60  C   UNL A   1      46.543  27.314  30.541  1.00  0.00     0.031 A 
BRANCH  47  61
ATOM     61  C   UNL A   1      42.552  23.568  27.687  1.00  0.00    -0.014 A 
ATOM     62  C   UNL A   1      42.028  22.515  28.460  1.00  0.00     0.010 A 
ATOM     63  C   UNL A   1      42.955  23.311  26.365  1.00  0.00     0.010 A 
ATOM     64  C   UNL A   1      41.935  21.224  27.935  1.00  0.00     0.020 A 
ATOM     65  C   UNL A   1      42.844  22.023  25.828  1.00  0.00     0.020 A 
ATOM     66  C   UNL A   1      42.354  20.983  26.624  1.00  0.00     0.054 A 
BRANCH  66  67
ATOM     67  S   UNL A   1      42.240  19.298  25.960  1.00  0.00     0.124 S 
ATOM     68  O   UNL A   1      42.785  18.498  27.052  1.00  0.00    -0.237 OA
ATOM     69  O   UNL A   1      40.808  19.143  25.717  1.00  0.00    -0.237 OA
ATOM     70  O   UNL A   1      43.063  19.354  24.752  1.00  0.00    -0.744 OA
ENDBRANCH  66  67
ENDBRANCH  47  61
BRANCH  48  71
ATOM     71  C   UNL A   1      43.891  32.666  31.618  1.00  0.00    -0.014 A 
ATOM     72  C   UNL A   1      43.590  32.959  32.962  1.00  0.00     0.010 A 
ATOM     73  C   UNL A   1      44.246  33.712  30.751  1.00  0.00     0.010 A 
ATOM     74  C   UNL A   1      43.566  34.280  33.411  1.00  0.00     0.020 A 
ATOM     75  C   UNL A   1      44.252  35.034  31.205  1.00  0.00     0.020 A 
ATOM     76  C   UNL A   1      43.877  35.312  32.523  1.00  0.00     0.054 A 
BRANCH  76  77
ATOM     77  S   UNL A   1      43.766  37.028  33.100  1.00  0.00     0.124 S 
ATOM     78  O   UNL A   1      45.038  37.189  33.799  1.00  0.00    -0.237 OA
ATOM     79  O   UNL A   1      43.632  37.781  31.855  1.00  0.00    -0.237 OA
ATOM     80  O   UNL A   1      42.579  37.022  33.951  1.00  0.00    -0.744 OA
ENDBRANCH  76  77
ENDBRANCH  48  71
BRANCH  60  81
ATOM     81  C   UNL A   1      47.956  27.003  30.944  1.00  0.00    -0.014 A 
ATOM     82  C   UNL A   1      49.017  27.318  30.076  1.00  0.00     0.010 A 
ATOM     83  C   UNL A   1      48.220  26.290  32.126  1.00  0.00     0.010 A 
ATOM     84  C   UNL A   1      50.316  26.899  30.367  1.00  0.00     0.020 A 
ATOM     85  C   UNL A   1      49.524  25.888  32.431  1.00  0.00     0.020 A 
ATOM     86  C   UNL A   1      50.558  26.176  31.537  1.00  0.00     0.054 A 
BRANCH  86  87
ATOM     87  S   UNL A   1      52.247  25.614  31.889  1.00  0.00     0.124 S 
ATOM     88  O   UNL A   1      52.633  26.479  32.999  1.00  0.00    -0.237 OA
ATOM     89  O   UNL A   1      52.054  24.205  32.226  1.00  0.00    -0.237 OA
ATOM     90  O   UNL A   1      52.954  25.853  30.632  1.00  0.00    -0.744 OA
ENDBRANCH  86  87
ENDBRANCH  60  81
ENDBRANCH  34  35
ENDBRANCH  26  29
ENDBRANCH   1  25
TORSDOF 14
ENDMDL
MODEL 3
REMARK VINA RESULT:     -12.0      4.319      9.358
REMARK SMILES Cc1ccc2nc3c(c(C(=O)NCCCCNC(=O)c4ccc(-c5c6nc(c(-c7ccc(S(=O)(=O)[O-])cc7)c7ccc([nH]7)c(-c7ccc(S(=O)(=O)[O-])cc7)c7nc(c(-c8ccc(S(=O)(=O)[O-])cc8)c8ccc5[nH]8)C=C7)C=C6)cc4)c2c1)C[C@H](C)CC3
REMARK SMILES IDX 16 1 15 2 14 3 13 4 12 5 10 6 11 7 9 9 1 10 2 11 3 12 81 13
REMARK SMILES IDX 4 14 80 15 5 16 6 17 8 18 7 19 82 20 86 21 83 22 85 23 84 24
REMARK SMILES IDX 17 25 18 26 19 28 20 29 21 30 79 31 22 32 78 33 23 34 24 35
REMARK SMILES IDX 25 36 72 37 26 38 77 39 71 40 73 41 27 42 76 43 70 44 69 45
REMARK SMILES IDX 28 47 58 48 39 49 57 50 40 51 43 52 56 53 74 54 41 55 42 56
REMARK SMILES IDX 55 58 75 59 44 60 29 61 30 62 38 63 31 64 37 65 32 66 33 67
REMARK SMILES IDX 34 68 35 69 36 70 59 71 60 72 68 73 61 74 67 75 62 76 63 77
REMARK SMILES IDX 64 78 65 79 66 80 45 81 46 82 54 83 47 84 53 85 48 86 49 87
REMARK SMILES IDX 50 88 51 89 52 90
REMARK H PARENT 12 8 17 27 73 46 43 57
REMARK Flexibility Score: inf
ROOT
ATOM      1  C   UNL A   1      33.410  29.192  26.856  1.00  0.00     0.116 C 
ENDROOT
BRANCH   1   2
ATOM      2  C   UNL A   1      33.066  29.387  25.391  1.00  0.00     0.023 C 
BRANCH   2   3
ATOM      3  C   UNL A   1      33.967  28.633  24.428  1.00  0.00     0.023 C 
BRANCH   3   4
ATOM      4  C   UNL A   1      34.017  29.159  22.980  1.00  0.00     0.116 C 
BRANCH   4   5
ATOM      5  N   UNL A   1      33.614  28.096  22.076  1.00  0.00    -0.352 N 
ATOM      6  C   UNL A   1      33.250  26.781  22.262  1.00  0.00     0.252 C 
ATOM      7  O   UNL A   1      33.612  26.032  21.352  1.00  0.00    -0.269 OA
ATOM      8  H   UNL A   1      33.598  28.375  21.131  1.00  0.00     0.163 HD
BRANCH   6   9
ATOM      9  C   UNL A   1      32.369  26.235  23.366  1.00  0.00     0.054 A 
ATOM     10  C   UNL A   1      28.268  28.943  22.248  1.00  0.00     0.044 C 
ATOM     11  C   UNL A   1      28.943  27.901  23.088  1.00  0.00    -0.050 A 
ATOM     12  C   UNL A   1      28.224  27.075  23.935  1.00  0.00     0.005 A 
ATOM     13  C   UNL A   1      30.328  27.708  22.998  1.00  0.00     0.014 A 
ATOM     14  C   UNL A   1      28.904  26.112  24.679  1.00  0.00     0.029 A 
ATOM     15  C   UNL A   1      31.009  26.622  23.588  1.00  0.00     0.013 A 
ATOM     16  C   UNL A   1      30.267  25.886  24.527  1.00  0.00     0.071 A 
ATOM     17  N   UNL A   1      30.812  24.975  25.330  1.00  0.00    -0.253 NA
ATOM     18  C   UNL A   1      32.958  25.290  24.260  1.00  0.00    -0.013 A 
ATOM     19  C   UNL A   1      32.133  24.723  25.237  1.00  0.00     0.045 A 
ATOM     20  C   UNL A   1      34.399  24.815  24.160  1.00  0.00     0.041 C 
ATOM     21  C   UNL A   1      32.667  23.847  26.337  1.00  0.00     0.057 C 
ATOM     22  C   UNL A   1      34.951  24.085  25.399  1.00  0.00    -0.009 C 
ATOM     23  C   UNL A   1      33.928  23.098  25.947  1.00  0.00     0.010 C 
ATOM     24  C   UNL A   1      36.267  23.378  25.077  1.00  0.00     0.008 C 
ENDBRANCH   6   9
ENDBRANCH   4   5
ENDBRANCH   3   4
ENDBRANCH   2   3
ENDBRANCH   1   2
BRANCH   1  25
ATOM     25  N   UNL A   1      33.455  30.423  27.642  1.00  0.00    -0.352 N 
ATOM     26  C   UNL A   1      34.520  30.920  28.365  1.00  0.00     0.251 C 
ATOM     27  H   UNL A   1      32.630  30.961  27.656  1.00  0.00     0.163 HD
ATOM     28  O   UNL A   1      34.421  31.957  29.012  1.00  0.00    -0.269 OA
BRANCH  26  29
ATOM     29  C   UNL A   1      35.760  30.122  28.383  1.00  0.00     0.039 A 
ATOM     30  C   UNL A   1      36.139  29.487  29.567  1.00  0.00     0.014 A 
ATOM     31  C   UNL A   1      36.630  30.197  27.295  1.00  0.00     0.014 A 
ATOM     32  C   UNL A   1      37.468  29.138  29.741  1.00  0.00     0.010 A 
ATOM     33  C   UNL A   1      37.940  29.737  27.440  1.00  0.00     0.010 A 
ATOM     34  C   UNL A   1      38.388  29.271  28.686  1.00  0.00    -0.014 A 
BRANCH  34  35
ATOM     35  C   UNL A   1      39.815  28.938  28.924  1.00  0.00     0.031 A 
ATOM     36  C   UNL A   1      40.716  29.879  29.682  1.00  0.00     0.074 A 
ATOM     37  C   UNL A   1      40.275  27.737  28.522  1.00  0.00     0.049 A 
ATOM     38  N   UNL A   1      41.987  29.744  29.964  1.00  0.00    -0.248 NA
ATOM     39  C   UNL A   1      40.124  31.129  30.191  1.00  0.00     0.031 C 
ATOM     40  C   UNL A   1      39.479  26.726  27.822  1.00  0.00     0.029 A 
ATOM     41  N   UNL A   1      41.500  27.143  28.682  1.00  0.00    -0.354 N 
ATOM     42  C   UNL A   1      42.353  30.898  30.649  1.00  0.00     0.074 A 
ATOM     43  C   UNL A   1      41.174  31.731  30.734  1.00  0.00     0.031 C 
ATOM     44  C   UNL A   1      40.206  25.609  27.690  1.00  0.00     0.029 A 
ATOM     45  C   UNL A   1      41.548  25.854  28.206  1.00  0.00     0.049 A 
ATOM     46  H   UNL A   1      42.269  27.595  29.097  1.00  0.00     0.167 HD
ATOM     47  C   UNL A   1      43.563  31.226  31.161  1.00  0.00     0.031 A 
ATOM     48  C   UNL A   1      42.560  24.968  28.166  1.00  0.00     0.031 A 
ATOM     49  C   UNL A   1      44.723  30.375  31.096  1.00  0.00     0.049 A 
ATOM     50  C   UNL A   1      43.900  25.371  28.699  1.00  0.00     0.074 A 
ATOM     51  C   UNL A   1      45.994  30.623  31.583  1.00  0.00     0.029 A 
ATOM     52  N   UNL A   1      44.751  29.112  30.526  1.00  0.00    -0.354 N 
ATOM     53  N   UNL A   1      44.240  26.491  29.290  1.00  0.00    -0.248 NA
ATOM     54  C   UNL A   1      44.997  24.407  28.545  1.00  0.00     0.031 C 
ATOM     55  C   UNL A   1      46.804  29.529  31.264  1.00  0.00     0.029 A 
ATOM     56  C   UNL A   1      46.024  28.576  30.629  1.00  0.00     0.049 A 
ATOM     57  H   UNL A   1      43.982  28.663  30.107  1.00  0.00     0.167 HD
ATOM     58  C   UNL A   1      45.594  26.372  29.571  1.00  0.00     0.074 A 
ATOM     59  C   UNL A   1      46.004  25.061  29.111  1.00  0.00     0.031 C 
ATOM     60  C   UNL A   1      46.421  27.276  30.151  1.00  0.00     0.031 A 
BRANCH  47  61
ATOM     61  C   UNL A   1      43.721  32.567  31.830  1.00  0.00    -0.014 A 
ATOM     62  C   UNL A   1      44.132  33.677  31.068  1.00  0.00     0.010 A 
ATOM     63  C   UNL A   1      43.580  32.708  33.222  1.00  0.00     0.010 A 
ATOM     64  C   UNL A   1      44.424  34.896  31.685  1.00  0.00     0.020 A 
ATOM     65  C   UNL A   1      43.851  33.934  33.841  1.00  0.00     0.020 A 
ATOM     66  C   UNL A   1      44.292  35.014  33.071  1.00  0.00     0.054 A 
BRANCH  66  67
ATOM     67  S   UNL A   1      44.688  36.599  33.861  1.00  0.00     0.124 S 
ATOM     68  O   UNL A   1      43.430  37.329  33.734  1.00  0.00    -0.237 OA
ATOM     69  O   UNL A   1      45.053  36.201  35.218  1.00  0.00    -0.237 OA
ATOM     70  O   UNL A   1      45.795  37.112  33.055  1.00  0.00    -0.744 OA
ENDBRANCH  66  67
ENDBRANCH  47  61
BRANCH  48  71
ATOM     71  C   UNL A   1      42.310  23.623  27.584  1.00  0.00    -0.014 A 
ATOM     72  C   UNL A   1      41.857  22.571  28.403  1.00  0.00     0.010 A 
ATOM     73  C   UNL A   1      42.646  23.355  26.247  1.00  0.00     0.010 A 
ATOM     74  C   UNL A   1      41.816  21.263  27.918  1.00  0.00     0.020 A 
ATOM     75  C   UNL A   1      42.578  22.051  25.749  1.00  0.00     0.020 A 
ATOM     76  C   UNL A   1      42.197  21.009  26.599  1.00  0.00     0.054 A 
BRANCH  76  77
ATOM     77  S   UNL A   1      42.212  19.294  26.007  1.00  0.00     0.124 S 
ATOM     78  O   UNL A   1      42.755  18.585  27.163  1.00  0.00    -0.237 OA
ATOM     79  O   UNL A   1      40.803  19.039  25.716  1.00  0.00    -0.237 OA
ATOM     80  O   UNL A   1      43.086  19.348  24.838  1.00  0.00    -0.744 OA
ENDBRANCH  76  77
ENDBRANCH  48  71
BRANCH  60  81
ATOM     81  C   UNL A   1      47.866  26.899  30.314  1.00  0.00    -0.014 A 
ATOM     82  C   UNL A   1      48.284  26.213  31.469  1.00  0.00     0.010 A 
ATOM     83  C   UNL A   1      48.825  27.330  29.381  1.00  0.00     0.010 A 
ATOM     84  C   UNL A   1      49.642  25.991  31.705  1.00  0.00     0.020 A 
ATOM     85  C   UNL A   1      50.184  27.090  29.604  1.00  0.00     0.020 A 
ATOM     86  C   UNL A   1      50.583  26.442  30.776  1.00  0.00     0.054 A 
BRANCH  86  87
ATOM     87  S   UNL A   1      52.346  26.171  31.110  1.00  0.00     0.124 S 
ATOM     88  O   UNL A   1      52.328  24.915  31.854  1.00  0.00    -0.237 OA
ATOM     89  O   UNL A   1      52.921  26.099  29.768  1.00  0.00    -0.237 OA
ATOM     90  O   UNL A   1      52.732  27.351  31.881  1.00  0.00    -0.744 OA
ENDBRANCH  86  87
ENDBRANCH  60  81
ENDBRANCH  34  35
ENDBRANCH  26  29
ENDBRANCH   1  25
TORSDOF 14
ENDMDL
