MODEL 1
REMARK VINA RESULT:      -8.9      0.000      0.000
REMARK SMILES CC[NH+](CC)C[C@H](F)C(=O)NCCCCNC(=O)c1ccc(-c2c3nc(c(-c4ccc(S(=O)(=O)[O-])cc4)c4ccc([nH]4)c(-c4ccc(S(=O)(=O)[O-])cc4)c4nc(c(-c5ccc(S(=O)(=O)[O-])cc5)c5ccc2[nH]5)C=C4)C=C3)cc1
REMARK SMILES IDX 13 1 12 2 11 3 9 4 10 5 7 7 8 8 6 9 3 10 2 12 1 13 4 14 5 15
REMARK SMILES IDX 14 16 15 17 16 18 17 19 18 21 19 22 20 23 78 24 21 25 77 26
REMARK SMILES IDX 22 27 23 28 24 29 71 30 25 31 76 32 70 33 72 34 26 35 75 36
REMARK SMILES IDX 69 37 68 38 27 40 57 41 38 42 56 43 39 44 42 45 55 46 73 47
REMARK SMILES IDX 40 48 41 49 54 51 74 52 43 53 28 54 29 55 37 56 30 57 36 58
REMARK SMILES IDX 31 59 32 60 33 61 34 62 35 63 58 64 59 65 67 66 60 67 66 68
REMARK SMILES IDX 61 69 62 70 63 71 64 72 65 73 44 74 45 75 53 76 46 77 52 78
REMARK SMILES IDX 47 79 48 80 49 81 50 82 51 83
REMARK H PARENT 11 6 3 11 16 20 72 39 42 50
REMARK Flexibility Score: inf
ROOT
ATOM      1  C   UNL A   1      31.844  27.615  26.652  1.00  0.00     0.023 C 
ENDROOT
BRANCH   1   2
ATOM      2  C   UNL A   1      31.252  26.459  25.854  1.00  0.00     0.116 C 
BRANCH   2   3
ATOM      3  N   UNL A   1      30.986  25.312  26.699  1.00  0.00    -0.353 N 
ATOM      4  C   UNL A   1      31.721  24.175  26.859  1.00  0.00     0.260 C 
ATOM      5  O   UNL A   1      31.241  23.274  27.554  1.00  0.00    -0.271 OA
ATOM      6  H   UNL A   1      30.159  25.361  27.233  1.00  0.00     0.163 HD
BRANCH   4   7
ATOM      7  C   UNL A   1      33.109  24.046  26.251  1.00  0.00     0.309 C 
ATOM      8  F   UNL A   1      33.997  23.486  27.137  1.00  0.00    -0.230 F 
BRANCH   7   9
ATOM      9  C   UNL A   1      33.167  23.219  24.950  1.00  0.00     0.310 C 
BRANCH   9  10
ATOM     10  N   UNL A   1      32.095  22.303  24.515  1.00  0.00    -0.333 N 
ATOM     11  H   UNL A   1      31.369  22.533  25.194  1.00  0.00     0.348 HD
BRANCH  10  12
ATOM     12  C   UNL A   1      31.460  22.592  23.225  1.00  0.00     0.258 C 
ATOM     13  C   UNL A   1      30.596  23.850  23.232  1.00  0.00     0.071 C 
ENDBRANCH  10  12
BRANCH  10  14
ATOM     14  C   UNL A   1      32.378  20.876  24.705  1.00  0.00     0.258 C 
ATOM     15  C   UNL A   1      33.500  20.501  25.663  1.00  0.00     0.071 C 
ENDBRANCH  10  14
ENDBRANCH   9  10
ENDBRANCH   7   9
ENDBRANCH   4   7
ENDBRANCH   2   3
ENDBRANCH   1   2
BRANCH   1  16
ATOM     16  C   UNL A   1      33.373  27.680  26.642  1.00  0.00     0.023 C 
BRANCH  16  17
ATOM     17  C   UNL A   1      33.964  28.910  25.957  1.00  0.00     0.116 C 
BRANCH  17  18
ATOM     18  N   UNL A   1      33.697  30.136  26.692  1.00  0.00    -0.352 N 
ATOM     19  C   UNL A   1      34.414  30.713  27.714  1.00  0.00     0.251 C 
ATOM     20  H   UNL A   1      32.886  30.622  26.419  1.00  0.00     0.163 HD
ATOM     21  O   UNL A   1      33.938  31.645  28.348  1.00  0.00    -0.269 OA
BRANCH  19  22
ATOM     22  C   UNL A   1      35.752  30.182  28.054  1.00  0.00     0.039 A 
ATOM     23  C   UNL A   1      36.765  30.229  27.094  1.00  0.00     0.014 A 
ATOM     24  C   UNL A   1      36.006  29.655  29.323  1.00  0.00     0.014 A 
ATOM     25  C   UNL A   1      38.054  29.813  27.433  1.00  0.00     0.010 A 
ATOM     26  C   UNL A   1      37.308  29.318  29.682  1.00  0.00     0.010 A 
ATOM     27  C   UNL A   1      38.346  29.392  28.741  1.00  0.00    -0.014 A 
BRANCH  27  28
ATOM     28  C   UNL A   1      39.731  29.035  29.145  1.00  0.00     0.031 A 
ATOM     29  C   UNL A   1      40.597  30.042  29.854  1.00  0.00     0.074 A 
ATOM     30  C   UNL A   1      40.231  27.827  28.817  1.00  0.00     0.049 A 
ATOM     31  N   UNL A   1      41.844  29.932  30.234  1.00  0.00    -0.248 NA
ATOM     32  C   UNL A   1      39.992  31.350  30.152  1.00  0.00     0.031 C 
ATOM     33  C   UNL A   1      39.508  26.778  28.093  1.00  0.00     0.029 A 
ATOM     34  N   UNL A   1      41.469  27.276  29.046  1.00  0.00    -0.354 N 
ATOM     35  C   UNL A   1      42.175  31.155  30.805  1.00  0.00     0.074 A 
ATOM     36  C   UNL A   1      41.017  32.011  30.669  1.00  0.00     0.031 C 
ATOM     37  C   UNL A   1      40.305  25.705  27.960  1.00  0.00     0.029 A 
ATOM     38  C   UNL A   1      41.607  26.002  28.548  1.00  0.00     0.049 A 
ATOM     39  H   UNL A   1      42.189  27.750  29.520  1.00  0.00     0.167 HD
ATOM     40  C   UNL A   1      43.330  31.529  31.407  1.00  0.00     0.031 A 
ATOM     41  C   UNL A   1      42.665  25.167  28.553  1.00  0.00     0.031 A 
ATOM     42  C   UNL A   1      44.480  30.674  31.542  1.00  0.00     0.049 A 
ATOM     43  C   UNL A   1      43.945  25.610  29.211  1.00  0.00     0.074 A 
ATOM     44  C   UNL A   1      45.680  30.943  32.177  1.00  0.00     0.029 A 
ATOM     45  N   UNL A   1      44.578  29.388  31.030  1.00  0.00    -0.354 N 
ATOM     46  N   UNL A   1      44.215  26.749  29.802  1.00  0.00    -0.248 NA
ATOM     47  C   UNL A   1      45.057  24.651  29.210  1.00  0.00     0.031 C 
ATOM     48  C   UNL A   1      46.525  29.842  31.999  1.00  0.00     0.029 A 
ATOM     49  C   UNL A   1      45.826  28.861  31.313  1.00  0.00     0.049 A 
ATOM     50  H   UNL A   1      43.864  28.921  30.539  1.00  0.00     0.167 HD
ATOM     51  C   UNL A   1      45.519  26.632  30.271  1.00  0.00     0.074 A 
ATOM     52  C   UNL A   1      45.976  25.305  29.908  1.00  0.00     0.031 C 
ATOM     53  C   UNL A   1      46.270  27.539  30.943  1.00  0.00     0.031 A 
BRANCH  40  54
ATOM     54  C   UNL A   1      43.405  32.927  31.963  1.00  0.00    -0.014 A 
ATOM     55  C   UNL A   1      43.106  33.191  33.313  1.00  0.00     0.010 A 
ATOM     56  C   UNL A   1      43.812  33.989  31.135  1.00  0.00     0.010 A 
ATOM     57  C   UNL A   1      43.169  34.494  33.813  1.00  0.00     0.020 A 
ATOM     58  C   UNL A   1      43.909  35.290  31.640  1.00  0.00     0.020 A 
ATOM     59  C   UNL A   1      43.568  35.537  32.972  1.00  0.00     0.054 A 
BRANCH  59  60
ATOM     60  S   UNL A   1      43.659  37.215  33.653  1.00  0.00     0.124 S 
ATOM     61  O   UNL A   1      43.874  38.016  32.451  1.00  0.00    -0.237 OA
ATOM     62  O   UNL A   1      42.352  37.373  34.288  1.00  0.00    -0.237 OA
ATOM     63  O   UNL A   1      44.793  37.156  34.573  1.00  0.00    -0.744 OA
ENDBRANCH  59  60
ENDBRANCH  40  54
BRANCH  41  64
ATOM     64  C   UNL A   1      42.555  23.824  27.920  1.00  0.00    -0.014 A 
ATOM     65  C   UNL A   1      42.628  23.680  26.524  1.00  0.00     0.010 A 
ATOM     66  C   UNL A   1      42.390  22.675  28.716  1.00  0.00     0.010 A 
ATOM     67  C   UNL A   1      42.521  22.416  25.935  1.00  0.00     0.020 A 
ATOM     68  C   UNL A   1      42.314  21.407  28.134  1.00  0.00     0.020 A 
ATOM     69  C   UNL A   1      42.369  21.286  26.744  1.00  0.00     0.054 A 
BRANCH  69  70
ATOM     70  S   UNL A   1      42.287  19.653  25.960  1.00  0.00     0.124 S 
ATOM     71  O   UNL A   1      43.364  19.732  24.979  1.00  0.00    -0.237 OA
ATOM     72  O   UNL A   1      42.520  18.751  27.086  1.00  0.00    -0.237 OA
ATOM     73  O   UNL A   1      40.935  19.608  25.406  1.00  0.00    -0.744 OA
ENDBRANCH  69  70
ENDBRANCH  41  64
BRANCH  53  74
ATOM     74  C   UNL A   1      47.654  27.122  31.364  1.00  0.00    -0.014 A 
ATOM     75  C   UNL A   1      48.771  27.348  30.540  1.00  0.00     0.010 A 
ATOM     76  C   UNL A   1      47.847  26.544  32.633  1.00  0.00     0.010 A 
ATOM     77  C   UNL A   1      50.050  26.975  30.964  1.00  0.00     0.020 A 
ATOM     78  C   UNL A   1      49.127  26.197  33.072  1.00  0.00     0.020 A 
ATOM     79  C   UNL A   1      50.220  26.402  32.229  1.00  0.00     0.054 A 
BRANCH  79  80
ATOM     80  S   UNL A   1      51.895  25.969  32.772  1.00  0.00     0.124 S 
ATOM     81  O   UNL A   1      52.623  25.926  31.508  1.00  0.00    -0.237 OA
ATOM     82  O   UNL A   1      52.238  27.077  33.661  1.00  0.00    -0.237 OA
ATOM     83  O   UNL A   1      51.721  24.677  33.435  1.00  0.00    -0.744 OA
ENDBRANCH  79  80
ENDBRANCH  53  74
ENDBRANCH  27  28
ENDBRANCH  19  22
ENDBRANCH  17  18
ENDBRANCH  16  17
ENDBRANCH   1  16
TORSDOF 18
ENDMDL
MODEL 2
REMARK VINA RESULT:      -8.8      2.823      9.269
REMARK SMILES CC[NH+](CC)C[C@H](F)C(=O)NCCCCNC(=O)c1ccc(-c2c3nc(c(-c4ccc(S(=O)(=O)[O-])cc4)c4ccc([nH]4)c(-c4ccc(S(=O)(=O)[O-])cc4)c4nc(c(-c5ccc(S(=O)(=O)[O-])cc5)c5ccc2[nH]5)C=C4)C=C3)cc1
REMARK SMILES IDX 13 1 12 2 11 3 9 4 10 5 7 7 8 8 6 9 3 10 2 12 1 13 4 14 5 15
REMARK SMILES IDX 14 16 15 17 16 18 17 19 18 21 19 22 20 23 78 24 21 25 77 26
REMARK SMILES IDX 22 27 23 28 24 29 71 30 25 31 76 32 70 33 72 34 26 35 75 36
REMARK SMILES IDX 69 37 68 38 27 40 57 41 38 42 56 43 39 44 42 45 55 46 73 47
REMARK SMILES IDX 40 48 41 49 54 51 74 52 43 53 28 54 29 55 37 56 30 57 36 58
REMARK SMILES IDX 31 59 32 60 33 61 34 62 35 63 58 64 59 65 67 66 60 67 66 68
REMARK SMILES IDX 61 69 62 70 63 71 64 72 65 73 44 74 45 75 53 76 46 77 52 78
REMARK SMILES IDX 47 79 48 80 49 81 50 82 51 83
REMARK H PARENT 11 6 3 11 16 20 72 39 42 50
REMARK Flexibility Score: inf
ROOT
ATOM      1  C   UNL A   1      35.499  21.655  26.001  1.00  0.00     0.023 C 
ENDROOT
BRANCH   1   2
ATOM      2  C   UNL A   1      35.413  20.505  25.003  1.00  0.00     0.116 C 
BRANCH   2   3
ATOM      3  N   UNL A   1      34.217  19.712  25.209  1.00  0.00    -0.353 N 
ATOM      4  C   UNL A   1      32.954  19.929  24.745  1.00  0.00     0.260 C 
ATOM      5  O   UNL A   1      32.059  19.175  25.143  1.00  0.00    -0.271 OA
ATOM      6  H   UNL A   1      34.334  18.905  25.761  1.00  0.00     0.163 HD
BRANCH   4   7
ATOM      7  C   UNL A   1      32.668  21.022  23.727  1.00  0.00     0.309 C 
ATOM      8  F   UNL A   1      31.804  20.588  22.752  1.00  0.00    -0.230 F 
BRANCH   7   9
ATOM      9  C   UNL A   1      32.082  22.319  24.324  1.00  0.00     0.310 C 
BRANCH   9  10
ATOM     10  N   UNL A   1      32.072  23.613  23.617  1.00  0.00    -0.333 N 
ATOM     11  H   UNL A   1      32.409  24.230  24.356  1.00  0.00     0.348 HD
BRANCH  10  12
ATOM     12  C   UNL A   1      33.059  23.790  22.547  1.00  0.00     0.258 C 
ATOM     13  C   UNL A   1      32.826  25.033  21.692  1.00  0.00     0.071 C 
ENDBRANCH  10  12
BRANCH  10  14
ATOM     14  C   UNL A   1      30.743  24.117  23.255  1.00  0.00     0.258 C 
ATOM     15  C   UNL A   1      30.232  25.351  23.987  1.00  0.00     0.071 C 
ENDBRANCH  10  14
ENDBRANCH   9  10
ENDBRANCH   7   9
ENDBRANCH   4   7
ENDBRANCH   2   3
ENDBRANCH   1   2
BRANCH   1  16
ATOM     16  C   UNL A   1      35.527  23.048  25.368  1.00  0.00     0.023 C 
BRANCH  16  17
ATOM     17  C   UNL A   1      36.915  23.671  25.233  1.00  0.00     0.116 C 
BRANCH  17  18
ATOM     18  N   UNL A   1      37.979  22.711  25.483  1.00  0.00    -0.352 N 
ATOM     19  C   UNL A   1      39.203  22.904  26.080  1.00  0.00     0.251 C 
ATOM     20  H   UNL A   1      37.797  21.793  25.181  1.00  0.00     0.163 HD
ATOM     21  O   UNL A   1      40.054  22.025  26.034  1.00  0.00    -0.269 OA
BRANCH  19  22
ATOM     22  C   UNL A   1      39.489  24.187  26.757  1.00  0.00     0.039 A 
ATOM     23  C   UNL A   1      39.015  24.390  28.056  1.00  0.00     0.014 A 
ATOM     24  C   UNL A   1      40.236  25.179  26.116  1.00  0.00     0.014 A 
ATOM     25  C   UNL A   1      39.354  25.561  28.737  1.00  0.00     0.010 A 
ATOM     26  C   UNL A   1      40.639  26.307  26.825  1.00  0.00     0.010 A 
ATOM     27  C   UNL A   1      40.202  26.511  28.143  1.00  0.00    -0.014 A 
BRANCH  27  28
ATOM     28  C   UNL A   1      40.648  27.717  28.887  1.00  0.00     0.031 A 
ATOM     29  C   UNL A   1      41.997  27.738  29.556  1.00  0.00     0.074 A 
ATOM     30  C   UNL A   1      39.815  28.769  29.015  1.00  0.00     0.049 A 
ATOM     31  N   UNL A   1      42.536  28.676  30.292  1.00  0.00    -0.248 NA
ATOM     32  C   UNL A   1      42.840  26.542  29.397  1.00  0.00     0.031 C 
ATOM     33  C   UNL A   1      38.466  28.855  28.450  1.00  0.00     0.029 A 
ATOM     34  N   UNL A   1      39.978  29.968  29.665  1.00  0.00    -0.354 N 
ATOM     35  C   UNL A   1      43.771  28.180  30.693  1.00  0.00     0.074 A 
ATOM     36  C   UNL A   1      43.877  26.838  30.165  1.00  0.00     0.031 C 
ATOM     37  C   UNL A   1      37.936  30.050  28.757  1.00  0.00     0.029 A 
ATOM     38  C   UNL A   1      38.885  30.798  29.575  1.00  0.00     0.049 A 
ATOM     39  H   UNL A   1      40.799  30.209  30.151  1.00  0.00     0.167 HD
ATOM     40  C   UNL A   1      44.740  28.792  31.415  1.00  0.00     0.031 A 
ATOM     41  C   UNL A   1      38.664  32.020  30.100  1.00  0.00     0.031 A 
ATOM     42  C   UNL A   1      44.632  30.129  31.938  1.00  0.00     0.049 A 
ATOM     43  C   UNL A   1      39.747  32.673  30.916  1.00  0.00     0.074 A 
ATOM     44  C   UNL A   1      45.576  30.855  32.642  1.00  0.00     0.029 A 
ATOM     45  N   UNL A   1      43.511  30.939  31.819  1.00  0.00    -0.354 N 
ATOM     46  N   UNL A   1      40.935  32.211  31.228  1.00  0.00    -0.248 NA
ATOM     47  C   UNL A   1      39.464  34.015  31.441  1.00  0.00     0.031 C 
ATOM     48  C   UNL A   1      45.006  32.082  32.999  1.00  0.00     0.029 A 
ATOM     49  C   UNL A   1      43.731  32.147  32.458  1.00  0.00     0.049 A 
ATOM     50  H   UNL A   1      42.682  30.690  31.349  1.00  0.00     0.167 HD
ATOM     51  C   UNL A   1      41.552  33.220  31.960  1.00  0.00     0.074 A 
ATOM     52  C   UNL A   1      40.612  34.320  32.031  1.00  0.00     0.031 C 
ATOM     53  C   UNL A   1      42.786  33.234  32.523  1.00  0.00     0.031 A 
BRANCH  40  54
ATOM     54  C   UNL A   1      46.003  28.016  31.686  1.00  0.00    -0.014 A 
ATOM     55  C   UNL A   1      46.132  27.215  32.836  1.00  0.00     0.010 A 
ATOM     56  C   UNL A   1      47.063  28.058  30.762  1.00  0.00     0.010 A 
ATOM     57  C   UNL A   1      47.312  26.508  33.079  1.00  0.00     0.020 A 
ATOM     58  C   UNL A   1      48.233  27.326  30.985  1.00  0.00     0.020 A 
ATOM     59  C   UNL A   1      48.357  26.570  32.153  1.00  0.00     0.054 A 
BRANCH  59  60
ATOM     60  S   UNL A   1      49.870  25.627  32.487  1.00  0.00     0.124 S 
ATOM     61  O   UNL A   1      50.726  26.639  33.100  1.00  0.00    -0.237 OA
ATOM     62  O   UNL A   1      49.399  24.576  33.386  1.00  0.00    -0.237 OA
ATOM     63  O   UNL A   1      50.293  25.170  31.166  1.00  0.00    -0.744 OA
ENDBRANCH  59  60
ENDBRANCH  40  54
BRANCH  41  64
ATOM     64  C   UNL A   1      37.366  32.707  29.860  1.00  0.00    -0.014 A 
ATOM     65  C   UNL A   1      36.298  32.560  30.763  1.00  0.00     0.010 A 
ATOM     66  C   UNL A   1      37.195  33.530  28.731  1.00  0.00     0.010 A 
ATOM     67  C   UNL A   1      35.080  33.206  30.532  1.00  0.00     0.020 A 
ATOM     68  C   UNL A   1      35.990  34.202  28.513  1.00  0.00     0.020 A 
ATOM     69  C   UNL A   1      34.934  34.027  29.410  1.00  0.00     0.054 A 
BRANCH  69  70
ATOM     70  S   UNL A   1      33.363  34.897  29.160  1.00  0.00     0.124 S 
ATOM     71  O   UNL A   1      32.694  34.044  28.183  1.00  0.00    -0.237 OA
ATOM     72  O   UNL A   1      32.785  34.896  30.502  1.00  0.00    -0.237 OA
ATOM     73  O   UNL A   1      33.774  36.210  28.669  1.00  0.00    -0.744 OA
ENDBRANCH  69  70
ENDBRANCH  41  64
BRANCH  53  74
ATOM     74  C   UNL A   1      43.211  34.491  33.236  1.00  0.00    -0.014 A 
ATOM     75  C   UNL A   1      43.129  34.603  34.635  1.00  0.00     0.010 A 
ATOM     76  C   UNL A   1      43.755  35.556  32.495  1.00  0.00     0.010 A 
ATOM     77  C   UNL A   1      43.554  35.770  35.277  1.00  0.00     0.020 A 
ATOM     78  C   UNL A   1      44.208  36.712  33.135  1.00  0.00     0.020 A 
ATOM     79  C   UNL A   1      44.092  36.818  34.522  1.00  0.00     0.054 A 
BRANCH  79  80
ATOM     80  S   UNL A   1      44.677  38.303  35.383  1.00  0.00     0.124 S 
ATOM     81  O   UNL A   1      44.467  39.340  34.378  1.00  0.00    -0.237 OA
ATOM     82  O   UNL A   1      43.795  38.365  36.546  1.00  0.00    -0.237 OA
ATOM     83  O   UNL A   1      46.075  38.001  35.685  1.00  0.00    -0.744 OA
ENDBRANCH  79  80
ENDBRANCH  53  74
ENDBRANCH  27  28
ENDBRANCH  19  22
ENDBRANCH  17  18
ENDBRANCH  16  17
ENDBRANCH   1  16
TORSDOF 18
ENDMDL
MODEL 3
REMARK VINA RESULT:      -8.8      3.385      5.749
REMARK SMILES CC[NH+](CC)C[C@H](F)C(=O)NCCCCNC(=O)c1ccc(-c2c3nc(c(-c4ccc(S(=O)(=O)[O-])cc4)c4ccc([nH]4)c(-c4ccc(S(=O)(=O)[O-])cc4)c4nc(c(-c5ccc(S(=O)(=O)[O-])cc5)c5ccc2[nH]5)C=C4)C=C3)cc1
REMARK SMILES IDX 13 1 12 2 11 3 9 4 10 5 7 7 8 8 6 9 3 10 2 12 1 13 4 14 5 15
REMARK SMILES IDX 14 16 15 17 16 18 17 19 18 21 19 22 20 23 78 24 21 25 77 26
REMARK SMILES IDX 22 27 23 28 24 29 71 30 25 31 76 32 70 33 72 34 26 35 75 36
REMARK SMILES IDX 69 37 68 38 27 40 57 41 38 42 56 43 39 44 42 45 55 46 73 47
REMARK SMILES IDX 40 48 41 49 54 51 74 52 43 53 28 54 29 55 37 56 30 57 36 58
REMARK SMILES IDX 31 59 32 60 33 61 34 62 35 63 58 64 59 65 67 66 60 67 66 68
REMARK SMILES IDX 61 69 62 70 63 71 64 72 65 73 44 74 45 75 53 76 46 77 52 78
REMARK SMILES IDX 47 79 48 80 49 81 50 82 51 83
REMARK H PARENT 11 6 3 11 16 20 72 39 42 50
REMARK Flexibility Score: inf
ROOT
ATOM      1  C   UNL A   1      34.154  34.414  29.792  1.00  0.00     0.023 C 
ENDROOT
BRANCH   1   2
ATOM      2  C   UNL A   1      35.460  33.915  30.401  1.00  0.00     0.116 C 
BRANCH   2   3
ATOM      3  N   UNL A   1      35.767  34.608  31.637  1.00  0.00    -0.353 N 
ATOM      4  C   UNL A   1      36.758  34.356  32.538  1.00  0.00     0.260 C 
ATOM      5  O   UNL A   1      36.761  35.011  33.586  1.00  0.00    -0.271 OA
ATOM      6  H   UNL A   1      35.178  35.367  31.855  1.00  0.00     0.163 HD
BRANCH   4   7
ATOM      7  C   UNL A   1      37.854  33.345  32.237  1.00  0.00     0.309 C 
ATOM      8  F   UNL A   1      38.538  33.671  31.091  1.00  0.00    -0.230 F 
BRANCH   7   9
ATOM      9  C   UNL A   1      38.893  33.169  33.364  1.00  0.00     0.310 C 
BRANCH   9  10
ATOM     10  N   UNL A   1      38.890  32.037  34.310  1.00  0.00    -0.333 N 
ATOM     11  H   UNL A   1      39.769  32.204  34.800  1.00  0.00     0.348 HD
BRANCH  10  12
ATOM     12  C   UNL A   1      37.889  32.074  35.382  1.00  0.00     0.258 C 
ATOM     13  C   UNL A   1      38.467  32.410  36.754  1.00  0.00     0.071 C 
ENDBRANCH  10  12
BRANCH  10  14
ATOM     14  C   UNL A   1      39.021  30.711  33.698  1.00  0.00     0.258 C 
ATOM     15  C   UNL A   1      40.420  30.116  33.598  1.00  0.00     0.071 C 
ENDBRANCH  10  14
ENDBRANCH   9  10
ENDBRANCH   7   9
ENDBRANCH   4   7
ENDBRANCH   2   3
ENDBRANCH   1   2
BRANCH   1  16
ATOM     16  C   UNL A   1      33.669  33.614  28.580  1.00  0.00     0.023 C 
BRANCH  16  17
ATOM     17  C   UNL A   1      34.620  32.518  28.105  1.00  0.00     0.116 C 
BRANCH  17  18
ATOM     18  N   UNL A   1      33.963  31.226  27.989  1.00  0.00    -0.352 N 
ATOM     19  C   UNL A   1      34.516  29.966  27.977  1.00  0.00     0.251 C 
ATOM     20  H   UNL A   1      32.984  31.257  27.908  1.00  0.00     0.163 HD
ATOM     21  O   UNL A   1      33.830  28.998  27.677  1.00  0.00    -0.269 OA
BRANCH  19  22
ATOM     22  C   UNL A   1      35.947  29.796  28.306  1.00  0.00     0.039 A 
ATOM     23  C   UNL A   1      36.306  29.426  29.604  1.00  0.00     0.014 A 
ATOM     24  C   UNL A   1      36.929  29.984  27.329  1.00  0.00     0.014 A 
ATOM     25  C   UNL A   1      37.647  29.176  29.903  1.00  0.00     0.010 A 
ATOM     26  C   UNL A   1      38.253  29.656  27.608  1.00  0.00     0.010 A 
ATOM     27  C   UNL A   1      38.627  29.249  28.898  1.00  0.00    -0.014 A 
BRANCH  27  28
ATOM     28  C   UNL A   1      40.043  28.896  29.175  1.00  0.00     0.031 A 
ATOM     29  C   UNL A   1      40.977  29.918  29.766  1.00  0.00     0.074 A 
ATOM     30  C   UNL A   1      40.505  27.675  28.837  1.00  0.00     0.049 A 
ATOM     31  N   UNL A   1      42.255  29.812  30.026  1.00  0.00    -0.248 NA
ATOM     32  C   UNL A   1      40.408  31.238  30.082  1.00  0.00     0.031 C 
ATOM     33  C   UNL A   1      39.712  26.610  28.219  1.00  0.00     0.029 A 
ATOM     34  N   UNL A   1      41.757  27.124  28.961  1.00  0.00    -0.354 N 
ATOM     35  C   UNL A   1      42.644  31.050  30.525  1.00  0.00     0.074 A 
ATOM     36  C   UNL A   1      41.481  31.908  30.476  1.00  0.00     0.031 C 
ATOM     37  C   UNL A   1      40.488  25.529  28.042  1.00  0.00     0.029 A 
ATOM     38  C   UNL A   1      41.842  25.835  28.491  1.00  0.00     0.049 A 
ATOM     39  H   UNL A   1      42.522  27.608  29.349  1.00  0.00     0.167 HD
ATOM     40  C   UNL A   1      43.853  31.434  31.001  1.00  0.00     0.031 A 
ATOM     41  C   UNL A   1      42.893  24.994  28.418  1.00  0.00     0.031 A 
ATOM     42  C   UNL A   1      45.009  30.577  31.049  1.00  0.00     0.049 A 
ATOM     43  C   UNL A   1      44.232  25.448  28.935  1.00  0.00     0.074 A 
ATOM     44  C   UNL A   1      46.265  30.857  31.555  1.00  0.00     0.029 A 
ATOM     45  N   UNL A   1      45.052  29.275  30.569  1.00  0.00    -0.354 N 
ATOM     46  N   UNL A   1      44.562  26.603  29.463  1.00  0.00    -0.248 NA
ATOM     47  C   UNL A   1      45.336  24.482  28.856  1.00  0.00     0.031 C 
ATOM     48  C   UNL A   1      47.085  29.745  31.330  1.00  0.00     0.029 A 
ATOM     49  C   UNL A   1      46.320  28.748  30.745  1.00  0.00     0.049 A 
ATOM     50  H   UNL A   1      44.292  28.798  30.164  1.00  0.00     0.167 HD
ATOM     51  C   UNL A   1      45.905  26.491  29.806  1.00  0.00     0.074 A 
ATOM     52  C   UNL A   1      46.321  25.152  29.440  1.00  0.00     0.031 C 
ATOM     53  C   UNL A   1      46.721  27.414  30.374  1.00  0.00     0.031 A 
BRANCH  40  54
ATOM     54  C   UNL A   1      43.986  32.848  31.504  1.00  0.00    -0.014 A 
ATOM     55  C   UNL A   1      43.615  33.190  32.818  1.00  0.00     0.010 A 
ATOM     56  C   UNL A   1      44.522  33.843  30.666  1.00  0.00     0.010 A 
ATOM     57  C   UNL A   1      43.735  34.507  33.268  1.00  0.00     0.020 A 
ATOM     58  C   UNL A   1      44.673  35.155  31.123  1.00  0.00     0.020 A 
ATOM     59  C   UNL A   1      44.261  35.483  32.417  1.00  0.00     0.054 A 
BRANCH  59  60
ATOM     60  S   UNL A   1      44.421  37.180  33.035  1.00  0.00     0.124 S 
ATOM     61  O   UNL A   1      45.707  37.129  33.725  1.00  0.00    -0.237 OA
ATOM     62  O   UNL A   1      44.398  37.971  31.807  1.00  0.00    -0.237 OA
ATOM     63  O   UNL A   1      43.256  37.346  33.901  1.00  0.00    -0.744 OA
ENDBRANCH  59  60
ENDBRANCH  40  54
BRANCH  41  64
ATOM     64  C   UNL A   1      42.717  23.633  27.841  1.00  0.00    -0.014 A 
ATOM     65  C   UNL A   1      42.308  22.558  28.649  1.00  0.00     0.010 A 
ATOM     66  C   UNL A   1      42.943  23.408  26.470  1.00  0.00     0.010 A 
ATOM     67  C   UNL A   1      42.146  21.281  28.102  1.00  0.00     0.020 A 
ATOM     68  C   UNL A   1      42.752  22.141  25.913  1.00  0.00     0.020 A 
ATOM     69  C   UNL A   1      42.366  21.081  26.736  1.00  0.00     0.054 A 
BRANCH  69  70
ATOM     70  S   UNL A   1      42.097  19.428  26.039  1.00  0.00     0.124 S 
ATOM     71  O   UNL A   1      42.573  18.564  27.114  1.00  0.00    -0.237 OA
ATOM     72  O   UNL A   1      40.655  19.415  25.807  1.00  0.00    -0.237 OA
ATOM     73  O   UNL A   1      42.915  19.431  24.828  1.00  0.00    -0.744 OA
ENDBRANCH  69  70
ENDBRANCH  41  64
BRANCH  53  74
ATOM     74  C   UNL A   1      48.139  27.001  30.671  1.00  0.00    -0.014 A 
ATOM     75  C   UNL A   1      49.179  27.240  29.756  1.00  0.00     0.010 A 
ATOM     76  C   UNL A   1      48.442  26.413  31.914  1.00  0.00     0.010 A 
ATOM     77  C   UNL A   1      50.491  26.870  30.065  1.00  0.00     0.020 A 
ATOM     78  C   UNL A   1      49.757  26.070  32.238  1.00  0.00     0.020 A 
ATOM     79  C   UNL A   1      50.772  26.288  31.306  1.00  0.00     0.054 A 
BRANCH  79  80
ATOM     80  S   UNL A   1      52.490  25.859  31.700  1.00  0.00     0.124 S 
ATOM     81  O   UNL A   1      53.152  26.044  30.412  1.00  0.00    -0.237 OA
ATOM     82  O   UNL A   1      52.834  26.835  32.731  1.00  0.00    -0.237 OA
ATOM     83  O   UNL A   1      52.404  24.476  32.164  1.00  0.00    -0.744 OA
ENDBRANCH  79  80
ENDBRANCH  53  74
ENDBRANCH  27  28
ENDBRANCH  19  22
ENDBRANCH  17  18
ENDBRANCH  16  17
ENDBRANCH   1  16
TORSDOF 18
ENDMDL
