MODEL 1
REMARK VINA RESULT:      -8.5      0.000      0.000
REMARK SMILES CC[C@@H](C)N(C)c1ccc(/C=C/C(=O)NCCCCNC(=O)c2ccc(-c3c4nc(c(-c5ccc(S(=O)(=O)[O-])cc5)c5ccc([nH]5)c(-c5ccc(S(=O)(=O)[O-])cc5)c5nc(c(-c6ccc(S(=O)(=O)[O-])cc6)c6ccc3[nH]6)C=C5)C=C4)cc2)cc1F
REMARK SMILES IDX 17 1 16 2 15 3 13 4 14 5 12 7 11 8 10 9 7 10 8 11 84 12 9 13
REMARK SMILES IDX 83 14 85 15 5 16 6 17 3 18 4 19 2 20 1 21 18 22 19 23 20 24
REMARK SMILES IDX 21 25 22 27 23 28 24 29 82 30 25 31 81 32 26 33 27 34 28 35
REMARK SMILES IDX 75 36 29 37 80 38 74 39 76 40 30 41 79 42 73 43 72 44 31 46
REMARK SMILES IDX 61 47 42 48 60 49 43 50 46 51 59 52 77 53 44 54 45 55 58 57
REMARK SMILES IDX 78 58 47 59 32 60 33 61 41 62 34 63 40 64 35 65 36 66 37 67
REMARK SMILES IDX 38 68 39 69 62 70 63 71 71 72 64 73 70 74 65 75 66 76 67 77
REMARK SMILES IDX 68 78 69 79 48 80 49 81 57 82 50 83 56 84 51 85 52 86 53 87
REMARK SMILES IDX 54 88 55 89
REMARK H PARENT 15 6 20 26 76 45 46 56
REMARK Flexibility Score: inf
ROOT
ATOM      1  C   UNL A   1      34.902  32.670  30.580  1.00  0.00     0.023 C 
ENDROOT
BRANCH   1   2
ATOM      2  C   UNL A   1      36.383  33.012  30.740  1.00  0.00     0.116 C 
BRANCH   2   3
ATOM      3  N   UNL A   1      36.604  33.906  31.865  1.00  0.00    -0.353 N 
ATOM      4  C   UNL A   1      37.611  33.928  32.782  1.00  0.00     0.243 C 
ATOM      5  O   UNL A   1      37.691  34.843  33.596  1.00  0.00    -0.270 OA
ATOM      6  H   UNL A   1      35.919  34.604  31.981  1.00  0.00     0.163 HD
BRANCH   4   7
ATOM      7  C   UNL A   1      38.668  32.893  32.745  1.00  0.00     0.072 C 
ATOM      8  C   UNL A   1      38.975  32.135  33.807  1.00  0.00     0.014 C 
BRANCH   8   9
ATOM      9  C   UNL A   1      39.985  31.073  33.810  1.00  0.00    -0.022 A 
ATOM     10  C   UNL A   1      41.839  28.902  33.841  1.00  0.00     0.073 A 
ATOM     11  C   UNL A   1      42.144  30.140  34.431  1.00  0.00     0.029 A 
ATOM     12  C   UNL A   1      40.570  28.788  33.251  1.00  0.00     0.147 A 
ATOM     13  C   UNL A   1      41.234  31.210  34.421  1.00  0.00     0.010 A 
ATOM     14  C   UNL A   1      39.660  29.846  33.230  1.00  0.00     0.049 A 
ATOM     15  F   UNL A   1      40.156  27.619  32.739  1.00  0.00    -0.205 F 
BRANCH  10  16
ATOM     16  N   UNL A   1      42.744  27.842  33.885  1.00  0.00    -0.370 N 
ATOM     17  C   UNL A   1      43.227  27.330  32.609  1.00  0.00     0.144 C 
BRANCH  16  18
ATOM     18  C   UNL A   1      42.854  26.961  35.070  1.00  0.00     0.078 C 
ATOM     19  C   UNL A   1      44.158  26.159  35.051  1.00  0.00     0.031 C 
BRANCH  18  20
ATOM     20  C   UNL A   1      41.611  26.075  35.252  1.00  0.00     0.021 C 
ATOM     21  C   UNL A   1      41.940  24.613  35.522  1.00  0.00     0.006 C 
ENDBRANCH  18  20
ENDBRANCH  16  18
ENDBRANCH  10  16
ENDBRANCH   8   9
ENDBRANCH   4   7
ENDBRANCH   2   3
ENDBRANCH   1   2
BRANCH   1  22
ATOM     22  C   UNL A   1      34.269  33.178  29.280  1.00  0.00     0.023 C 
BRANCH  22  23
ATOM     23  C   UNL A   1      34.682  32.425  28.020  1.00  0.00     0.116 C 
BRANCH  23  24
ATOM     24  N   UNL A   1      34.027  31.134  27.876  1.00  0.00    -0.352 N 
ATOM     25  C   UNL A   1      34.587  29.877  27.949  1.00  0.00     0.251 C 
ATOM     26  H   UNL A   1      33.058  31.162  27.705  1.00  0.00     0.163 HD
ATOM     27  O   UNL A   1      33.913  28.886  27.704  1.00  0.00    -0.269 OA
BRANCH  25  28
ATOM     28  C   UNL A   1      36.021  29.746  28.284  1.00  0.00     0.039 A 
ATOM     29  C   UNL A   1      36.376  29.357  29.577  1.00  0.00     0.014 A 
ATOM     30  C   UNL A   1      37.004  29.966  27.316  1.00  0.00     0.014 A 
ATOM     31  C   UNL A   1      37.719  29.119  29.881  1.00  0.00     0.010 A 
ATOM     32  C   UNL A   1      38.332  29.665  27.602  1.00  0.00     0.010 A 
ATOM     33  C   UNL A   1      38.702  29.235  28.885  1.00  0.00    -0.014 A 
BRANCH  33  34
ATOM     34  C   UNL A   1      40.120  28.897  29.161  1.00  0.00     0.031 A 
ATOM     35  C   UNL A   1      41.039  29.924  29.766  1.00  0.00     0.074 A 
ATOM     36  C   UNL A   1      40.600  27.692  28.796  1.00  0.00     0.049 A 
ATOM     37  N   UNL A   1      42.317  29.834  30.025  1.00  0.00    -0.248 NA
ATOM     38  C   UNL A   1      40.446  31.229  30.098  1.00  0.00     0.031 C 
ATOM     39  C   UNL A   1      39.823  26.627  28.159  1.00  0.00     0.029 A 
ATOM     40  N   UNL A   1      41.862  27.162  28.905  1.00  0.00    -0.354 N 
ATOM     41  C   UNL A   1      42.687  31.075  30.531  1.00  0.00     0.074 A 
ATOM     42  C   UNL A   1      41.508  31.913  30.496  1.00  0.00     0.031 C 
ATOM     43  C   UNL A   1      40.617  25.562  27.959  1.00  0.00     0.029 A 
ATOM     44  C   UNL A   1      41.965  25.881  28.418  1.00  0.00     0.049 A 
ATOM     45  H   UNL A   1      42.622  27.653  29.293  1.00  0.00     0.167 HD
ATOM     46  C   UNL A   1      43.894  31.476  30.997  1.00  0.00     0.031 A 
ATOM     47  C   UNL A   1      43.026  25.054  28.347  1.00  0.00     0.031 A 
ATOM     48  C   UNL A   1      45.062  30.637  31.039  1.00  0.00     0.049 A 
ATOM     49  C   UNL A   1      44.355  25.517  28.873  1.00  0.00     0.074 A 
ATOM     50  C   UNL A   1      46.315  30.930  31.548  1.00  0.00     0.029 A 
ATOM     51  N   UNL A   1      45.122  29.341  30.549  1.00  0.00    -0.354 N 
ATOM     52  N   UNL A   1      44.670  26.673  29.410  1.00  0.00    -0.248 NA
ATOM     53  C   UNL A   1      45.470  24.563  28.795  1.00  0.00     0.031 C 
ATOM     54  C   UNL A   1      47.146  29.825  31.325  1.00  0.00     0.029 A 
ATOM     55  C   UNL A   1      46.396  28.827  30.725  1.00  0.00     0.049 A 
ATOM     56  H   UNL A   1      44.370  28.857  30.137  1.00  0.00     0.167 HD
ATOM     57  C   UNL A   1      46.014  26.575  29.755  1.00  0.00     0.074 A 
ATOM     58  C   UNL A   1      46.447  25.245  29.378  1.00  0.00     0.031 C 
ATOM     59  C   UNL A   1      46.813  27.502  30.338  1.00  0.00     0.031 A 
BRANCH  46  60
ATOM     60  C   UNL A   1      44.005  32.896  31.488  1.00  0.00    -0.014 A 
ATOM     61  C   UNL A   1      43.742  33.222  32.831  1.00  0.00     0.010 A 
ATOM     62  C   UNL A   1      44.382  33.917  30.597  1.00  0.00     0.010 A 
ATOM     63  C   UNL A   1      43.796  34.551  33.261  1.00  0.00     0.020 A 
ATOM     64  C   UNL A   1      44.465  35.244  31.031  1.00  0.00     0.020 A 
ATOM     65  C   UNL A   1      44.148  35.555  32.354  1.00  0.00     0.054 A 
BRANCH  65  66
ATOM     66  S   UNL A   1      44.202  37.273  32.935  1.00  0.00     0.124 S 
ATOM     67  O   UNL A   1      43.048  37.323  33.828  1.00  0.00    -0.237 OA
ATOM     68  O   UNL A   1      45.506  37.351  33.589  1.00  0.00    -0.237 OA
ATOM     69  O   UNL A   1      44.076  38.056  31.708  1.00  0.00    -0.744 OA
ENDBRANCH  65  66
ENDBRANCH  46  60
BRANCH  47  70
ATOM     70  C   UNL A   1      42.859  23.687  27.783  1.00  0.00    -0.014 A 
ATOM     71  C   UNL A   1      42.411  22.634  28.599  1.00  0.00     0.010 A 
ATOM     72  C   UNL A   1      43.111  23.439  26.421  1.00  0.00     0.010 A 
ATOM     73  C   UNL A   1      42.223  21.355  28.066  1.00  0.00     0.020 A 
ATOM     74  C   UNL A   1      42.901  22.167  25.879  1.00  0.00     0.020 A 
ATOM     75  C   UNL A   1      42.465  21.132  26.708  1.00  0.00     0.054 A 
BRANCH  75  76
ATOM     76  S   UNL A   1      42.143  19.483  26.023  1.00  0.00     0.124 S 
ATOM     77  O   UNL A   1      40.697  19.514  25.823  1.00  0.00    -0.237 OA
ATOM     78  O   UNL A   1      42.951  19.482  24.805  1.00  0.00    -0.237 OA
ATOM     79  O   UNL A   1      42.611  18.580  27.072  1.00  0.00    -0.744 OA
ENDBRANCH  75  76
ENDBRANCH  47  70
BRANCH  59  80
ATOM     80  C   UNL A   1      48.235  27.105  30.628  1.00  0.00    -0.014 A 
ATOM     81  C   UNL A   1      49.235  27.208  29.644  1.00  0.00     0.010 A 
ATOM     82  C   UNL A   1      48.584  26.674  31.920  1.00  0.00     0.010 A 
ATOM     83  C   UNL A   1      50.555  26.860  29.942  1.00  0.00     0.020 A 
ATOM     84  C   UNL A   1      49.907  26.349  32.228  1.00  0.00     0.020 A 
ATOM     85  C   UNL A   1      50.883  26.432  31.233  1.00  0.00     0.054 A 
BRANCH  85  86
ATOM     86  S   UNL A   1      52.611  26.031  31.610  1.00  0.00     0.124 S 
ATOM     87  O   UNL A   1      52.504  24.663  32.109  1.00  0.00    -0.237 OA
ATOM     88  O   UNL A   1      53.266  26.178  30.312  1.00  0.00    -0.237 OA
ATOM     89  O   UNL A   1      52.989  27.032  32.606  1.00  0.00    -0.744 OA
ENDBRANCH  85  86
ENDBRANCH  59  80
ENDBRANCH  33  34
ENDBRANCH  25  28
ENDBRANCH  23  24
ENDBRANCH  22  23
ENDBRANCH   1  22
TORSDOF 18
ENDMDL
MODEL 2
REMARK VINA RESULT:      -8.3      3.071     10.385
REMARK SMILES CC[C@@H](C)N(C)c1ccc(/C=C/C(=O)NCCCCNC(=O)c2ccc(-c3c4nc(c(-c5ccc(S(=O)(=O)[O-])cc5)c5ccc([nH]5)c(-c5ccc(S(=O)(=O)[O-])cc5)c5nc(c(-c6ccc(S(=O)(=O)[O-])cc6)c6ccc3[nH]6)C=C5)C=C4)cc2)cc1F
REMARK SMILES IDX 17 1 16 2 15 3 13 4 14 5 12 7 11 8 10 9 7 10 8 11 84 12 9 13
REMARK SMILES IDX 83 14 85 15 5 16 6 17 3 18 4 19 2 20 1 21 18 22 19 23 20 24
REMARK SMILES IDX 21 25 22 27 23 28 24 29 82 30 25 31 81 32 26 33 27 34 28 35
REMARK SMILES IDX 75 36 29 37 80 38 74 39 76 40 30 41 79 42 73 43 72 44 31 46
REMARK SMILES IDX 61 47 42 48 60 49 43 50 46 51 59 52 77 53 44 54 45 55 58 57
REMARK SMILES IDX 78 58 47 59 32 60 33 61 41 62 34 63 40 64 35 65 36 66 37 67
REMARK SMILES IDX 38 68 39 69 62 70 63 71 71 72 64 73 70 74 65 75 66 76 67 77
REMARK SMILES IDX 68 78 69 79 48 80 49 81 57 82 50 83 56 84 51 85 52 86 53 87
REMARK SMILES IDX 54 88 55 89
REMARK H PARENT 15 6 20 26 76 45 46 56
REMARK Flexibility Score: inf
ROOT
ATOM      1  C   UNL A   1      42.341  22.304  27.695  1.00  0.00     0.023 C 
ENDROOT
BRANCH   1   2
ATOM      2  C   UNL A   1      43.809  22.597  27.390  1.00  0.00     0.116 C 
BRANCH   2   3
ATOM      3  N   UNL A   1      44.058  22.633  25.958  1.00  0.00    -0.353 N 
ATOM      4  C   UNL A   1      44.258  23.696  25.130  1.00  0.00     0.243 C 
ATOM      5  O   UNL A   1      44.575  23.521  23.957  1.00  0.00    -0.270 OA
ATOM      6  H   UNL A   1      44.086  21.752  25.519  1.00  0.00     0.163 HD
BRANCH   4   7
ATOM      7  C   UNL A   1      44.182  25.074  25.664  1.00  0.00     0.072 C 
ATOM      8  C   UNL A   1      45.134  25.990  25.439  1.00  0.00     0.014 C 
BRANCH   8   9
ATOM      9  C   UNL A   1      45.087  27.376  25.913  1.00  0.00    -0.022 A 
ATOM     10  C   UNL A   1      44.861  30.093  26.761  1.00  0.00     0.073 A 
ATOM     11  C   UNL A   1      46.096  29.539  26.381  1.00  0.00     0.029 A 
ATOM     12  C   UNL A   1      43.747  29.242  26.686  1.00  0.00     0.147 A 
ATOM     13  C   UNL A   1      46.211  28.205  25.960  1.00  0.00     0.010 A 
ATOM     14  C   UNL A   1      43.851  27.912  26.275  1.00  0.00     0.049 A 
ATOM     15  F   UNL A   1      42.514  29.704  26.945  1.00  0.00    -0.205 F 
BRANCH  10  16
ATOM     16  N   UNL A   1      44.761  31.428  27.149  1.00  0.00    -0.370 N 
ATOM     17  C   UNL A   1      45.127  32.435  26.162  1.00  0.00     0.144 C 
BRANCH  16  18
ATOM     18  C   UNL A   1      44.760  31.827  28.575  1.00  0.00     0.078 C 
ATOM     19  C   UNL A   1      43.499  32.616  28.935  1.00  0.00     0.031 C 
BRANCH  18  20
ATOM     20  C   UNL A   1      46.054  32.553  28.975  1.00  0.00     0.021 C 
ATOM     21  C   UNL A   1      45.875  33.521  30.137  1.00  0.00     0.006 C 
ENDBRANCH  18  20
ENDBRANCH  16  18
ENDBRANCH  10  16
ENDBRANCH   8   9
ENDBRANCH   4   7
ENDBRANCH   2   3
ENDBRANCH   1   2
BRANCH   1  22
ATOM     22  C   UNL A   1      41.488  21.976  26.465  1.00  0.00     0.023 C 
BRANCH  22  23
ATOM     23  C   UNL A   1      40.079  21.476  26.767  1.00  0.00     0.116 C 
BRANCH  23  24
ATOM     24  N   UNL A   1      39.072  22.001  25.859  1.00  0.00    -0.352 N 
ATOM     25  C   UNL A   1      38.604  23.292  25.753  1.00  0.00     0.251 C 
ATOM     26  H   UNL A   1      38.672  21.349  25.239  1.00  0.00     0.163 HD
ATOM     27  O   UNL A   1      37.676  23.553  25.000  1.00  0.00    -0.269 OA
BRANCH  25  28
ATOM     28  C   UNL A   1      39.210  24.349  26.591  1.00  0.00     0.039 A 
ATOM     29  C   UNL A   1      40.101  25.248  26.000  1.00  0.00     0.014 A 
ATOM     30  C   UNL A   1      38.869  24.473  27.940  1.00  0.00     0.014 A 
ATOM     31  C   UNL A   1      40.596  26.319  26.748  1.00  0.00     0.010 A 
ATOM     32  C   UNL A   1      39.311  25.578  28.663  1.00  0.00     0.010 A 
ATOM     33  C   UNL A   1      40.175  26.512  28.073  1.00  0.00    -0.014 A 
BRANCH  33  34
ATOM     34  C   UNL A   1      40.615  27.694  28.856  1.00  0.00     0.031 A 
ATOM     35  C   UNL A   1      41.961  27.698  29.528  1.00  0.00     0.074 A 
ATOM     36  C   UNL A   1      39.773  28.732  29.024  1.00  0.00     0.049 A 
ATOM     37  N   UNL A   1      42.494  28.610  30.298  1.00  0.00    -0.248 NA
ATOM     38  C   UNL A   1      42.805  26.509  29.328  1.00  0.00     0.031 C 
ATOM     39  C   UNL A   1      38.424  28.829  28.463  1.00  0.00     0.029 A 
ATOM     40  N   UNL A   1      39.925  29.904  29.724  1.00  0.00    -0.354 N 
ATOM     41  C   UNL A   1      43.726  28.098  30.692  1.00  0.00     0.074 A 
ATOM     42  C   UNL A   1      43.837  26.777  30.113  1.00  0.00     0.031 C 
ATOM     43  C   UNL A   1      37.884  30.007  28.816  1.00  0.00     0.029 A 
ATOM     44  C   UNL A   1      38.831  30.732  29.657  1.00  0.00     0.049 A 
ATOM     45  H   UNL A   1      40.742  30.129  30.226  1.00  0.00     0.167 HD
ATOM     46  C   UNL A   1      44.684  28.681  31.452  1.00  0.00     0.031 A 
ATOM     47  C   UNL A   1      38.611  31.939  30.213  1.00  0.00     0.031 A 
ATOM     48  C   UNL A   1      44.573  30.000  32.017  1.00  0.00     0.049 A 
ATOM     49  C   UNL A   1      39.688  32.569  31.050  1.00  0.00     0.074 A 
ATOM     50  C   UNL A   1      45.513  30.703  32.750  1.00  0.00     0.029 A 
ATOM     51  N   UNL A   1      43.454  30.812  31.916  1.00  0.00    -0.354 N 
ATOM     52  N   UNL A   1      40.874  32.098  31.356  1.00  0.00    -0.248 NA
ATOM     53  C   UNL A   1      39.404  33.899  31.608  1.00  0.00     0.031 C 
ATOM     54  C   UNL A   1      44.943  31.925  33.131  1.00  0.00     0.029 A 
ATOM     55  C   UNL A   1      43.669  32.002  32.590  1.00  0.00     0.049 A 
ATOM     56  H   UNL A   1      42.627  30.577  31.435  1.00  0.00     0.167 HD
ATOM     57  C   UNL A   1      41.486  33.084  32.122  1.00  0.00     0.074 A 
ATOM     58  C   UNL A   1      40.545  34.181  32.222  1.00  0.00     0.031 C 
ATOM     59  C   UNL A   1      42.719  33.082  32.685  1.00  0.00     0.031 A 
BRANCH  46  60
ATOM     60  C   UNL A   1      45.931  27.881  31.720  1.00  0.00    -0.014 A 
ATOM     61  C   UNL A   1      46.974  27.825  30.778  1.00  0.00     0.010 A 
ATOM     62  C   UNL A   1      46.065  27.179  32.932  1.00  0.00     0.010 A 
ATOM     63  C   UNL A   1      48.103  27.035  31.017  1.00  0.00     0.020 A 
ATOM     64  C   UNL A   1      47.205  26.411  33.187  1.00  0.00     0.020 A 
ATOM     65  C   UNL A   1      48.205  26.325  32.217  1.00  0.00     0.054 A 
BRANCH  65  66
ATOM     66  S   UNL A   1      49.675  25.300  32.499  1.00  0.00     0.124 S 
ATOM     67  O   UNL A   1      49.134  24.222  33.324  1.00  0.00    -0.237 OA
ATOM     68  O   UNL A   1      50.067  24.917  31.145  1.00  0.00    -0.237 OA
ATOM     69  O   UNL A   1      50.600  26.202  33.180  1.00  0.00    -0.744 OA
ENDBRANCH  65  66
ENDBRANCH  46  60
BRANCH  47  70
ATOM     70  C   UNL A   1      37.324  32.642  29.963  1.00  0.00    -0.014 A 
ATOM     71  C   UNL A   1      36.249  32.494  30.858  1.00  0.00     0.010 A 
ATOM     72  C   UNL A   1      37.176  33.491  28.850  1.00  0.00     0.010 A 
ATOM     73  C   UNL A   1      35.050  33.178  30.643  1.00  0.00     0.020 A 
ATOM     74  C   UNL A   1      35.986  34.194  28.645  1.00  0.00     0.020 A 
ATOM     75  C   UNL A   1      34.927  34.027  29.540  1.00  0.00     0.054 A 
BRANCH  75  76
ATOM     76  S   UNL A   1      33.386  34.961  29.323  1.00  0.00     0.124 S 
ATOM     77  O   UNL A   1      33.878  36.252  28.851  1.00  0.00    -0.237 OA
ATOM     78  O   UNL A   1      32.666  34.158  28.338  1.00  0.00    -0.237 OA
ATOM     79  O   UNL A   1      32.798  34.965  30.661  1.00  0.00    -0.744 OA
ENDBRANCH  75  76
ENDBRANCH  47  70
BRANCH  59  80
ATOM     80  C   UNL A   1      43.135  34.314  33.443  1.00  0.00    -0.014 A 
ATOM     81  C   UNL A   1      43.790  35.378  32.798  1.00  0.00     0.010 A 
ATOM     82  C   UNL A   1      42.817  34.428  34.808  1.00  0.00     0.010 A 
ATOM     83  C   UNL A   1      44.143  36.526  33.514  1.00  0.00     0.020 A 
ATOM     84  C   UNL A   1      43.147  35.584  35.521  1.00  0.00     0.020 A 
ATOM     85  C   UNL A   1      43.820  36.621  34.871  1.00  0.00     0.054 A 
BRANCH  85  86
ATOM     86  S   UNL A   1      44.245  38.139  35.768  1.00  0.00     0.124 S 
ATOM     87  O   UNL A   1      43.720  39.173  34.880  1.00  0.00    -0.237 OA
ATOM     88  O   UNL A   1      43.533  37.976  37.033  1.00  0.00    -0.237 OA
ATOM     89  O   UNL A   1      45.702  38.084  35.870  1.00  0.00    -0.744 OA
ENDBRANCH  85  86
ENDBRANCH  59  80
ENDBRANCH  33  34
ENDBRANCH  25  28
ENDBRANCH  23  24
ENDBRANCH  22  23
ENDBRANCH   1  22
TORSDOF 18
ENDMDL
MODEL 3
REMARK VINA RESULT:      -8.3      0.670      8.280
REMARK SMILES CC[C@@H](C)N(C)c1ccc(/C=C/C(=O)NCCCCNC(=O)c2ccc(-c3c4nc(c(-c5ccc(S(=O)(=O)[O-])cc5)c5ccc([nH]5)c(-c5ccc(S(=O)(=O)[O-])cc5)c5nc(c(-c6ccc(S(=O)(=O)[O-])cc6)c6ccc3[nH]6)C=C5)C=C4)cc2)cc1F
REMARK SMILES IDX 17 1 16 2 15 3 13 4 14 5 12 7 11 8 10 9 7 10 8 11 84 12 9 13
REMARK SMILES IDX 83 14 85 15 5 16 6 17 3 18 4 19 2 20 1 21 18 22 19 23 20 24
REMARK SMILES IDX 21 25 22 27 23 28 24 29 82 30 25 31 81 32 26 33 27 34 28 35
REMARK SMILES IDX 75 36 29 37 80 38 74 39 76 40 30 41 79 42 73 43 72 44 31 46
REMARK SMILES IDX 61 47 42 48 60 49 43 50 46 51 59 52 77 53 44 54 45 55 58 57
REMARK SMILES IDX 78 58 47 59 32 60 33 61 41 62 34 63 40 64 35 65 36 66 37 67
REMARK SMILES IDX 38 68 39 69 62 70 63 71 71 72 64 73 70 74 65 75 66 76 67 77
REMARK SMILES IDX 68 78 69 79 48 80 49 81 57 82 50 83 56 84 51 85 52 86 53 87
REMARK SMILES IDX 54 88 55 89
REMARK H PARENT 15 6 20 26 76 45 46 56
REMARK Flexibility Score: inf
ROOT
ATOM      1  C   UNL A   1      35.690  33.667  29.582  1.00  0.00     0.023 C 
ENDROOT
BRANCH   1   2
ATOM      2  C   UNL A   1      36.697  33.242  30.650  1.00  0.00     0.116 C 
BRANCH   2   3
ATOM      3  N   UNL A   1      36.613  34.089  31.829  1.00  0.00    -0.353 N 
ATOM      4  C   UNL A   1      37.405  34.131  32.936  1.00  0.00     0.243 C 
ATOM      5  O   UNL A   1      37.246  35.005  33.782  1.00  0.00    -0.270 OA
ATOM      6  H   UNL A   1      35.868  34.733  31.825  1.00  0.00     0.163 HD
BRANCH   4   7
ATOM      7  C   UNL A   1      38.523  33.172  33.082  1.00  0.00     0.072 C 
ATOM      8  C   UNL A   1      38.354  31.933  33.563  1.00  0.00     0.014 C 
BRANCH   8   9
ATOM      9  C   UNL A   1      39.421  30.935  33.692  1.00  0.00    -0.022 A 
ATOM     10  C   UNL A   1      41.388  28.884  33.961  1.00  0.00     0.073 A 
ATOM     11  C   UNL A   1      41.564  30.154  34.535  1.00  0.00     0.029 A 
ATOM     12  C   UNL A   1      40.187  28.676  33.264  1.00  0.00     0.147 A 
ATOM     13  C   UNL A   1      40.598  31.165  34.408  1.00  0.00     0.010 A 
ATOM     14  C   UNL A   1      39.222  29.676  33.126  1.00  0.00     0.049 A 
ATOM     15  F   UNL A   1      39.890  27.471  32.755  1.00  0.00    -0.205 F 
BRANCH  10  16
ATOM     16  N   UNL A   1      42.345  27.883  34.121  1.00  0.00    -0.370 N 
ATOM     17  C   UNL A   1      42.256  27.067  35.325  1.00  0.00     0.144 C 
BRANCH  16  18
ATOM     18  C   UNL A   1      43.642  27.924  33.408  1.00  0.00     0.078 C 
ATOM     19  C   UNL A   1      44.033  26.544  32.876  1.00  0.00     0.031 C 
BRANCH  18  20
ATOM     20  C   UNL A   1      44.748  28.573  34.255  1.00  0.00     0.021 C 
ATOM     21  C   UNL A   1      45.707  27.567  34.877  1.00  0.00     0.006 C 
ENDBRANCH  18  20
ENDBRANCH  16  18
ENDBRANCH  10  16
ENDBRANCH   8   9
ENDBRANCH   4   7
ENDBRANCH   2   3
ENDBRANCH   1   2
BRANCH   1  22
ATOM     22  C   UNL A   1      34.515  32.702  29.394  1.00  0.00     0.023 C 
BRANCH  22  23
ATOM     23  C   UNL A   1      34.233  32.295  27.952  1.00  0.00     0.116 C 
BRANCH  23  24
ATOM     24  N   UNL A   1      33.661  30.964  27.827  1.00  0.00    -0.352 N 
ATOM     25  C   UNL A   1      34.302  29.747  27.899  1.00  0.00     0.251 C 
ATOM     26  H   UNL A   1      32.690  30.928  27.672  1.00  0.00     0.163 HD
ATOM     27  O   UNL A   1      33.690  28.712  27.671  1.00  0.00    -0.269 OA
BRANCH  25  28
ATOM     28  C   UNL A   1      35.747  29.712  28.211  1.00  0.00     0.039 A 
ATOM     29  C   UNL A   1      36.146  29.409  29.514  1.00  0.00     0.014 A 
ATOM     30  C   UNL A   1      36.699  29.935  27.213  1.00  0.00     0.014 A 
ATOM     31  C   UNL A   1      37.505  29.261  29.802  1.00  0.00     0.010 A 
ATOM     32  C   UNL A   1      38.047  29.721  27.486  1.00  0.00     0.010 A 
ATOM     33  C   UNL A   1      38.462  29.378  28.781  1.00  0.00    -0.014 A 
BRANCH  33  34
ATOM     34  C   UNL A   1      39.902  29.133  29.045  1.00  0.00     0.031 A 
ATOM     35  C   UNL A   1      40.521  27.808  28.694  1.00  0.00     0.074 A 
ATOM     36  C   UNL A   1      40.634  30.077  29.670  1.00  0.00     0.049 A 
ATOM     37  N   UNL A   1      41.742  27.389  28.901  1.00  0.00    -0.248 NA
ATOM     38  C   UNL A   1      39.644  26.817  28.051  1.00  0.00     0.031 C 
ATOM     39  C   UNL A   1      40.138  31.385  30.104  1.00  0.00     0.029 A 
ATOM     40  N   UNL A   1      41.951  30.077  30.056  1.00  0.00    -0.354 N 
ATOM     41  C   UNL A   1      41.776  26.080  28.432  1.00  0.00     0.074 A 
ATOM     42  C   UNL A   1      40.441  25.762  27.975  1.00  0.00     0.031 C 
ATOM     43  C   UNL A   1      41.145  32.071  30.669  1.00  0.00     0.029 A 
ATOM     44  C   UNL A   1      42.345  31.240  30.673  1.00  0.00     0.049 A 
ATOM     45  H   UNL A   1      42.557  29.316  29.905  1.00  0.00     0.167 HD
ATOM     46  C   UNL A   1      42.826  25.227  28.372  1.00  0.00     0.031 A 
ATOM     47  C   UNL A   1      43.537  31.599  31.187  1.00  0.00     0.031 A 
ATOM     48  C   UNL A   1      44.156  25.551  28.818  1.00  0.00     0.049 A 
ATOM     49  C   UNL A   1      44.690  30.639  31.107  1.00  0.00     0.074 A 
ATOM     50  C   UNL A   1      45.301  24.778  28.745  1.00  0.00     0.029 A 
ATOM     51  N   UNL A   1      44.517  26.745  29.425  1.00  0.00    -0.354 N 
ATOM     52  N   UNL A   1      44.720  29.429  30.598  1.00  0.00    -0.248 NA
ATOM     53  C   UNL A   1      45.974  31.095  31.658  1.00  0.00     0.031 C 
ATOM     54  C   UNL A   1      46.346  25.489  29.348  1.00  0.00     0.029 A 
ATOM     55  C   UNL A   1      45.862  26.723  29.750  1.00  0.00     0.049 A 
ATOM     56  H   UNL A   1      43.906  27.498  29.599  1.00  0.00     0.167 HD
ATOM     57  C   UNL A   1      46.030  28.989  30.748  1.00  0.00     0.074 A 
ATOM     58  C   UNL A   1      46.764  30.066  31.382  1.00  0.00     0.031 C 
ATOM     59  C   UNL A   1      46.576  27.802  30.387  1.00  0.00     0.031 A 
BRANCH  46  60
ATOM     60  C   UNL A   1      42.567  23.854  27.811  1.00  0.00    -0.014 A 
ATOM     61  C   UNL A   1      42.138  22.800  28.639  1.00  0.00     0.010 A 
ATOM     62  C   UNL A   1      42.750  23.614  26.437  1.00  0.00     0.010 A 
ATOM     63  C   UNL A   1      41.954  21.518  28.115  1.00  0.00     0.020 A 
ATOM     64  C   UNL A   1      42.538  22.338  25.904  1.00  0.00     0.020 A 
ATOM     65  C   UNL A   1      42.165  21.293  26.751  1.00  0.00     0.054 A 
BRANCH  65  66
ATOM     66  S   UNL A   1      41.927  19.618  26.097  1.00  0.00     0.124 S 
ATOM     67  O   UNL A   1      42.312  18.794  27.240  1.00  0.00    -0.237 OA
ATOM     68  O   UNL A   1      40.506  19.601  25.762  1.00  0.00    -0.237 OA
ATOM     69  O   UNL A   1      42.835  19.561  24.954  1.00  0.00    -0.744 OA
ENDBRANCH  65  66
ENDBRANCH  46  60
BRANCH  47  70
ATOM     70  C   UNL A   1      43.703  32.948  31.792  1.00  0.00    -0.014 A 
ATOM     71  C   UNL A   1      43.481  33.140  33.167  1.00  0.00     0.010 A 
ATOM     72  C   UNL A   1      44.118  34.039  31.006  1.00  0.00     0.010 A 
ATOM     73  C   UNL A   1      43.666  34.399  33.745  1.00  0.00     0.020 A 
ATOM     74  C   UNL A   1      44.326  35.294  31.585  1.00  0.00     0.020 A 
ATOM     75  C   UNL A   1      44.092  35.467  32.951  1.00  0.00     0.054 A 
BRANCH  75  76
ATOM     76  S   UNL A   1      44.397  37.074  33.738  1.00  0.00     0.124 S 
ATOM     77  O   UNL A   1      43.053  37.638  33.806  1.00  0.00    -0.237 OA
ATOM     78  O   UNL A   1      44.990  36.692  35.017  1.00  0.00    -0.237 OA
ATOM     79  O   UNL A   1      45.310  37.740  32.811  1.00  0.00    -0.744 OA
ENDBRANCH  75  76
ENDBRANCH  47  70
BRANCH  59  80
ATOM     80  C   UNL A   1      48.047  27.610  30.645  1.00  0.00    -0.014 A 
ATOM     81  C   UNL A   1      48.507  27.044  31.846  1.00  0.00     0.010 A 
ATOM     82  C   UNL A   1      48.976  27.953  29.646  1.00  0.00     0.010 A 
ATOM     83  C   UNL A   1      49.876  26.848  32.055  1.00  0.00     0.020 A 
ATOM     84  C   UNL A   1      50.342  27.737  29.841  1.00  0.00     0.020 A 
ATOM     85  C   UNL A   1      50.784  27.197  31.051  1.00  0.00     0.054 A 
BRANCH  85  86
ATOM     86  S   UNL A   1      52.551  26.890  31.324  1.00  0.00     0.124 S 
ATOM     87  O   UNL A   1      52.987  26.432  30.008  1.00  0.00    -0.237 OA
ATOM     88  O   UNL A   1      53.047  28.204  31.729  1.00  0.00    -0.237 OA
ATOM     89  O   UNL A   1      52.567  25.875  32.376  1.00  0.00    -0.744 OA
ENDBRANCH  85  86
ENDBRANCH  59  80
ENDBRANCH  33  34
ENDBRANCH  25  28
ENDBRANCH  23  24
ENDBRANCH  22  23
ENDBRANCH   1  22
TORSDOF 18
ENDMDL
