MODEL 1
REMARK VINA RESULT:     -11.2      0.000      0.000
REMARK SMILES O=C(NCCCCNC(=O)c1cc(Br)ccc1OCc1ccccc1F)c1ccc(-c2c3nc(c(-c4ccc(S(=O)(=O)[O-])cc4)c4ccc([nH]4)c(-c4ccc(S(=O)(=O)[O-])cc4)c4nc(c(-c5ccc(S(=O)(=O)[O-])cc5)c5ccc2[nH]5)C=C4)C=C3)cc1
REMARK SMILES IDX 5 1 4 2 3 3 1 4 2 5 27 7 28 8 86 9 29 10 85 11 30 12 31 13
REMARK SMILES IDX 32 14 79 15 33 16 84 17 78 18 80 19 34 20 83 21 77 22 76 23
REMARK SMILES IDX 35 25 65 26 46 27 64 28 47 29 50 30 63 31 81 32 48 33 49 34
REMARK SMILES IDX 62 36 82 37 51 38 36 39 37 40 45 41 38 42 44 43 39 44 40 45
REMARK SMILES IDX 41 46 42 47 43 48 66 49 67 50 75 51 68 52 74 53 69 54 70 55
REMARK SMILES IDX 71 56 72 57 73 58 52 59 53 60 61 61 54 62 60 63 55 64 56 65
REMARK SMILES IDX 57 66 58 67 59 68 6 69 7 70 8 71 9 72 10 74 11 75 12 76
REMARK SMILES IDX 17 77 13 78 16 79 14 80 15 81 18 82 19 83 20 84 21 85 25 86
REMARK SMILES IDX 22 87 24 88 26 89 23 90
REMARK H PARENT 3 6 80 24 50 35 8 73
REMARK Flexibility Score: inf
ROOT
ATOM      1  C   UNL A   1      33.636  29.228  26.769  1.00  0.00     0.023 C 
ENDROOT
BRANCH   1   2
ATOM      2  C   UNL A   1      35.005  29.235  27.445  1.00  0.00     0.116 C 
BRANCH   2   3
ATOM      3  N   UNL A   1      35.038  29.942  28.710  1.00  0.00    -0.352 N 
ATOM      4  O   UNL A   1      35.881  30.846  30.578  1.00  0.00    -0.269 OA
ATOM      5  C   UNL A   1      36.102  30.262  29.519  1.00  0.00     0.251 C 
ATOM      6  H   UNL A   1      34.161  30.242  29.040  1.00  0.00     0.163 HD
BRANCH   5   7
ATOM      7  C   UNL A   1      37.495  29.880  29.169  1.00  0.00     0.039 A 
ATOM      8  C   UNL A   1      37.960  29.847  27.851  1.00  0.00     0.014 A 
ATOM      9  C   UNL A   1      38.379  29.597  30.217  1.00  0.00     0.014 A 
ATOM     10  C   UNL A   1      39.270  29.438  27.580  1.00  0.00     0.010 A 
ATOM     11  C   UNL A   1      39.702  29.232  29.948  1.00  0.00     0.010 A 
ATOM     12  C   UNL A   1      40.153  29.125  28.626  1.00  0.00    -0.014 A 
BRANCH  12  13
ATOM     13  C   UNL A   1      41.557  28.740  28.334  1.00  0.00     0.031 A 
ATOM     14  C   UNL A   1      42.665  29.757  28.369  1.00  0.00     0.074 A 
ATOM     15  C   UNL A   1      41.836  27.461  28.017  1.00  0.00     0.049 A 
ATOM     16  N   UNL A   1      43.943  29.586  28.144  1.00  0.00    -0.248 NA
ATOM     17  C   UNL A   1      42.291  31.143  28.692  1.00  0.00     0.031 C 
ATOM     18  C   UNL A   1      40.853  26.379  27.915  1.00  0.00     0.029 A 
ATOM     19  N   UNL A   1      43.030  26.856  27.716  1.00  0.00    -0.354 N 
ATOM     20  C   UNL A   1      44.526  30.840  28.280  1.00  0.00     0.074 A 
ATOM     21  C   UNL A   1      43.458  31.767  28.597  1.00  0.00     0.031 C 
ATOM     22  C   UNL A   1      41.487  25.241  27.593  1.00  0.00     0.029 A 
ATOM     23  C   UNL A   1      42.912  25.516  27.438  1.00  0.00     0.049 A 
ATOM     24  H   UNL A   1      43.889  27.336  27.700  1.00  0.00     0.167 HD
ATOM     25  C   UNL A   1      45.828  31.189  28.158  1.00  0.00     0.031 A 
ATOM     26  C   UNL A   1      43.841  24.607  27.086  1.00  0.00     0.031 A 
ATOM     27  C   UNL A   1      46.899  30.274  27.867  1.00  0.00     0.049 A 
ATOM     28  C   UNL A   1      45.274  25.022  26.944  1.00  0.00     0.074 A 
ATOM     29  C   UNL A   1      48.260  30.527  27.816  1.00  0.00     0.029 A 
ATOM     30  N   UNL A   1      46.732  28.933  27.564  1.00  0.00    -0.354 N 
ATOM     31  N   UNL A   1      45.811  26.201  27.143  1.00  0.00    -0.248 NA
ATOM     32  C   UNL A   1      46.225  23.984  26.521  1.00  0.00     0.031 C 
ATOM     33  C   UNL A   1      48.914  29.343  27.451  1.00  0.00     0.029 A 
ATOM     34  C   UNL A   1      47.960  28.352  27.294  1.00  0.00     0.049 A 
ATOM     35  H   UNL A   1      45.868  28.462  27.545  1.00  0.00     0.167 HD
ATOM     36  C   UNL A   1      47.162  26.049  26.864  1.00  0.00     0.074 A 
ATOM     37  C   UNL A   1      47.366  24.661  26.497  1.00  0.00     0.031 C 
ATOM     38  C   UNL A   1      48.146  26.979  26.907  1.00  0.00     0.031 A 
BRANCH  25  39
ATOM     39  C   UNL A   1      46.175  32.639  28.336  1.00  0.00    -0.014 A 
ATOM     40  C   UNL A   1      46.192  33.513  27.237  1.00  0.00     0.010 A 
ATOM     41  C   UNL A   1      46.434  33.143  29.623  1.00  0.00     0.010 A 
ATOM     42  C   UNL A   1      46.486  34.867  27.417  1.00  0.00     0.020 A 
ATOM     43  C   UNL A   1      46.722  34.497  29.809  1.00  0.00     0.020 A 
ATOM     44  C   UNL A   1      46.759  35.348  28.702  1.00  0.00     0.054 A 
BRANCH  44  45
ATOM     45  S   UNL A   1      47.117  37.113  28.925  1.00  0.00     0.124 S 
ATOM     46  O   UNL A   1      45.815  37.633  29.335  1.00  0.00    -0.237 OA
ATOM     47  O   UNL A   1      48.146  37.111  29.963  1.00  0.00    -0.237 OA
ATOM     48  O   UNL A   1      47.572  37.541  27.604  1.00  0.00    -0.744 OA
ENDBRANCH  44  45
ENDBRANCH  25  39
BRANCH  26  49
ATOM     49  C   UNL A   1      43.427  23.207  26.825  1.00  0.00    -0.014 A 
ATOM     50  C   UNL A   1      43.622  22.636  25.556  1.00  0.00     0.010 A 
ATOM     51  C   UNL A   1      42.876  22.430  27.858  1.00  0.00     0.010 A 
ATOM     52  C   UNL A   1      43.275  21.303  25.324  1.00  0.00     0.020 A 
ATOM     53  C   UNL A   1      42.538  21.094  27.632  1.00  0.00     0.020 A 
ATOM     54  C   UNL A   1      42.735  20.540  26.364  1.00  0.00     0.054 A 
BRANCH  54  55
ATOM     55  S   UNL A   1      42.362  18.785  26.090  1.00  0.00     0.124 S 
ATOM     56  O   UNL A   1      40.962  18.834  25.684  1.00  0.00    -0.237 OA
ATOM     57  O   UNL A   1      43.310  18.405  25.046  1.00  0.00    -0.237 OA
ATOM     58  O   UNL A   1      42.620  18.187  27.398  1.00  0.00    -0.744 OA
ENDBRANCH  54  55
ENDBRANCH  26  49
BRANCH  38  59
ATOM     59  C   UNL A   1      49.527  26.528  26.529  1.00  0.00    -0.014 A 
ATOM     60  C   UNL A   1      50.353  25.904  27.480  1.00  0.00     0.010 A 
ATOM     61  C   UNL A   1      49.993  26.706  25.216  1.00  0.00     0.010 A 
ATOM     62  C   UNL A   1      51.638  25.485  27.129  1.00  0.00     0.020 A 
ATOM     63  C   UNL A   1      51.275  26.278  24.860  1.00  0.00     0.020 A 
ATOM     64  C   UNL A   1      52.095  25.683  25.822  1.00  0.00     0.054 A 
BRANCH  64  65
ATOM     65  S   UNL A   1      53.754  25.107  25.364  1.00  0.00     0.124 S 
ATOM     66  O   UNL A   1      53.615  23.660  25.484  1.00  0.00    -0.237 OA
ATOM     67  O   UNL A   1      53.917  25.612  24.002  1.00  0.00    -0.237 OA
ATOM     68  O   UNL A   1      54.617  25.739  26.360  1.00  0.00    -0.744 OA
ENDBRANCH  64  65
ENDBRANCH  38  59
ENDBRANCH  12  13
ENDBRANCH   5   7
ENDBRANCH   2   3
ENDBRANCH   1   2
BRANCH   1  69
ATOM     69  C   UNL A   1      32.819  27.934  26.825  1.00  0.00     0.023 C 
BRANCH  69  70
ATOM     70  C   UNL A   1      33.369  26.723  26.079  1.00  0.00     0.116 C 
BRANCH  70  71
ATOM     71  N   UNL A   1      32.733  25.464  26.421  1.00  0.00    -0.352 N 
ATOM     72  C   UNL A   1      33.190  24.185  26.238  1.00  0.00     0.255 C 
ATOM     73  H   UNL A   1      31.848  25.541  26.844  1.00  0.00     0.163 HD
ATOM     74  O   UNL A   1      32.694  23.252  26.857  1.00  0.00    -0.269 OA
BRANCH  72  75
ATOM     75  C   UNL A   1      34.332  23.932  25.351  1.00  0.00     0.082 A 
ATOM     76  C   UNL A   1      35.572  23.857  26.014  1.00  0.00     0.033 A 
ATOM     77  C   UNL A   1      34.239  23.656  23.980  1.00  0.00     0.132 A 
ATOM     78  C   UNL A   1      36.727  23.544  25.305  1.00  0.00     0.019 A 
ATOM     79  C   UNL A   1      35.424  23.337  23.293  1.00  0.00     0.048 A 
ATOM     80  Br  UNL A   1      38.387  23.450  26.201  1.00  0.00    -0.051 Br
ATOM     81  C   UNL A   1      36.661  23.287  23.943  1.00  0.00     0.019 A 
BRANCH  77  82
ATOM     82  O   UNL A   1      33.159  23.595  23.146  1.00  0.00    -0.488 OA
BRANCH  82  83
ATOM     83  C   UNL A   1      32.989  24.490  22.047  1.00  0.00     0.268 C 
BRANCH  83  84
ATOM     84  C   UNL A   1      32.617  25.890  22.457  1.00  0.00     0.025 A 
ATOM     85  C   UNL A   1      33.506  26.971  22.365  1.00  0.00     0.010 A 
ATOM     86  C   UNL A   1      31.334  26.128  22.961  1.00  0.00     0.129 A 
ATOM     87  C   UNL A   1      33.096  28.258  22.727  1.00  0.00     0.001 A 
ATOM     88  C   UNL A   1      30.921  27.406  23.329  1.00  0.00     0.039 A 
ATOM     89  F   UNL A   1      30.468  25.110  23.079  1.00  0.00    -0.207 F 
ATOM     90  C   UNL A   1      31.803  28.477  23.203  1.00  0.00     0.003 A 
ENDBRANCH  83  84
ENDBRANCH  82  83
ENDBRANCH  77  82
ENDBRANCH  72  75
ENDBRANCH  70  71
ENDBRANCH  69  70
ENDBRANCH   1  69
TORSDOF 17
ENDMDL
MODEL 2
REMARK VINA RESULT:     -11.2      4.217      9.965
REMARK SMILES O=C(NCCCCNC(=O)c1cc(Br)ccc1OCc1ccccc1F)c1ccc(-c2c3nc(c(-c4ccc(S(=O)(=O)[O-])cc4)c4ccc([nH]4)c(-c4ccc(S(=O)(=O)[O-])cc4)c4nc(c(-c5ccc(S(=O)(=O)[O-])cc5)c5ccc2[nH]5)C=C4)C=C3)cc1
REMARK SMILES IDX 5 1 4 2 3 3 1 4 2 5 27 7 28 8 86 9 29 10 85 11 30 12 31 13
REMARK SMILES IDX 32 14 79 15 33 16 84 17 78 18 80 19 34 20 83 21 77 22 76 23
REMARK SMILES IDX 35 25 65 26 46 27 64 28 47 29 50 30 63 31 81 32 48 33 49 34
REMARK SMILES IDX 62 36 82 37 51 38 36 39 37 40 45 41 38 42 44 43 39 44 40 45
REMARK SMILES IDX 41 46 42 47 43 48 66 49 67 50 75 51 68 52 74 53 69 54 70 55
REMARK SMILES IDX 71 56 72 57 73 58 52 59 53 60 61 61 54 62 60 63 55 64 56 65
REMARK SMILES IDX 57 66 58 67 59 68 6 69 7 70 8 71 9 72 10 74 11 75 12 76
REMARK SMILES IDX 17 77 13 78 16 79 14 80 15 81 18 82 19 83 20 84 21 85 25 86
REMARK SMILES IDX 22 87 24 88 26 89 23 90
REMARK H PARENT 3 6 80 24 50 35 8 73
REMARK Flexibility Score: inf
ROOT
ATOM      1  C   UNL A   1      35.629  23.864  24.794  1.00  0.00     0.023 C 
ENDROOT
BRANCH   1   2
ATOM      2  C   UNL A   1      36.406  23.628  26.087  1.00  0.00     0.116 C 
BRANCH   2   3
ATOM      3  N   UNL A   1      37.538  22.734  25.944  1.00  0.00    -0.352 N 
ATOM      4  O   UNL A   1      39.658  22.016  26.027  1.00  0.00    -0.269 OA
ATOM      5  C   UNL A   1      38.859  22.917  26.275  1.00  0.00     0.251 C 
ATOM      6  H   UNL A   1      37.327  21.858  25.548  1.00  0.00     0.163 HD
BRANCH   5   7
ATOM      7  C   UNL A   1      39.347  24.184  26.879  1.00  0.00     0.039 A 
ATOM      8  C   UNL A   1      40.046  25.149  26.149  1.00  0.00     0.014 A 
ATOM      9  C   UNL A   1      39.037  24.429  28.223  1.00  0.00     0.014 A 
ATOM     10  C   UNL A   1      40.518  26.303  26.783  1.00  0.00     0.010 A 
ATOM     11  C   UNL A   1      39.470  25.604  28.846  1.00  0.00     0.010 A 
ATOM     12  C   UNL A   1      40.236  26.541  28.138  1.00  0.00    -0.014 A 
BRANCH  12  13
ATOM     13  C   UNL A   1      40.696  27.791  28.794  1.00  0.00     0.031 A 
ATOM     14  C   UNL A   1      42.092  27.913  29.340  1.00  0.00     0.074 A 
ATOM     15  C   UNL A   1      39.842  28.825  28.914  1.00  0.00     0.049 A 
ATOM     16  N   UNL A   1      42.654  28.934  29.937  1.00  0.00    -0.248 NA
ATOM     17  C   UNL A   1      42.968  26.738  29.206  1.00  0.00     0.031 C 
ATOM     18  C   UNL A   1      38.449  28.831  28.456  1.00  0.00     0.029 A 
ATOM     19  N   UNL A   1      40.017  30.070  29.462  1.00  0.00    -0.354 N 
ATOM     20  C   UNL A   1      43.940  28.523  30.266  1.00  0.00     0.074 A 
ATOM     21  C   UNL A   1      44.074  27.154  29.811  1.00  0.00     0.031 C 
ATOM     22  C   UNL A   1      37.905  30.027  28.728  1.00  0.00     0.029 A 
ATOM     23  C   UNL A   1      38.896  30.861  29.401  1.00  0.00     0.049 A 
ATOM     24  H   UNL A   1      40.866  30.369  29.862  1.00  0.00     0.167 HD
ATOM     25  C   UNL A   1      44.922  29.221  30.884  1.00  0.00     0.031 A 
ATOM     26  C   UNL A   1      38.679  32.113  29.846  1.00  0.00     0.031 A 
ATOM     27  C   UNL A   1      44.809  30.588  31.318  1.00  0.00     0.049 A 
ATOM     28  C   UNL A   1      39.779  32.859  30.539  1.00  0.00     0.074 A 
ATOM     29  C   UNL A   1      45.786  31.401  31.870  1.00  0.00     0.029 A 
ATOM     30  N   UNL A   1      43.648  31.341  31.263  1.00  0.00    -0.354 N 
ATOM     31  N   UNL A   1      41.008  32.473  30.778  1.00  0.00    -0.248 NA
ATOM     32  C   UNL A   1      39.458  34.207  31.030  1.00  0.00     0.031 C 
ATOM     33  C   UNL A   1      45.205  32.638  32.178  1.00  0.00     0.029 A 
ATOM     34  C   UNL A   1      43.873  32.597  31.800  1.00  0.00     0.049 A 
ATOM     35  H   UNL A   1      42.790  31.029  30.896  1.00  0.00     0.167 HD
ATOM     36  C   UNL A   1      41.607  33.529  31.453  1.00  0.00     0.074 A 
ATOM     37  C   UNL A   1      40.611  34.576  31.572  1.00  0.00     0.031 C 
ATOM     38  C   UNL A   1      42.870  33.620  31.933  1.00  0.00     0.031 A 
BRANCH  25  39
ATOM     39  C   UNL A   1      46.222  28.511  31.135  1.00  0.00    -0.014 A 
ATOM     40  C   UNL A   1      47.310  28.678  30.263  1.00  0.00     0.010 A 
ATOM     41  C   UNL A   1      46.370  27.711  32.281  1.00  0.00     0.010 A 
ATOM     42  C   UNL A   1      48.525  28.036  30.521  1.00  0.00     0.020 A 
ATOM     43  C   UNL A   1      47.585  27.073  32.547  1.00  0.00     0.020 A 
ATOM     44  C   UNL A   1      48.650  27.230  31.657  1.00  0.00     0.054 A 
BRANCH  44  45
ATOM     45  S   UNL A   1      50.240  26.421  31.993  1.00  0.00     0.124 S 
ATOM     46  O   UNL A   1      50.977  26.686  30.759  1.00  0.00    -0.237 OA
ATOM     47  O   UNL A   1      50.725  27.129  33.176  1.00  0.00    -0.237 OA
ATOM     48  O   UNL A   1      49.875  25.024  32.214  1.00  0.00    -0.744 OA
ENDBRANCH  44  45
ENDBRANCH  25  39
BRANCH  26  49
ATOM     49  C   UNL A   1      37.344  32.730  29.659  1.00  0.00    -0.014 A 
ATOM     50  C   UNL A   1      36.402  32.710  30.701  1.00  0.00     0.010 A 
ATOM     51  C   UNL A   1      37.029  33.378  28.453  1.00  0.00     0.010 A 
ATOM     52  C   UNL A   1      35.162  33.332  30.540  1.00  0.00     0.020 A 
ATOM     53  C   UNL A   1      35.794  34.012  28.293  1.00  0.00     0.020 A 
ATOM     54  C   UNL A   1      34.865  33.980  29.337  1.00  0.00     0.054 A 
BRANCH  54  55
ATOM     55  S   UNL A   1      33.291  34.862  29.156  1.00  0.00     0.124 S 
ATOM     56  O   UNL A   1      32.731  34.759  30.499  1.00  0.00    -0.237 OA
ATOM     57  O   UNL A   1      33.707  36.201  28.745  1.00  0.00    -0.237 OA
ATOM     58  O   UNL A   1      32.599  34.093  28.123  1.00  0.00    -0.744 OA
ENDBRANCH  54  55
ENDBRANCH  26  49
BRANCH  38  59
ATOM     59  C   UNL A   1      43.238  34.888  32.647  1.00  0.00    -0.014 A 
ATOM     60  C   UNL A   1      43.663  36.012  31.919  1.00  0.00     0.010 A 
ATOM     61  C   UNL A   1      43.138  34.965  34.046  1.00  0.00     0.010 A 
ATOM     62  C   UNL A   1      44.006  37.193  32.582  1.00  0.00     0.020 A 
ATOM     63  C   UNL A   1      43.471  36.148  34.711  1.00  0.00     0.020 A 
ATOM     64  C   UNL A   1      43.917  37.250  33.976  1.00  0.00     0.054 A 
BRANCH  64  65
ATOM     65  S   UNL A   1      44.334  38.797  34.830  1.00  0.00     0.124 S 
ATOM     66  O   UNL A   1      45.759  38.923  34.545  1.00  0.00    -0.237 OA
ATOM     67  O   UNL A   1      43.473  39.780  34.177  1.00  0.00    -0.237 OA
ATOM     68  O   UNL A   1      43.996  38.514  36.224  1.00  0.00    -0.744 OA
ENDBRANCH  64  65
ENDBRANCH  38  59
ENDBRANCH  12  13
ENDBRANCH   5   7
ENDBRANCH   2   3
ENDBRANCH   1   2
BRANCH   1  69
ATOM     69  C   UNL A   1      34.569  24.969  24.790  1.00  0.00     0.023 C 
BRANCH  69  70
ATOM     70  C   UNL A   1      33.608  25.015  23.607  1.00  0.00     0.116 C 
BRANCH  70  71
ATOM     71  N   UNL A   1      33.733  26.196  22.773  1.00  0.00    -0.352 N 
ATOM     72  C   UNL A   1      33.606  27.517  23.117  1.00  0.00     0.255 C 
ATOM     73  H   UNL A   1      33.938  26.024  21.827  1.00  0.00     0.163 HD
ATOM     74  O   UNL A   1      34.048  28.396  22.388  1.00  0.00    -0.269 OA
BRANCH  72  75
ATOM     75  C   UNL A   1      33.004  27.887  24.404  1.00  0.00     0.082 A 
ATOM     76  C   UNL A   1      33.807  28.728  25.198  1.00  0.00     0.033 A 
ATOM     77  C   UNL A   1      31.699  27.564  24.802  1.00  0.00     0.132 A 
ATOM     78  C   UNL A   1      33.326  29.219  26.407  1.00  0.00     0.019 A 
ATOM     79  C   UNL A   1      31.241  28.081  26.028  1.00  0.00     0.048 A 
ATOM     80  Br  UNL A   1      34.413  30.342  27.467  1.00  0.00    -0.051 Br
ATOM     81  C   UNL A   1      32.044  28.895  26.830  1.00  0.00     0.019 A 
BRANCH  77  82
ATOM     82  O   UNL A   1      30.722  26.840  24.181  1.00  0.00    -0.488 OA
BRANCH  82  83
ATOM     83  C   UNL A   1      30.259  27.149  22.866  1.00  0.00     0.268 C 
BRANCH  83  84
ATOM     84  C   UNL A   1      29.391  28.378  22.802  1.00  0.00     0.025 A 
ATOM     85  C   UNL A   1      28.048  28.382  23.206  1.00  0.00     0.010 A 
ATOM     86  C   UNL A   1      29.939  29.567  22.310  1.00  0.00     0.129 A 
ATOM     87  C   UNL A   1      27.297  29.561  23.158  1.00  0.00     0.001 A 
ATOM     88  C   UNL A   1      29.195  30.743  22.254  1.00  0.00     0.039 A 
ATOM     89  F   UNL A   1      31.215  29.589  21.898  1.00  0.00    -0.207 F 
ATOM     90  C   UNL A   1      27.872  30.741  22.688  1.00  0.00     0.003 A 
ENDBRANCH  83  84
ENDBRANCH  82  83
ENDBRANCH  77  82
ENDBRANCH  72  75
ENDBRANCH  70  71
ENDBRANCH  69  70
ENDBRANCH   1  69
TORSDOF 17
ENDMDL
MODEL 3
REMARK VINA RESULT:     -11.1      3.489      4.602
REMARK SMILES O=C(NCCCCNC(=O)c1cc(Br)ccc1OCc1ccccc1F)c1ccc(-c2c3nc(c(-c4ccc(S(=O)(=O)[O-])cc4)c4ccc([nH]4)c(-c4ccc(S(=O)(=O)[O-])cc4)c4nc(c(-c5ccc(S(=O)(=O)[O-])cc5)c5ccc2[nH]5)C=C4)C=C3)cc1
REMARK SMILES IDX 5 1 4 2 3 3 1 4 2 5 27 7 28 8 86 9 29 10 85 11 30 12 31 13
REMARK SMILES IDX 32 14 79 15 33 16 84 17 78 18 80 19 34 20 83 21 77 22 76 23
REMARK SMILES IDX 35 25 65 26 46 27 64 28 47 29 50 30 63 31 81 32 48 33 49 34
REMARK SMILES IDX 62 36 82 37 51 38 36 39 37 40 45 41 38 42 44 43 39 44 40 45
REMARK SMILES IDX 41 46 42 47 43 48 66 49 67 50 75 51 68 52 74 53 69 54 70 55
REMARK SMILES IDX 71 56 72 57 73 58 52 59 53 60 61 61 54 62 60 63 55 64 56 65
REMARK SMILES IDX 57 66 58 67 59 68 6 69 7 70 8 71 9 72 10 74 11 75 12 76
REMARK SMILES IDX 17 77 13 78 16 79 14 80 15 81 18 82 19 83 20 84 21 85 25 86
REMARK SMILES IDX 22 87 24 88 26 89 23 90
REMARK H PARENT 3 6 80 24 50 35 8 73
REMARK Flexibility Score: inf
ROOT
ATOM      1  C   UNL A   1      32.582  27.547  25.921  1.00  0.00     0.023 C 
ENDROOT
BRANCH   1   2
ATOM      2  C   UNL A   1      33.556  28.100  26.958  1.00  0.00     0.116 C 
BRANCH   2   3
ATOM      3  N   UNL A   1      33.360  29.503  27.267  1.00  0.00    -0.352 N 
ATOM      4  O   UNL A   1      33.818  31.560  28.026  1.00  0.00    -0.269 OA
ATOM      5  C   UNL A   1      34.223  30.417  27.824  1.00  0.00     0.251 C 
ATOM      6  H   UNL A   1      32.470  29.856  27.041  1.00  0.00     0.163 HD
BRANCH   5   7
ATOM      7  C   UNL A   1      35.604  30.046  28.226  1.00  0.00     0.039 A 
ATOM      8  C   UNL A   1      35.919  29.577  29.504  1.00  0.00     0.014 A 
ATOM      9  C   UNL A   1      36.611  30.123  27.255  1.00  0.00     0.014 A 
ATOM     10  C   UNL A   1      37.245  29.284  29.837  1.00  0.00     0.010 A 
ATOM     11  C   UNL A   1      37.930  29.788  27.575  1.00  0.00     0.010 A 
ATOM     12  C   UNL A   1      38.264  29.388  28.876  1.00  0.00    -0.014 A 
BRANCH  12  13
ATOM     13  C   UNL A   1      39.663  29.028  29.221  1.00  0.00     0.031 A 
ATOM     14  C   UNL A   1      40.566  30.006  29.922  1.00  0.00     0.074 A 
ATOM     15  C   UNL A   1      40.132  27.812  28.884  1.00  0.00     0.049 A 
ATOM     16  N   UNL A   1      41.810  29.850  30.298  1.00  0.00    -0.248 NA
ATOM     17  C   UNL A   1      40.005  31.330  30.235  1.00  0.00     0.031 C 
ATOM     18  C   UNL A   1      39.373  26.778  28.174  1.00  0.00     0.029 A 
ATOM     19  N   UNL A   1      41.362  27.240  29.089  1.00  0.00    -0.354 N 
ATOM     20  C   UNL A   1      42.188  31.056  30.876  1.00  0.00     0.074 A 
ATOM     21  C   UNL A   1      41.043  31.940  30.792  1.00  0.00     0.031 C 
ATOM     22  C   UNL A   1      40.150  25.695  28.019  1.00  0.00     0.029 A 
ATOM     23  C   UNL A   1      41.466  25.964  28.591  1.00  0.00     0.049 A 
ATOM     24  H   UNL A   1      42.101  27.701  29.549  1.00  0.00     0.167 HD
ATOM     25  C   UNL A   1      43.376  31.395  31.431  1.00  0.00     0.031 A 
ATOM     26  C   UNL A   1      42.503  25.107  28.584  1.00  0.00     0.031 A 
ATOM     27  C   UNL A   1      44.511  30.519  31.542  1.00  0.00     0.049 A 
ATOM     28  C   UNL A   1      43.811  25.512  29.192  1.00  0.00     0.074 A 
ATOM     29  C   UNL A   1      45.722  30.752  32.171  1.00  0.00     0.029 A 
ATOM     30  N   UNL A   1      44.583  29.247  30.999  1.00  0.00    -0.354 N 
ATOM     31  N   UNL A   1      44.124  26.634  29.793  1.00  0.00    -0.248 NA
ATOM     32  C   UNL A   1      44.909  24.538  29.113  1.00  0.00     0.031 C 
ATOM     33  C   UNL A   1      46.539  29.630  31.982  1.00  0.00     0.029 A 
ATOM     34  C   UNL A   1      45.827  28.694  31.251  1.00  0.00     0.049 A 
ATOM     35  H   UNL A   1      43.855  28.801  30.508  1.00  0.00     0.167 HD
ATOM     36  C   UNL A   1      45.457  26.504  30.159  1.00  0.00     0.074 A 
ATOM     37  C   UNL A   1      45.889  25.190  29.727  1.00  0.00     0.031 C 
ATOM     38  C   UNL A   1      46.252  27.397  30.796  1.00  0.00     0.031 A 
BRANCH  25  39
ATOM     39  C   UNL A   1      43.514  32.792  31.965  1.00  0.00    -0.014 A 
ATOM     40  C   UNL A   1      43.972  33.833  31.141  1.00  0.00     0.010 A 
ATOM     41  C   UNL A   1      43.132  33.075  33.289  1.00  0.00     0.010 A 
ATOM     42  C   UNL A   1      44.069  35.135  31.639  1.00  0.00     0.020 A 
ATOM     43  C   UNL A   1      43.220  34.377  33.788  1.00  0.00     0.020 A 
ATOM     44  C   UNL A   1      43.702  35.397  32.963  1.00  0.00     0.054 A 
BRANCH  44  45
ATOM     45  S   UNL A   1      43.811  37.096  33.590  1.00  0.00     0.124 S 
ATOM     46  O   UNL A   1      42.594  37.198  34.391  1.00  0.00    -0.237 OA
ATOM     47  O   UNL A   1      45.061  37.087  34.347  1.00  0.00    -0.237 OA
ATOM     48  O   UNL A   1      43.830  37.909  32.376  1.00  0.00    -0.744 OA
ENDBRANCH  44  45
ENDBRANCH  25  39
BRANCH  26  49
ATOM     49  C   UNL A   1      42.341  23.774  27.953  1.00  0.00    -0.014 A 
ATOM     50  C   UNL A   1      42.684  23.583  26.604  1.00  0.00     0.010 A 
ATOM     51  C   UNL A   1      41.883  22.685  28.713  1.00  0.00     0.010 A 
ATOM     52  C   UNL A   1      42.575  22.317  26.024  1.00  0.00     0.020 A 
ATOM     53  C   UNL A   1      41.783  21.416  28.139  1.00  0.00     0.020 A 
ATOM     54  C   UNL A   1      42.125  21.241  26.795  1.00  0.00     0.054 A 
BRANCH  54  55
ATOM     55  S   UNL A   1      42.064  19.579  26.069  1.00  0.00     0.124 S 
ATOM     56  O   UNL A   1      40.650  19.448  25.735  1.00  0.00    -0.237 OA
ATOM     57  O   UNL A   1      42.975  19.681  24.932  1.00  0.00    -0.237 OA
ATOM     58  O   UNL A   1      42.536  18.727  27.158  1.00  0.00    -0.744 OA
ENDBRANCH  54  55
ENDBRANCH  26  49
BRANCH  38  59
ATOM     59  C   UNL A   1      47.674  26.987  31.045  1.00  0.00    -0.014 A 
ATOM     60  C   UNL A   1      48.023  26.331  32.238  1.00  0.00     0.010 A 
ATOM     61  C   UNL A   1      48.661  27.237  30.076  1.00  0.00     0.010 A 
ATOM     62  C   UNL A   1      49.346  25.949  32.470  1.00  0.00     0.020 A 
ATOM     63  C   UNL A   1      49.983  26.847  30.303  1.00  0.00     0.020 A 
ATOM     64  C   UNL A   1      50.321  26.218  31.505  1.00  0.00     0.054 A 
BRANCH  64  65
ATOM     65  S   UNL A   1      52.033  25.692  31.799  1.00  0.00     0.124 S 
ATOM     66  O   UNL A   1      52.398  26.491  32.965  1.00  0.00    -0.237 OA
ATOM     67  O   UNL A   1      51.903  24.256  32.038  1.00  0.00    -0.237 OA
ATOM     68  O   UNL A   1      52.714  26.049  30.556  1.00  0.00    -0.744 OA
ENDBRANCH  64  65
ENDBRANCH  38  59
ENDBRANCH  12  13
ENDBRANCH   5   7
ENDBRANCH   2   3
ENDBRANCH   1   2
BRANCH   1  69
ATOM     69  C   UNL A   1      33.169  26.905  24.661  1.00  0.00     0.023 C 
BRANCH  69  70
ATOM     70  C   UNL A   1      32.768  25.465  24.354  1.00  0.00     0.116 C 
BRANCH  70  71
ATOM     71  N   UNL A   1      33.194  24.985  23.053  1.00  0.00    -0.352 N 
ATOM     72  C   UNL A   1      33.830  23.815  22.726  1.00  0.00     0.255 C 
ATOM     73  H   UNL A   1      32.999  25.586  22.298  1.00  0.00     0.163 HD
ATOM     74  O   UNL A   1      33.837  23.413  21.570  1.00  0.00    -0.269 OA
BRANCH  72  75
ATOM     75  C   UNL A   1      34.445  22.995  23.777  1.00  0.00     0.082 A 
ATOM     76  C   UNL A   1      35.657  23.510  24.277  1.00  0.00     0.033 A 
ATOM     77  C   UNL A   1      33.859  21.860  24.356  1.00  0.00     0.132 A 
ATOM     78  C   UNL A   1      36.306  22.875  25.330  1.00  0.00     0.019 A 
ATOM     79  C   UNL A   1      34.539  21.245  25.423  1.00  0.00     0.048 A 
ATOM     80  Br  UNL A   1      37.932  23.570  25.991  1.00  0.00    -0.051 Br
ATOM     81  C   UNL A   1      35.754  21.739  25.905  1.00  0.00     0.019 A 
BRANCH  77  82
ATOM     82  O   UNL A   1      32.677  21.227  24.098  1.00  0.00    -0.488 OA
BRANCH  82  83
ATOM     83  C   UNL A   1      32.194  20.152  24.903  1.00  0.00     0.268 C 
BRANCH  83  84
ATOM     84  C   UNL A   1      32.709  18.801  24.483  1.00  0.00     0.025 A 
ATOM     85  C   UNL A   1      33.040  18.492  23.155  1.00  0.00     0.010 A 
ATOM     86  C   UNL A   1      32.860  17.804  25.453  1.00  0.00     0.129 A 
ATOM     87  C   UNL A   1      33.548  17.231  22.827  1.00  0.00     0.001 A 
ATOM     88  C   UNL A   1      33.360  16.545  25.131  1.00  0.00     0.039 A 
ATOM     89  F   UNL A   1      32.534  18.065  26.728  1.00  0.00    -0.207 F 
ATOM     90  C   UNL A   1      33.714  16.261  23.815  1.00  0.00     0.003 A 
ENDBRANCH  83  84
ENDBRANCH  82  83
ENDBRANCH  77  82
ENDBRANCH  72  75
ENDBRANCH  70  71
ENDBRANCH  69  70
ENDBRANCH   1  69
TORSDOF 17
ENDMDL
