MODEL 1
REMARK VINA RESULT:     -12.6      0.000      0.000
REMARK SMILES Cc1ccc(C(=O)N2C[C@@H](C(=O)NCCCCNC(=O)c3ccc(-c4c5nc(c(-c6ccc(S(=O)(=O)[O-])cc6)c6ccc([nH]6)c(-c6ccc(S(=O)(=O)[O-])cc6)c6nc(c(-c7ccc(S(=O)(=O)[O-])cc7)c7ccc4[nH]7)C=C6)C=C5)cc3)C[C@H](C(=O)N3CCOCC3)C2)cc1F
REMARK SMILES IDX 16 1 15 2 14 3 13 4 11 5 12 6 10 8 8 9 9 10 91 11 82 12
REMARK SMILES IDX 81 13 6 14 7 15 5 16 1 17 2 18 3 19 93 20 4 21 92 22 94 23
REMARK SMILES IDX 83 24 84 25 85 26 86 27 90 28 87 29 89 30 88 31 17 32 18 33
REMARK SMILES IDX 19 34 20 36 21 37 22 38 80 39 23 40 79 41 24 42 25 43 26 44
REMARK SMILES IDX 73 45 27 46 78 47 72 48 74 49 28 50 77 51 71 52 70 53 29 55
REMARK SMILES IDX 59 56 40 57 58 58 41 59 44 60 57 61 75 62 42 63 43 64 56 66
REMARK SMILES IDX 76 67 45 68 30 69 31 70 39 71 32 72 38 73 33 74 34 75 35 76
REMARK SMILES IDX 36 77 37 78 60 79 61 80 69 81 62 82 68 83 63 84 64 85 65 86
REMARK SMILES IDX 66 87 67 88 46 89 47 90 55 91 48 92 54 93 49 94 50 95 51 96
REMARK SMILES IDX 52 97 53 98
REMARK H PARENT 13 7 18 35 74 54 44 65
REMARK Flexibility Score: inf
ROOT
ATOM      1  C   UNL A   1      33.669  28.263  25.683  1.00  0.00     0.023 C 
ENDROOT
BRANCH   1   2
ATOM      2  C   UNL A   1      32.494  28.751  24.839  1.00  0.00     0.023 C 
BRANCH   2   3
ATOM      3  C   UNL A   1      32.082  27.800  23.724  1.00  0.00     0.116 C 
BRANCH   3   4
ATOM      4  N   UNL A   1      30.685  27.424  23.831  1.00  0.00    -0.356 N 
ATOM      5  C   UNL A   1      30.108  26.256  24.205  1.00  0.00     0.224 C 
ATOM      6  O   UNL A   1      28.880  26.167  24.145  1.00  0.00    -0.275 OA
ATOM      7  H   UNL A   1      30.050  28.137  23.591  1.00  0.00     0.163 HD
BRANCH   5   8
ATOM      8  C   UNL A   1      30.934  25.077  24.679  1.00  0.00     0.099 C 
ATOM      9  N   UNL A   1      31.517  22.717  24.145  1.00  0.00    -0.337 N 
ATOM     10  C   UNL A   1      30.946  23.960  23.649  1.00  0.00     0.133 C 
ATOM     11  C   UNL A   1      31.045  22.238  25.443  1.00  0.00     0.133 C 
ATOM     12  C   UNL A   1      31.155  23.304  26.548  1.00  0.00     0.099 C 
ATOM     13  C   UNL A   1      30.614  24.668  26.124  1.00  0.00     0.030 C 
BRANCH   9  14
ATOM     14  C   UNL A   1      32.342  22.015  23.277  1.00  0.00     0.254 C 
ATOM     15  O   UNL A   1      32.868  22.539  22.296  1.00  0.00    -0.269 OA
BRANCH  14  16
ATOM     16  C   UNL A   1      32.516  20.551  23.427  1.00  0.00     0.042 A 
ATOM     17  C   UNL A   1      33.926  16.493  23.264  1.00  0.00     0.047 C 
ATOM     18  C   UNL A   1      33.359  17.876  23.359  1.00  0.00    -0.015 A 
ATOM     19  C   UNL A   1      32.406  18.338  22.442  1.00  0.00     0.007 A 
ATOM     20  C   UNL A   1      33.841  18.759  24.331  1.00  0.00     0.126 A 
ATOM     21  C   UNL A   1      31.990  19.672  22.470  1.00  0.00     0.014 A 
ATOM     22  C   UNL A   1      33.436  20.088  24.369  1.00  0.00     0.053 A 
ATOM     23  F   UNL A   1      34.760  18.337  25.213  1.00  0.00    -0.207 F 
ENDBRANCH  14  16
ENDBRANCH   9  14
BRANCH  12  24
ATOM     24  C   UNL A   1      32.531  23.184  27.222  1.00  0.00     0.227 C 
ATOM     25  O   UNL A   1      32.607  22.529  28.269  1.00  0.00    -0.275 OA
ATOM     26  N   UNL A   1      33.673  23.539  26.547  1.00  0.00    -0.338 N 
ATOM     27  C   UNL A   1      34.007  24.863  26.023  1.00  0.00     0.148 C 
ATOM     28  C   UNL A   1      34.847  22.674  26.645  1.00  0.00     0.148 C 
ATOM     29  C   UNL A   1      34.703  24.723  24.663  1.00  0.00     0.181 C 
ATOM     30  C   UNL A   1      35.539  22.595  25.279  1.00  0.00     0.181 C 
ATOM     31  O   UNL A   1      35.882  23.905  24.793  1.00  0.00    -0.378 OA
ENDBRANCH  12  24
ENDBRANCH   5   8
ENDBRANCH   3   4
ENDBRANCH   2   3
ENDBRANCH   1   2
BRANCH   1  32
ATOM     32  C   UNL A   1      33.512  28.472  27.185  1.00  0.00     0.116 C 
BRANCH  32  33
ATOM     33  N   UNL A   1      33.425  29.877  27.556  1.00  0.00    -0.352 N 
ATOM     34  C   UNL A   1      34.387  30.663  28.141  1.00  0.00     0.251 C 
ATOM     35  H   UNL A   1      32.568  30.320  27.362  1.00  0.00     0.163 HD
ATOM     36  O   UNL A   1      34.125  31.807  28.496  1.00  0.00    -0.269 OA
BRANCH  34  37
ATOM     37  C   UNL A   1      35.725  30.087  28.370  1.00  0.00     0.039 A 
ATOM     38  C   UNL A   1      36.653  30.104  27.328  1.00  0.00     0.014 A 
ATOM     39  C   UNL A   1      36.078  29.612  29.636  1.00  0.00     0.014 A 
ATOM     40  C   UNL A   1      37.966  29.705  27.577  1.00  0.00     0.010 A 
ATOM     41  C   UNL A   1      37.402  29.289  29.900  1.00  0.00     0.010 A 
ATOM     42  C   UNL A   1      38.358  29.330  28.873  1.00  0.00    -0.014 A 
BRANCH  42  43
ATOM     43  C   UNL A   1      39.767  28.977  29.177  1.00  0.00     0.031 A 
ATOM     44  C   UNL A   1      40.675  29.994  29.809  1.00  0.00     0.074 A 
ATOM     45  C   UNL A   1      40.243  27.767  28.822  1.00  0.00     0.049 A 
ATOM     46  N   UNL A   1      41.945  29.896  30.100  1.00  0.00    -0.248 NA
ATOM     47  C   UNL A   1      40.083  31.305  30.129  1.00  0.00     0.031 C 
ATOM     48  C   UNL A   1      39.473  26.712  28.156  1.00  0.00     0.029 A 
ATOM     49  N   UNL A   1      41.495  27.222  28.965  1.00  0.00    -0.354 N 
ATOM     50  C   UNL A   1      42.310  31.133  30.618  1.00  0.00     0.074 A 
ATOM     51  C   UNL A   1      41.141  31.982  30.551  1.00  0.00     0.031 C 
ATOM     52  C   UNL A   1      40.261  25.639  27.977  1.00  0.00     0.029 A 
ATOM     53  C   UNL A   1      41.598  25.941  28.476  1.00  0.00     0.049 A 
ATOM     54  H   UNL A   1      42.247  27.703  29.379  1.00  0.00     0.167 HD
ATOM     55  C   UNL A   1      43.504  31.523  31.123  1.00  0.00     0.031 A 
ATOM     56  C   UNL A   1      42.653  25.103  28.434  1.00  0.00     0.031 A 
ATOM     57  C   UNL A   1      44.659  30.670  31.201  1.00  0.00     0.049 A 
ATOM     58  C   UNL A   1      43.968  25.554  29.007  1.00  0.00     0.074 A 
ATOM     59  C   UNL A   1      45.898  30.947  31.752  1.00  0.00     0.029 A 
ATOM     60  N   UNL A   1      44.718  29.372  30.713  1.00  0.00    -0.354 N 
ATOM     61  N   UNL A   1      44.274  26.706  29.558  1.00  0.00    -0.248 NA
ATOM     62  C   UNL A   1      45.076  24.590  28.965  1.00  0.00     0.031 C 
ATOM     63  C   UNL A   1      46.721  29.834  31.554  1.00  0.00     0.029 A 
ATOM     64  C   UNL A   1      45.978  28.843  30.930  1.00  0.00     0.049 A 
ATOM     65  H   UNL A   1      43.974  28.898  30.277  1.00  0.00     0.167 HD
ATOM     66  C   UNL A   1      45.603  26.595  29.951  1.00  0.00     0.074 A 
ATOM     67  C   UNL A   1      46.036  25.261  29.588  1.00  0.00     0.031 C 
ATOM     68  C   UNL A   1      46.393  27.513  30.560  1.00  0.00     0.031 A 
BRANCH  55  69
ATOM     69  C   UNL A   1      43.615  32.938  31.626  1.00  0.00    -0.014 A 
ATOM     70  C   UNL A   1      43.385  33.247  32.980  1.00  0.00     0.010 A 
ATOM     71  C   UNL A   1      43.974  33.969  30.740  1.00  0.00     0.010 A 
ATOM     72  C   UNL A   1      43.464  34.568  33.428  1.00  0.00     0.020 A 
ATOM     73  C   UNL A   1      44.083  35.288  31.191  1.00  0.00     0.020 A 
ATOM     74  C   UNL A   1      43.807  35.582  32.528  1.00  0.00     0.054 A 
BRANCH  74  75
ATOM     75  S   UNL A   1      43.913  37.285  33.138  1.00  0.00     0.124 S 
ATOM     76  O   UNL A   1      42.733  37.371  33.995  1.00  0.00    -0.237 OA
ATOM     77  O   UNL A   1      45.196  37.297  33.837  1.00  0.00    -0.237 OA
ATOM     78  O   UNL A   1      43.861  38.094  31.924  1.00  0.00    -0.744 OA
ENDBRANCH  74  75
ENDBRANCH  55  69
BRANCH  56  79
ATOM     79  C   UNL A   1      42.498  23.744  27.847  1.00  0.00    -0.014 A 
ATOM     80  C   UNL A   1      42.688  23.537  26.470  1.00  0.00     0.010 A 
ATOM     81  C   UNL A   1      42.183  22.646  28.667  1.00  0.00     0.010 A 
ATOM     82  C   UNL A   1      42.552  22.259  25.919  1.00  0.00     0.020 A 
ATOM     83  C   UNL A   1      42.072  21.362  28.124  1.00  0.00     0.020 A 
ATOM     84  C   UNL A   1      42.248  21.177  26.752  1.00  0.00     0.054 A 
BRANCH  84  85
ATOM     85  S   UNL A   1      42.137  19.518  26.026  1.00  0.00     0.124 S 
ATOM     86  O   UNL A   1      43.033  19.628  24.880  1.00  0.00    -0.237 OA
ATOM     87  O   UNL A   1      42.605  18.665  27.116  1.00  0.00    -0.237 OA
ATOM     88  O   UNL A   1      40.719  19.382  25.704  1.00  0.00    -0.744 OA
ENDBRANCH  84  85
ENDBRANCH  56  79
BRANCH  68  89
ATOM     89  C   UNL A   1      47.798  27.100  30.902  1.00  0.00    -0.014 A 
ATOM     90  C   UNL A   1      48.077  26.356  32.062  1.00  0.00     0.010 A 
ATOM     91  C   UNL A   1      48.847  27.413  30.018  1.00  0.00     0.010 A 
ATOM     92  C   UNL A   1      49.386  25.956  32.345  1.00  0.00     0.020 A 
ATOM     93  C   UNL A   1      50.152  26.993  30.284  1.00  0.00     0.020 A 
ATOM     94  C   UNL A   1      50.415  26.278  31.453  1.00  0.00     0.054 A 
BRANCH  94  95
ATOM     95  S   UNL A   1      52.097  25.709  31.820  1.00  0.00     0.124 S 
ATOM     96  O   UNL A   1      51.875  24.309  32.167  1.00  0.00    -0.237 OA
ATOM     97  O   UNL A   1      52.797  25.941  30.560  1.00  0.00    -0.237 OA
ATOM     98  O   UNL A   1      52.519  26.566  32.926  1.00  0.00    -0.744 OA
ENDBRANCH  94  95
ENDBRANCH  68  89
ENDBRANCH  42  43
ENDBRANCH  34  37
ENDBRANCH  32  33
ENDBRANCH   1  32
TORSDOF 17
ENDMDL
MODEL 2
REMARK VINA RESULT:     -12.5      1.564      3.057
REMARK SMILES Cc1ccc(C(=O)N2C[C@@H](C(=O)NCCCCNC(=O)c3ccc(-c4c5nc(c(-c6ccc(S(=O)(=O)[O-])cc6)c6ccc([nH]6)c(-c6ccc(S(=O)(=O)[O-])cc6)c6nc(c(-c7ccc(S(=O)(=O)[O-])cc7)c7ccc4[nH]7)C=C6)C=C5)cc3)C[C@H](C(=O)N3CCOCC3)C2)cc1F
REMARK SMILES IDX 16 1 15 2 14 3 13 4 11 5 12 6 10 8 8 9 9 10 91 11 82 12
REMARK SMILES IDX 81 13 6 14 7 15 5 16 1 17 2 18 3 19 93 20 4 21 92 22 94 23
REMARK SMILES IDX 83 24 84 25 85 26 86 27 90 28 87 29 89 30 88 31 17 32 18 33
REMARK SMILES IDX 19 34 20 36 21 37 22 38 80 39 23 40 79 41 24 42 25 43 26 44
REMARK SMILES IDX 73 45 27 46 78 47 72 48 74 49 28 50 77 51 71 52 70 53 29 55
REMARK SMILES IDX 59 56 40 57 58 58 41 59 44 60 57 61 75 62 42 63 43 64 56 66
REMARK SMILES IDX 76 67 45 68 30 69 31 70 39 71 32 72 38 73 33 74 34 75 35 76
REMARK SMILES IDX 36 77 37 78 60 79 61 80 69 81 62 82 68 83 63 84 64 85 65 86
REMARK SMILES IDX 66 87 67 88 46 89 47 90 55 91 48 92 54 93 49 94 50 95 51 96
REMARK SMILES IDX 52 97 53 98
REMARK H PARENT 13 7 18 35 74 54 44 65
REMARK Flexibility Score: inf
ROOT
ATOM      1  C   UNL A   1      32.243  27.761  27.198  1.00  0.00     0.023 C 
ENDROOT
BRANCH   1   2
ATOM      2  C   UNL A   1      32.202  26.429  26.452  1.00  0.00     0.023 C 
BRANCH   2   3
ATOM      3  C   UNL A   1      30.826  26.047  25.922  1.00  0.00     0.116 C 
BRANCH   3   4
ATOM      4  N   UNL A   1      30.258  24.937  26.663  1.00  0.00    -0.356 N 
ATOM      5  C   UNL A   1      30.514  23.607  26.601  1.00  0.00     0.224 C 
ATOM      6  O   UNL A   1      29.835  22.851  27.298  1.00  0.00    -0.275 OA
ATOM      7  H   UNL A   1      29.571  25.193  27.320  1.00  0.00     0.163 HD
BRANCH   5   8
ATOM      8  C   UNL A   1      31.595  23.046  25.699  1.00  0.00     0.099 C 
ATOM      9  N   UNL A   1      32.343  22.935  23.328  1.00  0.00    -0.337 N 
ATOM     10  C   UNL A   1      31.490  23.612  24.293  1.00  0.00     0.133 C 
ATOM     11  C   UNL A   1      32.306  21.474  23.316  1.00  0.00     0.133 C 
ATOM     12  C   UNL A   1      32.554  20.860  24.706  1.00  0.00     0.099 C 
ATOM     13  C   UNL A   1      31.732  21.521  25.811  1.00  0.00     0.030 C 
BRANCH   9  14
ATOM     14  C   UNL A   1      32.998  23.733  22.400  1.00  0.00     0.254 C 
ATOM     15  O   UNL A   1      33.856  23.292  21.637  1.00  0.00    -0.269 OA
BRANCH  14  16
ATOM     16  C   UNL A   1      32.779  25.198  22.383  1.00  0.00     0.042 A 
ATOM     17  C   UNL A   1      31.833  29.274  23.375  1.00  0.00     0.047 C 
ATOM     18  C   UNL A   1      32.174  27.880  22.943  1.00  0.00    -0.015 A 
ATOM     19  C   UNL A   1      31.231  27.064  22.306  1.00  0.00     0.007 A 
ATOM     20  C   UNL A   1      33.430  27.346  23.249  1.00  0.00     0.126 A 
ATOM     21  C   UNL A   1      31.528  25.725  22.032  1.00  0.00     0.014 A 
ATOM     22  C   UNL A   1      33.737  26.018  22.983  1.00  0.00     0.053 A 
ATOM     23  F   UNL A   1      34.343  28.110  23.867  1.00  0.00    -0.207 F 
ENDBRANCH  14  16
ENDBRANCH   9  14
BRANCH  12  24
ATOM     24  C   UNL A   1      34.062  20.627  24.887  1.00  0.00     0.227 C 
ATOM     25  O   UNL A   1      34.512  19.507  24.612  1.00  0.00    -0.275 OA
ATOM     26  N   UNL A   1      34.917  21.687  25.067  1.00  0.00    -0.338 N 
ATOM     27  C   UNL A   1      34.899  22.652  26.166  1.00  0.00     0.148 C 
ATOM     28  C   UNL A   1      36.188  21.698  24.347  1.00  0.00     0.148 C 
ATOM     29  C   UNL A   1      35.217  24.054  25.630  1.00  0.00     0.181 C 
ATOM     30  C   UNL A   1      36.493  23.122  23.867  1.00  0.00     0.181 C 
ATOM     31  O   UNL A   1      36.496  24.051  24.966  1.00  0.00    -0.378 OA
ENDBRANCH  12  24
ENDBRANCH   5   8
ENDBRANCH   3   4
ENDBRANCH   2   3
ENDBRANCH   1   2
BRANCH   1  32
ATOM     32  C   UNL A   1      33.574  28.500  27.121  1.00  0.00     0.116 C 
BRANCH  32  33
ATOM     33  N   UNL A   1      33.481  29.884  27.562  1.00  0.00    -0.352 N 
ATOM     34  C   UNL A   1      34.437  30.643  28.190  1.00  0.00     0.251 C 
ATOM     35  H   UNL A   1      32.623  30.333  27.387  1.00  0.00     0.163 HD
ATOM     36  O   UNL A   1      34.170  31.767  28.601  1.00  0.00    -0.269 OA
BRANCH  34  37
ATOM     37  C   UNL A   1      35.777  30.061  28.394  1.00  0.00     0.039 A 
ATOM     38  C   UNL A   1      36.695  30.097  27.345  1.00  0.00     0.014 A 
ATOM     39  C   UNL A   1      36.140  29.560  29.648  1.00  0.00     0.014 A 
ATOM     40  C   UNL A   1      38.010  29.691  27.574  1.00  0.00     0.010 A 
ATOM     41  C   UNL A   1      37.467  29.230  29.893  1.00  0.00     0.010 A 
ATOM     42  C   UNL A   1      38.413  29.290  28.859  1.00  0.00    -0.014 A 
BRANCH  42  43
ATOM     43  C   UNL A   1      39.824  28.929  29.142  1.00  0.00     0.031 A 
ATOM     44  C   UNL A   1      40.748  29.944  29.755  1.00  0.00     0.074 A 
ATOM     45  C   UNL A   1      40.287  27.714  28.786  1.00  0.00     0.049 A 
ATOM     46  N   UNL A   1      42.022  29.838  30.026  1.00  0.00    -0.248 NA
ATOM     47  C   UNL A   1      40.171  31.260  30.077  1.00  0.00     0.031 C 
ATOM     48  C   UNL A   1      39.499  26.661  28.138  1.00  0.00     0.029 A 
ATOM     49  N   UNL A   1      41.536  27.161  28.912  1.00  0.00    -0.354 N 
ATOM     50  C   UNL A   1      42.404  31.076  30.532  1.00  0.00     0.074 A 
ATOM     51  C   UNL A   1      41.239  31.932  30.479  1.00  0.00     0.031 C 
ATOM     52  C   UNL A   1      40.277  25.582  27.952  1.00  0.00     0.029 A 
ATOM     53  C   UNL A   1      41.624  25.877  28.429  1.00  0.00     0.049 A 
ATOM     54  H   UNL A   1      42.298  27.640  29.312  1.00  0.00     0.167 HD
ATOM     55  C   UNL A   1      43.608  31.459  31.017  1.00  0.00     0.031 A 
ATOM     56  C   UNL A   1      42.672  25.032  28.374  1.00  0.00     0.031 A 
ATOM     57  C   UNL A   1      44.758  30.599  31.081  1.00  0.00     0.049 A 
ATOM     58  C   UNL A   1      43.999  25.477  28.925  1.00  0.00     0.074 A 
ATOM     59  C   UNL A   1      46.007  30.871  31.612  1.00  0.00     0.029 A 
ATOM     60  N   UNL A   1      44.801  29.299  30.600  1.00  0.00    -0.354 N 
ATOM     61  N   UNL A   1      44.321  26.629  29.465  1.00  0.00    -0.248 NA
ATOM     62  C   UNL A   1      45.099  24.506  28.870  1.00  0.00     0.031 C 
ATOM     63  C   UNL A   1      46.820  29.751  31.406  1.00  0.00     0.029 A 
ATOM     64  C   UNL A   1      46.061  28.762  30.800  1.00  0.00     0.049 A 
ATOM     65  H   UNL A   1      44.047  28.828  30.177  1.00  0.00     0.167 HD
ATOM     66  C   UNL A   1      45.656  26.511  29.838  1.00  0.00     0.074 A 
ATOM     67  C   UNL A   1      46.074  25.173  29.475  1.00  0.00     0.031 C 
ATOM     68  C   UNL A   1      46.460  27.427  30.430  1.00  0.00     0.031 A 
BRANCH  55  69
ATOM     69  C   UNL A   1      43.736  32.876  31.511  1.00  0.00    -0.014 A 
ATOM     70  C   UNL A   1      43.488  33.201  32.858  1.00  0.00     0.010 A 
ATOM     71  C   UNL A   1      44.130  33.893  30.623  1.00  0.00     0.010 A 
ATOM     72  C   UNL A   1      43.583  34.524  33.296  1.00  0.00     0.020 A 
ATOM     73  C   UNL A   1      44.256  35.214  31.066  1.00  0.00     0.020 A 
ATOM     74  C   UNL A   1      43.961  35.523  32.395  1.00  0.00     0.054 A 
BRANCH  74  75
ATOM     75  S   UNL A   1      44.088  37.230  32.994  1.00  0.00     0.124 S 
ATOM     76  O   UNL A   1      45.399  37.223  33.641  1.00  0.00    -0.237 OA
ATOM     77  O   UNL A   1      44.002  38.010  31.763  1.00  0.00    -0.237 OA
ATOM     78  O   UNL A   1      42.949  37.367  33.897  1.00  0.00    -0.744 OA
ENDBRANCH  74  75
ENDBRANCH  55  69
BRANCH  56  79
ATOM     79  C   UNL A   1      42.499  23.671  27.797  1.00  0.00    -0.014 A 
ATOM     80  C   UNL A   1      42.912  23.397  26.482  1.00  0.00     0.010 A 
ATOM     81  C   UNL A   1      41.942  22.636  28.568  1.00  0.00     0.010 A 
ATOM     82  C   UNL A   1      42.759  22.117  25.942  1.00  0.00     0.020 A 
ATOM     83  C   UNL A   1      41.810  21.347  28.041  1.00  0.00     0.020 A 
ATOM     84  C   UNL A   1      42.211  21.098  26.728  1.00  0.00     0.054 A 
BRANCH  84  85
ATOM     85  S   UNL A   1      42.078  19.429  26.028  1.00  0.00     0.124 S 
ATOM     86  O   UNL A   1      42.654  18.609  27.089  1.00  0.00    -0.237 OA
ATOM     87  O   UNL A   1      40.639  19.285  25.826  1.00  0.00    -0.237 OA
ATOM     88  O   UNL A   1      42.866  19.511  24.801  1.00  0.00    -0.744 OA
ENDBRANCH  84  85
ENDBRANCH  56  79
BRANCH  68  89
ATOM     89  C   UNL A   1      47.869  27.007  30.752  1.00  0.00    -0.014 A 
ATOM     90  C   UNL A   1      48.953  27.425  29.962  1.00  0.00     0.010 A 
ATOM     91  C   UNL A   1      48.113  26.228  31.898  1.00  0.00     0.010 A 
ATOM     92  C   UNL A   1      50.257  27.048  30.297  1.00  0.00     0.020 A 
ATOM     93  C   UNL A   1      49.416  25.871  32.251  1.00  0.00     0.020 A 
ATOM     94  C   UNL A   1      50.479  26.273  31.440  1.00  0.00     0.054 A 
BRANCH  94  95
ATOM     95  S   UNL A   1      52.183  25.835  31.878  1.00  0.00     0.124 S 
ATOM     96  O   UNL A   1      52.537  26.893  32.819  1.00  0.00    -0.237 OA
ATOM     97  O   UNL A   1      52.034  24.502  32.458  1.00  0.00    -0.237 OA
ATOM     98  O   UNL A   1      52.891  25.875  30.600  1.00  0.00    -0.744 OA
ENDBRANCH  94  95
ENDBRANCH  68  89
ENDBRANCH  42  43
ENDBRANCH  34  37
ENDBRANCH  32  33
ENDBRANCH   1  32
TORSDOF 17
ENDMDL
MODEL 3
REMARK VINA RESULT:     -12.3      1.225      1.985
REMARK SMILES Cc1ccc(C(=O)N2C[C@@H](C(=O)NCCCCNC(=O)c3ccc(-c4c5nc(c(-c6ccc(S(=O)(=O)[O-])cc6)c6ccc([nH]6)c(-c6ccc(S(=O)(=O)[O-])cc6)c6nc(c(-c7ccc(S(=O)(=O)[O-])cc7)c7ccc4[nH]7)C=C6)C=C5)cc3)C[C@H](C(=O)N3CCOCC3)C2)cc1F
REMARK SMILES IDX 16 1 15 2 14 3 13 4 11 5 12 6 10 8 8 9 9 10 91 11 82 12
REMARK SMILES IDX 81 13 6 14 7 15 5 16 1 17 2 18 3 19 93 20 4 21 92 22 94 23
REMARK SMILES IDX 83 24 84 25 85 26 86 27 90 28 87 29 89 30 88 31 17 32 18 33
REMARK SMILES IDX 19 34 20 36 21 37 22 38 80 39 23 40 79 41 24 42 25 43 26 44
REMARK SMILES IDX 73 45 27 46 78 47 72 48 74 49 28 50 77 51 71 52 70 53 29 55
REMARK SMILES IDX 59 56 40 57 58 58 41 59 44 60 57 61 75 62 42 63 43 64 56 66
REMARK SMILES IDX 76 67 45 68 30 69 31 70 39 71 32 72 38 73 33 74 34 75 35 76
REMARK SMILES IDX 36 77 37 78 60 79 61 80 69 81 62 82 68 83 63 84 64 85 65 86
REMARK SMILES IDX 66 87 67 88 46 89 47 90 55 91 48 92 54 93 49 94 50 95 51 96
REMARK SMILES IDX 52 97 53 98
REMARK H PARENT 13 7 18 35 74 54 44 65
REMARK Flexibility Score: inf
ROOT
ATOM      1  C   UNL A   1      32.619  28.036  26.077  1.00  0.00     0.023 C 
ENDROOT
BRANCH   1   2
ATOM      2  C   UNL A   1      31.329  27.442  26.637  1.00  0.00     0.023 C 
BRANCH   2   3
ATOM      3  C   UNL A   1      30.624  26.472  25.699  1.00  0.00     0.116 C 
BRANCH   3   4
ATOM      4  N   UNL A   1      29.953  25.414  26.430  1.00  0.00    -0.356 N 
ATOM      5  C   UNL A   1      30.300  24.120  26.634  1.00  0.00     0.224 C 
ATOM      6  O   UNL A   1      29.511  23.394  27.242  1.00  0.00    -0.275 OA
ATOM      7  H   UNL A   1      29.102  25.681  26.847  1.00  0.00     0.163 HD
BRANCH   5   8
ATOM      8  C   UNL A   1      31.614  23.559  26.127  1.00  0.00     0.099 C 
ATOM      9  N   UNL A   1      32.784  21.435  25.573  1.00  0.00    -0.337 N 
ATOM     10  C   UNL A   1      31.503  22.073  25.830  1.00  0.00     0.133 C 
ATOM     11  C   UNL A   1      33.867  21.708  26.516  1.00  0.00     0.133 C 
ATOM     12  C   UNL A   1      34.103  23.214  26.731  1.00  0.00     0.099 C 
ATOM     13  C   UNL A   1      32.815  23.996  26.977  1.00  0.00     0.030 C 
BRANCH   9  14
ATOM     14  C   UNL A   1      32.826  20.500  24.546  1.00  0.00     0.254 C 
ATOM     15  O   UNL A   1      32.517  20.777  23.388  1.00  0.00    -0.269 OA
BRANCH  14  16
ATOM     16  C   UNL A   1      33.122  19.078  24.837  1.00  0.00     0.042 A 
ATOM     17  C   UNL A   1      33.048  14.789  25.125  1.00  0.00     0.047 C 
ATOM     18  C   UNL A   1      33.144  16.284  25.082  1.00  0.00    -0.015 A 
ATOM     19  C   UNL A   1      32.631  17.077  26.117  1.00  0.00     0.007 A 
ATOM     20  C   UNL A   1      33.683  16.912  23.955  1.00  0.00     0.126 A 
ATOM     21  C   UNL A   1      32.614  18.470  25.994  1.00  0.00     0.014 A 
ATOM     22  C   UNL A   1      33.670  18.295  23.820  1.00  0.00     0.053 A 
ATOM     23  F   UNL A   1      34.170  16.169  22.950  1.00  0.00    -0.207 F 
ENDBRANCH  14  16
ENDBRANCH   9  14
BRANCH  12  24
ATOM     24  C   UNL A   1      35.135  23.708  25.705  1.00  0.00     0.227 C 
ATOM     25  O   UNL A   1      35.043  24.877  25.309  1.00  0.00    -0.275 OA
ATOM     26  N   UNL A   1      36.275  22.985  25.457  1.00  0.00    -0.338 N 
ATOM     27  C   UNL A   1      36.353  21.622  24.930  1.00  0.00     0.148 C 
ATOM     28  C   UNL A   1      37.548  23.693  25.337  1.00  0.00     0.148 C 
ATOM     29  C   UNL A   1      37.479  20.856  25.637  1.00  0.00     0.181 C 
ATOM     30  C   UNL A   1      38.654  22.876  26.016  1.00  0.00     0.181 C 
ATOM     31  O   UNL A   1      38.730  21.548  25.467  1.00  0.00    -0.378 OA
ENDBRANCH  12  24
ENDBRANCH   5   8
ENDBRANCH   3   4
ENDBRANCH   2   3
ENDBRANCH   1   2
BRANCH   1  32
ATOM     32  C   UNL A   1      33.651  28.436  27.125  1.00  0.00     0.116 C 
BRANCH  32  33
ATOM     33  N   UNL A   1      33.604  29.853  27.455  1.00  0.00    -0.352 N 
ATOM     34  C   UNL A   1      34.585  30.627  28.026  1.00  0.00     0.251 C 
ATOM     35  H   UNL A   1      32.762  30.316  27.242  1.00  0.00     0.163 HD
ATOM     36  O   UNL A   1      34.355  31.788  28.346  1.00  0.00    -0.269 OA
BRANCH  34  37
ATOM     37  C   UNL A   1      35.903  30.017  28.282  1.00  0.00     0.039 A 
ATOM     38  C   UNL A   1      36.881  30.084  27.289  1.00  0.00     0.014 A 
ATOM     39  C   UNL A   1      36.187  29.459  29.532  1.00  0.00     0.014 A 
ATOM     40  C   UNL A   1      38.175  29.650  27.576  1.00  0.00     0.010 A 
ATOM     41  C   UNL A   1      37.493  29.100  29.838  1.00  0.00     0.010 A 
ATOM     42  C   UNL A   1      38.499  29.190  28.863  1.00  0.00    -0.014 A 
BRANCH  42  43
ATOM     43  C   UNL A   1      39.887  28.797  29.211  1.00  0.00     0.031 A 
ATOM     44  C   UNL A   1      40.792  29.779  29.900  1.00  0.00     0.074 A 
ATOM     45  C   UNL A   1      40.349  27.585  28.847  1.00  0.00     0.049 A 
ATOM     46  N   UNL A   1      42.048  29.645  30.236  1.00  0.00    -0.248 NA
ATOM     47  C   UNL A   1      40.219  31.096  30.227  1.00  0.00     0.031 C 
ATOM     48  C   UNL A   1      39.580  26.563  28.130  1.00  0.00     0.029 A 
ATOM     49  N   UNL A   1      41.581  27.007  29.025  1.00  0.00    -0.354 N 
ATOM     50  C   UNL A   1      42.422  30.862  30.795  1.00  0.00     0.074 A 
ATOM     51  C   UNL A   1      41.275  31.739  30.704  1.00  0.00     0.031 C 
ATOM     52  C   UNL A   1      40.349  25.475  27.956  1.00  0.00     0.029 A 
ATOM     53  C   UNL A   1      41.674  25.735  28.512  1.00  0.00     0.049 A 
ATOM     54  H   UNL A   1      42.327  27.462  29.477  1.00  0.00     0.167 HD
ATOM     55  C   UNL A   1      43.603  31.211  31.354  1.00  0.00     0.031 A 
ATOM     56  C   UNL A   1      42.710  24.874  28.490  1.00  0.00     0.031 A 
ATOM     57  C   UNL A   1      44.735  30.330  31.456  1.00  0.00     0.049 A 
ATOM     58  C   UNL A   1      44.012  25.281  29.122  1.00  0.00     0.074 A 
ATOM     59  C   UNL A   1      45.958  30.566  32.059  1.00  0.00     0.029 A 
ATOM     60  N   UNL A   1      44.784  29.043  30.941  1.00  0.00    -0.354 N 
ATOM     61  N   UNL A   1      44.323  26.413  29.710  1.00  0.00    -0.248 NA
ATOM     62  C   UNL A   1      45.098  24.293  29.100  1.00  0.00     0.031 C 
ATOM     63  C   UNL A   1      46.763  29.439  31.866  1.00  0.00     0.029 A 
ATOM     64  C   UNL A   1      46.022  28.479  31.193  1.00  0.00     0.049 A 
ATOM     65  H   UNL A   1      44.046  28.596  30.467  1.00  0.00     0.167 HD
ATOM     66  C   UNL A   1      45.633  26.262  30.150  1.00  0.00     0.074 A 
ATOM     67  C   UNL A   1      46.050  24.927  29.773  1.00  0.00     0.031 C 
ATOM     68  C   UNL A   1      46.420  27.148  30.809  1.00  0.00     0.031 A 
BRANCH  55  69
ATOM     69  C   UNL A   1      43.727  32.612  31.892  1.00  0.00    -0.014 A 
ATOM     70  C   UNL A   1      44.094  33.683  31.055  1.00  0.00     0.010 A 
ATOM     71  C   UNL A   1      43.453  32.867  33.248  1.00  0.00     0.010 A 
ATOM     72  C   UNL A   1      44.233  34.972  31.575  1.00  0.00     0.020 A 
ATOM     73  C   UNL A   1      43.561  34.162  33.765  1.00  0.00     0.020 A 
ATOM     74  C   UNL A   1      43.971  35.202  32.928  1.00  0.00     0.054 A 
BRANCH  74  75
ATOM     75  S   UNL A   1      44.147  36.888  33.573  1.00  0.00     0.124 S 
ATOM     76  O   UNL A   1      44.971  36.670  34.760  1.00  0.00    -0.237 OA
ATOM     77  O   UNL A   1      44.807  37.585  32.472  1.00  0.00    -0.237 OA
ATOM     78  O   UNL A   1      42.772  37.305  33.836  1.00  0.00    -0.744 OA
ENDBRANCH  74  75
ENDBRANCH  55  69
BRANCH  56  79
ATOM     79  C   UNL A   1      42.546  23.532  27.867  1.00  0.00    -0.014 A 
ATOM     80  C   UNL A   1      42.946  23.310  26.538  1.00  0.00     0.010 A 
ATOM     81  C   UNL A   1      42.013  22.463  28.608  1.00  0.00     0.010 A 
ATOM     82  C   UNL A   1      42.802  22.047  25.955  1.00  0.00     0.020 A 
ATOM     83  C   UNL A   1      41.891  21.192  28.037  1.00  0.00     0.020 A 
ATOM     84  C   UNL A   1      42.278  20.994  26.711  1.00  0.00     0.054 A 
BRANCH  84  85
ATOM     85  S   UNL A   1      42.157  19.349  25.954  1.00  0.00     0.124 S 
ATOM     86  O   UNL A   1      40.721  19.223  25.730  1.00  0.00    -0.237 OA
ATOM     87  O   UNL A   1      42.975  19.494  24.752  1.00  0.00    -0.237 OA
ATOM     88  O   UNL A   1      42.714  18.464  26.974  1.00  0.00    -0.744 OA
ENDBRANCH  84  85
ENDBRANCH  56  79
BRANCH  68  89
ATOM     89  C   UNL A   1      47.802  26.695  31.194  1.00  0.00    -0.014 A 
ATOM     90  C   UNL A   1      48.060  26.137  32.459  1.00  0.00     0.010 A 
ATOM     91  C   UNL A   1      48.845  26.776  30.253  1.00  0.00     0.010 A 
ATOM     92  C   UNL A   1      49.344  25.694  32.785  1.00  0.00     0.020 A 
ATOM     93  C   UNL A   1      50.123  26.310  30.566  1.00  0.00     0.020 A 
ATOM     94  C   UNL A   1      50.368  25.784  31.836  1.00  0.00     0.054 A 
BRANCH  94  95
ATOM     95  S   UNL A   1      52.015  25.161  32.268  1.00  0.00     0.124 S 
ATOM     96  O   UNL A   1      52.837  25.702  31.190  1.00  0.00    -0.237 OA
ATOM     97  O   UNL A   1      52.244  25.744  33.587  1.00  0.00    -0.237 OA
ATOM     98  O   UNL A   1      51.850  23.709  32.255  1.00  0.00    -0.744 OA
ENDBRANCH  94  95
ENDBRANCH  68  89
ENDBRANCH  42  43
ENDBRANCH  34  37
ENDBRANCH  32  33
ENDBRANCH   1  32
TORSDOF 17
ENDMDL
