MODEL 1
REMARK VINA RESULT:      -9.2      0.000      0.000
REMARK SMILES CS(=O)(=O)c1ccc(/C=C(/C(=O)NCCCCNC(=O)c2ccc(-c3c4nc(c(-c5ccc(S(=O)(=O)[O-])cc5)c5ccc([nH]5)c(-c5ccc(S(=O)(=O)[O-])cc5)c5nc(c(-c6ccc(S(=O)(=O)[O-])cc6)c6ccc3[nH]6)C=C5)C=C4)cc2)c2ccc(-c3ccc(F)cc3F)cc2)cc1
REMARK SMILES IDX 16 1 15 2 14 3 13 4 11 5 12 6 10 8 9 9 8 10 5 11 6 12 96 13
REMARK SMILES IDX 7 14 95 15 2 16 1 17 3 18 4 19 81 20 82 21 94 22 83 23 93 24
REMARK SMILES IDX 84 25 85 26 86 27 91 28 87 29 90 30 92 31 88 32 89 33 17 34
REMARK SMILES IDX 18 35 19 36 20 38 21 39 22 40 80 41 23 42 79 43 24 44 25 45
REMARK SMILES IDX 26 46 73 47 27 48 78 49 72 50 74 51 28 52 77 53 71 54 70 55
REMARK SMILES IDX 29 57 59 58 40 59 58 60 41 61 44 62 57 63 75 64 42 65 43 66
REMARK SMILES IDX 56 68 76 69 45 70 30 71 31 72 39 73 32 74 38 75 33 76 34 77
REMARK SMILES IDX 35 78 36 79 37 80 60 81 61 82 69 83 62 84 68 85 63 86 64 87
REMARK SMILES IDX 65 88 66 89 67 90 46 91 47 92 55 93 48 94 54 95 49 96 50 97
REMARK SMILES IDX 51 98 52 99 53 100
REMARK H PARENT 13 7 18 37 74 56 44 67
REMARK Flexibility Score: inf
ROOT
ATOM      1  C   UNL A   1      34.651  33.508  30.427  1.00  0.00     0.023 C 
ENDROOT
BRANCH   1   2
ATOM      2  C   UNL A   1      34.659  32.452  31.539  1.00  0.00     0.023 C 
BRANCH   2   3
ATOM      3  C   UNL A   1      35.604  32.785  32.698  1.00  0.00     0.116 C 
BRANCH   3   4
ATOM      4  N   UNL A   1      36.787  33.448  32.193  1.00  0.00    -0.352 N 
ATOM      5  C   UNL A   1      37.959  33.836  32.756  1.00  0.00     0.251 C 
ATOM      6  O   UNL A   1      38.726  34.463  32.021  1.00  0.00    -0.269 OA
ATOM      7  H   UNL A   1      36.729  33.663  31.233  1.00  0.00     0.163 HD
BRANCH   5   8
ATOM      8  C   UNL A   1      38.380  33.468  34.165  1.00  0.00     0.047 C 
ATOM      9  C   UNL A   1      38.026  34.200  35.249  1.00  0.00     0.022 C 
BRANCH   9  10
ATOM     10  C   UNL A   1      38.206  33.923  36.693  1.00  0.00    -0.025 A 
ATOM     11  C   UNL A   1      38.546  33.118  39.361  1.00  0.00     0.067 A 
ATOM     12  C   UNL A   1      39.343  34.135  38.834  1.00  0.00     0.021 A 
ATOM     13  C   UNL A   1      37.557  32.518  38.585  1.00  0.00     0.021 A 
ATOM     14  C   UNL A   1      39.140  34.559  37.517  1.00  0.00     0.009 A 
ATOM     15  C   UNL A   1      37.392  32.923  37.257  1.00  0.00     0.009 A 
BRANCH  11  16
ATOM     16  S   UNL A   1      38.822  32.576  41.027  1.00  0.00     0.175 S 
ATOM     17  C   UNL A   1      40.590  32.589  41.156  1.00  0.00     0.163 C 
ATOM     18  O   UNL A   1      38.370  31.204  41.123  1.00  0.00    -0.224 OA
ATOM     19  O   UNL A   1      38.302  33.597  41.921  1.00  0.00    -0.224 OA
ENDBRANCH  11  16
ENDBRANCH   9  10
BRANCH   8  20
ATOM     20  C   UNL A   1      39.387  32.386  34.289  1.00  0.00    -0.013 A 
ATOM     21  C   UNL A   1      39.047  31.126  33.778  1.00  0.00     0.009 A 
ATOM     22  C   UNL A   1      40.682  32.588  34.772  1.00  0.00     0.009 A 
ATOM     23  C   UNL A   1      39.998  30.115  33.678  1.00  0.00     0.009 A 
ATOM     24  C   UNL A   1      41.647  31.576  34.640  1.00  0.00     0.009 A 
ATOM     25  C   UNL A   1      41.331  30.335  34.057  1.00  0.00    -0.015 A 
BRANCH  25  26
ATOM     26  C   UNL A   1      42.349  29.299  33.796  1.00  0.00     0.018 A 
ATOM     27  C   UNL A   1      42.057  28.221  32.931  1.00  0.00     0.015 A 
ATOM     28  C   UNL A   1      43.626  29.325  34.380  1.00  0.00     0.133 A 
ATOM     29  C   UNL A   1      42.988  27.210  32.689  1.00  0.00     0.040 A 
ATOM     30  C   UNL A   1      44.563  28.322  34.141  1.00  0.00     0.079 A 
ATOM     31  F   UNL A   1      43.973  30.322  35.207  1.00  0.00    -0.206 F 
ATOM     32  C   UNL A   1      44.232  27.269  33.301  1.00  0.00     0.126 A 
ATOM     33  F   UNL A   1      45.124  26.296  33.074  1.00  0.00    -0.207 F 
ENDBRANCH  25  26
ENDBRANCH   8  20
ENDBRANCH   5   8
ENDBRANCH   3   4
ENDBRANCH   2   3
ENDBRANCH   1   2
BRANCH   1  34
ATOM     34  C   UNL A   1      35.092  32.995  29.063  1.00  0.00     0.116 C 
BRANCH  34  35
ATOM     35  N   UNL A   1      34.138  32.069  28.468  1.00  0.00    -0.352 N 
ATOM     36  C   UNL A   1      34.369  30.783  28.043  1.00  0.00     0.251 C 
ATOM     37  H   UNL A   1      33.219  32.405  28.357  1.00  0.00     0.163 HD
ATOM     38  O   UNL A   1      33.508  30.153  27.441  1.00  0.00    -0.269 OA
BRANCH  36  39
ATOM     39  C   UNL A   1      35.697  30.197  28.301  1.00  0.00     0.039 A 
ATOM     40  C   UNL A   1      36.654  30.192  27.285  1.00  0.00     0.014 A 
ATOM     41  C   UNL A   1      36.013  29.749  29.587  1.00  0.00     0.014 A 
ATOM     42  C   UNL A   1      37.961  29.799  27.578  1.00  0.00     0.010 A 
ATOM     43  C   UNL A   1      37.330  29.435  29.892  1.00  0.00     0.010 A 
ATOM     44  C   UNL A   1      38.316  29.456  28.893  1.00  0.00    -0.014 A 
BRANCH  44  45
ATOM     45  C   UNL A   1      39.703  29.084  29.267  1.00  0.00     0.031 A 
ATOM     46  C   UNL A   1      40.599  30.125  29.880  1.00  0.00     0.074 A 
ATOM     47  C   UNL A   1      40.187  27.864  28.959  1.00  0.00     0.049 A 
ATOM     48  N   UNL A   1      41.884  30.074  30.115  1.00  0.00    -0.248 NA
ATOM     49  C   UNL A   1      39.969  31.405  30.246  1.00  0.00     0.031 C 
ATOM     50  C   UNL A   1      39.423  26.773  28.348  1.00  0.00     0.029 A 
ATOM     51  N   UNL A   1      41.450  27.342  29.100  1.00  0.00    -0.354 N 
ATOM     52  C   UNL A   1      42.220  31.323  30.622  1.00  0.00     0.074 A 
ATOM     53  C   UNL A   1      41.017  32.124  30.618  1.00  0.00     0.031 C 
ATOM     54  C   UNL A   1      40.228  25.713  28.178  1.00  0.00     0.029 A 
ATOM     55  C   UNL A   1      41.577  26.062  28.615  1.00  0.00     0.049 A 
ATOM     56  H   UNL A   1      42.194  27.839  29.511  1.00  0.00     0.167 HD
ATOM     57  C   UNL A   1      43.422  31.758  31.068  1.00  0.00     0.031 A 
ATOM     58  C   UNL A   1      42.662  25.267  28.511  1.00  0.00     0.031 A 
ATOM     59  C   UNL A   1      44.609  30.949  31.084  1.00  0.00     0.049 A 
ATOM     60  C   UNL A   1      43.995  25.782  28.987  1.00  0.00     0.074 A 
ATOM     61  C   UNL A   1      45.866  31.278  31.559  1.00  0.00     0.029 A 
ATOM     62  N   UNL A   1      44.688  29.650  30.605  1.00  0.00    -0.354 N 
ATOM     63  N   UNL A   1      44.287  26.951  29.505  1.00  0.00    -0.248 NA
ATOM     64  C   UNL A   1      45.144  24.871  28.871  1.00  0.00     0.031 C 
ATOM     65  C   UNL A   1      46.719  30.200  31.315  1.00  0.00     0.029 A 
ATOM     66  C   UNL A   1      45.976  29.171  30.757  1.00  0.00     0.049 A 
ATOM     67  H   UNL A   1      43.938  29.145  30.215  1.00  0.00     0.167 HD
ATOM     68  C   UNL A   1      45.642  26.899  29.819  1.00  0.00     0.074 A 
ATOM     69  C   UNL A   1      46.112  25.586  29.429  1.00  0.00     0.031 C 
ATOM     70  C   UNL A   1      46.421  27.849  30.389  1.00  0.00     0.031 A 
BRANCH  57  71
ATOM     71  C   UNL A   1      43.512  33.178  31.562  1.00  0.00    -0.014 A 
ATOM     72  C   UNL A   1      43.537  33.471  32.938  1.00  0.00     0.010 A 
ATOM     73  C   UNL A   1      43.614  34.233  30.636  1.00  0.00     0.010 A 
ATOM     74  C   UNL A   1      43.614  34.794  33.378  1.00  0.00     0.020 A 
ATOM     75  C   UNL A   1      43.728  35.555  31.072  1.00  0.00     0.020 A 
ATOM     76  C   UNL A   1      43.708  35.828  32.442  1.00  0.00     0.054 A 
BRANCH  76  77
ATOM     77  S   UNL A   1      43.833  37.534  33.044  1.00  0.00     0.124 S 
ATOM     78  O   UNL A   1      45.122  37.516  33.731  1.00  0.00    -0.237 OA
ATOM     79  O   UNL A   1      43.792  38.312  31.808  1.00  0.00    -0.237 OA
ATOM     80  O   UNL A   1      42.668  37.684  33.911  1.00  0.00    -0.744 OA
ENDBRANCH  76  77
ENDBRANCH  57  71
BRANCH  58  81
ATOM     81  C   UNL A   1      42.533  23.898  27.934  1.00  0.00    -0.014 A 
ATOM     82  C   UNL A   1      42.676  23.691  26.551  1.00  0.00     0.010 A 
ATOM     83  C   UNL A   1      42.275  22.793  28.765  1.00  0.00     0.010 A 
ATOM     84  C   UNL A   1      42.542  22.410  26.006  1.00  0.00     0.020 A 
ATOM     85  C   UNL A   1      42.171  21.506  28.229  1.00  0.00     0.020 A 
ATOM     86  C   UNL A   1      42.293  21.324  26.850  1.00  0.00     0.054 A 
BRANCH  86  87
ATOM     87  S   UNL A   1      42.168  19.666  26.125  1.00  0.00     0.124 S 
ATOM     88  O   UNL A   1      40.758  19.601  25.754  1.00  0.00    -0.237 OA
ATOM     89  O   UNL A   1      43.114  19.736  25.015  1.00  0.00    -0.237 OA
ATOM     90  O   UNL A   1      42.568  18.783  27.220  1.00  0.00    -0.744 OA
ENDBRANCH  86  87
ENDBRANCH  58  81
BRANCH  70  91
ATOM     91  C   UNL A   1      47.852  27.502  30.704  1.00  0.00    -0.014 A 
ATOM     92  C   UNL A   1      48.212  26.893  31.917  1.00  0.00     0.010 A 
ATOM     93  C   UNL A   1      48.829  27.676  29.705  1.00  0.00     0.010 A 
ATOM     94  C   UNL A   1      49.525  26.463  32.125  1.00  0.00     0.020 A 
ATOM     95  C   UNL A   1      50.135  27.223  29.899  1.00  0.00     0.020 A 
ATOM     96  C   UNL A   1      50.475  26.621  31.110  1.00  0.00     0.054 A 
BRANCH  96  97
ATOM     97  S   UNL A   1      52.145  25.959  31.367  1.00  0.00     0.124 S 
ATOM     98  O   UNL A   1      52.670  26.848  32.399  1.00  0.00    -0.237 OA
ATOM     99  O   UNL A   1      51.882  24.586  31.792  1.00  0.00    -0.237 OA
ATOM    100  O   UNL A   1      52.776  26.089  30.054  1.00  0.00    -0.744 OA
ENDBRANCH  96  97
ENDBRANCH  70  91
ENDBRANCH  44  45
ENDBRANCH  36  39
ENDBRANCH  34  35
ENDBRANCH   1  34
TORSDOF 18
ENDMDL
MODEL 2
REMARK VINA RESULT:      -8.7      3.465      5.959
REMARK SMILES CS(=O)(=O)c1ccc(/C=C(/C(=O)NCCCCNC(=O)c2ccc(-c3c4nc(c(-c5ccc(S(=O)(=O)[O-])cc5)c5ccc([nH]5)c(-c5ccc(S(=O)(=O)[O-])cc5)c5nc(c(-c6ccc(S(=O)(=O)[O-])cc6)c6ccc3[nH]6)C=C5)C=C4)cc2)c2ccc(-c3ccc(F)cc3F)cc2)cc1
REMARK SMILES IDX 16 1 15 2 14 3 13 4 11 5 12 6 10 8 9 9 8 10 5 11 6 12 96 13
REMARK SMILES IDX 7 14 95 15 2 16 1 17 3 18 4 19 81 20 82 21 94 22 83 23 93 24
REMARK SMILES IDX 84 25 85 26 86 27 91 28 87 29 90 30 92 31 88 32 89 33 17 34
REMARK SMILES IDX 18 35 19 36 20 38 21 39 22 40 80 41 23 42 79 43 24 44 25 45
REMARK SMILES IDX 26 46 73 47 27 48 78 49 72 50 74 51 28 52 77 53 71 54 70 55
REMARK SMILES IDX 29 57 59 58 40 59 58 60 41 61 44 62 57 63 75 64 42 65 43 66
REMARK SMILES IDX 56 68 76 69 45 70 30 71 31 72 39 73 32 74 38 75 33 76 34 77
REMARK SMILES IDX 35 78 36 79 37 80 60 81 61 82 69 83 62 84 68 85 63 86 64 87
REMARK SMILES IDX 65 88 66 89 67 90 46 91 47 92 55 93 48 94 54 95 49 96 50 97
REMARK SMILES IDX 51 98 52 99 53 100
REMARK H PARENT 13 7 18 37 74 56 44 67
REMARK Flexibility Score: inf
ROOT
ATOM      1  C   UNL A   1      36.790  32.119  31.256  1.00  0.00     0.023 C 
ENDROOT
BRANCH   1   2
ATOM      2  C   UNL A   1      36.473  31.491  32.618  1.00  0.00     0.023 C 
BRANCH   2   3
ATOM      3  C   UNL A   1      37.717  31.143  33.441  1.00  0.00     0.116 C 
BRANCH   3   4
ATOM      4  N   UNL A   1      38.352  32.357  33.908  1.00  0.00    -0.352 N 
ATOM      5  C   UNL A   1      39.623  32.830  33.862  1.00  0.00     0.251 C 
ATOM      6  O   UNL A   1      39.821  33.897  34.448  1.00  0.00    -0.269 OA
ATOM      7  H   UNL A   1      37.727  32.973  34.356  1.00  0.00     0.163 HD
BRANCH   5   8
ATOM      8  C   UNL A   1      40.739  32.170  33.077  1.00  0.00     0.047 C 
ATOM      9  C   UNL A   1      41.335  31.021  33.476  1.00  0.00     0.022 C 
BRANCH   9  10
ATOM     10  C   UNL A   1      42.317  30.158  32.780  1.00  0.00    -0.025 A 
ATOM     11  C   UNL A   1      44.346  28.552  31.692  1.00  0.00     0.067 A 
ATOM     12  C   UNL A   1      43.019  28.126  31.639  1.00  0.00     0.021 A 
ATOM     13  C   UNL A   1      44.674  29.784  32.252  1.00  0.00     0.021 A 
ATOM     14  C   UNL A   1      42.009  28.950  32.144  1.00  0.00     0.009 A 
ATOM     15  C   UNL A   1      43.659  30.580  32.791  1.00  0.00     0.009 A 
BRANCH  11  16
ATOM     16  S   UNL A   1      45.622  27.492  31.062  1.00  0.00     0.175 S 
ATOM     17  C   UNL A   1      46.101  26.562  32.493  1.00  0.00     0.163 C 
ATOM     18  O   UNL A   1      46.736  28.330  30.672  1.00  0.00    -0.224 OA
ATOM     19  O   UNL A   1      45.012  26.573  30.116  1.00  0.00    -0.224 OA
ENDBRANCH  11  16
ENDBRANCH   9  10
BRANCH   8  20
ATOM     20  C   UNL A   1      41.309  32.957  31.956  1.00  0.00    -0.013 A 
ATOM     21  C   UNL A   1      40.512  33.126  30.815  1.00  0.00     0.009 A 
ATOM     22  C   UNL A   1      42.532  33.630  32.027  1.00  0.00     0.009 A 
ATOM     23  C   UNL A   1      40.888  34.006  29.804  1.00  0.00     0.009 A 
ATOM     24  C   UNL A   1      42.891  34.541  31.020  1.00  0.00     0.009 A 
ATOM     25  C   UNL A   1      42.059  34.772  29.910  1.00  0.00    -0.015 A 
BRANCH  25  26
ATOM     26  C   UNL A   1      42.352  35.808  28.901  1.00  0.00     0.018 A 
ATOM     27  C   UNL A   1      42.210  37.175  29.227  1.00  0.00     0.015 A 
ATOM     28  C   UNL A   1      42.770  35.501  27.596  1.00  0.00     0.133 A 
ATOM     29  C   UNL A   1      42.449  38.177  28.284  1.00  0.00     0.040 A 
ATOM     30  C   UNL A   1      43.015  36.494  26.650  1.00  0.00     0.079 A 
ATOM     31  F   UNL A   1      42.931  34.223  27.219  1.00  0.00    -0.206 F 
ATOM     32  C   UNL A   1      42.846  37.824  27.003  1.00  0.00     0.126 A 
ATOM     33  F   UNL A   1      43.070  38.784  26.096  1.00  0.00    -0.207 F 
ENDBRANCH  25  26
ENDBRANCH   8  20
ENDBRANCH   5   8
ENDBRANCH   3   4
ENDBRANCH   2   3
ENDBRANCH   1   2
BRANCH   1  34
ATOM     34  C   UNL A   1      37.434  31.169  30.255  1.00  0.00     0.116 C 
BRANCH  34  35
ATOM     35  N   UNL A   1      36.459  30.398  29.495  1.00  0.00    -0.352 N 
ATOM     36  C   UNL A   1      36.707  29.435  28.547  1.00  0.00     0.251 C 
ATOM     37  H   UNL A   1      35.512  30.590  29.682  1.00  0.00     0.163 HD
ATOM     38  O   UNL A   1      35.795  28.950  27.887  1.00  0.00    -0.269 OA
BRANCH  36  39
ATOM     39  C   UNL A   1      38.106  29.027  28.322  1.00  0.00     0.039 A 
ATOM     40  C   UNL A   1      38.758  29.428  27.154  1.00  0.00     0.014 A 
ATOM     41  C   UNL A   1      38.791  28.336  29.325  1.00  0.00     0.014 A 
ATOM     42  C   UNL A   1      40.127  29.194  27.021  1.00  0.00     0.010 A 
ATOM     43  C   UNL A   1      40.165  28.176  29.223  1.00  0.00     0.010 A 
ATOM     44  C   UNL A   1      40.847  28.601  28.071  1.00  0.00    -0.014 A 
BRANCH  44  45
ATOM     45  C   UNL A   1      42.313  28.380  28.000  1.00  0.00     0.031 A 
ATOM     46  C   UNL A   1      43.240  29.507  28.363  1.00  0.00     0.074 A 
ATOM     47  C   UNL A   1      42.803  27.223  27.513  1.00  0.00     0.049 A 
ATOM     48  N   UNL A   1      44.534  29.596  28.203  1.00  0.00    -0.248 NA
ATOM     49  C   UNL A   1      42.622  30.708  28.951  1.00  0.00     0.031 C 
ATOM     50  C   UNL A   1      42.006  26.061  27.112  1.00  0.00     0.029 A 
ATOM     51  N   UNL A   1      44.097  26.842  27.251  1.00  0.00    -0.354 N 
ATOM     52  C   UNL A   1      44.879  30.869  28.638  1.00  0.00     0.074 A 
ATOM     53  C   UNL A   1      43.654  31.534  29.025  1.00  0.00     0.031 C 
ATOM     54  C   UNL A   1      42.828  25.097  26.667  1.00  0.00     0.029 A 
ATOM     55  C   UNL A   1      44.203  25.587  26.698  1.00  0.00     0.049 A 
ATOM     56  H   UNL A   1      44.876  27.413  27.442  1.00  0.00     0.167 HD
ATOM     57  C   UNL A   1      46.108  31.430  28.723  1.00  0.00     0.031 A 
ATOM     58  C   UNL A   1      45.281  24.917  26.243  1.00  0.00     0.031 A 
ATOM     59  C   UNL A   1      47.321  30.756  28.353  1.00  0.00     0.049 A 
ATOM     60  C   UNL A   1      46.636  25.571  26.322  1.00  0.00     0.074 A 
ATOM     61  C   UNL A   1      48.622  31.217  28.446  1.00  0.00     0.029 A 
ATOM     62  N   UNL A   1      47.385  29.478  27.819  1.00  0.00    -0.354 N 
ATOM     63  N   UNL A   1      46.950  26.761  26.778  1.00  0.00    -0.248 NA
ATOM     64  C   UNL A   1      47.784  24.792  25.833  1.00  0.00     0.031 C 
ATOM     65  C   UNL A   1      49.468  30.240  27.916  1.00  0.00     0.029 A 
ATOM     66  C   UNL A   1      48.701  29.141  27.561  1.00  0.00     0.049 A 
ATOM     67  H   UNL A   1      46.608  28.897  27.649  1.00  0.00     0.167 HD
ATOM     68  C   UNL A   1      48.334  26.854  26.673  1.00  0.00     0.074 A 
ATOM     69  C   UNL A   1      48.797  25.604  26.107  1.00  0.00     0.031 C 
ATOM     70  C   UNL A   1      49.147  27.879  27.024  1.00  0.00     0.031 A 
BRANCH  57  71
ATOM     71  C   UNL A   1      46.197  32.847  29.226  1.00  0.00    -0.014 A 
ATOM     72  C   UNL A   1      46.112  33.940  28.345  1.00  0.00     0.010 A 
ATOM     73  C   UNL A   1      46.326  33.089  30.607  1.00  0.00     0.010 A 
ATOM     74  C   UNL A   1      46.203  35.247  28.829  1.00  0.00     0.020 A 
ATOM     75  C   UNL A   1      46.381  34.396  31.098  1.00  0.00     0.020 A 
ATOM     76  C   UNL A   1      46.337  35.467  30.202  1.00  0.00     0.054 A 
BRANCH  76  77
ATOM     77  S   UNL A   1      46.426  37.175  30.803  1.00  0.00     0.124 S 
ATOM     78  O   UNL A   1      47.043  37.860  29.669  1.00  0.00    -0.237 OA
ATOM     79  O   UNL A   1      45.023  37.502  31.045  1.00  0.00    -0.237 OA
ATOM     80  O   UNL A   1      47.257  37.081  32.000  1.00  0.00    -0.744 OA
ENDBRANCH  76  77
ENDBRANCH  57  71
BRANCH  58  81
ATOM     81  C   UNL A   1      45.126  23.548  25.675  1.00  0.00    -0.014 A 
ATOM     82  C   UNL A   1      45.356  22.414  26.475  1.00  0.00     0.010 A 
ATOM     83  C   UNL A   1      44.740  23.368  24.335  1.00  0.00     0.010 A 
ATOM     84  C   UNL A   1      45.224  21.128  25.941  1.00  0.00     0.020 A 
ATOM     85  C   UNL A   1      44.576  22.085  23.804  1.00  0.00     0.020 A 
ATOM     86  C   UNL A   1      44.832  20.972  24.608  1.00  0.00     0.054 A 
BRANCH  86  87
ATOM     87  S   UNL A   1      44.624  19.294  23.951  1.00  0.00     0.124 S 
ATOM     88  O   UNL A   1      45.843  18.634  24.409  1.00  0.00    -0.237 OA
ATOM     89  O   UNL A   1      43.387  18.856  24.592  1.00  0.00    -0.237 OA
ATOM     90  O   UNL A   1      44.529  19.501  22.507  1.00  0.00    -0.744 OA
ENDBRANCH  86  87
ENDBRANCH  58  81
BRANCH  70  91
ATOM     91  C   UNL A   1      50.634  27.687  26.886  1.00  0.00    -0.014 A 
ATOM     92  C   UNL A   1      51.375  28.361  25.901  1.00  0.00     0.010 A 
ATOM     93  C   UNL A   1      51.311  26.913  27.847  1.00  0.00     0.010 A 
ATOM     94  C   UNL A   1      52.769  28.265  25.882  1.00  0.00     0.020 A 
ATOM     95  C   UNL A   1      52.706  26.837  27.847  1.00  0.00     0.020 A 
ATOM     96  C   UNL A   1      53.426  27.513  26.862  1.00  0.00     0.054 A 
BRANCH  96  97
ATOM     97  S   UNL A   1      55.239  27.491  26.876  1.00  0.00     0.124 S 
ATOM     98  O   UNL A   1      55.525  26.500  27.909  1.00  0.00    -0.237 OA
ATOM     99  O   UNL A   1      55.564  27.087  25.510  1.00  0.00    -0.237 OA
ATOM    100  O   UNL A   1      55.602  28.866  27.215  1.00  0.00    -0.744 OA
ENDBRANCH  96  97
ENDBRANCH  70  91
ENDBRANCH  44  45
ENDBRANCH  36  39
ENDBRANCH  34  35
ENDBRANCH   1  34
TORSDOF 18
ENDMDL
MODEL 3
REMARK VINA RESULT:      -8.6      0.788      7.804
REMARK SMILES CS(=O)(=O)c1ccc(/C=C(/C(=O)NCCCCNC(=O)c2ccc(-c3c4nc(c(-c5ccc(S(=O)(=O)[O-])cc5)c5ccc([nH]5)c(-c5ccc(S(=O)(=O)[O-])cc5)c5nc(c(-c6ccc(S(=O)(=O)[O-])cc6)c6ccc3[nH]6)C=C5)C=C4)cc2)c2ccc(-c3ccc(F)cc3F)cc2)cc1
REMARK SMILES IDX 16 1 15 2 14 3 13 4 11 5 12 6 10 8 9 9 8 10 5 11 6 12 96 13
REMARK SMILES IDX 7 14 95 15 2 16 1 17 3 18 4 19 81 20 82 21 94 22 83 23 93 24
REMARK SMILES IDX 84 25 85 26 86 27 91 28 87 29 90 30 92 31 88 32 89 33 17 34
REMARK SMILES IDX 18 35 19 36 20 38 21 39 22 40 80 41 23 42 79 43 24 44 25 45
REMARK SMILES IDX 26 46 73 47 27 48 78 49 72 50 74 51 28 52 77 53 71 54 70 55
REMARK SMILES IDX 29 57 59 58 40 59 58 60 41 61 44 62 57 63 75 64 42 65 43 66
REMARK SMILES IDX 56 68 76 69 45 70 30 71 31 72 39 73 32 74 38 75 33 76 34 77
REMARK SMILES IDX 35 78 36 79 37 80 60 81 61 82 69 83 62 84 68 85 63 86 64 87
REMARK SMILES IDX 65 88 66 89 67 90 46 91 47 92 55 93 48 94 54 95 49 96 50 97
REMARK SMILES IDX 51 98 52 99 53 100
REMARK H PARENT 13 7 18 37 74 56 44 67
REMARK Flexibility Score: inf
ROOT
ATOM      1  C   UNL A   1      34.961  33.395  30.072  1.00  0.00     0.023 C 
ENDROOT
BRANCH   1   2
ATOM      2  C   UNL A   1      34.750  32.389  31.210  1.00  0.00     0.023 C 
BRANCH   2   3
ATOM      3  C   UNL A   1      35.742  32.547  32.365  1.00  0.00     0.116 C 
BRANCH   3   4
ATOM      4  N   UNL A   1      36.894  33.303  31.923  1.00  0.00    -0.352 N 
ATOM      5  C   UNL A   1      38.001  33.780  32.547  1.00  0.00     0.251 C 
ATOM      6  O   UNL A   1      38.755  34.468  31.853  1.00  0.00    -0.269 OA
ATOM      7  H   UNL A   1      36.870  33.517  30.962  1.00  0.00     0.163 HD
BRANCH   5   8
ATOM      8  C   UNL A   1      38.376  33.439  33.975  1.00  0.00     0.047 C 
ATOM      9  C   UNL A   1      38.057  34.235  35.024  1.00  0.00     0.022 C 
BRANCH   9  10
ATOM     10  C   UNL A   1      38.197  34.003  36.481  1.00  0.00    -0.025 A 
ATOM     11  C   UNL A   1      38.411  33.286  39.186  1.00  0.00     0.067 A 
ATOM     12  C   UNL A   1      39.371  34.117  38.610  1.00  0.00     0.021 A 
ATOM     13  C   UNL A   1      37.325  32.833  38.441  1.00  0.00     0.021 A 
ATOM     14  C   UNL A   1      39.236  34.504  37.273  1.00  0.00     0.009 A 
ATOM     15  C   UNL A   1      37.223  33.194  37.095  1.00  0.00     0.009 A 
BRANCH  11  16
ATOM     16  S   UNL A   1      38.600  32.788  40.879  1.00  0.00     0.175 S 
ATOM     17  C   UNL A   1      37.380  31.512  41.050  1.00  0.00     0.163 C 
ATOM     18  O   UNL A   1      38.208  33.905  41.712  1.00  0.00    -0.224 OA
ATOM     19  O   UNL A   1      39.910  32.174  41.020  1.00  0.00    -0.224 OA
ENDBRANCH  11  16
ENDBRANCH   9  10
BRANCH   8  20
ATOM     20  C   UNL A   1      39.305  32.298  34.158  1.00  0.00    -0.013 A 
ATOM     21  C   UNL A   1      39.020  31.115  33.461  1.00  0.00     0.009 A 
ATOM     22  C   UNL A   1      40.498  32.380  34.882  1.00  0.00     0.009 A 
ATOM     23  C   UNL A   1      39.938  30.070  33.422  1.00  0.00     0.009 A 
ATOM     24  C   UNL A   1      41.434  31.336  34.813  1.00  0.00     0.009 A 
ATOM     25  C   UNL A   1      41.187  30.178  34.053  1.00  0.00    -0.015 A 
BRANCH  25  26
ATOM     26  C   UNL A   1      42.199  29.121  33.865  1.00  0.00     0.018 A 
ATOM     27  C   UNL A   1      43.387  29.134  34.629  1.00  0.00     0.015 A 
ATOM     28  C   UNL A   1      42.044  28.078  32.939  1.00  0.00     0.133 A 
ATOM     29  C   UNL A   1      44.377  28.166  34.451  1.00  0.00     0.040 A 
ATOM     30  C   UNL A   1      43.024  27.104  32.758  1.00  0.00     0.079 A 
ATOM     31  F   UNL A   1      40.938  28.000  32.183  1.00  0.00    -0.206 F 
ATOM     32  C   UNL A   1      44.185  27.162  33.512  1.00  0.00     0.126 A 
ATOM     33  F   UNL A   1      45.137  26.236  33.337  1.00  0.00    -0.207 F 
ENDBRANCH  25  26
ENDBRANCH   8  20
ENDBRANCH   5   8
ENDBRANCH   3   4
ENDBRANCH   2   3
ENDBRANCH   1   2
BRANCH   1  34
ATOM     34  C   UNL A   1      35.173  32.766  28.702  1.00  0.00     0.116 C 
BRANCH  34  35
ATOM     35  N   UNL A   1      34.253  31.670  28.430  1.00  0.00    -0.352 N 
ATOM     36  C   UNL A   1      34.561  30.348  28.221  1.00  0.00     0.251 C 
ATOM     37  H   UNL A   1      33.297  31.905  28.392  1.00  0.00     0.163 HD
ATOM     38  O   UNL A   1      33.701  29.547  27.875  1.00  0.00    -0.269 OA
BRANCH  36  39
ATOM     39  C   UNL A   1      35.965  29.928  28.390  1.00  0.00     0.039 A 
ATOM     40  C   UNL A   1      36.829  29.966  27.294  1.00  0.00     0.014 A 
ATOM     41  C   UNL A   1      36.436  29.599  29.664  1.00  0.00     0.014 A 
ATOM     42  C   UNL A   1      38.192  29.739  27.490  1.00  0.00     0.010 A 
ATOM     43  C   UNL A   1      37.800  29.452  29.867  1.00  0.00     0.010 A 
ATOM     44  C   UNL A   1      38.692  29.519  28.784  1.00  0.00    -0.014 A 
BRANCH  44  45
ATOM     45  C   UNL A   1      40.138  29.326  29.052  1.00  0.00     0.031 A 
ATOM     46  C   UNL A   1      40.769  27.998  28.735  1.00  0.00     0.074 A 
ATOM     47  C   UNL A   1      40.850  30.289  29.671  1.00  0.00     0.049 A 
ATOM     48  N   UNL A   1      41.957  27.552  29.049  1.00  0.00    -0.248 NA
ATOM     49  C   UNL A   1      39.938  27.032  27.996  1.00  0.00     0.031 C 
ATOM     50  C   UNL A   1      40.348  31.613  30.045  1.00  0.00     0.029 A 
ATOM     51  N   UNL A   1      42.150  30.291  30.118  1.00  0.00    -0.354 N 
ATOM     52  C   UNL A   1      42.002  26.246  28.578  1.00  0.00     0.074 A 
ATOM     53  C   UNL A   1      40.710  25.956  27.999  1.00  0.00     0.031 C 
ATOM     54  C   UNL A   1      41.329  32.301  30.652  1.00  0.00     0.029 A 
ATOM     55  C   UNL A   1      42.511  31.451  30.761  1.00  0.00     0.049 A 
ATOM     56  H   UNL A   1      42.764  29.533  29.988  1.00  0.00     0.167 HD
ATOM     57  C   UNL A   1      43.035  25.371  28.611  1.00  0.00     0.031 A 
ATOM     58  C   UNL A   1      43.657  31.785  31.390  1.00  0.00     0.031 A 
ATOM     59  C   UNL A   1      44.321  25.674  29.173  1.00  0.00     0.049 A 
ATOM     60  C   UNL A   1      44.783  30.786  31.438  1.00  0.00     0.074 A 
ATOM     61  C   UNL A   1      45.450  24.875  29.213  1.00  0.00     0.029 A 
ATOM     62  N   UNL A   1      44.652  26.869  29.794  1.00  0.00    -0.354 N 
ATOM     63  N   UNL A   1      44.825  29.569  30.948  1.00  0.00    -0.248 NA
ATOM     64  C   UNL A   1      46.020  31.203  32.117  1.00  0.00     0.031 C 
ATOM     65  C   UNL A   1      46.446  25.565  29.908  1.00  0.00     0.029 A 
ATOM     66  C   UNL A   1      45.961  26.822  30.235  1.00  0.00     0.049 A 
ATOM     67  H   UNL A   1      44.044  27.636  29.902  1.00  0.00     0.167 HD
ATOM     68  C   UNL A   1      46.105  29.095  31.219  1.00  0.00     0.074 A 
ATOM     69  C   UNL A   1      46.805  30.152  31.919  1.00  0.00     0.031 C 
ATOM     70  C   UNL A   1      46.652  27.896  30.905  1.00  0.00     0.031 A 
BRANCH  57  71
ATOM     71  C   UNL A   1      42.807  24.000  28.031  1.00  0.00    -0.014 A 
ATOM     72  C   UNL A   1      42.384  22.928  28.838  1.00  0.00     0.010 A 
ATOM     73  C   UNL A   1      42.981  23.790  26.650  1.00  0.00     0.010 A 
ATOM     74  C   UNL A   1      42.184  21.661  28.284  1.00  0.00     0.020 A 
ATOM     75  C   UNL A   1      42.747  22.533  26.086  1.00  0.00     0.020 A 
ATOM     76  C   UNL A   1      42.368  21.471  26.911  1.00  0.00     0.054 A 
BRANCH  76  77
ATOM     77  S   UNL A   1      42.076  19.823  26.217  1.00  0.00     0.124 S 
ATOM     78  O   UNL A   1      42.437  18.957  27.338  1.00  0.00    -0.237 OA
ATOM     79  O   UNL A   1      40.653  19.862  25.887  1.00  0.00    -0.237 OA
ATOM     80  O   UNL A   1      42.977  19.762  25.069  1.00  0.00    -0.744 OA
ENDBRANCH  76  77
ENDBRANCH  57  71
BRANCH  58  81
ATOM     81  C   UNL A   1      43.799  33.127  32.022  1.00  0.00    -0.014 A 
ATOM     82  C   UNL A   1      43.702  33.271  33.417  1.00  0.00     0.010 A 
ATOM     83  C   UNL A   1      44.040  34.268  31.235  1.00  0.00     0.010 A 
ATOM     84  C   UNL A   1      43.821  34.532  34.012  1.00  0.00     0.020 A 
ATOM     85  C   UNL A   1      44.191  35.525  31.827  1.00  0.00     0.020 A 
ATOM     86  C   UNL A   1      44.068  35.651  33.212  1.00  0.00     0.054 A 
BRANCH  86  87
ATOM     87  S   UNL A   1      44.264  37.268  34.011  1.00  0.00     0.124 S 
ATOM     88  O   UNL A   1      43.218  37.234  35.029  1.00  0.00    -0.237 OA
ATOM     89  O   UNL A   1      45.636  37.209  34.508  1.00  0.00    -0.237 OA
ATOM     90  O   UNL A   1      44.044  38.217  32.921  1.00  0.00    -0.744 OA
ENDBRANCH  86  87
ENDBRANCH  58  81
BRANCH  70  91
ATOM     91  C   UNL A   1      48.102  27.667  31.241  1.00  0.00    -0.014 A 
ATOM     92  C   UNL A   1      48.491  27.037  32.435  1.00  0.00     0.010 A 
ATOM     93  C   UNL A   1      49.080  27.977  30.276  1.00  0.00     0.010 A 
ATOM     94  C   UNL A   1      49.833  26.720  32.657  1.00  0.00     0.020 A 
ATOM     95  C   UNL A   1      50.418  27.636  30.483  1.00  0.00     0.020 A 
ATOM     96  C   UNL A   1      50.786  27.011  31.675  1.00  0.00     0.054 A 
BRANCH  96  97
ATOM     97  S   UNL A   1      52.504  26.494  31.945  1.00  0.00     0.124 S 
ATOM     98  O   UNL A   1      53.025  27.583  32.765  1.00  0.00    -0.237 OA
ATOM     99  O   UNL A   1      52.348  25.211  32.626  1.00  0.00    -0.237 OA
ATOM    100  O   UNL A   1      53.059  26.412  30.595  1.00  0.00    -0.744 OA
ENDBRANCH  96  97
ENDBRANCH  70  91
ENDBRANCH  44  45
ENDBRANCH  36  39
ENDBRANCH  34  35
ENDBRANCH   1  34
TORSDOF 18
ENDMDL
