MODEL 1
REMARK VINA RESULT:     -12.3      0.000      0.000
REMARK SMILES O=C(CNC(=O)N1CC(NCCCCNC(=O)c2ccc(-c3c4nc(c(-c5ccc(S(=O)(=O)[O-])cc5)c5ccc([nH]5)c(-c5ccc(S(=O)(=O)[O-])cc5)c5nc(c(-c6ccc(S(=O)(=O)[O-])cc6)c6ccc3[nH]6)C=C5)C=C4)cc2)=[NH+]c2ccccc21)N[C@H](C(=O)[O-])c1ccccc1
REMARK SMILES IDX 12 1 11 2 10 3 7 4 8 5 84 6 9 7 79 8 83 9 78 10 80 11 82 12
REMARK SMILES IDX 81 15 5 16 4 17 6 19 3 20 2 21 1 22 85 23 86 25 90 26 91 27
REMARK SMILES IDX 95 28 92 29 94 30 93 31 87 32 88 33 89 34 13 35 14 36 15 37
REMARK SMILES IDX 16 38 17 40 18 41 19 42 77 43 20 44 76 45 21 46 22 47 23 48
REMARK SMILES IDX 70 49 24 50 75 51 69 52 71 53 25 54 74 55 68 56 67 57 26 59
REMARK SMILES IDX 56 60 37 61 55 62 38 63 41 64 54 65 72 66 39 67 40 68 53 70
REMARK SMILES IDX 73 71 42 72 27 73 28 74 36 75 29 76 35 77 30 78 31 79 32 80
REMARK SMILES IDX 33 81 34 82 57 83 58 84 66 85 59 86 65 87 60 88 61 89 62 90
REMARK SMILES IDX 63 91 64 92 43 93 44 94 52 95 45 96 51 97 46 98 47 99 48 100
REMARK SMILES IDX 49 101 50 102
REMARK H PARENT 10 13 78 14 4 18 85 24 15 39 71 58 41 69
REMARK Flexibility Score: inf
ROOT
ATOM      1  C   UNL A   1      38.692  23.178  26.724  1.00  0.00     0.048 C 
ENDROOT
BRANCH   1   2
ATOM      2  C   UNL A   1      37.875  22.910  25.461  1.00  0.00     0.233 C 
BRANCH   2   3
ATOM      3  N   UNL A   1      37.522  21.517  25.340  1.00  0.00    -0.277 N 
ATOM      4  N   UNL A   1      33.892  21.145  25.308  1.00  0.00    -0.278 N 
ATOM      5  C   UNL A   1      35.061  21.834  24.791  1.00  0.00     0.255 C 
ATOM      6  C   UNL A   1      33.777  19.794  24.906  1.00  0.00     0.093 A 
ATOM      7  C   UNL A   1      36.301  20.963  25.042  1.00  0.00     0.268 C 
ATOM      8  C   UNL A   1      34.974  19.071  24.738  1.00  0.00     0.148 A 
ATOM      9  C   UNL A   1      32.532  19.162  24.791  1.00  0.00     0.031 A 
ATOM     10  N   UNL A   1      36.241  19.660  24.942  1.00  0.00    -0.241 N 
ATOM     11  C   UNL A   1      34.895  17.690  24.550  1.00  0.00     0.054 A 
ATOM     12  C   UNL A   1      32.473  17.785  24.588  1.00  0.00     0.002 A 
ATOM     13  H   UNL A   1      38.255  20.877  25.490  1.00  0.00     0.304 HD
ATOM     14  H   UNL A   1      37.054  19.107  25.006  1.00  0.00     0.312 HD
ATOM     15  C   UNL A   1      33.653  17.048  24.487  1.00  0.00     0.005 A 
BRANCH   4  16
ATOM     16  C   UNL A   1      33.123  21.784  26.247  1.00  0.00     0.323 C 
ATOM     17  N   UNL A   1      32.012  22.459  25.855  1.00  0.00    -0.329 N 
ATOM     18  H   UNL A   1      31.624  23.059  26.532  1.00  0.00     0.165 HD
ATOM     19  O   UNL A   1      33.345  21.691  27.456  1.00  0.00    -0.248 OA
BRANCH  17  20
ATOM     20  C   UNL A   1      31.307  22.427  24.571  1.00  0.00     0.218 C 
BRANCH  20  21
ATOM     21  C   UNL A   1      31.267  23.789  23.913  1.00  0.00     0.240 C 
ATOM     22  O   UNL A   1      30.245  24.184  23.361  1.00  0.00    -0.273 OA
ATOM     23  N   UNL A   1      32.465  24.467  24.010  1.00  0.00    -0.342 N 
ATOM     24  H   UNL A   1      33.260  23.983  24.333  1.00  0.00     0.164 HD
BRANCH  23  25
ATOM     25  C   UNL A   1      32.599  25.900  23.645  1.00  0.00     0.158 C 
BRANCH  25  26
ATOM     26  C   UNL A   1      32.673  26.780  24.886  1.00  0.00    -0.020 A 
ATOM     27  C   UNL A   1      33.769  27.592  25.189  1.00  0.00     0.006 A 
ATOM     28  C   UNL A   1      31.584  26.798  25.787  1.00  0.00     0.006 A 
ATOM     29  C   UNL A   1      33.832  28.294  26.397  1.00  0.00     0.000 A 
ATOM     30  C   UNL A   1      31.650  27.482  27.000  1.00  0.00     0.000 A 
ATOM     31  C   UNL A   1      32.786  28.218  27.312  1.00  0.00     0.000 A 
ENDBRANCH  25  26
BRANCH  25  32
ATOM     32  C   UNL A   1      33.597  26.034  22.440  1.00  0.00     0.068 C 
ATOM     33  O   UNL A   1      33.709  27.136  21.842  1.00  0.00    -0.548 OA
ATOM     34  O   UNL A   1      34.239  24.950  22.221  1.00  0.00    -0.548 OA
ENDBRANCH  25  32
ENDBRANCH  23  25
ENDBRANCH  20  21
ENDBRANCH  17  20
ENDBRANCH   4  16
ENDBRANCH   2   3
ENDBRANCH   1   2
BRANCH   1  35
ATOM     35  C   UNL A   1      39.995  22.382  26.842  1.00  0.00     0.025 C 
BRANCH  35  36
ATOM     36  C   UNL A   1      41.266  23.206  27.022  1.00  0.00     0.116 C 
BRANCH  36  37
ATOM     37  N   UNL A   1      41.539  24.106  25.908  1.00  0.00    -0.352 N 
ATOM     38  C   UNL A   1      41.636  25.478  25.905  1.00  0.00     0.251 C 
ATOM     39  H   UNL A   1      41.672  23.671  25.036  1.00  0.00     0.163 HD
ATOM     40  O   UNL A   1      41.777  26.081  24.844  1.00  0.00    -0.269 OA
BRANCH  38  41
ATOM     41  C   UNL A   1      41.539  26.234  27.175  1.00  0.00     0.039 A 
ATOM     42  C   UNL A   1      42.558  27.130  27.504  1.00  0.00     0.014 A 
ATOM     43  C   UNL A   1      40.445  26.074  28.030  1.00  0.00     0.014 A 
ATOM     44  C   UNL A   1      42.444  27.922  28.650  1.00  0.00     0.010 A 
ATOM     45  C   UNL A   1      40.298  26.914  29.132  1.00  0.00     0.010 A 
ATOM     46  C   UNL A   1      41.291  27.852  29.451  1.00  0.00    -0.014 A 
BRANCH  46  47
ATOM     47  C   UNL A   1      41.097  28.771  30.604  1.00  0.00     0.031 A 
ATOM     48  C   UNL A   1      41.954  28.647  31.836  1.00  0.00     0.074 A 
ATOM     49  C   UNL A   1      40.101  29.680  30.569  1.00  0.00     0.049 A 
ATOM     50  N   UNL A   1      41.904  29.333  32.950  1.00  0.00    -0.248 NA
ATOM     51  C   UNL A   1      42.992  27.603  31.823  1.00  0.00     0.031 C 
ATOM     52  C   UNL A   1      39.168  29.870  29.455  1.00  0.00     0.029 A 
ATOM     53  N   UNL A   1      39.699  30.609  31.497  1.00  0.00    -0.354 N 
ATOM     54  C   UNL A   1      42.884  28.794  33.774  1.00  0.00     0.074 A 
ATOM     55  C   UNL A   1      43.486  27.696  33.050  1.00  0.00     0.031 C 
ATOM     56  C   UNL A   1      38.323  30.870  29.752  1.00  0.00     0.029 A 
ATOM     57  C   UNL A   1      38.622  31.364  31.092  1.00  0.00     0.049 A 
ATOM     58  H   UNL A   1      40.139  30.723  32.370  1.00  0.00     0.167 HD
ATOM     59  C   UNL A   1      43.261  29.187  35.015  1.00  0.00     0.031 A 
ATOM     60  C   UNL A   1      37.944  32.339  31.728  1.00  0.00     0.031 A 
ATOM     61  C   UNL A   1      42.660  30.282  35.733  1.00  0.00     0.049 A 
ATOM     62  C   UNL A   1      38.374  32.748  33.113  1.00  0.00     0.074 A 
ATOM     63  C   UNL A   1      43.012  30.794  36.969  1.00  0.00     0.029 A 
ATOM     64  N   UNL A   1      41.579  31.027  35.285  1.00  0.00    -0.354 N 
ATOM     65  N   UNL A   1      39.360  32.283  33.843  1.00  0.00    -0.248 NA
ATOM     66  C   UNL A   1      37.607  33.826  33.753  1.00  0.00     0.031 C 
ATOM     67  C   UNL A   1      42.110  31.812  37.294  1.00  0.00     0.029 A 
ATOM     68  C   UNL A   1      41.236  31.978  36.233  1.00  0.00     0.049 A 
ATOM     69  H   UNL A   1      41.123  30.898  34.422  1.00  0.00     0.167 HD
ATOM     70  C   UNL A   1      39.348  33.030  35.016  1.00  0.00     0.074 A 
ATOM     71  C   UNL A   1      38.270  33.989  34.890  1.00  0.00     0.031 C 
ATOM     72  C   UNL A   1      40.161  32.930  36.097  1.00  0.00     0.031 A 
BRANCH  59  73
ATOM     73  C   UNL A   1      44.377  28.421  35.681  1.00  0.00    -0.014 A 
ATOM     74  C   UNL A   1      44.111  27.290  36.473  1.00  0.00     0.010 A 
ATOM     75  C   UNL A   1      45.714  28.811  35.475  1.00  0.00     0.010 A 
ATOM     76  C   UNL A   1      45.156  26.587  37.081  1.00  0.00     0.020 A 
ATOM     77  C   UNL A   1      46.764  28.093  36.058  1.00  0.00     0.020 A 
ATOM     78  C   UNL A   1      46.477  26.995  36.870  1.00  0.00     0.054 A 
BRANCH  78  79
ATOM     79  S   UNL A   1      47.813  26.047  37.650  1.00  0.00     0.124 S 
ATOM     80  O   UNL A   1      48.854  26.089  36.625  1.00  0.00    -0.237 OA
ATOM     81  O   UNL A   1      48.093  26.819  38.858  1.00  0.00    -0.237 OA
ATOM     82  O   UNL A   1      47.220  24.732  37.880  1.00  0.00    -0.744 OA
ENDBRANCH  78  79
ENDBRANCH  59  73
BRANCH  60  83
ATOM     83  C   UNL A   1      36.804  33.018  31.051  1.00  0.00    -0.014 A 
ATOM     84  C   UNL A   1      35.483  32.767  31.464  1.00  0.00     0.010 A 
ATOM     85  C   UNL A   1      37.028  33.927  30.000  1.00  0.00     0.010 A 
ATOM     86  C   UNL A   1      34.409  33.391  30.823  1.00  0.00     0.020 A 
ATOM     87  C   UNL A   1      35.957  34.576  29.376  1.00  0.00     0.020 A 
ATOM     88  C   UNL A   1      34.652  34.291  29.782  1.00  0.00     0.054 A 
BRANCH  88  89
ATOM     89  S   UNL A   1      33.235  35.103  28.993  1.00  0.00     0.124 S 
ATOM     90  O   UNL A   1      32.820  34.104  28.012  1.00  0.00    -0.237 OA
ATOM     91  O   UNL A   1      32.319  35.299  30.115  1.00  0.00    -0.237 OA
ATOM     92  O   UNL A   1      33.802  36.328  28.437  1.00  0.00    -0.744 OA
ENDBRANCH  88  89
ENDBRANCH  60  83
BRANCH  72  93
ATOM     93  C   UNL A   1      39.947  33.911  37.222  1.00  0.00    -0.014 A 
ATOM     94  C   UNL A   1      40.506  35.202  37.187  1.00  0.00     0.010 A 
ATOM     95  C   UNL A   1      39.123  33.553  38.304  1.00  0.00     0.010 A 
ATOM     96  C   UNL A   1      40.266  36.104  38.228  1.00  0.00     0.020 A 
ATOM     97  C   UNL A   1      38.857  34.462  39.332  1.00  0.00     0.020 A 
ATOM     98  C   UNL A   1      39.442  35.728  39.294  1.00  0.00     0.054 A 
BRANCH  98  99
ATOM     99  S   UNL A   1      39.105  36.934  40.608  1.00  0.00     0.124 S 
ATOM    100  O   UNL A   1      40.443  37.426  40.922  1.00  0.00    -0.237 OA
ATOM    101  O   UNL A   1      38.222  37.892  39.947  1.00  0.00    -0.237 OA
ATOM    102  O   UNL A   1      38.473  36.137  41.657  1.00  0.00    -0.744 OA
ENDBRANCH  98  99
ENDBRANCH  72  93
ENDBRANCH  46  47
ENDBRANCH  38  41
ENDBRANCH  36  37
ENDBRANCH  35  36
ENDBRANCH   1  35
TORSDOF 19
ENDMDL
MODEL 2
REMARK VINA RESULT:     -12.2      4.344     10.145
REMARK SMILES O=C(CNC(=O)N1CC(NCCCCNC(=O)c2ccc(-c3c4nc(c(-c5ccc(S(=O)(=O)[O-])cc5)c5ccc([nH]5)c(-c5ccc(S(=O)(=O)[O-])cc5)c5nc(c(-c6ccc(S(=O)(=O)[O-])cc6)c6ccc3[nH]6)C=C5)C=C4)cc2)=[NH+]c2ccccc21)N[C@H](C(=O)[O-])c1ccccc1
REMARK SMILES IDX 12 1 11 2 10 3 7 4 8 5 84 6 9 7 79 8 83 9 78 10 80 11 82 12
REMARK SMILES IDX 81 15 5 16 4 17 6 19 3 20 2 21 1 22 85 23 86 25 90 26 91 27
REMARK SMILES IDX 95 28 92 29 94 30 93 31 87 32 88 33 89 34 13 35 14 36 15 37
REMARK SMILES IDX 16 38 17 40 18 41 19 42 77 43 20 44 76 45 21 46 22 47 23 48
REMARK SMILES IDX 70 49 24 50 75 51 69 52 71 53 25 54 74 55 68 56 67 57 26 59
REMARK SMILES IDX 56 60 37 61 55 62 38 63 41 64 54 65 72 66 39 67 40 68 53 70
REMARK SMILES IDX 73 71 42 72 27 73 28 74 36 75 29 76 35 77 30 78 31 79 32 80
REMARK SMILES IDX 33 81 34 82 57 83 58 84 66 85 59 86 65 87 60 88 61 89 62 90
REMARK SMILES IDX 63 91 64 92 43 93 44 94 52 95 45 96 51 97 46 98 47 99 48 100
REMARK SMILES IDX 49 101 50 102
REMARK H PARENT 10 13 78 14 4 18 85 24 15 39 71 58 41 69
REMARK Flexibility Score: inf
ROOT
ATOM      1  C   UNL A   1      31.592  29.388  26.080  1.00  0.00     0.048 C 
ENDROOT
BRANCH   1   2
ATOM      2  C   UNL A   1      31.083  29.315  24.642  1.00  0.00     0.233 C 
BRANCH   2   3
ATOM      3  N   UNL A   1      31.848  28.383  23.851  1.00  0.00    -0.277 N 
ATOM      4  N   UNL A   1      30.916  24.960  24.702  1.00  0.00    -0.278 N 
ATOM      5  C   UNL A   1      30.482  26.301  24.356  1.00  0.00     0.255 C 
ATOM      6  C   UNL A   1      31.547  24.254  23.650  1.00  0.00     0.093 A 
ATOM      7  C   UNL A   1      31.643  27.037  23.671  1.00  0.00     0.268 C 
ATOM      8  C   UNL A   1      32.320  25.007  22.746  1.00  0.00     0.148 A 
ATOM      9  C   UNL A   1      31.507  22.856  23.571  1.00  0.00     0.031 A 
ATOM     10  N   UNL A   1      32.455  26.408  22.861  1.00  0.00    -0.241 N 
ATOM     11  C   UNL A   1      33.122  24.326  21.829  1.00  0.00     0.054 A 
ATOM     12  C   UNL A   1      32.303  22.193  22.640  1.00  0.00     0.002 A 
ATOM     13  H   UNL A   1      32.622  28.764  23.375  1.00  0.00     0.304 HD
ATOM     14  H   UNL A   1      33.139  26.897  22.346  1.00  0.00     0.312 HD
ATOM     15  C   UNL A   1      33.123  22.927  21.783  1.00  0.00     0.005 A 
BRANCH   4  16
ATOM     16  C   UNL A   1      30.840  24.569  26.014  1.00  0.00     0.323 C 
ATOM     17  N   UNL A   1      31.976  24.246  26.683  1.00  0.00    -0.329 N 
ATOM     18  H   UNL A   1      31.842  23.783  27.541  1.00  0.00     0.165 HD
ATOM     19  O   UNL A   1      29.782  24.589  26.648  1.00  0.00    -0.248 OA
BRANCH  17  20
ATOM     20  C   UNL A   1      33.374  24.486  26.315  1.00  0.00     0.218 C 
BRANCH  20  21
ATOM     21  C   UNL A   1      34.255  23.297  26.634  1.00  0.00     0.240 C 
ATOM     22  O   UNL A   1      34.351  22.886  27.786  1.00  0.00    -0.273 OA
ATOM     23  N   UNL A   1      34.893  22.788  25.522  1.00  0.00    -0.342 N 
ATOM     24  H   UNL A   1      34.864  23.301  24.682  1.00  0.00     0.164 HD
BRANCH  23  25
ATOM     25  C   UNL A   1      35.620  21.494  25.547  1.00  0.00     0.158 C 
BRANCH  25  26
ATOM     26  C   UNL A   1      34.698  20.335  25.188  1.00  0.00    -0.020 A 
ATOM     27  C   UNL A   1      33.316  20.361  25.394  1.00  0.00     0.006 A 
ATOM     28  C   UNL A   1      35.247  19.169  24.610  1.00  0.00     0.006 A 
ATOM     29  C   UNL A   1      32.532  19.228  25.150  1.00  0.00     0.000 A 
ATOM     30  C   UNL A   1      34.473  18.032  24.382  1.00  0.00     0.000 A 
ATOM     31  C   UNL A   1      33.114  18.058  24.671  1.00  0.00     0.000 A 
ENDBRANCH  25  26
BRANCH  25  32
ATOM     32  C   UNL A   1      37.040  21.689  24.903  1.00  0.00     0.068 C 
ATOM     33  O   UNL A   1      37.136  22.063  23.705  1.00  0.00    -0.548 OA
ATOM     34  O   UNL A   1      37.983  21.463  25.736  1.00  0.00    -0.548 OA
ENDBRANCH  25  32
ENDBRANCH  23  25
ENDBRANCH  20  21
ENDBRANCH  17  20
ENDBRANCH   4  16
ENDBRANCH   2   3
ENDBRANCH   1   2
BRANCH   1  35
ATOM     35  C   UNL A   1      32.590  28.296  26.478  1.00  0.00     0.025 C 
BRANCH  35  36
ATOM     36  C   UNL A   1      33.908  28.781  27.074  1.00  0.00     0.116 C 
BRANCH  36  37
ATOM     37  N   UNL A   1      33.821  30.104  27.678  1.00  0.00    -0.352 N 
ATOM     38  C   UNL A   1      34.760  30.781  28.422  1.00  0.00     0.251 C 
ATOM     39  H   UNL A   1      32.972  30.580  27.534  1.00  0.00     0.163 HD
ATOM     40  O   UNL A   1      34.472  31.859  28.938  1.00  0.00    -0.269 OA
BRANCH  38  41
ATOM     41  C   UNL A   1      36.105  30.199  28.631  1.00  0.00     0.039 A 
ATOM     42  C   UNL A   1      37.039  30.275  27.595  1.00  0.00     0.014 A 
ATOM     43  C   UNL A   1      36.452  29.595  29.843  1.00  0.00     0.014 A 
ATOM     44  C   UNL A   1      38.344  29.816  27.800  1.00  0.00     0.010 A 
ATOM     45  C   UNL A   1      37.771  29.205  30.070  1.00  0.00     0.010 A 
ATOM     46  C   UNL A   1      38.733  29.316  29.054  1.00  0.00    -0.014 A 
BRANCH  46  47
ATOM     47  C   UNL A   1      40.144  28.937  29.328  1.00  0.00     0.031 A 
ATOM     48  C   UNL A   1      41.095  29.921  29.956  1.00  0.00     0.074 A 
ATOM     49  C   UNL A   1      40.591  27.722  28.949  1.00  0.00     0.049 A 
ATOM     50  N   UNL A   1      42.367  29.781  30.232  1.00  0.00    -0.248 NA
ATOM     51  C   UNL A   1      40.551  31.245  30.301  1.00  0.00     0.031 C 
ATOM     52  C   UNL A   1      39.784  26.692  28.287  1.00  0.00     0.029 A 
ATOM     53  N   UNL A   1      41.834  27.147  29.057  1.00  0.00    -0.354 N 
ATOM     54  C   UNL A   1      42.778  30.997  30.764  1.00  0.00     0.074 A 
ATOM     55  C   UNL A   1      41.632  31.879  30.732  1.00  0.00     0.031 C 
ATOM     56  C   UNL A   1      40.544  25.606  28.075  1.00  0.00     0.029 A 
ATOM     57  C   UNL A   1      41.900  25.872  28.542  1.00  0.00     0.049 A 
ATOM     58  H   UNL A   1      42.604  27.605  29.464  1.00  0.00     0.167 HD
ATOM     59  C   UNL A   1      43.995  31.344  31.249  1.00  0.00     0.031 A 
ATOM     60  C   UNL A   1      42.935  25.016  28.448  1.00  0.00     0.031 A 
ATOM     61  C   UNL A   1      45.133  30.462  31.280  1.00  0.00     0.049 A 
ATOM     62  C   UNL A   1      44.281  25.431  28.983  1.00  0.00     0.074 A 
ATOM     63  C   UNL A   1      46.391  30.702  31.807  1.00  0.00     0.029 A 
ATOM     64  N   UNL A   1      45.157  29.177  30.757  1.00  0.00    -0.354 N 
ATOM     65  N   UNL A   1      44.630  26.556  29.560  1.00  0.00    -0.248 NA
ATOM     66  C   UNL A   1      45.371  24.451  28.866  1.00  0.00     0.031 C 
ATOM     67  C   UNL A   1      47.191  29.583  31.553  1.00  0.00     0.029 A 
ATOM     68  C   UNL A   1      46.415  28.622  30.927  1.00  0.00     0.049 A 
ATOM     69  H   UNL A   1      44.393  28.728  30.330  1.00  0.00     0.167 HD
ATOM     70  C   UNL A   1      45.971  26.409  29.900  1.00  0.00     0.074 A 
ATOM     71  C   UNL A   1      46.364  25.080  29.480  1.00  0.00     0.031 C 
ATOM     72  C   UNL A   1      46.798  27.296  30.507  1.00  0.00     0.031 A 
BRANCH  59  73
ATOM     73  C   UNL A   1      44.159  32.745  31.784  1.00  0.00    -0.014 A 
ATOM     74  C   UNL A   1      44.572  33.798  30.948  1.00  0.00     0.010 A 
ATOM     75  C   UNL A   1      43.854  33.022  33.129  1.00  0.00     0.010 A 
ATOM     76  C   UNL A   1      44.717  35.093  31.456  1.00  0.00     0.020 A 
ATOM     77  C   UNL A   1      43.968  34.321  33.634  1.00  0.00     0.020 A 
ATOM     78  C   UNL A   1      44.415  35.345  32.798  1.00  0.00     0.054 A 
BRANCH  78  79
ATOM     79  S   UNL A   1      44.585  37.041  33.422  1.00  0.00     0.124 S 
ATOM     80  O   UNL A   1      45.069  36.817  34.782  1.00  0.00    -0.237 OA
ATOM     81  O   UNL A   1      45.557  37.626  32.500  1.00  0.00    -0.237 OA
ATOM     82  O   UNL A   1      43.234  37.587  33.324  1.00  0.00    -0.744 OA
ENDBRANCH  78  79
ENDBRANCH  59  73
BRANCH  60  83
ATOM     83  C   UNL A   1      42.735  23.667  27.849  1.00  0.00    -0.014 A 
ATOM     84  C   UNL A   1      42.253  22.606  28.636  1.00  0.00     0.010 A 
ATOM     85  C   UNL A   1      43.014  23.434  26.488  1.00  0.00     0.010 A 
ATOM     86  C   UNL A   1      42.078  21.335  28.083  1.00  0.00     0.020 A 
ATOM     87  C   UNL A   1      42.811  22.170  25.924  1.00  0.00     0.020 A 
ATOM     88  C   UNL A   1      42.358  21.124  26.730  1.00  0.00     0.054 A 
BRANCH  88  89
ATOM     89  S   UNL A   1      42.090  19.467  26.040  1.00  0.00     0.124 S 
ATOM     90  O   UNL A   1      42.942  19.492  24.854  1.00  0.00    -0.237 OA
ATOM     91  O   UNL A   1      42.547  18.597  27.122  1.00  0.00    -0.237 OA
ATOM     92  O   UNL A   1      40.655  19.428  25.779  1.00  0.00    -0.744 OA
ENDBRANCH  88  89
ENDBRANCH  60  83
BRANCH  72  93
ATOM     93  C   UNL A   1      48.207  26.848  30.797  1.00  0.00    -0.014 A 
ATOM     94  C   UNL A   1      49.252  27.075  29.883  1.00  0.00     0.010 A 
ATOM     95  C   UNL A   1      48.500  26.240  32.032  1.00  0.00     0.010 A 
ATOM     96  C   UNL A   1      50.557  26.677  30.188  1.00  0.00     0.020 A 
ATOM     97  C   UNL A   1      49.809  25.868  32.353  1.00  0.00     0.020 A 
ATOM     98  C   UNL A   1      50.828  26.076  31.422  1.00  0.00     0.054 A 
BRANCH  98  99
ATOM     99  S   UNL A   1      52.538  25.615  31.817  1.00  0.00     0.124 S 
ATOM    100  O   UNL A   1      52.396  24.214  32.200  1.00  0.00    -0.237 OA
ATOM    101  O   UNL A   1      53.235  25.854  30.556  1.00  0.00    -0.237 OA
ATOM    102  O   UNL A   1      52.901  26.524  32.902  1.00  0.00    -0.744 OA
ENDBRANCH  98  99
ENDBRANCH  72  93
ENDBRANCH  46  47
ENDBRANCH  38  41
ENDBRANCH  36  37
ENDBRANCH  35  36
ENDBRANCH   1  35
TORSDOF 19
ENDMDL
MODEL 3
REMARK VINA RESULT:     -12.1      1.220      1.869
REMARK SMILES O=C(CNC(=O)N1CC(NCCCCNC(=O)c2ccc(-c3c4nc(c(-c5ccc(S(=O)(=O)[O-])cc5)c5ccc([nH]5)c(-c5ccc(S(=O)(=O)[O-])cc5)c5nc(c(-c6ccc(S(=O)(=O)[O-])cc6)c6ccc3[nH]6)C=C5)C=C4)cc2)=[NH+]c2ccccc21)N[C@H](C(=O)[O-])c1ccccc1
REMARK SMILES IDX 12 1 11 2 10 3 7 4 8 5 84 6 9 7 79 8 83 9 78 10 80 11 82 12
REMARK SMILES IDX 81 15 5 16 4 17 6 19 3 20 2 21 1 22 85 23 86 25 90 26 91 27
REMARK SMILES IDX 95 28 92 29 94 30 93 31 87 32 88 33 89 34 13 35 14 36 15 37
REMARK SMILES IDX 16 38 17 40 18 41 19 42 77 43 20 44 76 45 21 46 22 47 23 48
REMARK SMILES IDX 70 49 24 50 75 51 69 52 71 53 25 54 74 55 68 56 67 57 26 59
REMARK SMILES IDX 56 60 37 61 55 62 38 63 41 64 54 65 72 66 39 67 40 68 53 70
REMARK SMILES IDX 73 71 42 72 27 73 28 74 36 75 29 76 35 77 30 78 31 79 32 80
REMARK SMILES IDX 33 81 34 82 57 83 58 84 66 85 59 86 65 87 60 88 61 89 62 90
REMARK SMILES IDX 63 91 64 92 43 93 44 94 52 95 45 96 51 97 46 98 47 99 48 100
REMARK SMILES IDX 49 101 50 102
REMARK H PARENT 10 13 78 14 4 18 85 24 15 39 71 58 41 69
REMARK Flexibility Score: inf
ROOT
ATOM      1  C   UNL A   1      38.767  23.321  26.829  1.00  0.00     0.048 C 
ENDROOT
BRANCH   1   2
ATOM      2  C   UNL A   1      37.851  23.053  25.637  1.00  0.00     0.233 C 
BRANCH   2   3
ATOM      3  N   UNL A   1      37.386  21.688  25.618  1.00  0.00    -0.277 N 
ATOM      4  N   UNL A   1      33.893  21.571  24.568  1.00  0.00    -0.278 N 
ATOM      5  C   UNL A   1      35.233  22.077  24.326  1.00  0.00     0.255 C 
ATOM      6  C   UNL A   1      33.739  20.182  24.348  1.00  0.00     0.093 A 
ATOM      7  C   UNL A   1      36.241  21.178  25.055  1.00  0.00     0.268 C 
ATOM      8  C   UNL A   1      34.841  19.359  24.649  1.00  0.00     0.148 A 
ATOM      9  C   UNL A   1      32.511  19.628  23.963  1.00  0.00     0.031 A 
ATOM     10  N   UNL A   1      36.060  19.884  25.131  1.00  0.00    -0.241 N 
ATOM     11  C   UNL A   1      34.657  17.975  24.646  1.00  0.00     0.054 A 
ATOM     12  C   UNL A   1      32.350  18.244  23.952  1.00  0.00     0.002 A 
ATOM     13  H   UNL A   1      37.968  21.033  26.069  1.00  0.00     0.304 HD
ATOM     14  H   UNL A   1      36.752  19.295  25.511  1.00  0.00     0.312 HD
ATOM     15  C   UNL A   1      33.416  17.421  24.311  1.00  0.00     0.005 A 
BRANCH   4  16
ATOM     16  C   UNL A   1      32.972  22.414  25.135  1.00  0.00     0.323 C 
ATOM     17  N   UNL A   1      32.371  23.361  24.370  1.00  0.00    -0.329 N 
ATOM     18  H   UNL A   1      31.885  24.057  24.867  1.00  0.00     0.165 HD
ATOM     19  O   UNL A   1      32.589  22.285  26.300  1.00  0.00    -0.248 OA
BRANCH  17  20
ATOM     20  C   UNL A   1      32.343  23.500  22.911  1.00  0.00     0.218 C 
BRANCH  20  21
ATOM     21  C   UNL A   1      32.615  24.924  22.474  1.00  0.00     0.240 C 
ATOM     22  O   UNL A   1      33.192  25.150  21.415  1.00  0.00    -0.273 OA
ATOM     23  N   UNL A   1      32.160  25.860  23.380  1.00  0.00    -0.342 N 
ATOM     24  H   UNL A   1      31.859  25.555  24.267  1.00  0.00     0.164 HD
BRANCH  23  25
ATOM     25  C   UNL A   1      32.107  27.310  23.065  1.00  0.00     0.158 C 
BRANCH  25  26
ATOM     26  C   UNL A   1      30.668  27.797  22.948  1.00  0.00    -0.020 A 
ATOM     27  C   UNL A   1      30.308  28.983  22.302  1.00  0.00     0.006 A 
ATOM     28  C   UNL A   1      29.628  27.021  23.508  1.00  0.00     0.006 A 
ATOM     29  C   UNL A   1      28.986  29.438  22.321  1.00  0.00     0.000 A 
ATOM     30  C   UNL A   1      28.312  27.480  23.544  1.00  0.00     0.000 A 
ATOM     31  C   UNL A   1      27.995  28.702  22.964  1.00  0.00     0.000 A 
ENDBRANCH  25  26
BRANCH  25  32
ATOM     32  C   UNL A   1      33.199  28.060  23.909  1.00  0.00     0.068 C 
ATOM     33  O   UNL A   1      33.922  27.413  24.711  1.00  0.00    -0.548 OA
ATOM     34  O   UNL A   1      33.246  29.309  23.637  1.00  0.00    -0.548 OA
ENDBRANCH  25  32
ENDBRANCH  23  25
ENDBRANCH  20  21
ENDBRANCH  17  20
ENDBRANCH   4  16
ENDBRANCH   2   3
ENDBRANCH   1   2
BRANCH   1  35
ATOM     35  C   UNL A   1      40.003  22.422  26.921  1.00  0.00     0.025 C 
BRANCH  35  36
ATOM     36  C   UNL A   1      41.342  23.140  27.063  1.00  0.00     0.116 C 
BRANCH  36  37
ATOM     37  N   UNL A   1      41.637  24.045  25.960  1.00  0.00    -0.352 N 
ATOM     38  C   UNL A   1      41.735  25.417  25.966  1.00  0.00     0.251 C 
ATOM     39  H   UNL A   1      41.788  23.615  25.088  1.00  0.00     0.163 HD
ATOM     40  O   UNL A   1      41.897  26.025  24.911  1.00  0.00    -0.269 OA
BRANCH  38  41
ATOM     41  C   UNL A   1      41.613  26.166  27.238  1.00  0.00     0.039 A 
ATOM     42  C   UNL A   1      42.635  27.047  27.601  1.00  0.00     0.014 A 
ATOM     43  C   UNL A   1      40.493  26.017  28.061  1.00  0.00     0.014 A 
ATOM     44  C   UNL A   1      42.499  27.833  28.749  1.00  0.00     0.010 A 
ATOM     45  C   UNL A   1      40.327  26.852  29.164  1.00  0.00     0.010 A 
ATOM     46  C   UNL A   1      41.324  27.774  29.517  1.00  0.00    -0.014 A 
BRANCH  46  47
ATOM     47  C   UNL A   1      41.111  28.688  30.670  1.00  0.00     0.031 A 
ATOM     48  C   UNL A   1      41.955  28.568  31.910  1.00  0.00     0.074 A 
ATOM     49  C   UNL A   1      40.108  29.589  30.626  1.00  0.00     0.049 A 
ATOM     50  N   UNL A   1      41.888  29.250  33.026  1.00  0.00    -0.248 NA
ATOM     51  C   UNL A   1      43.001  27.532  31.906  1.00  0.00     0.031 C 
ATOM     52  C   UNL A   1      39.185  29.775  29.502  1.00  0.00     0.029 A 
ATOM     53  N   UNL A   1      39.688  30.513  31.552  1.00  0.00    -0.354 N 
ATOM     54  C   UNL A   1      42.863  28.717  33.859  1.00  0.00     0.074 A 
ATOM     55  C   UNL A   1      43.481  27.626  33.138  1.00  0.00     0.031 C 
ATOM     56  C   UNL A   1      38.329  30.768  29.793  1.00  0.00     0.029 A 
ATOM     57  C   UNL A   1      38.610  31.261  31.138  1.00  0.00     0.049 A 
ATOM     58  H   UNL A   1      40.118  30.628  32.430  1.00  0.00     0.167 HD
ATOM     59  C   UNL A   1      43.224  29.110  35.105  1.00  0.00     0.031 A 
ATOM     60  C   UNL A   1      37.918  32.228  31.769  1.00  0.00     0.031 A 
ATOM     61  C   UNL A   1      42.607  30.198  35.818  1.00  0.00     0.049 A 
ATOM     62  C   UNL A   1      38.330  32.637  33.159  1.00  0.00     0.074 A 
ATOM     63  C   UNL A   1      42.942  30.710  37.060  1.00  0.00     0.029 A 
ATOM     64  N   UNL A   1      41.525  30.935  35.361  1.00  0.00    -0.354 N 
ATOM     65  N   UNL A   1      39.311  32.178  33.899  1.00  0.00    -0.248 NA
ATOM     66  C   UNL A   1      37.547  33.708  33.794  1.00  0.00     0.031 C 
ATOM     67  C   UNL A   1      42.028  31.720  37.378  1.00  0.00     0.029 A 
ATOM     68  C   UNL A   1      41.164  31.881  36.307  1.00  0.00     0.049 A 
ATOM     69  H   UNL A   1      41.079  30.806  34.493  1.00  0.00     0.167 HD
ATOM     70  C   UNL A   1      39.281  32.922  35.073  1.00  0.00     0.074 A 
ATOM     71  C   UNL A   1      38.197  33.872  34.938  1.00  0.00     0.031 C 
ATOM     72  C   UNL A   1      40.084  32.826  36.163  1.00  0.00     0.031 A 
BRANCH  59  73
ATOM     73  C   UNL A   1      44.339  28.351  35.780  1.00  0.00    -0.014 A 
ATOM     74  C   UNL A   1      45.681  28.748  35.636  1.00  0.00     0.010 A 
ATOM     75  C   UNL A   1      44.038  27.253  36.607  1.00  0.00     0.010 A 
ATOM     76  C   UNL A   1      46.704  28.038  36.272  1.00  0.00     0.020 A 
ATOM     77  C   UNL A   1      45.056  26.557  37.268  1.00  0.00     0.020 A 
ATOM     78  C   UNL A   1      46.384  26.944  37.082  1.00  0.00     0.054 A 
BRANCH  78  79
ATOM     79  S   UNL A   1      47.730  26.058  37.916  1.00  0.00     0.124 S 
ATOM     80  O   UNL A   1      47.701  26.648  39.252  1.00  0.00    -0.237 OA
ATOM     81  O   UNL A   1      47.295  24.665  37.837  1.00  0.00    -0.237 OA
ATOM     82  O   UNL A   1      48.909  26.383  37.118  1.00  0.00    -0.744 OA
ENDBRANCH  78  79
ENDBRANCH  59  73
BRANCH  60  83
ATOM     83  C   UNL A   1      36.780  32.901  31.082  1.00  0.00    -0.014 A 
ATOM     84  C   UNL A   1      37.022  33.857  30.079  1.00  0.00     0.010 A 
ATOM     85  C   UNL A   1      35.448  32.585  31.415  1.00  0.00     0.010 A 
ATOM     86  C   UNL A   1      35.958  34.502  29.442  1.00  0.00     0.020 A 
ATOM     87  C   UNL A   1      34.381  33.207  30.757  1.00  0.00     0.020 A 
ATOM     88  C   UNL A   1      34.644  34.173  29.785  1.00  0.00     0.054 A 
BRANCH  88  89
ATOM     89  S   UNL A   1      33.289  35.010  28.915  1.00  0.00     0.124 S 
ATOM     90  O   UNL A   1      32.397  35.365  30.016  1.00  0.00    -0.237 OA
ATOM     91  O   UNL A   1      33.971  36.132  28.273  1.00  0.00    -0.237 OA
ATOM     92  O   UNL A   1      32.782  33.991  28.002  1.00  0.00    -0.744 OA
ENDBRANCH  88  89
ENDBRANCH  60  83
BRANCH  72  93
ATOM     93  C   UNL A   1      39.850  33.802  37.287  1.00  0.00    -0.014 A 
ATOM     94  C   UNL A   1      40.378  35.105  37.251  1.00  0.00     0.010 A 
ATOM     95  C   UNL A   1      39.037  33.425  38.372  1.00  0.00     0.010 A 
ATOM     96  C   UNL A   1      40.121  36.002  38.292  1.00  0.00     0.020 A 
ATOM     97  C   UNL A   1      38.753  34.329  39.400  1.00  0.00     0.020 A 
ATOM     98  C   UNL A   1      39.309  35.608  39.361  1.00  0.00     0.054 A 
BRANCH  98  99
ATOM     99  S   UNL A   1      38.947  36.806  40.675  1.00  0.00     0.124 S 
ATOM    100  O   UNL A   1      38.093  36.031  41.569  1.00  0.00    -0.237 OA
ATOM    101  O   UNL A   1      40.274  37.126  41.194  1.00  0.00    -0.237 OA
ATOM    102  O   UNL A   1      38.281  37.902  39.973  1.00  0.00    -0.744 OA
ENDBRANCH  98  99
ENDBRANCH  72  93
ENDBRANCH  46  47
ENDBRANCH  38  41
ENDBRANCH  36  37
ENDBRANCH  35  36
ENDBRANCH   1  35
TORSDOF 19
ENDMDL
