MODEL 1
REMARK VINA RESULT:     -11.6      0.000      0.000
REMARK SMILES O=C(NCCCCNC(=O)c1cn(C[C@@H]2CCS(=O)(=O)C2)c(=O)[nH]c1=O)c1ccc(-c2c3nc(c(-c4ccc(S(=O)(=O)[O-])cc4)c4ccc([nH]4)c(-c4ccc(S(=O)(=O)[O-])cc4)c4nc(c(-c5ccc(S(=O)(=O)[O-])cc5)c5ccc2[nH]5)C=C4)C=C3)cc1
REMARK SMILES IDX 5 1 4 2 3 3 1 4 2 5 27 7 28 8 86 9 29 10 85 11 30 12 31 13
REMARK SMILES IDX 32 14 79 15 33 16 84 17 78 18 80 19 34 20 83 21 77 22 76 23
REMARK SMILES IDX 35 25 65 26 46 27 64 28 47 29 50 30 63 31 81 32 48 33 49 34
REMARK SMILES IDX 62 36 82 37 51 38 36 39 37 40 45 41 38 42 44 43 39 44 40 45
REMARK SMILES IDX 41 46 42 47 43 48 66 49 67 50 75 51 68 52 74 53 69 54 70 55
REMARK SMILES IDX 71 56 72 57 73 58 52 59 53 60 61 61 54 62 60 63 55 64 56 65
REMARK SMILES IDX 57 66 58 67 59 68 6 69 7 70 8 71 9 72 10 74 11 75 12 76
REMARK SMILES IDX 25 77 13 78 24 79 26 80 22 81 23 83 14 84 15 85 16 86 21 87
REMARK SMILES IDX 17 88 18 89 19 90 20 91
REMARK H PARENT 3 6 80 24 50 35 8 73 24 82
REMARK Flexibility Score: inf
ROOT
ATOM      1  C   UNL A   1      32.426  28.078  26.271  1.00  0.00     0.023 C 
ENDROOT
BRANCH   1   2
ATOM      2  C   UNL A   1      33.495  28.555  27.246  1.00  0.00     0.116 C 
BRANCH   2   3
ATOM      3  N   UNL A   1      33.510  30.000  27.397  1.00  0.00    -0.352 N 
ATOM      4  O   UNL A   1      34.227  31.996  28.145  1.00  0.00    -0.269 OA
ATOM      5  C   UNL A   1      34.472  30.808  27.950  1.00  0.00     0.251 C 
ATOM      6  H   UNL A   1      32.716  30.468  27.053  1.00  0.00     0.163 HD
BRANCH   5   7
ATOM      7  C   UNL A   1      35.792  30.251  28.315  1.00  0.00     0.039 A 
ATOM      8  C   UNL A   1      35.968  29.710  29.591  1.00  0.00     0.014 A 
ATOM      9  C   UNL A   1      36.865  30.301  27.420  1.00  0.00     0.014 A 
ATOM     10  C   UNL A   1      37.217  29.204  29.963  1.00  0.00     0.010 A 
ATOM     11  C   UNL A   1      38.083  29.720  27.762  1.00  0.00     0.010 A 
ATOM     12  C   UNL A   1      38.282  29.202  29.050  1.00  0.00    -0.014 A 
BRANCH  12  13
ATOM     13  C   UNL A   1      39.641  28.754  29.446  1.00  0.00     0.031 A 
ATOM     14  C   UNL A   1      40.505  29.672  30.270  1.00  0.00     0.074 A 
ATOM     15  C   UNL A   1      40.110  27.555  29.051  1.00  0.00     0.049 A 
ATOM     16  N   UNL A   1      41.745  29.513  30.650  1.00  0.00    -0.248 NA
ATOM     17  C   UNL A   1      39.907  30.947  30.707  1.00  0.00     0.031 C 
ATOM     18  C   UNL A   1      39.367  26.582  28.249  1.00  0.00     0.029 A 
ATOM     19  N   UNL A   1      41.324  26.950  29.268  1.00  0.00    -0.354 N 
ATOM     20  C   UNL A   1      42.075  30.665  31.353  1.00  0.00     0.074 A 
ATOM     21  C   UNL A   1      40.931  31.543  31.300  1.00  0.00     0.031 C 
ATOM     22  C   UNL A   1      40.131  25.494  28.062  1.00  0.00     0.029 A 
ATOM     23  C   UNL A   1      41.436  25.709  28.683  1.00  0.00     0.049 A 
ATOM     24  H   UNL A   1      42.046  27.364  29.793  1.00  0.00     0.167 HD
ATOM     25  C   UNL A   1      43.221  30.951  32.012  1.00  0.00     0.031 A 
ATOM     26  C   UNL A   1      42.473  24.845  28.640  1.00  0.00     0.031 A 
ATOM     27  C   UNL A   1      44.339  30.051  32.097  1.00  0.00     0.049 A 
ATOM     28  C   UNL A   1      43.749  25.196  29.359  1.00  0.00     0.074 A 
ATOM     29  C   UNL A   1      45.523  30.230  32.790  1.00  0.00     0.029 A 
ATOM     30  N   UNL A   1      44.412  28.808  31.489  1.00  0.00    -0.354 N 
ATOM     31  N   UNL A   1      44.025  26.270  30.060  1.00  0.00    -0.248 NA
ATOM     32  C   UNL A   1      44.847  24.221  29.299  1.00  0.00     0.031 C 
ATOM     33  C   UNL A   1      46.344  29.134  32.534  1.00  0.00     0.029 A 
ATOM     34  C   UNL A   1      45.638  28.225  31.760  1.00  0.00     0.049 A 
ATOM     35  H   UNL A   1      43.700  28.401  30.945  1.00  0.00     0.167 HD
ATOM     36  C   UNL A   1      45.320  26.091  30.539  1.00  0.00     0.074 A 
ATOM     37  C   UNL A   1      45.764  24.796  30.067  1.00  0.00     0.031 C 
ATOM     38  C   UNL A   1      46.068  26.928  31.298  1.00  0.00     0.031 A 
BRANCH  25  39
ATOM     39  C   UNL A   1      43.335  32.271  32.729  1.00  0.00    -0.014 A 
ATOM     40  C   UNL A   1      42.982  32.358  34.089  1.00  0.00     0.010 A 
ATOM     41  C   UNL A   1      43.632  33.451  32.024  1.00  0.00     0.010 A 
ATOM     42  C   UNL A   1      42.863  33.602  34.713  1.00  0.00     0.020 A 
ATOM     43  C   UNL A   1      43.549  34.695  32.654  1.00  0.00     0.020 A 
ATOM     44  C   UNL A   1      43.132  34.764  33.986  1.00  0.00     0.054 A 
BRANCH  44  45
ATOM     45  S   UNL A   1      42.890  36.371  34.790  1.00  0.00     0.124 S 
ATOM     46  O   UNL A   1      43.566  37.281  33.870  1.00  0.00    -0.237 OA
ATOM     47  O   UNL A   1      41.435  36.485  34.837  1.00  0.00    -0.237 OA
ATOM     48  O   UNL A   1      43.537  36.205  36.090  1.00  0.00    -0.744 OA
ENDBRANCH  44  45
ENDBRANCH  25  39
BRANCH  26  49
ATOM     49  C   UNL A   1      42.316  23.558  27.903  1.00  0.00    -0.014 A 
ATOM     50  C   UNL A   1      41.773  22.431  28.550  1.00  0.00     0.010 A 
ATOM     51  C   UNL A   1      42.788  23.422  26.586  1.00  0.00     0.010 A 
ATOM     52  C   UNL A   1      41.771  21.182  27.924  1.00  0.00     0.020 A 
ATOM     53  C   UNL A   1      42.753  22.180  25.941  1.00  0.00     0.020 A 
ATOM     54  C   UNL A   1      42.277  21.062  26.628  1.00  0.00     0.054 A 
BRANCH  54  55
ATOM     55  S   UNL A   1      42.335  19.415  25.868  1.00  0.00     0.124 S 
ATOM     56  O   UNL A   1      40.931  19.189  25.537  1.00  0.00    -0.237 OA
ATOM     57  O   UNL A   1      43.225  19.622  24.728  1.00  0.00    -0.237 OA
ATOM     58  O   UNL A   1      42.872  18.567  26.929  1.00  0.00    -0.744 OA
ENDBRANCH  54  55
ENDBRANCH  26  49
BRANCH  38  59
ATOM     59  C   UNL A   1      47.462  26.503  31.690  1.00  0.00    -0.014 A 
ATOM     60  C   UNL A   1      48.530  26.712  30.796  1.00  0.00     0.010 A 
ATOM     61  C   UNL A   1      47.679  25.734  32.847  1.00  0.00     0.010 A 
ATOM     62  C   UNL A   1      49.769  26.109  31.016  1.00  0.00     0.020 A 
ATOM     63  C   UNL A   1      48.930  25.160  33.089  1.00  0.00     0.020 A 
ATOM     64  C   UNL A   1      49.956  25.323  32.155  1.00  0.00     0.054 A 
BRANCH  64  65
ATOM     65  S   UNL A   1      51.547  24.483  32.383  1.00  0.00     0.124 S 
ATOM     66  O   UNL A   1      51.215  23.099  32.059  1.00  0.00    -0.237 OA
ATOM     67  O   UNL A   1      52.408  25.165  31.419  1.00  0.00    -0.237 OA
ATOM     68  O   UNL A   1      51.873  24.736  33.785  1.00  0.00    -0.744 OA
ENDBRANCH  64  65
ENDBRANCH  38  59
ENDBRANCH  12  13
ENDBRANCH   5   7
ENDBRANCH   2   3
ENDBRANCH   1   2
BRANCH   1  69
ATOM     69  C   UNL A   1      31.724  29.185  25.490  1.00  0.00     0.023 C 
BRANCH  69  70
ATOM     70  C   UNL A   1      31.455  28.869  24.026  1.00  0.00     0.116 C 
BRANCH  70  71
ATOM     71  N   UNL A   1      32.618  29.051  23.165  1.00  0.00    -0.352 N 
ATOM     72  C   UNL A   1      33.389  28.112  22.524  1.00  0.00     0.258 C 
ATOM     73  H   UNL A   1      32.890  29.986  23.022  1.00  0.00     0.163 HD
ATOM     74  O   UNL A   1      34.328  28.462  21.819  1.00  0.00    -0.269 OA
BRANCH  72  75
ATOM     75  C   UNL A   1      33.039  26.693  22.725  1.00  0.00     0.121 A 
ATOM     76  C   UNL A   1      33.846  25.923  23.468  1.00  0.00     0.110 A 
ATOM     77  C   UNL A   1      31.888  26.064  22.055  1.00  0.00     0.266 A 
ATOM     78  N   UNL A   1      33.751  24.542  23.472  1.00  0.00    -0.299 N 
ATOM     79  N   UNL A   1      31.859  24.697  22.110  1.00  0.00    -0.273 N 
ATOM     80  O   UNL A   1      31.043  26.689  21.425  1.00  0.00    -0.268 OA
ATOM     81  C   UNL A   1      32.788  23.890  22.707  1.00  0.00     0.328 A 
ATOM     82  H   UNL A   1      31.094  24.251  21.680  1.00  0.00     0.175 HD
ATOM     83  O   UNL A   1      32.736  22.671  22.567  1.00  0.00    -0.248 OA
BRANCH  78  84
ATOM     84  C   UNL A   1      34.793  23.759  24.132  1.00  0.00     0.131 C 
BRANCH  84  85
ATOM     85  C   UNL A   1      34.799  23.765  25.672  1.00  0.00     0.025 C 
ATOM     86  C   UNL A   1      35.283  22.470  26.341  1.00  0.00     0.022 C 
ATOM     87  C   UNL A   1      33.454  24.110  26.315  1.00  0.00     0.142 C 
ATOM     88  C   UNL A   1      34.101  21.526  26.529  1.00  0.00     0.137 C 
ATOM     89  S   UNL A   1      32.670  22.564  26.735  1.00  0.00     0.150 S 
ATOM     90  O   UNL A   1      31.703  22.233  25.714  1.00  0.00    -0.229 OA
ATOM     91  O   UNL A   1      32.322  22.595  28.143  1.00  0.00    -0.229 OA
ENDBRANCH  84  85
ENDBRANCH  78  84
ENDBRANCH  72  75
ENDBRANCH  70  71
ENDBRANCH  69  70
ENDBRANCH   1  69
TORSDOF 16
ENDMDL
MODEL 2
REMARK VINA RESULT:     -11.1      2.809      9.476
REMARK SMILES O=C(NCCCCNC(=O)c1cn(C[C@@H]2CCS(=O)(=O)C2)c(=O)[nH]c1=O)c1ccc(-c2c3nc(c(-c4ccc(S(=O)(=O)[O-])cc4)c4ccc([nH]4)c(-c4ccc(S(=O)(=O)[O-])cc4)c4nc(c(-c5ccc(S(=O)(=O)[O-])cc5)c5ccc2[nH]5)C=C4)C=C3)cc1
REMARK SMILES IDX 5 1 4 2 3 3 1 4 2 5 27 7 28 8 86 9 29 10 85 11 30 12 31 13
REMARK SMILES IDX 32 14 79 15 33 16 84 17 78 18 80 19 34 20 83 21 77 22 76 23
REMARK SMILES IDX 35 25 65 26 46 27 64 28 47 29 50 30 63 31 81 32 48 33 49 34
REMARK SMILES IDX 62 36 82 37 51 38 36 39 37 40 45 41 38 42 44 43 39 44 40 45
REMARK SMILES IDX 41 46 42 47 43 48 66 49 67 50 75 51 68 52 74 53 69 54 70 55
REMARK SMILES IDX 71 56 72 57 73 58 52 59 53 60 61 61 54 62 60 63 55 64 56 65
REMARK SMILES IDX 57 66 58 67 59 68 6 69 7 70 8 71 9 72 10 74 11 75 12 76
REMARK SMILES IDX 25 77 13 78 24 79 26 80 22 81 23 83 14 84 15 85 16 86 21 87
REMARK SMILES IDX 17 88 18 89 19 90 20 91
REMARK H PARENT 3 6 80 24 50 35 8 73 24 82
REMARK Flexibility Score: inf
ROOT
ATOM      1  C   UNL A   1      35.096  23.380  25.481  1.00  0.00     0.023 C 
ENDROOT
BRANCH   1   2
ATOM      2  C   UNL A   1      36.485  23.912  25.811  1.00  0.00     0.116 C 
BRANCH   2   3
ATOM      3  N   UNL A   1      37.477  22.855  25.919  1.00  0.00    -0.352 N 
ATOM      4  O   UNL A   1      39.520  21.954  26.182  1.00  0.00    -0.269 OA
ATOM      5  C   UNL A   1      38.787  22.929  26.323  1.00  0.00     0.251 C 
ATOM      6  H   UNL A   1      37.165  21.957  25.668  1.00  0.00     0.163 HD
BRANCH   5   7
ATOM      7  C   UNL A   1      39.314  24.176  26.917  1.00  0.00     0.039 A 
ATOM      8  C   UNL A   1      39.059  24.444  28.264  1.00  0.00     0.014 A 
ATOM      9  C   UNL A   1      40.021  25.099  26.140  1.00  0.00     0.014 A 
ATOM     10  C   UNL A   1      39.525  25.631  28.835  1.00  0.00     0.010 A 
ATOM     11  C   UNL A   1      40.558  26.239  26.731  1.00  0.00     0.010 A 
ATOM     12  C   UNL A   1      40.282  26.535  28.074  1.00  0.00    -0.014 A 
BRANCH  12  13
ATOM     13  C   UNL A   1      40.714  27.842  28.629  1.00  0.00     0.031 A 
ATOM     14  C   UNL A   1      42.143  28.014  29.075  1.00  0.00     0.074 A 
ATOM     15  C   UNL A   1      39.836  28.855  28.760  1.00  0.00     0.049 A 
ATOM     16  N   UNL A   1      42.704  29.039  29.661  1.00  0.00    -0.248 NA
ATOM     17  C   UNL A   1      43.058  26.879  28.854  1.00  0.00     0.031 C 
ATOM     18  C   UNL A   1      38.428  28.806  28.367  1.00  0.00     0.029 A 
ATOM     19  N   UNL A   1      39.997  30.123  29.264  1.00  0.00    -0.354 N 
ATOM     20  C   UNL A   1      44.023  28.667  29.890  1.00  0.00     0.074 A 
ATOM     21  C   UNL A   1      44.170  27.305  29.435  1.00  0.00     0.031 C 
ATOM     22  C   UNL A   1      37.861  29.996  28.621  1.00  0.00     0.029 A 
ATOM     23  C   UNL A   1      38.846  30.877  29.243  1.00  0.00     0.049 A 
ATOM     24  H   UNL A   1      40.856  30.462  29.607  1.00  0.00     0.167 HD
ATOM     25  C   UNL A   1      45.030  29.409  30.403  1.00  0.00     0.031 A 
ATOM     26  C   UNL A   1      38.604  32.130  29.685  1.00  0.00     0.031 A 
ATOM     27  C   UNL A   1      44.885  30.780  30.812  1.00  0.00     0.049 A 
ATOM     28  C   UNL A   1      39.736  32.928  30.277  1.00  0.00     0.074 A 
ATOM     29  C   UNL A   1      45.864  31.631  31.292  1.00  0.00     0.029 A 
ATOM     30  N   UNL A   1      43.703  31.502  30.776  1.00  0.00    -0.354 N 
ATOM     31  N   UNL A   1      40.989  32.576  30.441  1.00  0.00    -0.248 NA
ATOM     32  C   UNL A   1      39.432  34.293  30.732  1.00  0.00     0.031 C 
ATOM     33  C   UNL A   1      45.258  32.842  31.625  1.00  0.00     0.029 A 
ATOM     34  C   UNL A   1      43.921  32.780  31.264  1.00  0.00     0.049 A 
ATOM     35  H   UNL A   1      42.839  31.160  30.455  1.00  0.00     0.167 HD
ATOM     36  C   UNL A   1      41.626  33.681  30.998  1.00  0.00     0.074 A 
ATOM     37  C   UNL A   1      40.627  34.721  31.124  1.00  0.00     0.031 C 
ATOM     38  C   UNL A   1      42.922  33.815  31.372  1.00  0.00     0.031 A 
BRANCH  25  39
ATOM     39  C   UNL A   1      46.397  28.786  30.532  1.00  0.00    -0.014 A 
ATOM     40  C   UNL A   1      47.256  28.755  29.418  1.00  0.00     0.010 A 
ATOM     41  C   UNL A   1      46.765  28.093  31.698  1.00  0.00     0.010 A 
ATOM     42  C   UNL A   1      48.425  27.992  29.445  1.00  0.00     0.020 A 
ATOM     43  C   UNL A   1      47.952  27.357  31.742  1.00  0.00     0.020 A 
ATOM     44  C   UNL A   1      48.757  27.284  30.603  1.00  0.00     0.054 A 
BRANCH  44  45
ATOM     45  S   UNL A   1      50.234  26.233  30.589  1.00  0.00     0.124 S 
ATOM     46  O   UNL A   1      50.515  26.114  29.161  1.00  0.00    -0.237 OA
ATOM     47  O   UNL A   1      51.192  27.022  31.359  1.00  0.00    -0.237 OA
ATOM     48  O   UNL A   1      49.786  25.003  31.241  1.00  0.00    -0.744 OA
ENDBRANCH  44  45
ENDBRANCH  25  39
BRANCH  26  49
ATOM     49  C   UNL A   1      37.231  32.695  29.550  1.00  0.00    -0.014 A 
ATOM     50  C   UNL A   1      36.816  33.271  28.333  1.00  0.00     0.010 A 
ATOM     51  C   UNL A   1      36.363  32.746  30.655  1.00  0.00     0.010 A 
ATOM     52  C   UNL A   1      35.598  33.947  28.244  1.00  0.00     0.020 A 
ATOM     53  C   UNL A   1      35.124  33.389  30.558  1.00  0.00     0.020 A 
ATOM     54  C   UNL A   1      34.766  34.015  29.363  1.00  0.00     0.054 A 
BRANCH  54  55
ATOM     55  S   UNL A   1      33.224  34.965  29.242  1.00  0.00     0.124 S 
ATOM     56  O   UNL A   1      32.735  34.918  30.617  1.00  0.00    -0.237 OA
ATOM     57  O   UNL A   1      33.691  36.272  28.784  1.00  0.00    -0.237 OA
ATOM     58  O   UNL A   1      32.433  34.213  28.271  1.00  0.00    -0.744 OA
ENDBRANCH  54  55
ENDBRANCH  26  49
BRANCH  38  59
ATOM     59  C   UNL A   1      43.376  35.128  31.962  1.00  0.00    -0.014 A 
ATOM     60  C   UNL A   1      43.215  35.362  33.342  1.00  0.00     0.010 A 
ATOM     61  C   UNL A   1      43.780  36.187  31.131  1.00  0.00     0.010 A 
ATOM     62  C   UNL A   1      43.385  36.643  33.869  1.00  0.00     0.020 A 
ATOM     63  C   UNL A   1      43.988  37.463  31.663  1.00  0.00     0.020 A 
ATOM     64  C   UNL A   1      43.756  37.690  33.021  1.00  0.00     0.054 A 
BRANCH  64  65
ATOM     65  S   UNL A   1      43.895  39.362  33.710  1.00  0.00     0.124 S 
ATOM     66  O   UNL A   1      42.704  40.016  33.176  1.00  0.00    -0.237 OA
ATOM     67  O   UNL A   1      43.885  39.115  35.150  1.00  0.00    -0.237 OA
ATOM     68  O   UNL A   1      45.166  39.848  33.179  1.00  0.00    -0.744 OA
ENDBRANCH  64  65
ENDBRANCH  38  59
ENDBRANCH  12  13
ENDBRANCH   5   7
ENDBRANCH   2   3
ENDBRANCH   1   2
BRANCH   1  69
ATOM     69  C   UNL A   1      34.599  22.263  26.393  1.00  0.00     0.023 C 
BRANCH  69  70
ATOM     70  C   UNL A   1      33.690  21.241  25.724  1.00  0.00     0.116 C 
BRANCH  70  71
ATOM     71  N   UNL A   1      32.295  21.343  26.132  1.00  0.00    -0.352 N 
ATOM     72  C   UNL A   1      31.306  22.179  25.673  1.00  0.00     0.258 C 
ATOM     73  H   UNL A   1      32.020  20.720  26.843  1.00  0.00     0.163 HD
ATOM     74  O   UNL A   1      30.173  22.105  26.132  1.00  0.00    -0.269 OA
BRANCH  72  75
ATOM     75  C   UNL A   1      31.670  23.151  24.625  1.00  0.00     0.121 A 
ATOM     76  C   UNL A   1      31.773  24.448  24.947  1.00  0.00     0.110 A 
ATOM     77  C   UNL A   1      31.827  22.762  23.213  1.00  0.00     0.266 A 
ATOM     78  N   UNL A   1      31.827  25.445  23.988  1.00  0.00    -0.299 N 
ATOM     79  N   UNL A   1      31.883  23.804  22.326  1.00  0.00    -0.273 N 
ATOM     80  O   UNL A   1      31.838  21.601  22.824  1.00  0.00    -0.268 OA
ATOM     81  C   UNL A   1      31.795  25.134  22.631  1.00  0.00     0.328 A 
ATOM     82  H   UNL A   1      31.998  23.573  21.376  1.00  0.00     0.175 HD
ATOM     83  O   UNL A   1      31.708  25.973  21.739  1.00  0.00    -0.248 OA
BRANCH  78  84
ATOM     84  C   UNL A   1      31.720  26.841  24.406  1.00  0.00     0.131 C 
BRANCH  84  85
ATOM     85  C   UNL A   1      32.849  27.388  25.301  1.00  0.00     0.025 C 
ATOM     86  C   UNL A   1      32.575  27.355  26.812  1.00  0.00     0.022 C 
ATOM     87  C   UNL A   1      33.291  28.815  24.970  1.00  0.00     0.142 C 
ATOM     88  C   UNL A   1      31.869  28.641  27.227  1.00  0.00     0.137 C 
ATOM     89  S   UNL A   1      32.432  29.897  26.099  1.00  0.00     0.150 S 
ATOM     90  O   UNL A   1      31.287  30.468  25.427  1.00  0.00    -0.229 OA
ATOM     91  O   UNL A   1      33.414  30.720  26.780  1.00  0.00    -0.229 OA
ENDBRANCH  84  85
ENDBRANCH  78  84
ENDBRANCH  72  75
ENDBRANCH  70  71
ENDBRANCH  69  70
ENDBRANCH   1  69
TORSDOF 16
ENDMDL
MODEL 3
REMARK VINA RESULT:     -11.1      1.363      1.860
REMARK SMILES O=C(NCCCCNC(=O)c1cn(C[C@@H]2CCS(=O)(=O)C2)c(=O)[nH]c1=O)c1ccc(-c2c3nc(c(-c4ccc(S(=O)(=O)[O-])cc4)c4ccc([nH]4)c(-c4ccc(S(=O)(=O)[O-])cc4)c4nc(c(-c5ccc(S(=O)(=O)[O-])cc5)c5ccc2[nH]5)C=C4)C=C3)cc1
REMARK SMILES IDX 5 1 4 2 3 3 1 4 2 5 27 7 28 8 86 9 29 10 85 11 30 12 31 13
REMARK SMILES IDX 32 14 79 15 33 16 84 17 78 18 80 19 34 20 83 21 77 22 76 23
REMARK SMILES IDX 35 25 65 26 46 27 64 28 47 29 50 30 63 31 81 32 48 33 49 34
REMARK SMILES IDX 62 36 82 37 51 38 36 39 37 40 45 41 38 42 44 43 39 44 40 45
REMARK SMILES IDX 41 46 42 47 43 48 66 49 67 50 75 51 68 52 74 53 69 54 70 55
REMARK SMILES IDX 71 56 72 57 73 58 52 59 53 60 61 61 54 62 60 63 55 64 56 65
REMARK SMILES IDX 57 66 58 67 59 68 6 69 7 70 8 71 9 72 10 74 11 75 12 76
REMARK SMILES IDX 25 77 13 78 24 79 26 80 22 81 23 83 14 84 15 85 16 86 21 87
REMARK SMILES IDX 17 88 18 89 19 90 20 91
REMARK H PARENT 3 6 80 24 50 35 8 73 24 82
REMARK Flexibility Score: inf
ROOT
ATOM      1  C   UNL A   1      33.970  28.397  25.781  1.00  0.00     0.023 C 
ENDROOT
BRANCH   1   2
ATOM      2  C   UNL A   1      33.688  28.588  27.266  1.00  0.00     0.116 C 
BRANCH   2   3
ATOM      3  N   UNL A   1      33.640  29.990  27.650  1.00  0.00    -0.352 N 
ATOM      4  O   UNL A   1      34.299  31.877  28.678  1.00  0.00    -0.269 OA
ATOM      5  C   UNL A   1      34.591  30.752  28.281  1.00  0.00     0.251 C 
ATOM      6  H   UNL A   1      32.806  30.460  27.424  1.00  0.00     0.163 HD
BRANCH   5   7
ATOM      7  C   UNL A   1      35.955  30.221  28.488  1.00  0.00     0.039 A 
ATOM      8  C   UNL A   1      36.288  29.679  29.732  1.00  0.00     0.014 A 
ATOM      9  C   UNL A   1      36.916  30.295  27.476  1.00  0.00     0.014 A 
ATOM     10  C   UNL A   1      37.581  29.197  29.955  1.00  0.00     0.010 A 
ATOM     11  C   UNL A   1      38.176  29.738  27.671  1.00  0.00     0.010 A 
ATOM     12  C   UNL A   1      38.534  29.219  28.924  1.00  0.00    -0.014 A 
BRANCH  12  13
ATOM     13  C   UNL A   1      39.937  28.797  29.158  1.00  0.00     0.031 A 
ATOM     14  C   UNL A   1      40.901  29.770  29.787  1.00  0.00     0.074 A 
ATOM     15  C   UNL A   1      40.355  27.571  28.788  1.00  0.00     0.049 A 
ATOM     16  N   UNL A   1      42.183  29.635  30.001  1.00  0.00    -0.248 NA
ATOM     17  C   UNL A   1      40.359  31.074  30.211  1.00  0.00     0.031 C 
ATOM     18  C   UNL A   1      39.516  26.546  28.169  1.00  0.00     0.029 A 
ATOM     19  N   UNL A   1      41.592  26.980  28.877  1.00  0.00    -0.354 N 
ATOM     20  C   UNL A   1      42.599  30.833  30.567  1.00  0.00     0.074 A 
ATOM     21  C   UNL A   1      41.451  31.709  30.612  1.00  0.00     0.031 C 
ATOM     22  C   UNL A   1      40.254  25.445  27.955  1.00  0.00     0.029 A 
ATOM     23  C   UNL A   1      41.632  25.701  28.372  1.00  0.00     0.049 A 
ATOM     24  H   UNL A   1      42.377  27.429  29.265  1.00  0.00     0.167 HD
ATOM     25  C   UNL A   1      43.823  31.163  31.038  1.00  0.00     0.031 A 
ATOM     26  C   UNL A   1      42.659  24.834  28.246  1.00  0.00     0.031 A 
ATOM     27  C   UNL A   1      44.949  30.269  31.031  1.00  0.00     0.049 A 
ATOM     28  C   UNL A   1      44.019  25.231  28.754  1.00  0.00     0.074 A 
ATOM     29  C   UNL A   1      46.216  30.494  31.537  1.00  0.00     0.029 A 
ATOM     30  N   UNL A   1      44.945  28.985  30.508  1.00  0.00    -0.354 N 
ATOM     31  N   UNL A   1      44.382  26.352  29.332  1.00  0.00    -0.248 NA
ATOM     32  C   UNL A   1      45.106  24.252  28.611  1.00  0.00     0.031 C 
ATOM     33  C   UNL A   1      47.002  29.380  31.248  1.00  0.00     0.029 A 
ATOM     34  C   UNL A   1      46.202  28.420  30.647  1.00  0.00     0.049 A 
ATOM     35  H   UNL A   1      44.168  28.542  30.099  1.00  0.00     0.167 HD
ATOM     36  C   UNL A   1      45.732  26.204  29.637  1.00  0.00     0.074 A 
ATOM     37  C   UNL A   1      46.117  24.878  29.202  1.00  0.00     0.031 C 
ATOM     38  C   UNL A   1      46.572  27.092  30.223  1.00  0.00     0.031 A 
BRANCH  25  39
ATOM     39  C   UNL A   1      44.026  32.531  31.637  1.00  0.00    -0.014 A 
ATOM     40  C   UNL A   1      44.467  33.589  30.822  1.00  0.00     0.010 A 
ATOM     41  C   UNL A   1      43.939  32.728  33.027  1.00  0.00     0.010 A 
ATOM     42  C   UNL A   1      44.876  34.798  31.388  1.00  0.00     0.020 A 
ATOM     43  C   UNL A   1      44.313  33.949  33.594  1.00  0.00     0.020 A 
ATOM     44  C   UNL A   1      44.812  34.964  32.774  1.00  0.00     0.054 A 
BRANCH  44  45
ATOM     45  S   UNL A   1      45.427  36.509  33.497  1.00  0.00     0.124 S 
ATOM     46  O   UNL A   1      46.738  36.643  32.869  1.00  0.00    -0.237 OA
ATOM     47  O   UNL A   1      44.420  37.479  33.075  1.00  0.00    -0.237 OA
ATOM     48  O   UNL A   1      45.449  36.231  34.932  1.00  0.00    -0.744 OA
ENDBRANCH  44  45
ENDBRANCH  25  39
BRANCH  26  49
ATOM     49  C   UNL A   1      42.410  23.497  27.632  1.00  0.00    -0.014 A 
ATOM     50  C   UNL A   1      41.883  22.446  28.407  1.00  0.00     0.010 A 
ATOM     51  C   UNL A   1      42.780  23.239  26.300  1.00  0.00     0.010 A 
ATOM     52  C   UNL A   1      41.799  21.152  27.889  1.00  0.00     0.020 A 
ATOM     53  C   UNL A   1      42.662  21.951  25.765  1.00  0.00     0.020 A 
ATOM     54  C   UNL A   1      42.205  20.909  26.575  1.00  0.00     0.054 A 
BRANCH  54  55
ATOM     55  S   UNL A   1      42.158  19.205  25.953  1.00  0.00     0.124 S 
ATOM     56  O   UNL A   1      43.017  19.294  24.774  1.00  0.00    -0.237 OA
ATOM     57  O   UNL A   1      42.704  18.442  27.073  1.00  0.00    -0.237 OA
ATOM     58  O   UNL A   1      40.741  18.979  25.678  1.00  0.00    -0.744 OA
ENDBRANCH  54  55
ENDBRANCH  26  49
BRANCH  38  59
ATOM     59  C   UNL A   1      48.010  26.692  30.447  1.00  0.00    -0.014 A 
ATOM     60  C   UNL A   1      48.414  26.233  31.717  1.00  0.00     0.010 A 
ATOM     61  C   UNL A   1      48.988  26.949  29.470  1.00  0.00     0.010 A 
ATOM     62  C   UNL A   1      49.768  26.100  32.026  1.00  0.00     0.020 A 
ATOM     63  C   UNL A   1      50.344  26.781  29.766  1.00  0.00     0.020 A 
ATOM     64  C   UNL A   1      50.726  26.391  31.052  1.00  0.00     0.054 A 
BRANCH  64  65
ATOM     65  S   UNL A   1      52.481  26.289  31.497  1.00  0.00     0.124 S 
ATOM     66  O   UNL A   1      53.139  26.604  30.232  1.00  0.00    -0.237 OA
ATOM     67  O   UNL A   1      52.604  27.305  32.540  1.00  0.00    -0.237 OA
ATOM     68  O   UNL A   1      52.640  24.911  31.957  1.00  0.00    -0.744 OA
ENDBRANCH  64  65
ENDBRANCH  38  59
ENDBRANCH  12  13
ENDBRANCH   5   7
ENDBRANCH   2   3
ENDBRANCH   1   2
BRANCH   1  69
ATOM     69  C   UNL A   1      33.294  29.406  24.859  1.00  0.00     0.023 C 
BRANCH  69  70
ATOM     70  C   UNL A   1      33.182  28.975  23.404  1.00  0.00     0.116 C 
BRANCH  70  71
ATOM     71  N   UNL A   1      31.809  28.903  22.919  1.00  0.00    -0.352 N 
ATOM     72  C   UNL A   1      31.083  27.815  22.502  1.00  0.00     0.258 C 
ATOM     73  H   UNL A   1      31.331  29.763  22.887  1.00  0.00     0.163 HD
ATOM     74  O   UNL A   1      29.920  27.950  22.141  1.00  0.00    -0.269 OA
BRANCH  72  75
ATOM     75  C   UNL A   1      31.760  26.504  22.506  1.00  0.00     0.121 A 
ATOM     76  C   UNL A   1      32.204  26.005  23.668  1.00  0.00     0.110 A 
ATOM     77  C   UNL A   1      32.056  25.768  21.266  1.00  0.00     0.266 A 
ATOM     78  N   UNL A   1      33.086  24.940  23.726  1.00  0.00    -0.299 N 
ATOM     79  N   UNL A   1      32.929  24.722  21.404  1.00  0.00    -0.273 N 
ATOM     80  O   UNL A   1      31.626  26.089  20.165  1.00  0.00    -0.268 OA
ATOM     81  C   UNL A   1      33.539  24.323  22.562  1.00  0.00     0.328 A 
ATOM     82  H   UNL A   1      33.136  24.205  20.593  1.00  0.00     0.175 HD
ATOM     83  O   UNL A   1      34.416  23.465  22.539  1.00  0.00    -0.248 OA
BRANCH  78  84
ATOM     84  C   UNL A   1      33.695  24.588  25.006  1.00  0.00     0.131 C 
BRANCH  84  85
ATOM     85  C   UNL A   1      33.080  23.397  25.765  1.00  0.00     0.025 C 
ATOM     86  C   UNL A   1      32.119  22.514  24.954  1.00  0.00     0.022 C 
ATOM     87  C   UNL A   1      32.343  23.772  27.052  1.00  0.00     0.142 C 
ATOM     88  C   UNL A   1      30.706  23.077  25.057  1.00  0.00     0.137 C 
ATOM     89  S   UNL A   1      30.609  23.876  26.644  1.00  0.00     0.150 S 
ATOM     90  O   UNL A   1      30.252  25.262  26.448  1.00  0.00    -0.229 OA
ATOM     91  O   UNL A   1      29.874  23.013  27.549  1.00  0.00    -0.229 OA
ENDBRANCH  84  85
ENDBRANCH  78  84
ENDBRANCH  72  75
ENDBRANCH  70  71
ENDBRANCH  69  70
ENDBRANCH   1  69
TORSDOF 16
ENDMDL
