MODEL 1
REMARK VINA RESULT:     -10.8      0.000      0.000
REMARK SMILES O=C(COc1ccc(Br)cc1)NC(=S)Nc1ccc(Cl)cc1C(=O)NCCCCNC(=O)c1ccc(-c2c3nc(c(-c4ccc(S(=O)(=O)[O-])cc4)c4ccc([nH]4)c(-c4ccc(S(=O)(=O)[O-])cc4)c4nc(c(-c5ccc(S(=O)(=O)[O-])cc5)c5ccc2[nH]5)C=C4)C=C3)cc1
REMARK SMILES IDX 26 1 25 2 23 3 24 4 22 6 16 7 17 8 18 9 21 10 19 11 20 12
REMARK SMILES IDX 15 13 13 15 14 16 12 17 1 18 2 19 3 21 4 22 5 23 6 24 11 25
REMARK SMILES IDX 7 26 10 27 8 28 9 29 27 30 28 31 29 32 30 33 31 34 32 36
REMARK SMILES IDX 33 37 34 38 92 39 35 40 91 41 36 42 37 43 38 44 85 45 39 46
REMARK SMILES IDX 90 47 84 48 86 49 40 50 89 51 83 52 82 53 41 55 71 56 52 57
REMARK SMILES IDX 70 58 53 59 56 60 69 61 87 62 54 63 55 64 68 66 88 67 57 68
REMARK SMILES IDX 42 69 43 70 51 71 44 72 50 73 45 74 46 75 47 76 48 77 49 78
REMARK SMILES IDX 72 79 73 80 81 81 74 82 80 83 75 84 76 85 77 86 78 87 79 88
REMARK SMILES IDX 58 89 59 90 67 91 60 92 66 93 61 94 62 95 63 96 64 97 65 98
REMARK H PARENT 25 5 15 14 12 20 30 35 86 54 56 65
REMARK Flexibility Score: inf
ROOT
ATOM      1  C   UNL A   1      35.135  24.706  25.202  1.00  0.00     0.116 C 
ENDROOT
BRANCH   1   2
ATOM      2  N   UNL A   1      34.507  25.272  24.033  1.00  0.00    -0.352 N 
ATOM      3  C   UNL A   1      33.683  26.359  23.863  1.00  0.00     0.253 C 
ATOM      4  O   UNL A   1      33.352  26.606  22.699  1.00  0.00    -0.269 OA
ATOM      5  H   UNL A   1      34.708  24.789  23.200  1.00  0.00     0.163 HD
BRANCH   3   6
ATOM      6  C   UNL A   1      33.114  27.235  24.936  1.00  0.00     0.064 A 
ATOM      7  C   UNL A   1      31.775  27.599  25.173  1.00  0.00     0.053 A 
ATOM      8  C   UNL A   1      31.436  28.369  26.307  1.00  0.00     0.028 A 
ATOM      9  C   UNL A   1      32.417  28.854  27.165  1.00  0.00     0.023 A 
ATOM     10  C   UNL A   1      34.093  27.753  25.817  1.00  0.00     0.036 A 
ATOM     11  C   UNL A   1      33.746  28.565  26.900  1.00  0.00     0.041 A 
ATOM     12  Cl  UNL A   1      34.971  29.214  27.919  1.00  0.00    -0.084 Cl
BRANCH   7  13
ATOM     13  N   UNL A   1      30.712  27.231  24.340  1.00  0.00    -0.332 N 
ATOM     14  H   UNL A   1      30.514  27.841  23.593  1.00  0.00     0.169 HD
BRANCH  13  15
ATOM     15  C   UNL A   1      29.921  26.130  24.441  1.00  0.00     0.177 C 
ATOM     16  S   UNL A   1      28.267  26.297  24.251  1.00  0.00    -0.040 S 
BRANCH  15  17
ATOM     17  N   UNL A   1      30.397  24.889  24.811  1.00  0.00    -0.300 N 
ATOM     18  O   UNL A   1      31.571  23.929  23.017  1.00  0.00    -0.271 OA
ATOM     19  C   UNL A   1      31.154  23.894  24.170  1.00  0.00     0.264 C 
ATOM     20  H   UNL A   1      30.150  24.646  25.732  1.00  0.00     0.172 HD
BRANCH  19  21
ATOM     21  C   UNL A   1      31.525  22.708  25.069  1.00  0.00     0.329 C 
BRANCH  21  22
ATOM     22  O   UNL A   1      32.926  22.431  25.103  1.00  0.00    -0.484 OA
BRANCH  22  23
ATOM     23  C   UNL A   1      33.187  21.130  24.752  1.00  0.00     0.120 A 
ATOM     24  C   UNL A   1      32.252  20.433  23.987  1.00  0.00     0.047 A 
ATOM     25  C   UNL A   1      34.391  20.529  25.112  1.00  0.00     0.047 A 
ATOM     26  C   UNL A   1      32.479  19.099  23.648  1.00  0.00     0.019 A 
ATOM     27  C   UNL A   1      34.633  19.200  24.753  1.00  0.00     0.019 A 
ATOM     28  C   UNL A   1      33.670  18.487  24.035  1.00  0.00     0.018 A 
ATOM     29  Br  UNL A   1      33.982  16.679  23.578  1.00  0.00    -0.051 Br
ENDBRANCH  22  23
ENDBRANCH  21  22
ENDBRANCH  19  21
ENDBRANCH  15  17
ENDBRANCH  13  15
ENDBRANCH   7  13
ENDBRANCH   3   6
ENDBRANCH   1   2
BRANCH   1  30
ATOM     30  C   UNL A   1      36.278  23.730  24.935  1.00  0.00     0.023 C 
BRANCH  30  31
ATOM     31  C   UNL A   1      37.173  23.374  26.123  1.00  0.00     0.023 C 
BRANCH  31  32
ATOM     32  C   UNL A   1      37.975  24.511  26.753  1.00  0.00     0.116 C 
BRANCH  32  33
ATOM     33  N   UNL A   1      39.243  24.788  26.093  1.00  0.00    -0.352 N 
ATOM     34  C   UNL A   1      40.189  25.756  26.348  1.00  0.00     0.251 C 
ATOM     35  H   UNL A   1      39.459  24.186  25.345  1.00  0.00     0.163 HD
ATOM     36  O   UNL A   1      41.171  25.856  25.616  1.00  0.00    -0.269 OA
BRANCH  34  37
ATOM     37  C   UNL A   1      40.004  26.713  27.461  1.00  0.00     0.039 A 
ATOM     38  C   UNL A   1      39.499  26.244  28.678  1.00  0.00     0.014 A 
ATOM     39  C   UNL A   1      40.355  28.057  27.327  1.00  0.00     0.014 A 
ATOM     40  C   UNL A   1      39.470  27.088  29.792  1.00  0.00     0.010 A 
ATOM     41  C   UNL A   1      40.404  28.873  28.455  1.00  0.00     0.010 A 
ATOM     42  C   UNL A   1      39.988  28.389  29.707  1.00  0.00    -0.014 A 
BRANCH  42  43
ATOM     43  C   UNL A   1      40.151  29.257  30.904  1.00  0.00     0.031 A 
ATOM     44  C   UNL A   1      41.281  29.009  31.866  1.00  0.00     0.074 A 
ATOM     45  C   UNL A   1      39.220  30.192  31.189  1.00  0.00     0.049 A 
ATOM     46  N   UNL A   1      41.481  29.519  33.054  1.00  0.00    -0.248 NA
ATOM     47  C   UNL A   1      42.303  28.036  31.448  1.00  0.00     0.031 C 
ATOM     48  C   UNL A   1      38.060  30.521  30.357  1.00  0.00     0.029 A 
ATOM     49  N   UNL A   1      39.091  31.025  32.274  1.00  0.00    -0.354 N 
ATOM     50  C   UNL A   1      42.631  28.908  33.539  1.00  0.00     0.074 A 
ATOM     51  C   UNL A   1      43.064  27.962  32.531  1.00  0.00     0.031 C 
ATOM     52  C   UNL A   1      37.351  31.495  30.950  1.00  0.00     0.029 A 
ATOM     53  C   UNL A   1      37.970  31.822  32.230  1.00  0.00     0.049 A 
ATOM     54  H   UNL A   1      39.740  31.049  33.014  1.00  0.00     0.167 HD
ATOM     55  C   UNL A   1      43.277  29.120  34.710  1.00  0.00     0.031 A 
ATOM     56  C   UNL A   1      37.480  32.702  33.125  1.00  0.00     0.031 A 
ATOM     57  C   UNL A   1      42.861  30.075  35.701  1.00  0.00     0.049 A 
ATOM     58  C   UNL A   1      38.208  32.913  34.426  1.00  0.00     0.074 A 
ATOM     59  C   UNL A   1      43.471  30.388  36.904  1.00  0.00     0.029 A 
ATOM     60  N   UNL A   1      41.737  30.880  35.601  1.00  0.00    -0.354 N 
ATOM     61  N   UNL A   1      39.307  32.339  34.855  1.00  0.00    -0.248 NA
ATOM     62  C   UNL A   1      37.632  33.889  35.361  1.00  0.00     0.031 C 
ATOM     63  C   UNL A   1      42.697  31.361  37.546  1.00  0.00     0.029 A 
ATOM     64  C   UNL A   1      41.631  31.685  36.721  1.00  0.00     0.049 A 
ATOM     65  H   UNL A   1      41.107  30.879  34.844  1.00  0.00     0.167 HD
ATOM     66  C   UNL A   1      39.569  32.909  36.095  1.00  0.00     0.074 A 
ATOM     67  C   UNL A   1      38.519  33.873  36.347  1.00  0.00     0.031 C 
ATOM     68  C   UNL A   1      40.592  32.656  36.947  1.00  0.00     0.031 A 
BRANCH  55  69
ATOM     69  C   UNL A   1      44.508  28.298  34.981  1.00  0.00    -0.014 A 
ATOM     70  C   UNL A   1      45.765  28.694  34.490  1.00  0.00     0.010 A 
ATOM     71  C   UNL A   1      44.414  27.128  35.757  1.00  0.00     0.010 A 
ATOM     72  C   UNL A   1      46.896  27.913  34.729  1.00  0.00     0.020 A 
ATOM     73  C   UNL A   1      45.549  26.357  36.022  1.00  0.00     0.020 A 
ATOM     74  C   UNL A   1      46.781  26.744  35.487  1.00  0.00     0.054 A 
BRANCH  74  75
ATOM     75  S   UNL A   1      48.268  25.751  35.790  1.00  0.00     0.124 S 
ATOM     76  O   UNL A   1      49.214  26.335  34.842  1.00  0.00    -0.237 OA
ATOM     77  O   UNL A   1      48.550  26.013  37.199  1.00  0.00    -0.237 OA
ATOM     78  O   UNL A   1      47.842  24.388  35.485  1.00  0.00    -0.744 OA
ENDBRANCH  74  75
ENDBRANCH  55  69
BRANCH  56  79
ATOM     79  C   UNL A   1      36.236  33.461  32.824  1.00  0.00    -0.014 A 
ATOM     80  C   UNL A   1      36.310  34.775  32.333  1.00  0.00     0.010 A 
ATOM     81  C   UNL A   1      34.973  32.877  33.027  1.00  0.00     0.010 A 
ATOM     82  C   UNL A   1      35.145  35.501  32.069  1.00  0.00     0.020 A 
ATOM     83  C   UNL A   1      33.804  33.590  32.741  1.00  0.00     0.020 A 
ATOM     84  C   UNL A   1      33.898  34.905  32.276  1.00  0.00     0.054 A 
BRANCH  84  85
ATOM     85  S   UNL A   1      32.399  35.850  31.889  1.00  0.00     0.124 S 
ATOM     86  O   UNL A   1      31.375  35.100  32.608  1.00  0.00    -0.237 OA
ATOM     87  O   UNL A   1      32.710  37.172  32.425  1.00  0.00    -0.237 OA
ATOM     88  O   UNL A   1      32.321  35.780  30.431  1.00  0.00    -0.744 OA
ENDBRANCH  84  85
ENDBRANCH  56  79
BRANCH  68  89
ATOM     89  C   UNL A   1      40.667  33.469  38.210  1.00  0.00    -0.014 A 
ATOM     90  C   UNL A   1      41.372  34.683  38.253  1.00  0.00     0.010 A 
ATOM     91  C   UNL A   1      39.942  33.052  39.341  1.00  0.00     0.010 A 
ATOM     92  C   UNL A   1      41.354  35.466  39.411  1.00  0.00     0.020 A 
ATOM     93  C   UNL A   1      39.906  33.842  40.492  1.00  0.00     0.020 A 
ATOM     94  C   UNL A   1      40.617  35.043  40.521  1.00  0.00     0.054 A 
BRANCH  94  95
ATOM     95  S   UNL A   1      40.540  36.117  41.982  1.00  0.00     0.124 S 
ATOM     96  O   UNL A   1      41.040  37.384  41.456  1.00  0.00    -0.237 OA
ATOM     97  O   UNL A   1      39.118  36.095  42.322  1.00  0.00    -0.237 OA
ATOM     98  O   UNL A   1      41.414  35.453  42.947  1.00  0.00    -0.744 OA
ENDBRANCH  94  95
ENDBRANCH  68  89
ENDBRANCH  42  43
ENDBRANCH  34  37
ENDBRANCH  32  33
ENDBRANCH  31  32
ENDBRANCH  30  31
ENDBRANCH   1  30
TORSDOF 20
ENDMDL
MODEL 2
REMARK VINA RESULT:     -10.7      6.690      9.148
REMARK SMILES O=C(COc1ccc(Br)cc1)NC(=S)Nc1ccc(Cl)cc1C(=O)NCCCCNC(=O)c1ccc(-c2c3nc(c(-c4ccc(S(=O)(=O)[O-])cc4)c4ccc([nH]4)c(-c4ccc(S(=O)(=O)[O-])cc4)c4nc(c(-c5ccc(S(=O)(=O)[O-])cc5)c5ccc2[nH]5)C=C4)C=C3)cc1
REMARK SMILES IDX 26 1 25 2 23 3 24 4 22 6 16 7 17 8 18 9 21 10 19 11 20 12
REMARK SMILES IDX 15 13 13 15 14 16 12 17 1 18 2 19 3 21 4 22 5 23 6 24 11 25
REMARK SMILES IDX 7 26 10 27 8 28 9 29 27 30 28 31 29 32 30 33 31 34 32 36
REMARK SMILES IDX 33 37 34 38 92 39 35 40 91 41 36 42 37 43 38 44 85 45 39 46
REMARK SMILES IDX 90 47 84 48 86 49 40 50 89 51 83 52 82 53 41 55 71 56 52 57
REMARK SMILES IDX 70 58 53 59 56 60 69 61 87 62 54 63 55 64 68 66 88 67 57 68
REMARK SMILES IDX 42 69 43 70 51 71 44 72 50 73 45 74 46 75 47 76 48 77 49 78
REMARK SMILES IDX 72 79 73 80 81 81 74 82 80 83 75 84 76 85 77 86 78 87 79 88
REMARK SMILES IDX 58 89 59 90 67 91 60 92 66 93 61 94 62 95 63 96 64 97 65 98
REMARK H PARENT 25 5 15 14 12 20 30 35 86 54 56 65
REMARK Flexibility Score: inf
ROOT
ATOM      1  C   UNL A   1      37.576  23.342  25.853  1.00  0.00     0.116 C 
ENDROOT
BRANCH   1   2
ATOM      2  N   UNL A   1      37.467  23.201  24.421  1.00  0.00    -0.352 N 
ATOM      3  C   UNL A   1      36.384  23.044  23.589  1.00  0.00     0.253 C 
ATOM      4  O   UNL A   1      36.636  23.002  22.381  1.00  0.00    -0.269 OA
ATOM      5  H   UNL A   1      38.331  23.222  23.951  1.00  0.00     0.163 HD
BRANCH   3   6
ATOM      6  C   UNL A   1      34.953  22.875  23.995  1.00  0.00     0.064 A 
ATOM      7  C   UNL A   1      33.885  23.788  23.896  1.00  0.00     0.053 A 
ATOM      8  C   UNL A   1      32.577  23.395  24.255  1.00  0.00     0.028 A 
ATOM      9  C   UNL A   1      32.326  22.136  24.790  1.00  0.00     0.023 A 
ATOM     10  C   UNL A   1      34.672  21.607  24.555  1.00  0.00     0.036 A 
ATOM     11  C   UNL A   1      33.383  21.256  24.963  1.00  0.00     0.041 A 
ATOM     12  Cl  UNL A   1      33.094  19.720  25.683  1.00  0.00    -0.084 Cl
BRANCH   7  13
ATOM     13  N   UNL A   1      34.028  25.104  23.441  1.00  0.00    -0.332 N 
ATOM     14  H   UNL A   1      34.951  25.433  23.347  1.00  0.00     0.169 HD
BRANCH  13  15
ATOM     15  C   UNL A   1      33.042  25.980  23.113  1.00  0.00     0.177 C 
ATOM     16  S   UNL A   1      32.488  26.027  21.535  1.00  0.00    -0.040 S 
BRANCH  15  17
ATOM     17  N   UNL A   1      32.548  26.925  23.989  1.00  0.00    -0.300 N 
ATOM     18  O   UNL A   1      33.492  29.020  23.503  1.00  0.00    -0.271 OA
ATOM     19  C   UNL A   1      32.743  28.305  24.161  1.00  0.00     0.264 C 
ATOM     20  H   UNL A   1      31.916  26.545  24.642  1.00  0.00     0.172 HD
BRANCH  19  21
ATOM     21  C   UNL A   1      31.855  28.937  25.240  1.00  0.00     0.329 C 
BRANCH  21  22
ATOM     22  O   UNL A   1      32.250  28.604  26.573  1.00  0.00    -0.484 OA
BRANCH  22  23
ATOM     23  C   UNL A   1      33.238  29.443  27.025  1.00  0.00     0.120 A 
ATOM     24  C   UNL A   1      32.930  30.780  27.278  1.00  0.00     0.047 A 
ATOM     25  C   UNL A   1      34.518  28.955  27.278  1.00  0.00     0.047 A 
ATOM     26  C   UNL A   1      33.925  31.660  27.703  1.00  0.00     0.019 A 
ATOM     27  C   UNL A   1      35.512  29.829  27.729  1.00  0.00     0.019 A 
ATOM     28  C   UNL A   1      35.215  31.179  27.926  1.00  0.00     0.018 A 
ATOM     29  Br  UNL A   1      36.567  32.367  28.504  1.00  0.00    -0.051 Br
ENDBRANCH  22  23
ENDBRANCH  21  22
ENDBRANCH  19  21
ENDBRANCH  15  17
ENDBRANCH  13  15
ENDBRANCH   7  13
ENDBRANCH   3   6
ENDBRANCH   1   2
BRANCH   1  30
ATOM     30  C   UNL A   1      38.870  22.824  26.474  1.00  0.00     0.023 C 
BRANCH  30  31
ATOM     31  C   UNL A   1      39.365  21.457  25.997  1.00  0.00     0.023 C 
BRANCH  31  32
ATOM     32  C   UNL A   1      40.423  20.765  26.854  1.00  0.00     0.116 C 
BRANCH  32  33
ATOM     33  N   UNL A   1      41.308  19.877  26.112  1.00  0.00    -0.352 N 
ATOM     34  C   UNL A   1      42.566  20.098  25.595  1.00  0.00     0.251 C 
ATOM     35  H   UNL A   1      40.949  18.974  25.956  1.00  0.00     0.163 HD
ATOM     36  O   UNL A   1      43.116  19.218  24.936  1.00  0.00    -0.269 OA
BRANCH  34  37
ATOM     37  C   UNL A   1      43.236  21.404  25.779  1.00  0.00     0.039 A 
ATOM     38  C   UNL A   1      42.990  22.424  24.854  1.00  0.00     0.014 A 
ATOM     39  C   UNL A   1      44.074  21.642  26.869  1.00  0.00     0.014 A 
ATOM     40  C   UNL A   1      43.476  23.713  25.093  1.00  0.00     0.010 A 
ATOM     41  C   UNL A   1      44.487  22.942  27.150  1.00  0.00     0.010 A 
ATOM     42  C   UNL A   1      44.170  23.998  26.280  1.00  0.00    -0.014 A 
BRANCH  42  43
ATOM     43  C   UNL A   1      44.542  25.386  26.666  1.00  0.00     0.031 A 
ATOM     44  C   UNL A   1      45.911  25.917  26.338  1.00  0.00     0.074 A 
ATOM     45  C   UNL A   1      43.694  26.127  27.410  1.00  0.00     0.049 A 
ATOM     46  N   UNL A   1      46.492  27.014  26.751  1.00  0.00    -0.248 NA
ATOM     47  C   UNL A   1      46.746  25.091  25.452  1.00  0.00     0.031 C 
ATOM     48  C   UNL A   1      42.346  25.726  27.820  1.00  0.00     0.029 A 
ATOM     49  N   UNL A   1      43.852  27.370  27.974  1.00  0.00    -0.354 N 
ATOM     50  C   UNL A   1      47.769  26.995  26.205  1.00  0.00     0.074 A 
ATOM     51  C   UNL A   1      47.890  25.759  25.459  1.00  0.00     0.031 C 
ATOM     52  C   UNL A   1      41.795  26.708  28.552  1.00  0.00     0.029 A 
ATOM     53  C   UNL A   1      42.766  27.785  28.711  1.00  0.00     0.049 A 
ATOM     54  H   UNL A   1      44.665  27.913  27.861  1.00  0.00     0.167 HD
ATOM     55  C   UNL A   1      48.750  27.924  26.303  1.00  0.00     0.031 A 
ATOM     56  C   UNL A   1      42.578  28.895  29.452  1.00  0.00     0.031 A 
ATOM     57  C   UNL A   1      48.621  29.161  27.024  1.00  0.00     0.049 A 
ATOM     58  C   UNL A   1      43.686  29.908  29.557  1.00  0.00     0.074 A 
ATOM     59  C   UNL A   1      49.547  30.183  27.151  1.00  0.00     0.029 A 
ATOM     60  N   UNL A   1      47.495  29.551  27.731  1.00  0.00    -0.354 N 
ATOM     61  N   UNL A   1      44.879  29.879  29.014  1.00  0.00    -0.248 NA
ATOM     62  C   UNL A   1      43.422  31.102  30.373  1.00  0.00     0.031 C 
ATOM     63  C   UNL A   1      48.991  31.178  27.962  1.00  0.00     0.029 A 
ATOM     64  C   UNL A   1      47.703  30.795  28.302  1.00  0.00     0.049 A 
ATOM     65  H   UNL A   1      46.669  29.022  27.815  1.00  0.00     0.167 HD
ATOM     66  C   UNL A   1      45.496  31.065  29.396  1.00  0.00     0.074 A 
ATOM     67  C   UNL A   1      44.545  31.790  30.213  1.00  0.00     0.031 C 
ATOM     68  C   UNL A   1      46.738  31.513  29.094  1.00  0.00     0.031 A 
BRANCH  55  69
ATOM     69  C   UNL A   1      50.052  27.632  25.608  1.00  0.00    -0.014 A 
ATOM     70  C   UNL A   1      50.217  27.903  24.238  1.00  0.00     0.010 A 
ATOM     71  C   UNL A   1      51.133  27.104  26.337  1.00  0.00     0.010 A 
ATOM     72  C   UNL A   1      51.423  27.608  23.599  1.00  0.00     0.020 A 
ATOM     73  C   UNL A   1      52.350  26.832  25.707  1.00  0.00     0.020 A 
ATOM     74  C   UNL A   1      52.480  27.067  24.336  1.00  0.00     0.054 A 
BRANCH  74  75
ATOM     75  S   UNL A   1      54.038  26.701  23.483  1.00  0.00     0.124 S 
ATOM     76  O   UNL A   1      54.750  27.971  23.603  1.00  0.00    -0.237 OA
ATOM     77  O   UNL A   1      54.587  25.599  24.271  1.00  0.00    -0.237 OA
ATOM     78  O   UNL A   1      53.618  26.347  22.130  1.00  0.00    -0.744 OA
ENDBRANCH  74  75
ENDBRANCH  55  69
BRANCH  56  79
ATOM     79  C   UNL A   1      41.284  29.116  30.152  1.00  0.00    -0.014 A 
ATOM     80  C   UNL A   1      41.088  28.616  31.451  1.00  0.00     0.010 A 
ATOM     81  C   UNL A   1      40.241  29.824  29.527  1.00  0.00     0.010 A 
ATOM     82  C   UNL A   1      39.867  28.800  32.106  1.00  0.00     0.020 A 
ATOM     83  C   UNL A   1      39.026  30.032  30.188  1.00  0.00     0.020 A 
ATOM     84  C   UNL A   1      38.842  29.507  31.469  1.00  0.00     0.054 A 
BRANCH  84  85
ATOM     85  S   UNL A   1      37.279  29.770  32.352  1.00  0.00     0.124 S 
ATOM     86  O   UNL A   1      37.271  28.656  33.294  1.00  0.00    -0.237 OA
ATOM     87  O   UNL A   1      37.466  31.095  32.939  1.00  0.00    -0.237 OA
ATOM     88  O   UNL A   1      36.275  29.705  31.292  1.00  0.00    -0.744 OA
ENDBRANCH  84  85
ENDBRANCH  56  79
BRANCH  68  89
ATOM     89  C   UNL A   1      47.133  32.874  29.597  1.00  0.00    -0.014 A 
ATOM     90  C   UNL A   1      47.811  33.031  30.818  1.00  0.00     0.010 A 
ATOM     91  C   UNL A   1      46.902  34.001  28.786  1.00  0.00     0.010 A 
ATOM     92  C   UNL A   1      48.247  34.295  31.222  1.00  0.00     0.020 A 
ATOM     93  C   UNL A   1      47.355  35.262  29.179  1.00  0.00     0.020 A 
ATOM     94  C   UNL A   1      48.021  35.402  30.398  1.00  0.00     0.054 A 
BRANCH  94  95
ATOM     95  S   UNL A   1      48.672  37.018  30.904  1.00  0.00     0.124 S 
ATOM     96  O   UNL A   1      48.764  37.723  29.629  1.00  0.00    -0.237 OA
ATOM     97  O   UNL A   1      47.642  37.508  31.819  1.00  0.00    -0.237 OA
ATOM     98  O   UNL A   1      49.951  36.696  31.534  1.00  0.00    -0.744 OA
ENDBRANCH  94  95
ENDBRANCH  68  89
ENDBRANCH  42  43
ENDBRANCH  34  37
ENDBRANCH  32  33
ENDBRANCH  31  32
ENDBRANCH  30  31
ENDBRANCH   1  30
TORSDOF 20
ENDMDL
MODEL 3
REMARK VINA RESULT:     -10.7      1.526      7.951
REMARK SMILES O=C(COc1ccc(Br)cc1)NC(=S)Nc1ccc(Cl)cc1C(=O)NCCCCNC(=O)c1ccc(-c2c3nc(c(-c4ccc(S(=O)(=O)[O-])cc4)c4ccc([nH]4)c(-c4ccc(S(=O)(=O)[O-])cc4)c4nc(c(-c5ccc(S(=O)(=O)[O-])cc5)c5ccc2[nH]5)C=C4)C=C3)cc1
REMARK SMILES IDX 26 1 25 2 23 3 24 4 22 6 16 7 17 8 18 9 21 10 19 11 20 12
REMARK SMILES IDX 15 13 13 15 14 16 12 17 1 18 2 19 3 21 4 22 5 23 6 24 11 25
REMARK SMILES IDX 7 26 10 27 8 28 9 29 27 30 28 31 29 32 30 33 31 34 32 36
REMARK SMILES IDX 33 37 34 38 92 39 35 40 91 41 36 42 37 43 38 44 85 45 39 46
REMARK SMILES IDX 90 47 84 48 86 49 40 50 89 51 83 52 82 53 41 55 71 56 52 57
REMARK SMILES IDX 70 58 53 59 56 60 69 61 87 62 54 63 55 64 68 66 88 67 57 68
REMARK SMILES IDX 42 69 43 70 51 71 44 72 50 73 45 74 46 75 47 76 48 77 49 78
REMARK SMILES IDX 72 79 73 80 81 81 74 82 80 83 75 84 76 85 77 86 78 87 79 88
REMARK SMILES IDX 58 89 59 90 67 91 60 92 66 93 61 94 62 95 63 96 64 97 65 98
REMARK H PARENT 25 5 15 14 12 20 30 35 86 54 56 65
REMARK Flexibility Score: inf
ROOT
ATOM      1  C   UNL A   1      35.443  24.106  25.048  1.00  0.00     0.116 C 
ENDROOT
BRANCH   1   2
ATOM      2  N   UNL A   1      34.779  24.735  23.932  1.00  0.00    -0.352 N 
ATOM      3  C   UNL A   1      33.814  25.711  23.863  1.00  0.00     0.253 C 
ATOM      4  O   UNL A   1      33.490  26.067  22.726  1.00  0.00    -0.269 OA
ATOM      5  H   UNL A   1      35.073  24.401  23.054  1.00  0.00     0.163 HD
BRANCH   3   6
ATOM      6  C   UNL A   1      33.093  26.347  25.010  1.00  0.00     0.064 A 
ATOM      7  C   UNL A   1      31.876  25.977  25.612  1.00  0.00     0.053 A 
ATOM      8  C   UNL A   1      31.409  26.661  26.756  1.00  0.00     0.028 A 
ATOM      9  C   UNL A   1      32.091  27.763  27.261  1.00  0.00     0.023 A 
ATOM     10  C   UNL A   1      33.758  27.480  25.536  1.00  0.00     0.036 A 
ATOM     11  C   UNL A   1      33.251  28.184  26.630  1.00  0.00     0.041 A 
ATOM     12  Cl  UNL A   1      34.066  29.584  27.209  1.00  0.00    -0.084 Cl
BRANCH   7  13
ATOM     13  N   UNL A   1      31.067  24.932  25.150  1.00  0.00    -0.332 N 
ATOM     14  H   UNL A   1      30.384  25.174  24.483  1.00  0.00     0.169 HD
BRANCH  13  15
ATOM     15  C   UNL A   1      31.114  23.622  25.513  1.00  0.00     0.177 C 
ATOM     16  S   UNL A   1      30.279  23.126  26.874  1.00  0.00    -0.040 S 
BRANCH  15  17
ATOM     17  N   UNL A   1      31.916  22.692  24.882  1.00  0.00    -0.300 N 
ATOM     18  O   UNL A   1      31.914  23.091  22.568  1.00  0.00    -0.271 OA
ATOM     19  C   UNL A   1      32.288  22.456  23.548  1.00  0.00     0.264 C 
ATOM     20  H   UNL A   1      32.316  22.048  25.510  1.00  0.00     0.172 HD
BRANCH  19  21
ATOM     21  C   UNL A   1      33.315  21.331  23.371  1.00  0.00     0.329 C 
BRANCH  21  22
ATOM     22  O   UNL A   1      33.890  20.882  24.600  1.00  0.00    -0.484 OA
BRANCH  22  23
ATOM     23  C   UNL A   1      33.668  19.542  24.794  1.00  0.00     0.120 A 
ATOM     24  C   UNL A   1      34.712  18.642  24.579  1.00  0.00     0.047 A 
ATOM     25  C   UNL A   1      32.431  19.090  25.249  1.00  0.00     0.047 A 
ATOM     26  C   UNL A   1      34.500  17.272  24.736  1.00  0.00     0.019 A 
ATOM     27  C   UNL A   1      32.223  17.719  25.432  1.00  0.00     0.019 A 
ATOM     28  C   UNL A   1      33.253  16.817  25.161  1.00  0.00     0.018 A 
ATOM     29  Br  UNL A   1      32.961  14.961  25.376  1.00  0.00    -0.051 Br
ENDBRANCH  22  23
ENDBRANCH  21  22
ENDBRANCH  19  21
ENDBRANCH  15  17
ENDBRANCH  13  15
ENDBRANCH   7  13
ENDBRANCH   3   6
ENDBRANCH   1   2
BRANCH   1  30
ATOM     30  C   UNL A   1      36.599  23.173  24.693  1.00  0.00     0.023 C 
BRANCH  30  31
ATOM     31  C   UNL A   1      37.644  22.925  25.782  1.00  0.00     0.023 C 
BRANCH  31  32
ATOM     32  C   UNL A   1      38.386  24.145  26.323  1.00  0.00     0.116 C 
BRANCH  32  33
ATOM     33  N   UNL A   1      39.829  24.105  26.126  1.00  0.00    -0.352 N 
ATOM     34  C   UNL A   1      40.827  24.875  26.682  1.00  0.00     0.251 C 
ATOM     35  H   UNL A   1      40.140  23.416  25.496  1.00  0.00     0.163 HD
ATOM     36  O   UNL A   1      41.991  24.714  26.322  1.00  0.00    -0.269 OA
BRANCH  34  37
ATOM     37  C   UNL A   1      40.502  25.931  27.665  1.00  0.00     0.039 A 
ATOM     38  C   UNL A   1      39.496  25.690  28.607  1.00  0.00     0.014 A 
ATOM     39  C   UNL A   1      41.201  27.139  27.689  1.00  0.00     0.014 A 
ATOM     40  C   UNL A   1      39.283  26.601  29.646  1.00  0.00     0.010 A 
ATOM     41  C   UNL A   1      41.046  28.004  28.770  1.00  0.00     0.010 A 
ATOM     42  C   UNL A   1      40.105  27.731  29.776  1.00  0.00    -0.014 A 
BRANCH  42  43
ATOM     43  C   UNL A   1      40.041  28.625  30.963  1.00  0.00     0.031 A 
ATOM     44  C   UNL A   1      39.087  29.789  30.979  1.00  0.00     0.074 A 
ATOM     45  C   UNL A   1      40.917  28.461  31.977  1.00  0.00     0.049 A 
ATOM     46  N   UNL A   1      39.016  30.786  31.823  1.00  0.00    -0.248 NA
ATOM     47  C   UNL A   1      38.106  29.854  29.885  1.00  0.00     0.031 C 
ATOM     48  C   UNL A   1      41.911  27.389  32.079  1.00  0.00     0.029 A 
ATOM     49  N   UNL A   1      41.126  29.211  33.109  1.00  0.00    -0.354 N 
ATOM     50  C   UNL A   1      38.007  31.613  31.346  1.00  0.00     0.074 A 
ATOM     51  C   UNL A   1      37.519  31.019  30.118  1.00  0.00     0.031 C 
ATOM     52  C   UNL A   1      42.609  27.540  33.216  1.00  0.00     0.029 A 
ATOM     53  C   UNL A   1      42.154  28.747  33.898  1.00  0.00     0.049 A 
ATOM     54  H   UNL A   1      40.591  30.006  33.335  1.00  0.00     0.167 HD
ATOM     55  C   UNL A   1      37.520  32.758  31.883  1.00  0.00     0.031 A 
ATOM     56  C   UNL A   1      42.688  29.246  35.030  1.00  0.00     0.031 A 
ATOM     57  C   UNL A   1      37.989  33.335  33.113  1.00  0.00     0.049 A 
ATOM     58  C   UNL A   1      42.140  30.525  35.603  1.00  0.00     0.074 A 
ATOM     59  C   UNL A   1      37.533  34.473  33.758  1.00  0.00     0.029 A 
ATOM     60  N   UNL A   1      39.010  32.816  33.892  1.00  0.00    -0.354 N 
ATOM     61  N   UNL A   1      41.170  31.280  35.146  1.00  0.00    -0.248 NA
ATOM     62  C   UNL A   1      42.756  31.018  36.843  1.00  0.00     0.031 C 
ATOM     63  C   UNL A   1      38.302  34.659  34.911  1.00  0.00     0.029 A 
ATOM     64  C   UNL A   1      39.206  33.612  35.007  1.00  0.00     0.049 A 
ATOM     65  H   UNL A   1      39.523  32.002  33.683  1.00  0.00     0.167 HD
ATOM     66  C   UNL A   1      41.039  32.319  36.060  1.00  0.00     0.074 A 
ATOM     67  C   UNL A   1      42.026  32.096  37.096  1.00  0.00     0.031 C 
ATOM     68  C   UNL A   1      40.177  33.364  36.042  1.00  0.00     0.031 A 
BRANCH  55  69
ATOM     69  C   UNL A   1      36.419  33.460  31.136  1.00  0.00    -0.014 A 
ATOM     70  C   UNL A   1      36.585  33.839  29.792  1.00  0.00     0.010 A 
ATOM     71  C   UNL A   1      35.192  33.721  31.775  1.00  0.00     0.010 A 
ATOM     72  C   UNL A   1      35.565  34.509  29.115  1.00  0.00     0.020 A 
ATOM     73  C   UNL A   1      34.159  34.367  31.091  1.00  0.00     0.020 A 
ATOM     74  C   UNL A   1      34.360  34.776  29.771  1.00  0.00     0.054 A 
BRANCH  74  75
ATOM     75  S   UNL A   1      33.048  35.641  28.865  1.00  0.00     0.124 S 
ATOM     76  O   UNL A   1      32.527  34.578  28.008  1.00  0.00    -0.237 OA
ATOM     77  O   UNL A   1      32.153  36.079  29.933  1.00  0.00    -0.237 OA
ATOM     78  O   UNL A   1      33.755  36.712  28.170  1.00  0.00    -0.744 OA
ENDBRANCH  74  75
ENDBRANCH  55  69
BRANCH  56  79
ATOM     79  C   UNL A   1      43.804  28.532  35.708  1.00  0.00    -0.014 A 
ATOM     80  C   UNL A   1      45.138  28.877  35.428  1.00  0.00     0.010 A 
ATOM     81  C   UNL A   1      43.543  27.505  36.633  1.00  0.00     0.010 A 
ATOM     82  C   UNL A   1      46.192  28.196  36.044  1.00  0.00     0.020 A 
ATOM     83  C   UNL A   1      44.594  26.837  37.270  1.00  0.00     0.020 A 
ATOM     84  C   UNL A   1      45.913  27.178  36.961  1.00  0.00     0.054 A 
BRANCH  84  85
ATOM     85  S   UNL A   1      47.294  26.334  37.781  1.00  0.00     0.124 S 
ATOM     86  O   UNL A   1      46.617  25.621  38.857  1.00  0.00    -0.237 OA
ATOM     87  O   UNL A   1      47.836  25.500  36.710  1.00  0.00    -0.237 OA
ATOM     88  O   UNL A   1      48.161  27.432  38.202  1.00  0.00    -0.744 OA
ENDBRANCH  84  85
ENDBRANCH  56  79
BRANCH  68  89
ATOM     89  C   UNL A   1      40.212  34.321  37.201  1.00  0.00    -0.014 A 
ATOM     90  C   UNL A   1      41.059  35.443  37.192  1.00  0.00     0.010 A 
ATOM     91  C   UNL A   1      39.315  34.142  38.269  1.00  0.00     0.010 A 
ATOM     92  C   UNL A   1      41.011  36.368  38.239  1.00  0.00     0.020 A 
ATOM     93  C   UNL A   1      39.251  35.076  39.306  1.00  0.00     0.020 A 
ATOM     94  C   UNL A   1      40.104  36.182  39.286  1.00  0.00     0.054 A 
BRANCH  94  95
ATOM     95  S   UNL A   1      40.000  37.439  40.590  1.00  0.00     0.124 S 
ATOM     96  O   UNL A   1      38.575  37.757  40.594  1.00  0.00    -0.237 OA
ATOM     97  O   UNL A   1      40.488  36.724  41.767  1.00  0.00    -0.237 OA
ATOM     98  O   UNL A   1      40.876  38.508  40.112  1.00  0.00    -0.744 OA
ENDBRANCH  94  95
ENDBRANCH  68  89
ENDBRANCH  42  43
ENDBRANCH  34  37
ENDBRANCH  32  33
ENDBRANCH  31  32
ENDBRANCH  30  31
ENDBRANCH   1  30
TORSDOF 20
ENDMDL
