MODEL 1
REMARK VINA RESULT:      -8.6      0.000      0.000
REMARK SMILES Cc1cc(CS(=O)(=O)N[C@@H]2C=C[C@H](C(=O)NCCCCNC(=O)c3ccc(-c4c5nc(c(-c6ccc(S(=O)(=O)[O-])cc6)c6ccc([nH]6)c(-c6ccc(S(=O)(=O)[O-])cc6)c6nc(c(-c7ccc(S(=O)(=O)[O-])cc7)c7ccc4[nH]7)C=C6)C=C5)cc3)C2)no1
REMARK SMILES IDX 18 1 17 2 16 3 14 4 15 5 13 7 10 8 11 9 84 10 12 11 9 12
REMARK SMILES IDX 6 14 7 15 8 16 5 17 4 18 1 19 2 20 3 21 86 22 85 23 19 24
REMARK SMILES IDX 20 25 21 26 22 27 23 29 24 30 25 31 83 32 26 33 82 34 27 35
REMARK SMILES IDX 28 36 29 37 76 38 30 39 81 40 75 41 77 42 31 43 80 44 74 45
REMARK SMILES IDX 73 46 32 48 62 49 43 50 61 51 44 52 47 53 60 54 78 55 45 56
REMARK SMILES IDX 46 57 59 59 79 60 48 61 33 62 34 63 42 64 35 65 41 66 36 67
REMARK SMILES IDX 37 68 38 69 39 70 40 71 63 72 64 73 72 74 65 75 71 76 66 77
REMARK SMILES IDX 67 78 68 79 69 80 70 81 49 82 50 83 58 84 51 85 57 86 52 87
REMARK SMILES IDX 53 88 54 89 55 90 56 91
REMARK H PARENT 16 6 9 13 21 28 77 47 47 58
REMARK Flexibility Score: inf
ROOT
ATOM      1  C   UNL A   1      34.411  33.650  30.564  1.00  0.00     0.023 C 
ENDROOT
BRANCH   1   2
ATOM      2  C   UNL A   1      34.417  34.803  31.569  1.00  0.00     0.116 C 
BRANCH   2   3
ATOM      3  N   UNL A   1      35.746  35.024  32.115  1.00  0.00    -0.356 N 
ATOM      4  C   UNL A   1      36.503  34.379  33.038  1.00  0.00     0.226 C 
ATOM      5  O   UNL A   1      37.585  34.908  33.322  1.00  0.00    -0.274 OA
ATOM      6  H   UNL A   1      36.194  35.813  31.731  1.00  0.00     0.163 HD
BRANCH   4   7
ATOM      7  C   UNL A   1      36.149  33.036  33.689  1.00  0.00     0.103 C 
ATOM      8  C   UNL A   1      37.840  31.670  34.883  1.00  0.00     0.093 C 
ATOM      9  C   UNL A   1      37.459  31.113  33.554  1.00  0.00    -0.011 C 
ATOM     10  C   UNL A   1      36.919  32.886  35.021  1.00  0.00     0.042 C 
ATOM     11  C   UNL A   1      36.478  31.789  32.954  1.00  0.00    -0.016 C 
BRANCH   8  12
ATOM     12  N   UNL A   1      39.261  32.011  34.826  1.00  0.00    -0.208 NA
ATOM     13  H   UNL A   1      39.486  32.215  33.852  1.00  0.00     0.141 HD
BRANCH  12  14
ATOM     14  S   UNL A   1      40.377  30.869  35.368  1.00  0.00     0.218 S 
ATOM     15  O   UNL A   1      39.668  29.904  36.178  1.00  0.00    -0.212 OA
ATOM     16  O   UNL A   1      41.440  31.661  35.962  1.00  0.00    -0.212 OA
BRANCH  14  17
ATOM     17  C   UNL A   1      41.062  30.105  33.874  1.00  0.00     0.213 C 
BRANCH  17  18
ATOM     18  C   UNL A   1      42.037  29.017  34.126  1.00  0.00     0.100 A 
ATOM     19  C   UNL A   1      45.255  27.284  34.163  1.00  0.00     0.091 C 
ATOM     20  C   UNL A   1      43.902  27.861  34.279  1.00  0.00     0.133 A 
ATOM     21  C   UNL A   1      43.414  29.135  34.442  1.00  0.00     0.073 A 
ATOM     22  O   UNL A   1      42.863  27.008  34.087  1.00  0.00    -0.361 OA
ATOM     23  N   UNL A   1      41.683  27.728  34.038  1.00  0.00    -0.084 NA
ENDBRANCH  17  18
ENDBRANCH  14  17
ENDBRANCH  12  14
ENDBRANCH   8  12
ENDBRANCH   4   7
ENDBRANCH   2   3
ENDBRANCH   1   2
BRANCH   1  24
ATOM     24  C   UNL A   1      34.487  34.104  29.104  1.00  0.00     0.023 C 
BRANCH  24  25
ATOM     25  C   UNL A   1      35.016  33.054  28.131  1.00  0.00     0.116 C 
BRANCH  25  26
ATOM     26  N   UNL A   1      34.091  31.950  27.922  1.00  0.00    -0.352 N 
ATOM     27  C   UNL A   1      34.368  30.604  27.878  1.00  0.00     0.251 C 
ATOM     28  H   UNL A   1      33.147  32.198  27.795  1.00  0.00     0.163 HD
ATOM     29  O   UNL A   1      33.494  29.802  27.564  1.00  0.00    -0.269 OA
BRANCH  27  30
ATOM     30  C   UNL A   1      35.739  30.144  28.177  1.00  0.00     0.039 A 
ATOM     31  C   UNL A   1      36.689  30.136  27.155  1.00  0.00     0.014 A 
ATOM     32  C   UNL A   1      36.095  29.781  29.479  1.00  0.00     0.014 A 
ATOM     33  C   UNL A   1      38.016  29.823  27.455  1.00  0.00     0.010 A 
ATOM     34  C   UNL A   1      37.431  29.551  29.790  1.00  0.00     0.010 A 
ATOM     35  C   UNL A   1      38.405  29.568  28.780  1.00  0.00    -0.014 A 
BRANCH  35  36
ATOM     36  C   UNL A   1      39.828  29.320  29.130  1.00  0.00     0.031 A 
ATOM     37  C   UNL A   1      40.466  27.995  28.813  1.00  0.00     0.074 A 
ATOM     38  C   UNL A   1      40.528  30.269  29.783  1.00  0.00     0.049 A 
ATOM     39  N   UNL A   1      41.681  27.583  29.069  1.00  0.00    -0.248 NA
ATOM     40  C   UNL A   1      39.621  26.990  28.144  1.00  0.00     0.031 C 
ATOM     41  C   UNL A   1      40.008  31.577  30.191  1.00  0.00     0.029 A 
ATOM     42  N   UNL A   1      41.828  30.279  30.224  1.00  0.00    -0.354 N 
ATOM     43  C   UNL A   1      41.742  26.272  28.610  1.00  0.00     0.074 A 
ATOM     44  C   UNL A   1      40.427  25.939  28.110  1.00  0.00     0.031 C 
ATOM     45  C   UNL A   1      40.988  32.272  30.791  1.00  0.00     0.029 A 
ATOM     46  C   UNL A   1      42.191  31.448  30.851  1.00  0.00     0.049 A 
ATOM     47  H   UNL A   1      42.444  29.520  30.103  1.00  0.00     0.167 HD
ATOM     48  C   UNL A   1      42.801  25.430  28.586  1.00  0.00     0.031 A 
ATOM     49  C   UNL A   1      43.358  31.816  31.415  1.00  0.00     0.031 A 
ATOM     50  C   UNL A   1      44.110  25.770  29.078  1.00  0.00     0.049 A 
ATOM     51  C   UNL A   1      44.519  30.859  31.383  1.00  0.00     0.074 A 
ATOM     52  C   UNL A   1      45.265  25.008  29.043  1.00  0.00     0.029 A 
ATOM     53  N   UNL A   1      44.438  26.967  29.698  1.00  0.00    -0.354 N 
ATOM     54  N   UNL A   1      44.578  29.652  30.874  1.00  0.00    -0.248 NA
ATOM     55  C   UNL A   1      45.775  31.322  31.989  1.00  0.00     0.031 C 
ATOM     56  C   UNL A   1      46.275  25.719  29.699  1.00  0.00     0.029 A 
ATOM     57  C   UNL A   1      45.770  26.953  30.077  1.00  0.00     0.049 A 
ATOM     58  H   UNL A   1      43.816  27.715  29.846  1.00  0.00     0.167 HD
ATOM     59  C   UNL A   1      45.885  29.222  31.073  1.00  0.00     0.074 A 
ATOM     60  C   UNL A   1      46.586  30.304  31.731  1.00  0.00     0.031 C 
ATOM     61  C   UNL A   1      46.454  28.037  30.736  1.00  0.00     0.031 A 
BRANCH  48  62
ATOM     62  C   UNL A   1      42.586  24.052  28.014  1.00  0.00    -0.014 A 
ATOM     63  C   UNL A   1      42.766  23.794  26.643  1.00  0.00     0.010 A 
ATOM     64  C   UNL A   1      42.239  22.989  28.868  1.00  0.00     0.010 A 
ATOM     65  C   UNL A   1      42.564  22.509  26.131  1.00  0.00     0.020 A 
ATOM     66  C   UNL A   1      42.068  21.696  28.366  1.00  0.00     0.020 A 
ATOM     67  C   UNL A   1      42.216  21.469  26.997  1.00  0.00     0.054 A 
BRANCH  67  68
ATOM     68  S   UNL A   1      41.989  19.807  26.306  1.00  0.00     0.124 S 
ATOM     69  O   UNL A   1      42.405  18.959  27.420  1.00  0.00    -0.237 OA
ATOM     70  O   UNL A   1      40.561  19.782  25.998  1.00  0.00    -0.237 OA
ATOM     71  O   UNL A   1      42.874  19.789  25.144  1.00  0.00    -0.744 OA
ENDBRANCH  67  68
ENDBRANCH  48  62
BRANCH  49  72
ATOM     72  C   UNL A   1      43.489  33.160  32.045  1.00  0.00    -0.014 A 
ATOM     73  C   UNL A   1      44.000  34.248  31.316  1.00  0.00     0.010 A 
ATOM     74  C   UNL A   1      43.085  33.362  33.378  1.00  0.00     0.010 A 
ATOM     75  C   UNL A   1      44.123  35.507  31.911  1.00  0.00     0.020 A 
ATOM     76  C   UNL A   1      43.178  34.627  33.968  1.00  0.00     0.020 A 
ATOM     77  C   UNL A   1      43.706  35.689  33.233  1.00  0.00     0.054 A 
BRANCH  77  78
ATOM     78  S   UNL A   1      43.823  37.344  33.967  1.00  0.00     0.124 S 
ATOM     79  O   UNL A   1      44.739  37.120  35.080  1.00  0.00    -0.237 OA
ATOM     80  O   UNL A   1      44.351  38.140  32.862  1.00  0.00    -0.237 OA
ATOM     81  O   UNL A   1      42.444  37.651  34.341  1.00  0.00    -0.744 OA
ENDBRANCH  77  78
ENDBRANCH  49  72
BRANCH  61  82
ATOM     82  C   UNL A   1      47.919  27.859  31.041  1.00  0.00    -0.014 A 
ATOM     83  C   UNL A   1      48.354  27.265  32.239  1.00  0.00     0.010 A 
ATOM     84  C   UNL A   1      48.875  28.249  30.084  1.00  0.00     0.010 A 
ATOM     85  C   UNL A   1      49.718  27.098  32.491  1.00  0.00     0.020 A 
ATOM     86  C   UNL A   1      50.238  28.054  30.318  1.00  0.00     0.020 A 
ATOM     87  C   UNL A   1      50.652  27.494  31.529  1.00  0.00     0.054 A 
BRANCH  87  88
ATOM     88  S   UNL A   1      52.414  27.233  31.864  1.00  0.00     0.124 S 
ATOM     89  O   UNL A   1      52.920  28.603  31.916  1.00  0.00    -0.237 OA
ATOM     90  O   UNL A   1      52.396  26.521  33.139  1.00  0.00    -0.237 OA
ATOM     91  O   UNL A   1      52.872  26.443  30.723  1.00  0.00    -0.744 OA
ENDBRANCH  87  88
ENDBRANCH  61  82
ENDBRANCH  35  36
ENDBRANCH  27  30
ENDBRANCH  25  26
ENDBRANCH  24  25
ENDBRANCH   1  24
TORSDOF 18
ENDMDL
MODEL 2
REMARK VINA RESULT:      -8.6      1.250      8.291
REMARK SMILES Cc1cc(CS(=O)(=O)N[C@@H]2C=C[C@H](C(=O)NCCCCNC(=O)c3ccc(-c4c5nc(c(-c6ccc(S(=O)(=O)[O-])cc6)c6ccc([nH]6)c(-c6ccc(S(=O)(=O)[O-])cc6)c6nc(c(-c7ccc(S(=O)(=O)[O-])cc7)c7ccc4[nH]7)C=C6)C=C5)cc3)C2)no1
REMARK SMILES IDX 18 1 17 2 16 3 14 4 15 5 13 7 10 8 11 9 84 10 12 11 9 12
REMARK SMILES IDX 6 14 7 15 8 16 5 17 4 18 1 19 2 20 3 21 86 22 85 23 19 24
REMARK SMILES IDX 20 25 21 26 22 27 23 29 24 30 25 31 83 32 26 33 82 34 27 35
REMARK SMILES IDX 28 36 29 37 76 38 30 39 81 40 75 41 77 42 31 43 80 44 74 45
REMARK SMILES IDX 73 46 32 48 62 49 43 50 61 51 44 52 47 53 60 54 78 55 45 56
REMARK SMILES IDX 46 57 59 59 79 60 48 61 33 62 34 63 42 64 35 65 41 66 36 67
REMARK SMILES IDX 37 68 38 69 39 70 40 71 63 72 64 73 72 74 65 75 71 76 66 77
REMARK SMILES IDX 67 78 68 79 69 80 70 81 49 82 50 83 58 84 51 85 57 86 52 87
REMARK SMILES IDX 53 88 54 89 55 90 56 91
REMARK H PARENT 16 6 9 13 21 28 77 47 47 58
REMARK Flexibility Score: inf
ROOT
ATOM      1  C   UNL A   1      35.754  32.985  30.656  1.00  0.00     0.023 C 
ENDROOT
BRANCH   1   2
ATOM      2  C   UNL A   1      35.623  33.682  32.011  1.00  0.00     0.116 C 
BRANCH   2   3
ATOM      3  N   UNL A   1      36.922  33.870  32.637  1.00  0.00    -0.356 N 
ATOM      4  C   UNL A   1      37.698  33.103  33.443  1.00  0.00     0.226 C 
ATOM      5  O   UNL A   1      38.735  33.630  33.865  1.00  0.00    -0.274 OA
ATOM      6  H   UNL A   1      37.325  34.745  32.432  1.00  0.00     0.163 HD
BRANCH   4   7
ATOM      7  C   UNL A   1      37.419  31.639  33.806  1.00  0.00     0.103 C 
ATOM      8  C   UNL A   1      39.177  30.159  34.736  1.00  0.00     0.093 C 
ATOM      9  C   UNL A   1      38.840  29.858  33.316  1.00  0.00    -0.011 C 
ATOM     10  C   UNL A   1      38.186  31.268  35.097  1.00  0.00     0.042 C 
ATOM     11  C   UNL A   1      37.826  30.584  32.844  1.00  0.00    -0.016 C 
BRANCH   8  12
ATOM     12  N   UNL A   1      40.577  30.583  34.776  1.00  0.00    -0.208 NA
ATOM     13  H   UNL A   1      40.807  30.955  33.855  1.00  0.00     0.141 HD
BRANCH  12  14
ATOM     14  S   UNL A   1      41.748  29.432  35.158  1.00  0.00     0.218 S 
ATOM     15  O   UNL A   1      41.658  29.158  36.574  1.00  0.00    -0.212 OA
ATOM     16  O   UNL A   1      42.977  29.977  34.610  1.00  0.00    -0.212 OA
BRANCH  14  17
ATOM     17  C   UNL A   1      41.336  27.967  34.172  1.00  0.00     0.213 C 
BRANCH  17  18
ATOM     18  C   UNL A   1      41.730  26.677  34.785  1.00  0.00     0.100 A 
ATOM     19  C   UNL A   1      43.400  23.441  35.106  1.00  0.00     0.091 C 
ATOM     20  C   UNL A   1      42.703  24.740  35.162  1.00  0.00     0.133 A 
ATOM     21  C   UNL A   1      42.965  25.991  34.657  1.00  0.00     0.073 A 
ATOM     22  O   UNL A   1      41.474  24.742  35.740  1.00  0.00    -0.361 OA
ATOM     23  N   UNL A   1      40.879  25.976  35.545  1.00  0.00    -0.084 NA
ENDBRANCH  17  18
ENDBRANCH  14  17
ENDBRANCH  12  14
ENDBRANCH   8  12
ENDBRANCH   4   7
ENDBRANCH   2   3
ENDBRANCH   1   2
BRANCH   1  24
ATOM     24  C   UNL A   1      34.411  32.673  29.991  1.00  0.00     0.023 C 
BRANCH  24  25
ATOM     25  C   UNL A   1      34.476  32.446  28.483  1.00  0.00     0.116 C 
BRANCH  25  26
ATOM     26  N   UNL A   1      33.884  31.183  28.068  1.00  0.00    -0.352 N 
ATOM     27  C   UNL A   1      34.502  29.965  27.906  1.00  0.00     0.251 C 
ATOM     28  H   UNL A   1      32.919  31.203  27.877  1.00  0.00     0.163 HD
ATOM     29  O   UNL A   1      33.888  29.019  27.424  1.00  0.00    -0.269 OA
BRANCH  27  30
ATOM     30  C   UNL A   1      35.922  29.827  28.287  1.00  0.00     0.039 A 
ATOM     31  C   UNL A   1      36.240  29.370  29.566  1.00  0.00     0.014 A 
ATOM     32  C   UNL A   1      36.932  30.091  27.357  1.00  0.00     0.014 A 
ATOM     33  C   UNL A   1      37.573  29.117  29.893  1.00  0.00     0.010 A 
ATOM     34  C   UNL A   1      38.249  29.761  27.658  1.00  0.00     0.010 A 
ATOM     35  C   UNL A   1      38.584  29.272  28.930  1.00  0.00    -0.014 A 
BRANCH  35  36
ATOM     36  C   UNL A   1      39.996  28.923  29.234  1.00  0.00     0.031 A 
ATOM     37  C   UNL A   1      40.898  29.929  29.896  1.00  0.00     0.074 A 
ATOM     38  C   UNL A   1      40.480  27.722  28.861  1.00  0.00     0.049 A 
ATOM     39  N   UNL A   1      42.163  29.819  30.210  1.00  0.00    -0.248 NA
ATOM     40  C   UNL A   1      40.310  31.238  30.227  1.00  0.00     0.031 C 
ATOM     41  C   UNL A   1      39.720  26.679  28.167  1.00  0.00     0.029 A 
ATOM     42  N   UNL A   1      41.730  27.174  29.009  1.00  0.00    -0.354 N 
ATOM     43  C   UNL A   1      42.525  31.044  30.758  1.00  0.00     0.074 A 
ATOM     44  C   UNL A   1      41.363  31.900  30.684  1.00  0.00     0.031 C 
ATOM     45  C   UNL A   1      40.509  25.609  27.981  1.00  0.00     0.029 A 
ATOM     46  C   UNL A   1      41.841  25.901  28.501  1.00  0.00     0.049 A 
ATOM     47  H   UNL A   1      42.478  27.649  29.440  1.00  0.00     0.167 HD
ATOM     48  C   UNL A   1      43.711  31.416  31.295  1.00  0.00     0.031 A 
ATOM     49  C   UNL A   1      42.896  25.064  28.452  1.00  0.00     0.031 A 
ATOM     50  C   UNL A   1      44.863  30.557  31.374  1.00  0.00     0.049 A 
ATOM     51  C   UNL A   1      44.205  25.503  29.048  1.00  0.00     0.074 A 
ATOM     52  C   UNL A   1      46.091  30.820  31.954  1.00  0.00     0.029 A 
ATOM     53  N   UNL A   1      44.932  29.273  30.855  1.00  0.00    -0.354 N 
ATOM     54  N   UNL A   1      44.505  26.639  29.632  1.00  0.00    -0.248 NA
ATOM     55  C   UNL A   1      45.314  24.541  28.993  1.00  0.00     0.031 C 
ATOM     56  C   UNL A   1      46.923  29.719  31.729  1.00  0.00     0.029 A 
ATOM     57  C   UNL A   1      46.191  28.741  31.074  1.00  0.00     0.049 A 
ATOM     58  H   UNL A   1      44.194  28.809  30.397  1.00  0.00     0.167 HD
ATOM     59  C   UNL A   1      45.830  26.517  30.038  1.00  0.00     0.074 A 
ATOM     60  C   UNL A   1      46.265  25.192  29.650  1.00  0.00     0.031 C 
ATOM     61  C   UNL A   1      46.613  27.421  30.678  1.00  0.00     0.031 A 
BRANCH  48  62
ATOM     62  C   UNL A   1      43.825  32.820  31.833  1.00  0.00    -0.014 A 
ATOM     63  C   UNL A   1      44.163  33.898  30.995  1.00  0.00     0.010 A 
ATOM     64  C   UNL A   1      43.548  33.071  33.190  1.00  0.00     0.010 A 
ATOM     65  C   UNL A   1      44.262  35.193  31.511  1.00  0.00     0.020 A 
ATOM     66  C   UNL A   1      43.614  34.369  33.704  1.00  0.00     0.020 A 
ATOM     67  C   UNL A   1      43.987  35.419  32.863  1.00  0.00     0.054 A 
BRANCH  67  68
ATOM     68  S   UNL A   1      44.096  37.116  33.497  1.00  0.00     0.124 S 
ATOM     69  O   UNL A   1      45.153  36.995  34.497  1.00  0.00    -0.237 OA
ATOM     70  O   UNL A   1      44.448  37.880  32.302  1.00  0.00    -0.237 OA
ATOM     71  O   UNL A   1      42.761  37.375  34.029  1.00  0.00    -0.744 OA
ENDBRANCH  67  68
ENDBRANCH  48  62
BRANCH  49  72
ATOM     72  C   UNL A   1      42.750  23.719  27.828  1.00  0.00    -0.014 A 
ATOM     73  C   UNL A   1      42.861  23.559  26.435  1.00  0.00     0.010 A 
ATOM     74  C   UNL A   1      42.515  22.586  28.628  1.00  0.00     0.010 A 
ATOM     75  C   UNL A   1      42.721  22.296  25.852  1.00  0.00     0.020 A 
ATOM     76  C   UNL A   1      42.405  21.316  28.052  1.00  0.00     0.020 A 
ATOM     77  C   UNL A   1      42.498  21.181  26.667  1.00  0.00     0.054 A 
BRANCH  77  78
ATOM     78  S   UNL A   1      42.376  19.544  25.894  1.00  0.00     0.124 S 
ATOM     79  O   UNL A   1      42.670  18.655  27.014  1.00  0.00    -0.237 OA
ATOM     80  O   UNL A   1      40.996  19.526  25.415  1.00  0.00    -0.237 OA
ATOM     81  O   UNL A   1      43.391  19.585  24.843  1.00  0.00    -0.744 OA
ENDBRANCH  77  78
ENDBRANCH  49  72
BRANCH  61  82
ATOM     82  C   UNL A   1      48.014  26.996  31.035  1.00  0.00    -0.014 A 
ATOM     83  C   UNL A   1      48.298  26.345  32.248  1.00  0.00     0.010 A 
ATOM     84  C   UNL A   1      49.056  27.210  30.113  1.00  0.00     0.010 A 
ATOM     85  C   UNL A   1      49.604  25.949  32.549  1.00  0.00     0.020 A 
ATOM     86  C   UNL A   1      50.356  26.786  30.396  1.00  0.00     0.020 A 
ATOM     87  C   UNL A   1      50.625  26.172  31.620  1.00  0.00     0.054 A 
BRANCH  87  88
ATOM     88  S   UNL A   1      52.304  25.615  32.019  1.00  0.00     0.124 S 
ATOM     89  O   UNL A   1      52.631  26.442  33.178  1.00  0.00    -0.237 OA
ATOM     90  O   UNL A   1      52.113  24.193  32.294  1.00  0.00    -0.237 OA
ATOM     91  O   UNL A   1      53.066  25.912  30.807  1.00  0.00    -0.744 OA
ENDBRANCH  87  88
ENDBRANCH  61  82
ENDBRANCH  35  36
ENDBRANCH  27  30
ENDBRANCH  25  26
ENDBRANCH  24  25
ENDBRANCH   1  24
TORSDOF 18
ENDMDL
MODEL 3
REMARK VINA RESULT:      -8.5      4.777     10.457
REMARK SMILES Cc1cc(CS(=O)(=O)N[C@@H]2C=C[C@H](C(=O)NCCCCNC(=O)c3ccc(-c4c5nc(c(-c6ccc(S(=O)(=O)[O-])cc6)c6ccc([nH]6)c(-c6ccc(S(=O)(=O)[O-])cc6)c6nc(c(-c7ccc(S(=O)(=O)[O-])cc7)c7ccc4[nH]7)C=C6)C=C5)cc3)C2)no1
REMARK SMILES IDX 18 1 17 2 16 3 14 4 15 5 13 7 10 8 11 9 84 10 12 11 9 12
REMARK SMILES IDX 6 14 7 15 8 16 5 17 4 18 1 19 2 20 3 21 86 22 85 23 19 24
REMARK SMILES IDX 20 25 21 26 22 27 23 29 24 30 25 31 83 32 26 33 82 34 27 35
REMARK SMILES IDX 28 36 29 37 76 38 30 39 81 40 75 41 77 42 31 43 80 44 74 45
REMARK SMILES IDX 73 46 32 48 62 49 43 50 61 51 44 52 47 53 60 54 78 55 45 56
REMARK SMILES IDX 46 57 59 59 79 60 48 61 33 62 34 63 42 64 35 65 41 66 36 67
REMARK SMILES IDX 37 68 38 69 39 70 40 71 63 72 64 73 72 74 65 75 71 76 66 77
REMARK SMILES IDX 67 78 68 79 69 80 70 81 49 82 50 83 58 84 51 85 57 86 52 87
REMARK SMILES IDX 53 88 54 89 55 90 56 91
REMARK H PARENT 16 6 9 13 21 28 77 47 47 58
REMARK Flexibility Score: inf
ROOT
ATOM      1  C   UNL A   1      37.235  20.952  24.740  1.00  0.00     0.023 C 
ENDROOT
BRANCH   1   2
ATOM      2  C   UNL A   1      35.809  20.465  25.003  1.00  0.00     0.116 C 
BRANCH   2   3
ATOM      3  N   UNL A   1      35.157  21.263  26.028  1.00  0.00    -0.356 N 
ATOM      4  C   UNL A   1      33.968  21.914  26.098  1.00  0.00     0.226 C 
ATOM      5  O   UNL A   1      33.771  22.579  27.124  1.00  0.00    -0.274 OA
ATOM      6  H   UNL A   1      35.694  21.349  26.849  1.00  0.00     0.163 HD
BRANCH   4   7
ATOM      7  C   UNL A   1      32.851  21.832  25.051  1.00  0.00     0.103 C 
ATOM      8  C   UNL A   1      32.275  23.754  23.593  1.00  0.00     0.093 C 
ATOM      9  C   UNL A   1      31.271  23.501  24.665  1.00  0.00    -0.011 C 
ATOM     10  C   UNL A   1      33.272  22.607  23.780  1.00  0.00     0.042 C 
ATOM     11  C   UNL A   1      31.526  22.409  25.388  1.00  0.00    -0.016 C 
BRANCH   8  12
ATOM     12  N   UNL A   1      32.849  25.078  23.829  1.00  0.00    -0.208 NA
ATOM     13  H   UNL A   1      32.337  25.496  24.608  1.00  0.00     0.141 HD
BRANCH  12  14
ATOM     14  S   UNL A   1      32.830  26.192  22.564  1.00  0.00     0.218 S 
ATOM     15  O   UNL A   1      31.450  26.492  22.255  1.00  0.00    -0.212 OA
ATOM     16  O   UNL A   1      33.679  25.594  21.549  1.00  0.00    -0.212 OA
BRANCH  14  17
ATOM     17  C   UNL A   1      33.703  27.655  23.185  1.00  0.00     0.213 C 
BRANCH  17  18
ATOM     18  C   UNL A   1      33.169  28.202  24.455  1.00  0.00     0.100 A 
ATOM     19  C   UNL A   1      31.519  28.216  27.716  1.00  0.00     0.091 C 
ATOM     20  C   UNL A   1      32.260  28.374  26.451  1.00  0.00     0.133 A 
ATOM     21  C   UNL A   1      33.086  27.558  25.715  1.00  0.00     0.073 A 
ATOM     22  O   UNL A   1      32.037  29.521  25.759  1.00  0.00    -0.361 OA
ATOM     23  N   UNL A   1      32.648  29.434  24.521  1.00  0.00    -0.084 NA
ENDBRANCH  17  18
ENDBRANCH  14  17
ENDBRANCH  12  14
ENDBRANCH   8  12
ENDBRANCH   4   7
ENDBRANCH   2   3
ENDBRANCH   1   2
BRANCH   1  24
ATOM     24  C   UNL A   1      38.309  19.902  25.037  1.00  0.00     0.023 C 
BRANCH  24  25
ATOM     25  C   UNL A   1      39.338  20.314  26.087  1.00  0.00     0.116 C 
BRANCH  25  26
ATOM     26  N   UNL A   1      40.521  19.465  26.094  1.00  0.00    -0.352 N 
ATOM     27  C   UNL A   1      41.835  19.836  26.250  1.00  0.00     0.251 C 
ATOM     28  H   UNL A   1      40.359  18.502  25.971  1.00  0.00     0.163 HD
ATOM     29  O   UNL A   1      42.732  19.013  26.104  1.00  0.00    -0.269 OA
BRANCH  27  30
ATOM     30  C   UNL A   1      42.149  21.246  26.559  1.00  0.00     0.039 A 
ATOM     31  C   UNL A   1      42.505  21.591  27.863  1.00  0.00     0.014 A 
ATOM     32  C   UNL A   1      42.148  22.209  25.546  1.00  0.00     0.014 A 
ATOM     33  C   UNL A   1      42.923  22.894  28.138  1.00  0.00     0.010 A 
ATOM     34  C   UNL A   1      42.643  23.482  25.805  1.00  0.00     0.010 A 
ATOM     35  C   UNL A   1      43.034  23.839  27.104  1.00  0.00    -0.014 A 
BRANCH  35  36
ATOM     36  C   UNL A   1      43.561  25.204  27.364  1.00  0.00     0.031 A 
ATOM     37  C   UNL A   1      45.008  25.520  27.095  1.00  0.00     0.074 A 
ATOM     38  C   UNL A   1      42.751  26.141  27.894  1.00  0.00     0.049 A 
ATOM     39  N   UNL A   1      45.656  26.639  27.289  1.00  0.00    -0.248 NA
ATOM     40  C   UNL A   1      45.842  24.429  26.564  1.00  0.00     0.031 C 
ATOM     41  C   UNL A   1      41.343  25.945  28.246  1.00  0.00     0.029 A 
ATOM     42  N   UNL A   1      42.996  27.448  28.236  1.00  0.00    -0.354 N 
ATOM     43  C   UNL A   1      46.972  26.384  26.920  1.00  0.00     0.074 A 
ATOM     44  C   UNL A   1      47.042  24.990  26.543  1.00  0.00     0.031 C 
ATOM     45  C   UNL A   1      40.842  27.097  28.721  1.00  0.00     0.029 A 
ATOM     46  C   UNL A   1      41.900  28.101  28.749  1.00  0.00     0.049 A 
ATOM     47  H   UNL A   1      43.875  27.878  28.123  1.00  0.00     0.167 HD
ATOM     48  C   UNL A   1      48.022  27.238  26.877  1.00  0.00     0.031 A 
ATOM     49  C   UNL A   1      41.761  29.364  29.198  1.00  0.00     0.031 A 
ATOM     50  C   UNL A   1      47.944  28.627  27.245  1.00  0.00     0.049 A 
ATOM     51  C   UNL A   1      42.945  30.292  29.147  1.00  0.00     0.074 A 
ATOM     52  C   UNL A   1      48.936  29.589  27.178  1.00  0.00     0.029 A 
ATOM     53  N   UNL A   1      46.814  29.252  27.752  1.00  0.00    -0.354 N 
ATOM     54  N   UNL A   1      44.162  30.052  28.722  1.00  0.00    -0.248 NA
ATOM     55  C   UNL A   1      42.731  31.666  29.624  1.00  0.00     0.031 C 
ATOM     56  C   UNL A   1      48.425  30.779  27.705  1.00  0.00     0.029 A 
ATOM     57  C   UNL A   1      47.093  30.579  28.031  1.00  0.00     0.049 A 
ATOM     58  H   UNL A   1      45.943  28.815  27.893  1.00  0.00     0.167 HD
ATOM     59  C   UNL A   1      44.852  31.253  28.853  1.00  0.00     0.074 A 
ATOM     60  C   UNL A   1      43.911  32.220  29.379  1.00  0.00     0.031 C 
ATOM     61  C   UNL A   1      46.147  31.530  28.560  1.00  0.00     0.031 A 
BRANCH  48  62
ATOM     62  C   UNL A   1      49.350  26.690  26.422  1.00  0.00    -0.014 A 
ATOM     63  C   UNL A   1      49.790  26.852  25.095  1.00  0.00     0.010 A 
ATOM     64  C   UNL A   1      50.190  26.041  27.345  1.00  0.00     0.010 A 
ATOM     65  C   UNL A   1      51.027  26.339  24.691  1.00  0.00     0.020 A 
ATOM     66  C   UNL A   1      51.441  25.555  26.954  1.00  0.00     0.020 A 
ATOM     67  C   UNL A   1      51.843  25.693  25.624  1.00  0.00     0.054 A 
BRANCH  67  68
ATOM     68  S   UNL A   1      53.454  25.064  25.076  1.00  0.00     0.124 S 
ATOM     69  O   UNL A   1      54.369  25.745  25.988  1.00  0.00    -0.237 OA
ATOM     70  O   UNL A   1      53.320  23.624  25.281  1.00  0.00    -0.237 OA
ATOM     71  O   UNL A   1      53.536  25.486  23.680  1.00  0.00    -0.744 OA
ENDBRANCH  67  68
ENDBRANCH  48  62
BRANCH  49  72
ATOM     72  C   UNL A   1      40.446  29.828  29.720  1.00  0.00    -0.014 A 
ATOM     73  C   UNL A   1      40.197  29.869  31.104  1.00  0.00     0.010 A 
ATOM     74  C   UNL A   1      39.437  30.247  28.834  1.00  0.00     0.010 A 
ATOM     75  C   UNL A   1      38.960  30.302  31.591  1.00  0.00     0.020 A 
ATOM     76  C   UNL A   1      38.209  30.710  29.317  1.00  0.00     0.020 A 
ATOM     77  C   UNL A   1      37.975  30.725  30.692  1.00  0.00     0.054 A 
BRANCH  77  78
ATOM     78  S   UNL A   1      36.397  31.336  31.349  1.00  0.00     0.124 S 
ATOM     79  O   UNL A   1      35.598  31.480  30.137  1.00  0.00    -0.237 OA
ATOM     80  O   UNL A   1      35.995  30.259  32.250  1.00  0.00    -0.237 OA
ATOM     81  O   UNL A   1      36.764  32.586  32.011  1.00  0.00    -0.744 OA
ENDBRANCH  77  78
ENDBRANCH  49  72
BRANCH  61  82
ATOM     82  C   UNL A   1      46.618  32.946  28.766  1.00  0.00    -0.014 A 
ATOM     83  C   UNL A   1      46.513  33.911  27.749  1.00  0.00     0.010 A 
ATOM     84  C   UNL A   1      47.130  33.328  30.021  1.00  0.00     0.010 A 
ATOM     85  C   UNL A   1      46.944  35.221  27.971  1.00  0.00     0.020 A 
ATOM     86  C   UNL A   1      47.531  34.644  30.257  1.00  0.00     0.020 A 
ATOM     87  C   UNL A   1      47.451  35.580  29.224  1.00  0.00     0.054 A 
BRANCH  87  88
ATOM     88  S   UNL A   1      47.969  37.295  29.497  1.00  0.00     0.124 S 
ATOM     89  O   UNL A   1      49.330  37.290  28.966  1.00  0.00    -0.237 OA
ATOM     90  O   UNL A   1      46.993  38.053  28.719  1.00  0.00    -0.237 OA
ATOM     91  O   UNL A   1      47.868  37.463  30.946  1.00  0.00    -0.744 OA
ENDBRANCH  87  88
ENDBRANCH  61  82
ENDBRANCH  35  36
ENDBRANCH  27  30
ENDBRANCH  25  26
ENDBRANCH  24  25
ENDBRANCH   1  24
TORSDOF 18
ENDMDL
