MODEL 1
REMARK VINA RESULT:     -12.7      0.000      0.000
REMARK SMILES Cc1cccc2nc(C(=O)N3CCC[C@@H](C(=O)NCCCCNC(=O)c4ccc(-c5c6nc(c(-c7ccc(S(=O)(=O)[O-])cc7)c7ccc([nH]7)c(-c7ccc(S(=O)(=O)[O-])cc7)c7nc(c(-c8ccc(S(=O)(=O)[O-])cc8)c8ccc5[nH]8)C=C7)C=C6)cc4)C3)cn12
REMARK SMILES IDX 21 1 20 2 19 3 18 4 16 5 17 6 15 8 11 9 12 10 86 11 13 12
REMARK SMILES IDX 14 13 9 14 10 15 8 16 1 17 2 18 3 19 88 20 4 21 6 22 87 23
REMARK SMILES IDX 5 24 7 25 22 26 23 27 24 28 25 30 26 31 27 32 85 33 28 34
REMARK SMILES IDX 84 35 29 36 30 37 31 38 78 39 32 40 83 41 77 42 79 43 33 44
REMARK SMILES IDX 82 45 76 46 75 47 34 49 64 50 45 51 63 52 46 53 49 54 62 55
REMARK SMILES IDX 80 56 47 57 48 58 61 60 81 61 50 62 35 63 36 64 44 65 37 66
REMARK SMILES IDX 43 67 38 68 39 69 40 70 41 71 42 72 65 73 66 74 74 75 67 76
REMARK SMILES IDX 73 77 68 78 69 79 70 80 71 81 72 82 51 83 52 84 60 85 53 86
REMARK SMILES IDX 59 87 54 88 55 89 56 90 57 91 58 92
REMARK H PARENT 18 7 23 29 79 48 49 59
REMARK Flexibility Score: inf
ROOT
ATOM      1  C   UNL A   1      39.250  22.192  26.285  1.00  0.00     0.023 C 
ENDROOT
BRANCH   1   2
ATOM      2  C   UNL A   1      38.703  23.621  26.400  1.00  0.00     0.023 C 
BRANCH   2   3
ATOM      3  C   UNL A   1      37.182  23.752  26.224  1.00  0.00     0.116 C 
BRANCH   3   4
ATOM      4  N   UNL A   1      36.812  23.731  24.819  1.00  0.00    -0.356 N 
ATOM      5  C   UNL A   1      35.692  23.261  24.193  1.00  0.00     0.224 C 
ATOM      6  O   UNL A   1      35.683  23.293  22.960  1.00  0.00    -0.275 OA
ATOM      7  H   UNL A   1      37.483  24.123  24.214  1.00  0.00     0.163 HD
BRANCH   5   8
ATOM      8  C   UNL A   1      34.489  22.764  24.995  1.00  0.00     0.098 C 
ATOM      9  N   UNL A   1      32.106  23.227  25.532  1.00  0.00    -0.336 N 
ATOM     10  C   UNL A   1      31.691  21.873  25.225  1.00  0.00     0.120 C 
ATOM     11  C   UNL A   1      33.292  23.742  24.834  1.00  0.00     0.133 C 
ATOM     12  C   UNL A   1      32.832  20.899  25.412  1.00  0.00     0.022 C 
ATOM     13  C   UNL A   1      34.044  21.346  24.601  1.00  0.00     0.017 C 
BRANCH   9  14
ATOM     14  C   UNL A   1      31.351  23.951  26.436  1.00  0.00     0.274 C 
ATOM     15  O   UNL A   1      30.718  23.384  27.341  1.00  0.00    -0.267 OA
BRANCH  14  16
ATOM     16  C   UNL A   1      31.159  25.381  26.180  1.00  0.00     0.147 A 
ATOM     17  C   UNL A   1      29.784  27.876  22.811  1.00  0.00     0.065 C 
ATOM     18  C   UNL A   1      30.537  28.218  24.062  1.00  0.00     0.021 A 
ATOM     19  C   UNL A   1      30.971  29.476  24.285  1.00  0.00     0.022 A 
ATOM     20  N   UNL A   1      30.824  27.238  25.032  1.00  0.00    -0.304 N 
ATOM     21  C   UNL A   1      31.714  29.781  25.498  1.00  0.00     0.006 A 
ATOM     22  C   UNL A   1      31.538  27.498  26.204  1.00  0.00     0.137 A 
ATOM     23  C   UNL A   1      30.554  25.895  25.049  1.00  0.00     0.127 A 
ATOM     24  C   UNL A   1      31.978  28.834  26.417  1.00  0.00     0.048 A 
ATOM     25  N   UNL A   1      31.735  26.405  26.912  1.00  0.00    -0.223 NA
ENDBRANCH  14  16
ENDBRANCH   9  14
ENDBRANCH   5   8
ENDBRANCH   3   4
ENDBRANCH   2   3
ENDBRANCH   1   2
BRANCH   1  26
ATOM     26  C   UNL A   1      40.536  21.955  27.066  1.00  0.00     0.116 C 
BRANCH  26  27
ATOM     27  N   UNL A   1      41.697  21.856  26.186  1.00  0.00    -0.352 N 
ATOM     28  C   UNL A   1      42.457  22.880  25.680  1.00  0.00     0.251 C 
ATOM     29  H   UNL A   1      41.966  20.946  25.926  1.00  0.00     0.163 HD
ATOM     30  O   UNL A   1      43.173  22.696  24.691  1.00  0.00    -0.269 OA
BRANCH  28  31
ATOM     31  C   UNL A   1      42.408  24.199  26.326  1.00  0.00     0.039 A 
ATOM     32  C   UNL A   1      41.792  25.275  25.678  1.00  0.00     0.014 A 
ATOM     33  C   UNL A   1      42.974  24.351  27.593  1.00  0.00     0.014 A 
ATOM     34  C   UNL A   1      41.684  26.492  26.343  1.00  0.00     0.010 A 
ATOM     35  C   UNL A   1      42.811  25.539  28.275  1.00  0.00     0.010 A 
ATOM     36  C   UNL A   1      42.182  26.617  27.647  1.00  0.00    -0.014 A 
BRANCH  36  37
ATOM     37  C   UNL A   1      41.964  27.854  28.391  1.00  0.00     0.031 A 
ATOM     38  C   UNL A   1      42.999  28.919  28.226  1.00  0.00     0.074 A 
ATOM     39  C   UNL A   1      40.789  28.142  28.985  1.00  0.00     0.049 A 
ATOM     40  N   UNL A   1      43.740  29.474  29.130  1.00  0.00    -0.248 NA
ATOM     41  C   UNL A   1      43.279  29.387  26.858  1.00  0.00     0.031 C 
ATOM     42  C   UNL A   1      39.541  27.372  28.937  1.00  0.00     0.029 A 
ATOM     43  N   UNL A   1      40.427  29.272  29.652  1.00  0.00    -0.354 N 
ATOM     44  C   UNL A   1      44.466  30.473  28.482  1.00  0.00     0.074 A 
ATOM     45  C   UNL A   1      44.235  30.292  27.069  1.00  0.00     0.031 C 
ATOM     46  C   UNL A   1      38.517  28.160  29.335  1.00  0.00     0.029 A 
ATOM     47  C   UNL A   1      39.055  29.421  29.813  1.00  0.00     0.049 A 
ATOM     48  H   UNL A   1      41.080  29.926  29.991  1.00  0.00     0.167 HD
ATOM     49  C   UNL A   1      45.065  31.505  29.141  1.00  0.00     0.031 A 
ATOM     50  C   UNL A   1      38.413  30.527  30.256  1.00  0.00     0.031 A 
ATOM     51  C   UNL A   1      45.124  31.291  30.559  1.00  0.00     0.049 A 
ATOM     52  C   UNL A   1      39.409  31.349  30.984  1.00  0.00     0.074 A 
ATOM     53  C   UNL A   1      45.731  30.371  31.387  1.00  0.00     0.029 A 
ATOM     54  N   UNL A   1      44.168  31.918  31.323  1.00  0.00    -0.354 N 
ATOM     55  N   UNL A   1      39.991  30.972  32.088  1.00  0.00    -0.248 NA
ATOM     56  C   UNL A   1      40.056  32.447  30.284  1.00  0.00     0.031 C 
ATOM     57  C   UNL A   1      44.802  30.161  32.450  1.00  0.00     0.029 A 
ATOM     58  C   UNL A   1      43.704  30.994  32.225  1.00  0.00     0.049 A 
ATOM     59  H   UNL A   1      43.873  32.853  31.239  1.00  0.00     0.167 HD
ATOM     60  C   UNL A   1      41.272  31.496  32.016  1.00  0.00     0.074 A 
ATOM     61  C   UNL A   1      41.214  32.491  30.950  1.00  0.00     0.031 C 
ATOM     62  C   UNL A   1      42.321  30.884  32.640  1.00  0.00     0.031 A 
BRANCH  49  63
ATOM     63  C   UNL A   1      45.292  32.868  28.538  1.00  0.00    -0.014 A 
ATOM     64  C   UNL A   1      46.607  33.336  28.338  1.00  0.00     0.010 A 
ATOM     65  C   UNL A   1      44.249  33.809  28.412  1.00  0.00     0.010 A 
ATOM     66  C   UNL A   1      46.862  34.688  28.059  1.00  0.00     0.020 A 
ATOM     67  C   UNL A   1      44.490  35.147  28.092  1.00  0.00     0.020 A 
ATOM     68  C   UNL A   1      45.800  35.586  27.945  1.00  0.00     0.054 A 
BRANCH  68  69
ATOM     69  S   UNL A   1      46.146  37.348  27.704  1.00  0.00     0.124 S 
ATOM     70  O   UNL A   1      44.937  37.806  27.025  1.00  0.00    -0.237 OA
ATOM     71  O   UNL A   1      46.321  37.817  29.076  1.00  0.00    -0.237 OA
ATOM     72  O   UNL A   1      47.359  37.351  26.890  1.00  0.00    -0.744 OA
ENDBRANCH  68  69
ENDBRANCH  49  63
BRANCH  50  73
ATOM     73  C   UNL A   1      37.089  31.055  29.840  1.00  0.00    -0.014 A 
ATOM     74  C   UNL A   1      36.242  31.670  30.781  1.00  0.00     0.010 A 
ATOM     75  C   UNL A   1      36.779  31.218  28.473  1.00  0.00     0.010 A 
ATOM     76  C   UNL A   1      35.184  32.496  30.369  1.00  0.00     0.020 A 
ATOM     77  C   UNL A   1      35.717  32.029  28.056  1.00  0.00     0.020 A 
ATOM     78  C   UNL A   1      34.950  32.696  29.007  1.00  0.00     0.054 A 
BRANCH  78  79
ATOM     79  S   UNL A   1      33.715  33.924  28.492  1.00  0.00     0.124 S 
ATOM     80  O   UNL A   1      34.520  34.888  27.747  1.00  0.00    -0.237 OA
ATOM     81  O   UNL A   1      32.794  33.119  27.695  1.00  0.00    -0.237 OA
ATOM     82  O   UNL A   1      33.172  34.418  29.756  1.00  0.00    -0.744 OA
ENDBRANCH  78  79
ENDBRANCH  50  73
BRANCH  62  83
ATOM     83  C   UNL A   1      42.016  29.804  33.651  1.00  0.00    -0.014 A 
ATOM     84  C   UNL A   1      41.742  28.469  33.292  1.00  0.00     0.010 A 
ATOM     85  C   UNL A   1      42.189  30.113  35.010  1.00  0.00     0.010 A 
ATOM     86  C   UNL A   1      41.643  27.470  34.272  1.00  0.00     0.020 A 
ATOM     87  C   UNL A   1      42.106  29.120  35.989  1.00  0.00     0.020 A 
ATOM     88  C   UNL A   1      41.839  27.802  35.616  1.00  0.00     0.054 A 
BRANCH  88  89
ATOM     89  S   UNL A   1      41.786  26.491  36.872  1.00  0.00     0.124 S 
ATOM     90  O   UNL A   1      42.930  26.810  37.720  1.00  0.00    -0.237 OA
ATOM     91  O   UNL A   1      40.473  26.690  37.484  1.00  0.00    -0.237 OA
ATOM     92  O   UNL A   1      41.918  25.258  36.096  1.00  0.00    -0.744 OA
ENDBRANCH  88  89
ENDBRANCH  62  83
ENDBRANCH  36  37
ENDBRANCH  28  31
ENDBRANCH  26  27
ENDBRANCH   1  26
TORSDOF 16
ENDMDL
MODEL 2
REMARK VINA RESULT:     -12.4      2.783      9.243
REMARK SMILES Cc1cccc2nc(C(=O)N3CCC[C@@H](C(=O)NCCCCNC(=O)c4ccc(-c5c6nc(c(-c7ccc(S(=O)(=O)[O-])cc7)c7ccc([nH]7)c(-c7ccc(S(=O)(=O)[O-])cc7)c7nc(c(-c8ccc(S(=O)(=O)[O-])cc8)c8ccc5[nH]8)C=C7)C=C6)cc4)C3)cn12
REMARK SMILES IDX 21 1 20 2 19 3 18 4 16 5 17 6 15 8 11 9 12 10 86 11 13 12
REMARK SMILES IDX 14 13 9 14 10 15 8 16 1 17 2 18 3 19 88 20 4 21 6 22 87 23
REMARK SMILES IDX 5 24 7 25 22 26 23 27 24 28 25 30 26 31 27 32 85 33 28 34
REMARK SMILES IDX 84 35 29 36 30 37 31 38 78 39 32 40 83 41 77 42 79 43 33 44
REMARK SMILES IDX 82 45 76 46 75 47 34 49 64 50 45 51 63 52 46 53 49 54 62 55
REMARK SMILES IDX 80 56 47 57 48 58 61 60 81 61 50 62 35 63 36 64 44 65 37 66
REMARK SMILES IDX 43 67 38 68 39 69 40 70 41 71 42 72 65 73 66 74 74 75 67 76
REMARK SMILES IDX 73 77 68 78 69 79 70 80 71 81 72 82 51 83 52 84 60 85 53 86
REMARK SMILES IDX 59 87 54 88 55 89 56 90 57 91 58 92
REMARK H PARENT 18 7 23 29 79 48 49 59
REMARK Flexibility Score: inf
ROOT
ATOM      1  C   UNL A   1      34.523  31.622  28.036  1.00  0.00     0.023 C 
ENDROOT
BRANCH   1   2
ATOM      2  C   UNL A   1      35.630  30.649  27.612  1.00  0.00     0.023 C 
BRANCH   2   3
ATOM      3  C   UNL A   1      35.195  29.181  27.488  1.00  0.00     0.116 C 
BRANCH   3   4
ATOM      4  N   UNL A   1      33.788  29.021  27.813  1.00  0.00    -0.356 N 
ATOM      5  C   UNL A   1      32.741  28.557  27.066  1.00  0.00     0.224 C 
ATOM      6  O   UNL A   1      31.620  28.615  27.575  1.00  0.00    -0.275 OA
ATOM      7  H   UNL A   1      33.546  29.294  28.728  1.00  0.00     0.163 HD
BRANCH   5   8
ATOM      8  C   UNL A   1      32.968  27.949  25.682  1.00  0.00     0.098 C 
ATOM      9  N   UNL A   1      31.979  26.448  23.964  1.00  0.00    -0.336 N 
ATOM     10  C   UNL A   1      32.161  27.414  22.899  1.00  0.00     0.120 C 
ATOM     11  C   UNL A   1      31.814  26.970  25.327  1.00  0.00     0.133 C 
ATOM     12  C   UNL A   1      33.305  28.353  23.208  1.00  0.00     0.022 C 
ATOM     13  C   UNL A   1      33.099  29.004  24.571  1.00  0.00     0.017 C 
BRANCH   9  14
ATOM     14  C   UNL A   1      31.949  25.106  23.628  1.00  0.00     0.274 C 
ATOM     15  O   UNL A   1      30.884  24.547  23.321  1.00  0.00    -0.267 OA
BRANCH  14  16
ATOM     16  C   UNL A   1      33.167  24.319  23.837  1.00  0.00     0.147 A 
ATOM     17  C   UNL A   1      34.146  20.141  24.861  1.00  0.00     0.065 C 
ATOM     18  C   UNL A   1      34.970  21.393  24.892  1.00  0.00     0.021 A 
ATOM     19  C   UNL A   1      36.241  21.374  25.346  1.00  0.00     0.022 A 
ATOM     20  N   UNL A   1      34.440  22.626  24.463  1.00  0.00    -0.304 N 
ATOM     21  C   UNL A   1      37.015  22.605  25.382  1.00  0.00     0.006 A 
ATOM     22  C   UNL A   1      35.156  23.824  24.489  1.00  0.00     0.137 A 
ATOM     23  C   UNL A   1      33.189  22.948  24.007  1.00  0.00     0.127 A 
ATOM     24  C   UNL A   1      36.496  23.774  24.966  1.00  0.00     0.048 A 
ATOM     25  N   UNL A   1      34.420  24.846  24.103  1.00  0.00    -0.223 NA
ENDBRANCH  14  16
ENDBRANCH   9  14
ENDBRANCH   5   8
ENDBRANCH   3   4
ENDBRANCH   2   3
ENDBRANCH   1   2
BRANCH   1  26
ATOM     26  C   UNL A   1      35.037  32.934  28.615  1.00  0.00     0.116 C 
BRANCH  26  27
ATOM     27  N   UNL A   1      34.562  33.151  29.978  1.00  0.00    -0.352 N 
ATOM     28  C   UNL A   1      34.928  32.473  31.113  1.00  0.00     0.251 C 
ATOM     29  H   UNL A   1      33.901  33.870  30.096  1.00  0.00     0.163 HD
ATOM     30  O   UNL A   1      34.213  32.510  32.119  1.00  0.00    -0.269 OA
BRANCH  28  31
ATOM     31  C   UNL A   1      36.177  31.700  31.117  1.00  0.00     0.039 A 
ATOM     32  C   UNL A   1      36.137  30.302  31.139  1.00  0.00     0.014 A 
ATOM     33  C   UNL A   1      37.394  32.385  31.089  1.00  0.00     0.014 A 
ATOM     34  C   UNL A   1      37.330  29.590  31.059  1.00  0.00     0.010 A 
ATOM     35  C   UNL A   1      38.571  31.679  30.947  1.00  0.00     0.010 A 
ATOM     36  C   UNL A   1      38.544  30.282  30.949  1.00  0.00    -0.014 A 
BRANCH  36  37
ATOM     37  C   UNL A   1      39.785  29.540  30.744  1.00  0.00     0.031 A 
ATOM     38  C   UNL A   1      40.621  29.297  31.958  1.00  0.00     0.074 A 
ATOM     39  C   UNL A   1      40.053  28.883  29.598  1.00  0.00     0.049 A 
ATOM     40  N   UNL A   1      41.841  29.661  32.186  1.00  0.00    -0.248 NA
ATOM     41  C   UNL A   1      39.988  28.599  33.089  1.00  0.00     0.031 C 
ATOM     42  C   UNL A   1      39.179  28.709  28.433  1.00  0.00     0.029 A 
ATOM     43  N   UNL A   1      41.129  28.108  29.293  1.00  0.00    -0.354 N 
ATOM     44  C   UNL A   1      42.193  29.105  33.416  1.00  0.00     0.074 A 
ATOM     45  C   UNL A   1      40.978  28.569  33.982  1.00  0.00     0.031 C 
ATOM     46  C   UNL A   1      39.654  27.700  27.667  1.00  0.00     0.029 A 
ATOM     47  C   UNL A   1      40.936  27.274  28.199  1.00  0.00     0.049 A 
ATOM     48  H   UNL A   1      41.970  28.135  29.804  1.00  0.00     0.167 HD
ATOM     49  C   UNL A   1      43.485  28.949  33.822  1.00  0.00     0.031 A 
ATOM     50  C   UNL A   1      41.752  26.270  27.798  1.00  0.00     0.031 A 
ATOM     51  C   UNL A   1      44.410  29.676  33.000  1.00  0.00     0.049 A 
ATOM     52  C   UNL A   1      43.082  26.520  28.404  1.00  0.00     0.074 A 
ATOM     53  C   UNL A   1      44.630  31.006  32.713  1.00  0.00     0.029 A 
ATOM     54  N   UNL A   1      45.075  28.962  32.031  1.00  0.00    -0.354 N 
ATOM     55  N   UNL A   1      43.831  27.546  28.109  1.00  0.00    -0.248 NA
ATOM     56  C   UNL A   1      43.432  25.827  29.634  1.00  0.00     0.031 C 
ATOM     57  C   UNL A   1      45.008  31.029  31.337  1.00  0.00     0.029 A 
ATOM     58  C   UNL A   1      45.033  29.709  30.880  1.00  0.00     0.049 A 
ATOM     59  H   UNL A   1      45.500  28.081  32.141  1.00  0.00     0.167 HD
ATOM     60  C   UNL A   1      44.474  27.872  29.292  1.00  0.00     0.074 A 
ATOM     61  C   UNL A   1      44.287  26.711  30.157  1.00  0.00     0.031 C 
ATOM     62  C   UNL A   1      44.864  29.154  29.554  1.00  0.00     0.031 A 
BRANCH  49  63
ATOM     63  C   UNL A   1      43.946  27.860  34.757  1.00  0.00    -0.014 A 
ATOM     64  C   UNL A   1      44.676  28.194  35.916  1.00  0.00     0.010 A 
ATOM     65  C   UNL A   1      43.913  26.499  34.388  1.00  0.00     0.010 A 
ATOM     66  C   UNL A   1      45.366  27.214  36.647  1.00  0.00     0.020 A 
ATOM     67  C   UNL A   1      44.561  25.511  35.133  1.00  0.00     0.020 A 
ATOM     68  C   UNL A   1      45.309  25.879  36.245  1.00  0.00     0.054 A 
BRANCH  68  69
ATOM     69  S   UNL A   1      46.298  24.642  37.124  1.00  0.00     0.124 S 
ATOM     70  O   UNL A   1      47.354  25.460  37.715  1.00  0.00    -0.237 OA
ATOM     71  O   UNL A   1      45.328  24.083  38.062  1.00  0.00    -0.237 OA
ATOM     72  O   UNL A   1      46.731  23.733  36.066  1.00  0.00    -0.744 OA
ENDBRANCH  68  69
ENDBRANCH  49  63
BRANCH  50  73
ATOM     73  C   UNL A   1      41.382  24.970  27.184  1.00  0.00    -0.014 A 
ATOM     74  C   UNL A   1      42.312  24.270  26.392  1.00  0.00     0.010 A 
ATOM     75  C   UNL A   1      40.229  24.278  27.608  1.00  0.00     0.010 A 
ATOM     76  C   UNL A   1      42.142  22.904  26.117  1.00  0.00     0.020 A 
ATOM     77  C   UNL A   1      40.046  22.919  27.325  1.00  0.00     0.020 A 
ATOM     78  C   UNL A   1      41.024  22.230  26.615  1.00  0.00     0.054 A 
BRANCH  78  79
ATOM     79  S   UNL A   1      40.922  20.426  26.428  1.00  0.00     0.124 S 
ATOM     80  O   UNL A   1      42.097  20.126  25.615  1.00  0.00    -0.237 OA
ATOM     81  O   UNL A   1      40.977  19.969  27.813  1.00  0.00    -0.237 OA
ATOM     82  O   UNL A   1      39.638  20.221  25.759  1.00  0.00    -0.744 OA
ENDBRANCH  78  79
ENDBRANCH  50  73
BRANCH  62  83
ATOM     83  C   UNL A   1      44.853  30.148  28.416  1.00  0.00    -0.014 A 
ATOM     84  C   UNL A   1      43.667  30.633  27.829  1.00  0.00     0.010 A 
ATOM     85  C   UNL A   1      46.074  30.739  28.052  1.00  0.00     0.010 A 
ATOM     86  C   UNL A   1      43.705  31.685  26.902  1.00  0.00     0.020 A 
ATOM     87  C   UNL A   1      46.117  31.796  27.140  1.00  0.00     0.020 A 
ATOM     88  C   UNL A   1      44.932  32.268  26.572  1.00  0.00     0.054 A 
BRANCH  88  89
ATOM     89  S   UNL A   1      44.968  33.679  25.430  1.00  0.00     0.124 S 
ATOM     90  O   UNL A   1      44.339  33.137  24.228  1.00  0.00    -0.237 OA
ATOM     91  O   UNL A   1      44.189  34.688  26.146  1.00  0.00    -0.237 OA
ATOM     92  O   UNL A   1      46.391  33.986  25.297  1.00  0.00    -0.744 OA
ENDBRANCH  88  89
ENDBRANCH  62  83
ENDBRANCH  36  37
ENDBRANCH  28  31
ENDBRANCH  26  27
ENDBRANCH   1  26
TORSDOF 16
ENDMDL
MODEL 3
REMARK VINA RESULT:     -12.0      2.517      9.443
REMARK SMILES Cc1cccc2nc(C(=O)N3CCC[C@@H](C(=O)NCCCCNC(=O)c4ccc(-c5c6nc(c(-c7ccc(S(=O)(=O)[O-])cc7)c7ccc([nH]7)c(-c7ccc(S(=O)(=O)[O-])cc7)c7nc(c(-c8ccc(S(=O)(=O)[O-])cc8)c8ccc5[nH]8)C=C7)C=C6)cc4)C3)cn12
REMARK SMILES IDX 21 1 20 2 19 3 18 4 16 5 17 6 15 8 11 9 12 10 86 11 13 12
REMARK SMILES IDX 14 13 9 14 10 15 8 16 1 17 2 18 3 19 88 20 4 21 6 22 87 23
REMARK SMILES IDX 5 24 7 25 22 26 23 27 24 28 25 30 26 31 27 32 85 33 28 34
REMARK SMILES IDX 84 35 29 36 30 37 31 38 78 39 32 40 83 41 77 42 79 43 33 44
REMARK SMILES IDX 82 45 76 46 75 47 34 49 64 50 45 51 63 52 46 53 49 54 62 55
REMARK SMILES IDX 80 56 47 57 48 58 61 60 81 61 50 62 35 63 36 64 44 65 37 66
REMARK SMILES IDX 43 67 38 68 39 69 40 70 41 71 42 72 65 73 66 74 74 75 67 76
REMARK SMILES IDX 73 77 68 78 69 79 70 80 71 81 72 82 51 83 52 84 60 85 53 86
REMARK SMILES IDX 59 87 54 88 55 89 56 90 57 91 58 92
REMARK H PARENT 18 7 23 29 79 48 49 59
REMARK Flexibility Score: inf
ROOT
ATOM      1  C   UNL A   1      32.777  30.619  26.583  1.00  0.00     0.023 C 
ENDROOT
BRANCH   1   2
ATOM      2  C   UNL A   1      31.772  29.556  27.043  1.00  0.00     0.023 C 
BRANCH   2   3
ATOM      3  C   UNL A   1      32.366  28.160  27.287  1.00  0.00     0.116 C 
BRANCH   3   4
ATOM      4  N   UNL A   1      31.342  27.133  27.209  1.00  0.00    -0.356 N 
ATOM      5  C   UNL A   1      31.223  26.045  26.389  1.00  0.00     0.224 C 
ATOM      6  O   UNL A   1      30.188  25.382  26.484  1.00  0.00    -0.275 OA
ATOM      7  H   UNL A   1      30.608  27.237  27.856  1.00  0.00     0.163 HD
BRANCH   5   8
ATOM      8  C   UNL A   1      32.349  25.649  25.434  1.00  0.00     0.098 C 
ATOM      9  N   UNL A   1      33.148  23.857  23.907  1.00  0.00    -0.336 N 
ATOM     10  C   UNL A   1      33.363  24.777  22.809  1.00  0.00     0.120 C 
ATOM     11  C   UNL A   1      32.116  24.212  24.892  1.00  0.00     0.133 C 
ATOM     12  C   UNL A   1      33.630  26.176  23.317  1.00  0.00     0.022 C 
ATOM     13  C   UNL A   1      32.509  26.619  24.252  1.00  0.00     0.017 C 
BRANCH   9  14
ATOM     14  C   UNL A   1      33.904  22.699  23.946  1.00  0.00     0.274 C 
ATOM     15  O   UNL A   1      33.381  21.586  23.776  1.00  0.00    -0.267 OA
BRANCH  14  16
ATOM     16  C   UNL A   1      35.297  22.805  24.388  1.00  0.00     0.147 A 
ATOM     17  C   UNL A   1      38.639  20.024  25.143  1.00  0.00     0.065 C 
ATOM     18  C   UNL A   1      38.419  21.451  25.547  1.00  0.00     0.021 A 
ATOM     19  C   UNL A   1      39.313  22.094  26.328  1.00  0.00     0.022 A 
ATOM     20  N   UNL A   1      37.272  22.158  25.137  1.00  0.00    -0.304 N 
ATOM     21  C   UNL A   1      39.071  23.473  26.721  1.00  0.00     0.006 A 
ATOM     22  C   UNL A   1      37.010  23.480  25.500  1.00  0.00     0.137 A 
ATOM     23  C   UNL A   1      36.194  21.753  24.395  1.00  0.00     0.127 A 
ATOM     24  C   UNL A   1      37.972  24.136  26.318  1.00  0.00     0.048 A 
ATOM     25  N   UNL A   1      35.843  23.892  25.049  1.00  0.00    -0.223 NA
ENDBRANCH  14  16
ENDBRANCH   9  14
ENDBRANCH   5   8
ENDBRANCH   3   4
ENDBRANCH   2   3
ENDBRANCH   1   2
BRANCH   1  26
ATOM     26  C   UNL A   1      34.054  30.668  27.412  1.00  0.00     0.116 C 
BRANCH  26  27
ATOM     27  N   UNL A   1      33.960  31.637  28.500  1.00  0.00    -0.352 N 
ATOM     28  C   UNL A   1      34.821  31.800  29.556  1.00  0.00     0.251 C 
ATOM     29  H   UNL A   1      33.188  32.245  28.471  1.00  0.00     0.163 HD
ATOM     30  O   UNL A   1      34.454  32.398  30.572  1.00  0.00    -0.269 OA
BRANCH  28  31
ATOM     31  C   UNL A   1      36.181  31.253  29.466  1.00  0.00     0.039 A 
ATOM     32  C   UNL A   1      37.271  32.108  29.282  1.00  0.00     0.014 A 
ATOM     33  C   UNL A   1      36.360  29.872  29.579  1.00  0.00     0.014 A 
ATOM     34  C   UNL A   1      38.556  31.576  29.282  1.00  0.00     0.010 A 
ATOM     35  C   UNL A   1      37.638  29.353  29.642  1.00  0.00     0.010 A 
ATOM     36  C   UNL A   1      38.737  30.200  29.477  1.00  0.00    -0.014 A 
BRANCH  36  37
ATOM     37  C   UNL A   1      40.087  29.657  29.598  1.00  0.00     0.031 A 
ATOM     38  C   UNL A   1      40.550  29.333  30.981  1.00  0.00     0.074 A 
ATOM     39  C   UNL A   1      40.790  29.223  28.533  1.00  0.00     0.049 A 
ATOM     40  N   UNL A   1      41.568  29.804  31.624  1.00  0.00    -0.248 NA
ATOM     41  C   UNL A   1      39.732  28.395  31.768  1.00  0.00     0.031 C 
ATOM     42  C   UNL A   1      40.346  29.126  27.138  1.00  0.00     0.029 A 
ATOM     43  N   UNL A   1      42.020  28.643  28.504  1.00  0.00    -0.354 N 
ATOM     44  C   UNL A   1      41.623  29.111  32.834  1.00  0.00     0.074 A 
ATOM     45  C   UNL A   1      40.401  28.349  32.921  1.00  0.00     0.031 C 
ATOM     46  C   UNL A   1      41.187  28.315  26.459  1.00  0.00     0.029 A 
ATOM     47  C   UNL A   1      42.304  27.973  27.321  1.00  0.00     0.049 A 
ATOM     48  H   UNL A   1      42.654  28.694  29.256  1.00  0.00     0.167 HD
ATOM     49  C   UNL A   1      42.742  29.054  33.610  1.00  0.00     0.031 A 
ATOM     50  C   UNL A   1      43.356  27.150  27.094  1.00  0.00     0.031 A 
ATOM     51  C   UNL A   1      43.737  30.008  33.210  1.00  0.00     0.049 A 
ATOM     52  C   UNL A   1      44.384  27.465  28.116  1.00  0.00     0.074 A 
ATOM     53  C   UNL A   1      43.810  31.383  33.156  1.00  0.00     0.029 A 
ATOM     54  N   UNL A   1      44.769  29.541  32.432  1.00  0.00    -0.354 N 
ATOM     55  N   UNL A   1      45.006  28.608  28.189  1.00  0.00    -0.248 NA
ATOM     56  C   UNL A   1      44.460  26.638  29.309  1.00  0.00     0.031 C 
ATOM     57  C   UNL A   1      44.573  31.666  31.984  1.00  0.00     0.029 A 
ATOM     58  C   UNL A   1      44.951  30.446  31.417  1.00  0.00     0.049 A 
ATOM     59  H   UNL A   1      45.282  28.712  32.575  1.00  0.00     0.167 HD
ATOM     60  C   UNL A   1      45.203  28.823  29.543  1.00  0.00     0.074 A 
ATOM     61  C   UNL A   1      44.960  27.528  30.171  1.00  0.00     0.031 C 
ATOM     62  C   UNL A   1      45.280  30.087  30.053  1.00  0.00     0.031 A 
BRANCH  49  63
ATOM     63  C   UNL A   1      43.076  27.898  34.519  1.00  0.00    -0.014 A 
ATOM     64  C   UNL A   1      43.282  28.125  35.895  1.00  0.00     0.010 A 
ATOM     65  C   UNL A   1      43.455  26.638  34.011  1.00  0.00     0.010 A 
ATOM     66  C   UNL A   1      43.873  27.148  36.711  1.00  0.00     0.020 A 
ATOM     67  C   UNL A   1      44.003  25.643  34.824  1.00  0.00     0.020 A 
ATOM     68  C   UNL A   1      44.235  25.915  36.167  1.00  0.00     0.054 A 
BRANCH  68  69
ATOM     69  S   UNL A   1      45.103  24.706  37.201  1.00  0.00     0.124 S 
ATOM     70  O   UNL A   1      46.496  25.117  37.045  1.00  0.00    -0.237 OA
ATOM     71  O   UNL A   1      44.514  24.947  38.515  1.00  0.00    -0.237 OA
ATOM     72  O   UNL A   1      44.759  23.424  36.593  1.00  0.00    -0.744 OA
ENDBRANCH  68  69
ENDBRANCH  49  63
BRANCH  50  73
ATOM     73  C   UNL A   1      43.407  25.927  26.256  1.00  0.00    -0.014 A 
ATOM     74  C   UNL A   1      44.501  25.698  25.400  1.00  0.00     0.010 A 
ATOM     75  C   UNL A   1      42.535  24.847  26.507  1.00  0.00     0.010 A 
ATOM     76  C   UNL A   1      44.766  24.416  24.893  1.00  0.00     0.020 A 
ATOM     77  C   UNL A   1      42.785  23.569  25.994  1.00  0.00     0.020 A 
ATOM     78  C   UNL A   1      43.922  23.352  25.222  1.00  0.00     0.054 A 
BRANCH  78  79
ATOM     79  S   UNL A   1      44.391  21.667  24.733  1.00  0.00     0.124 S 
ATOM     80  O   UNL A   1      44.516  21.782  23.283  1.00  0.00    -0.237 OA
ATOM     81  O   UNL A   1      45.639  21.470  25.463  1.00  0.00    -0.237 OA
ATOM     82  O   UNL A   1      43.269  20.850  25.193  1.00  0.00    -0.744 OA
ENDBRANCH  78  79
ENDBRANCH  50  73
BRANCH  62  83
ATOM     83  C   UNL A   1      45.445  31.236  29.087  1.00  0.00    -0.014 A 
ATOM     84  C   UNL A   1      46.690  31.609  28.540  1.00  0.00     0.010 A 
ATOM     85  C   UNL A   1      44.281  31.840  28.583  1.00  0.00     0.010 A 
ATOM     86  C   UNL A   1      46.764  32.563  27.514  1.00  0.00     0.020 A 
ATOM     87  C   UNL A   1      44.348  32.780  27.552  1.00  0.00     0.020 A 
ATOM     88  C   UNL A   1      45.589  33.134  27.018  1.00  0.00     0.054 A 
BRANCH  88  89
ATOM     89  S   UNL A   1      45.686  34.310  25.639  1.00  0.00     0.124 S 
ATOM     90  O   UNL A   1      47.117  34.351  25.349  1.00  0.00    -0.237 OA
ATOM     91  O   UNL A   1      44.855  33.673  24.618  1.00  0.00    -0.237 OA
ATOM     92  O   UNL A   1      45.133  35.546  26.193  1.00  0.00    -0.744 OA
ENDBRANCH  88  89
ENDBRANCH  62  83
ENDBRANCH  36  37
ENDBRANCH  28  31
ENDBRANCH  26  27
ENDBRANCH   1  26
TORSDOF 16
ENDMDL
