MODEL 1
REMARK VINA RESULT:     -10.6      0.000      0.000
REMARK SMILES O=C(NCCCCNC(=O)[C@@H](CCO)Cc1ccc(F)cc1)c1ccc(-c2c3nc(c(-c4ccc(S(=O)(=O)[O-])cc4)c4ccc([nH]4)c(-c4ccc(S(=O)(=O)[O-])cc4)c4nc(c(-c5ccc(S(=O)(=O)[O-])cc5)c5ccc2[nH]5)C=C4)C=C3)cc1
REMARK SMILES IDX 5 1 4 2 3 3 1 4 2 5 23 7 24 8 82 9 25 10 81 11 26 12 27 13
REMARK SMILES IDX 28 14 75 15 29 16 80 17 74 18 76 19 30 20 79 21 73 22 72 23
REMARK SMILES IDX 31 25 61 26 42 27 60 28 43 29 46 30 59 31 77 32 44 33 45 34
REMARK SMILES IDX 58 36 78 37 47 38 32 39 33 40 41 41 34 42 40 43 35 44 36 45
REMARK SMILES IDX 37 46 38 47 39 48 62 49 63 50 71 51 64 52 70 53 65 54 66 55
REMARK SMILES IDX 67 56 68 57 69 58 48 59 49 60 57 61 50 62 56 63 51 64 52 65
REMARK SMILES IDX 53 66 54 67 55 68 6 69 7 70 8 71 9 72 10 74 11 75 12 76
REMARK SMILES IDX 13 77 14 78 15 80 16 81 17 82 22 83 18 84 21 85 19 86 20 87
REMARK H PARENT 3 6 76 24 46 35 8 73 14 79
REMARK Flexibility Score: inf
ROOT
ATOM      1  C   UNL A   1      39.646  22.523  27.016  1.00  0.00     0.023 C 
ENDROOT
BRANCH   1   2
ATOM      2  C   UNL A   1      40.815  23.439  27.338  1.00  0.00     0.116 C 
BRANCH   2   3
ATOM      3  N   UNL A   1      41.370  24.114  26.171  1.00  0.00    -0.352 N 
ATOM      4  O   UNL A   1      41.900  25.903  24.887  1.00  0.00    -0.269 OA
ATOM      5  C   UNL A   1      41.506  25.470  25.961  1.00  0.00     0.251 C 
ATOM      6  H   UNL A   1      41.685  23.529  25.445  1.00  0.00     0.163 HD
BRANCH   5   7
ATOM      7  C   UNL A   1      41.124  26.384  27.057  1.00  0.00     0.039 A 
ATOM      8  C   UNL A   1      41.817  27.583  27.220  1.00  0.00     0.014 A 
ATOM      9  C   UNL A   1      40.154  25.988  27.981  1.00  0.00     0.014 A 
ATOM     10  C   UNL A   1      41.676  28.290  28.402  1.00  0.00     0.010 A 
ATOM     11  C   UNL A   1      39.937  26.766  29.124  1.00  0.00     0.010 A 
ATOM     12  C   UNL A   1      40.727  27.900  29.364  1.00  0.00    -0.014 A 
BRANCH  12  13
ATOM     13  C   UNL A   1      40.567  28.743  30.576  1.00  0.00     0.031 A 
ATOM     14  C   UNL A   1      41.530  28.667  31.729  1.00  0.00     0.074 A 
ATOM     15  C   UNL A   1      39.574  29.656  30.578  1.00  0.00     0.049 A 
ATOM     16  N   UNL A   1      41.561  29.395  32.816  1.00  0.00    -0.248 NA
ATOM     17  C   UNL A   1      42.586  27.644  31.666  1.00  0.00     0.031 C 
ATOM     18  C   UNL A   1      38.572  29.811  29.518  1.00  0.00     0.029 A 
ATOM     19  N   UNL A   1      39.273  30.655  31.465  1.00  0.00    -0.354 N 
ATOM     20  C   UNL A   1      42.618  28.906  33.578  1.00  0.00     0.074 A 
ATOM     21  C   UNL A   1      43.196  27.809  32.833  1.00  0.00     0.031 C 
ATOM     22  C   UNL A   1      37.826  30.893  29.771  1.00  0.00     0.029 A 
ATOM     23  C   UNL A   1      38.243  31.464  31.045  1.00  0.00     0.049 A 
ATOM     24  H   UNL A   1      39.747  30.783  32.319  1.00  0.00     0.167 HD
ATOM     25  C   UNL A   1      43.062  29.336  34.784  1.00  0.00     0.031 A 
ATOM     26  C   UNL A   1      37.685  32.543  31.621  1.00  0.00     0.031 A 
ATOM     27  C   UNL A   1      42.484  30.436  35.515  1.00  0.00     0.049 A 
ATOM     28  C   UNL A   1      38.215  33.013  32.941  1.00  0.00     0.074 A 
ATOM     29  C   UNL A   1      42.853  30.940  36.751  1.00  0.00     0.029 A 
ATOM     30  N   UNL A   1      41.422  31.211  35.071  1.00  0.00    -0.354 N 
ATOM     31  N   UNL A   1      39.203  32.520  33.649  1.00  0.00    -0.248 NA
ATOM     32  C   UNL A   1      37.552  34.175  33.542  1.00  0.00     0.031 C 
ATOM     33  C   UNL A   1      41.995  32.000  37.068  1.00  0.00     0.029 A 
ATOM     34  C   UNL A   1      41.120  32.184  36.010  1.00  0.00     0.049 A 
ATOM     35  H   UNL A   1      40.952  31.087  34.215  1.00  0.00     0.167 HD
ATOM     36  C   UNL A   1      39.271  33.305  34.791  1.00  0.00     0.074 A 
ATOM     37  C   UNL A   1      38.255  34.331  34.655  1.00  0.00     0.031 C 
ATOM     38  C   UNL A   1      40.090  33.179  35.865  1.00  0.00     0.031 A 
BRANCH  25  39
ATOM     39  C   UNL A   1      44.219  28.601  35.408  1.00  0.00    -0.014 A 
ATOM     40  C   UNL A   1      44.009  27.482  36.234  1.00  0.00     0.010 A 
ATOM     41  C   UNL A   1      45.538  28.996  35.115  1.00  0.00     0.010 A 
ATOM     42  C   UNL A   1      45.096  26.789  36.777  1.00  0.00     0.020 A 
ATOM     43  C   UNL A   1      46.627  28.293  35.640  1.00  0.00     0.020 A 
ATOM     44  C   UNL A   1      46.399  27.201  36.480  1.00  0.00     0.054 A 
BRANCH  44  45
ATOM     45  S   UNL A   1      47.791  26.266  37.172  1.00  0.00     0.124 S 
ATOM     46  O   UNL A   1      48.931  27.090  36.778  1.00  0.00    -0.237 OA
ATOM     47  O   UNL A   1      47.492  26.251  38.601  1.00  0.00    -0.237 OA
ATOM     48  O   UNL A   1      47.701  24.968  36.506  1.00  0.00    -0.744 OA
ENDBRANCH  44  45
ENDBRANCH  25  39
BRANCH  26  49
ATOM     49  C   UNL A   1      36.543  33.221  30.953  1.00  0.00    -0.014 A 
ATOM     50  C   UNL A   1      35.281  33.281  31.566  1.00  0.00     0.010 A 
ATOM     51  C   UNL A   1      36.737  33.855  29.711  1.00  0.00     0.010 A 
ATOM     52  C   UNL A   1      34.227  33.959  30.943  1.00  0.00     0.020 A 
ATOM     53  C   UNL A   1      35.695  34.557  29.102  1.00  0.00     0.020 A 
ATOM     54  C   UNL A   1      34.443  34.593  29.717  1.00  0.00     0.054 A 
BRANCH  54  55
ATOM     55  S   UNL A   1      33.090  35.531  28.954  1.00  0.00     0.124 S 
ATOM     56  O   UNL A   1      32.438  34.510  28.141  1.00  0.00    -0.237 OA
ATOM     57  O   UNL A   1      32.331  36.000  30.110  1.00  0.00    -0.237 OA
ATOM     58  O   UNL A   1      33.785  36.579  28.209  1.00  0.00    -0.744 OA
ENDBRANCH  54  55
ENDBRANCH  26  49
BRANCH  38  59
ATOM     59  C   UNL A   1      39.902  34.179  36.970  1.00  0.00    -0.014 A 
ATOM     60  C   UNL A   1      39.138  33.857  38.107  1.00  0.00     0.010 A 
ATOM     61  C   UNL A   1      40.491  35.451  36.871  1.00  0.00     0.010 A 
ATOM     62  C   UNL A   1      38.926  34.811  39.105  1.00  0.00     0.020 A 
ATOM     63  C   UNL A   1      40.299  36.399  37.878  1.00  0.00     0.020 A 
ATOM     64  C   UNL A   1      39.500  36.080  38.979  1.00  0.00     0.054 A 
BRANCH  64  65
ATOM     65  S   UNL A   1      39.216  37.303  40.286  1.00  0.00     0.124 S 
ATOM     66  O   UNL A   1      38.461  38.333  39.576  1.00  0.00    -0.237 OA
ATOM     67  O   UNL A   1      38.462  36.546  41.281  1.00  0.00    -0.237 OA
ATOM     68  O   UNL A   1      40.563  37.688  40.696  1.00  0.00    -0.744 OA
ENDBRANCH  64  65
ENDBRANCH  38  59
ENDBRANCH  12  13
ENDBRANCH   5   7
ENDBRANCH   2   3
ENDBRANCH   1   2
BRANCH   1  69
ATOM     69  C   UNL A   1      38.589  23.136  26.106  1.00  0.00     0.023 C 
BRANCH  69  70
ATOM     70  C   UNL A   1      37.629  22.130  25.475  1.00  0.00     0.116 C 
BRANCH  70  71
ATOM     71  N   UNL A   1      36.478  21.897  26.321  1.00  0.00    -0.356 N 
ATOM     72  C   UNL A   1      35.216  21.492  26.049  1.00  0.00     0.223 C 
ATOM     73  H   UNL A   1      36.646  22.066  27.276  1.00  0.00     0.163 HD
ATOM     74  O   UNL A   1      34.438  21.452  27.010  1.00  0.00    -0.275 OA
BRANCH  72  75
ATOM     75  C   UNL A   1      34.704  21.120  24.659  1.00  0.00     0.085 C 
BRANCH  75  76
ATOM     76  C   UNL A   1      33.916  19.788  24.686  1.00  0.00     0.042 C 
BRANCH  76  77
ATOM     77  C   UNL A   1      32.402  19.818  24.533  1.00  0.00     0.157 C 
BRANCH  77  78
ATOM     78  O   UNL A   1      31.771  20.352  25.683  1.00  0.00    -0.396 OA
ATOM     79  H   UNL A   1      32.225  21.166  25.953  1.00  0.00     0.210 HD
ENDBRANCH  77  78
ENDBRANCH  76  77
ENDBRANCH  75  76
BRANCH  75  80
ATOM     80  C   UNL A   1      34.075  22.241  23.812  1.00  0.00     0.049 C 
BRANCH  80  81
ATOM     81  C   UNL A   1      33.759  23.550  24.516  1.00  0.00    -0.047 A 
ATOM     82  C   UNL A   1      32.510  23.691  25.147  1.00  0.00     0.007 A 
ATOM     83  C   UNL A   1      34.697  24.584  24.653  1.00  0.00     0.007 A 
ATOM     84  C   UNL A   1      32.201  24.841  25.875  1.00  0.00     0.039 A 
ATOM     85  C   UNL A   1      34.385  25.738  25.377  1.00  0.00     0.039 A 
ATOM     86  C   UNL A   1      33.141  25.856  25.981  1.00  0.00     0.123 A 
ATOM     87  F   UNL A   1      32.848  26.957  26.685  1.00  0.00    -0.207 F 
ENDBRANCH  80  81
ENDBRANCH  75  80
ENDBRANCH  72  75
ENDBRANCH  70  71
ENDBRANCH  69  70
ENDBRANCH   1  69
TORSDOF 19
ENDMDL
MODEL 2
REMARK VINA RESULT:     -10.6      5.325     11.597
REMARK SMILES O=C(NCCCCNC(=O)[C@@H](CCO)Cc1ccc(F)cc1)c1ccc(-c2c3nc(c(-c4ccc(S(=O)(=O)[O-])cc4)c4ccc([nH]4)c(-c4ccc(S(=O)(=O)[O-])cc4)c4nc(c(-c5ccc(S(=O)(=O)[O-])cc5)c5ccc2[nH]5)C=C4)C=C3)cc1
REMARK SMILES IDX 5 1 4 2 3 3 1 4 2 5 23 7 24 8 82 9 25 10 81 11 26 12 27 13
REMARK SMILES IDX 28 14 75 15 29 16 80 17 74 18 76 19 30 20 79 21 73 22 72 23
REMARK SMILES IDX 31 25 61 26 42 27 60 28 43 29 46 30 59 31 77 32 44 33 45 34
REMARK SMILES IDX 58 36 78 37 47 38 32 39 33 40 41 41 34 42 40 43 35 44 36 45
REMARK SMILES IDX 37 46 38 47 39 48 62 49 63 50 71 51 64 52 70 53 65 54 66 55
REMARK SMILES IDX 67 56 68 57 69 58 48 59 49 60 57 61 50 62 56 63 51 64 52 65
REMARK SMILES IDX 53 66 54 67 55 68 6 69 7 70 8 71 9 72 10 74 11 75 12 76
REMARK SMILES IDX 13 77 14 78 15 80 16 81 17 82 22 83 18 84 21 85 19 86 20 87
REMARK H PARENT 3 6 76 24 46 35 8 73 14 79
REMARK Flexibility Score: inf
ROOT
ATOM      1  C   UNL A   1      34.876  34.157  28.056  1.00  0.00     0.023 C 
ENDROOT
BRANCH   1   2
ATOM      2  C   UNL A   1      35.222  32.763  28.552  1.00  0.00     0.116 C 
BRANCH   2   3
ATOM      3  N   UNL A   1      34.230  31.754  28.200  1.00  0.00    -0.352 N 
ATOM      4  O   UNL A   1      33.521  29.697  27.571  1.00  0.00    -0.269 OA
ATOM      5  C   UNL A   1      34.435  30.413  27.955  1.00  0.00     0.251 C 
ATOM      6  H   UNL A   1      33.300  32.070  28.129  1.00  0.00     0.163 HD
BRANCH   5   7
ATOM      7  C   UNL A   1      35.800  29.876  28.132  1.00  0.00     0.039 A 
ATOM      8  C   UNL A   1      36.162  29.318  29.358  1.00  0.00     0.014 A 
ATOM      9  C   UNL A   1      36.743  30.033  27.113  1.00  0.00     0.014 A 
ATOM     10  C   UNL A   1      37.501  29.094  29.630  1.00  0.00     0.010 A 
ATOM     11  C   UNL A   1      38.080  29.702  27.357  1.00  0.00     0.010 A 
ATOM     12  C   UNL A   1      38.476  29.271  28.632  1.00  0.00    -0.014 A 
BRANCH  12  13
ATOM     13  C   UNL A   1      39.886  28.940  28.960  1.00  0.00     0.031 A 
ATOM     14  C   UNL A   1      40.502  27.621  28.577  1.00  0.00     0.074 A 
ATOM     15  C   UNL A   1      40.638  29.899  29.538  1.00  0.00     0.049 A 
ATOM     16  N   UNL A   1      41.740  27.224  28.728  1.00  0.00    -0.248 NA
ATOM     17  C   UNL A   1      39.625  26.616  27.956  1.00  0.00     0.031 C 
ATOM     18  C   UNL A   1      40.141  31.212  29.965  1.00  0.00     0.029 A 
ATOM     19  N   UNL A   1      41.977  29.946  29.819  1.00  0.00    -0.354 N 
ATOM     20  C   UNL A   1      41.788  25.920  28.247  1.00  0.00     0.074 A 
ATOM     21  C   UNL A   1      40.450  25.587  27.810  1.00  0.00     0.031 C 
ATOM     22  C   UNL A   1      41.174  31.963  30.369  1.00  0.00     0.029 A 
ATOM     23  C   UNL A   1      42.390  31.165  30.303  1.00  0.00     0.049 A 
ATOM     24  H   UNL A   1      42.585  29.183  29.685  1.00  0.00     0.167 HD
ATOM     25  C   UNL A   1      42.852  25.082  28.177  1.00  0.00     0.031 A 
ATOM     26  C   UNL A   1      43.612  31.596  30.665  1.00  0.00     0.031 A 
ATOM     27  C   UNL A   1      44.183  25.426  28.608  1.00  0.00     0.049 A 
ATOM     28  C   UNL A   1      44.773  30.657  30.550  1.00  0.00     0.074 A 
ATOM     29  C   UNL A   1      45.325  24.642  28.591  1.00  0.00     0.029 A 
ATOM     30  N   UNL A   1      44.556  26.659  29.122  1.00  0.00    -0.354 N 
ATOM     31  N   UNL A   1      44.787  29.422  30.110  1.00  0.00    -0.248 NA
ATOM     32  C   UNL A   1      46.078  31.166  30.987  1.00  0.00     0.031 C 
ATOM     33  C   UNL A   1      46.381  25.392  29.123  1.00  0.00     0.029 A 
ATOM     34  C   UNL A   1      45.906  26.657  29.431  1.00  0.00     0.049 A 
ATOM     35  H   UNL A   1      43.949  27.424  29.249  1.00  0.00     0.167 HD
ATOM     36  C   UNL A   1      46.103  28.997  30.231  1.00  0.00     0.074 A 
ATOM     37  C   UNL A   1      46.860  30.124  30.743  1.00  0.00     0.031 C 
ATOM     38  C   UNL A   1      46.635  27.780  29.961  1.00  0.00     0.031 A 
BRANCH  25  39
ATOM     39  C   UNL A   1      42.618  23.697  27.634  1.00  0.00    -0.014 A 
ATOM     40  C   UNL A   1      42.834  23.402  26.276  1.00  0.00     0.010 A 
ATOM     41  C   UNL A   1      42.236  22.660  28.506  1.00  0.00     0.010 A 
ATOM     42  C   UNL A   1      42.645  22.103  25.794  1.00  0.00     0.020 A 
ATOM     43  C   UNL A   1      42.067  21.355  28.032  1.00  0.00     0.020 A 
ATOM     44  C   UNL A   1      42.260  21.087  26.675  1.00  0.00     0.054 A 
BRANCH  44  45
ATOM     45  S   UNL A   1      42.053  19.403  26.031  1.00  0.00     0.124 S 
ATOM     46  O   UNL A   1      42.450  18.592  27.179  1.00  0.00    -0.237 OA
ATOM     47  O   UNL A   1      40.634  19.358  25.692  1.00  0.00    -0.237 OA
ATOM     48  O   UNL A   1      42.964  19.355  24.890  1.00  0.00    -0.744 OA
ENDBRANCH  44  45
ENDBRANCH  25  39
BRANCH  26  49
ATOM     49  C   UNL A   1      43.772  32.975  31.196  1.00  0.00    -0.014 A 
ATOM     50  C   UNL A   1      43.702  33.230  32.576  1.00  0.00     0.010 A 
ATOM     51  C   UNL A   1      44.047  34.036  30.313  1.00  0.00     0.010 A 
ATOM     52  C   UNL A   1      43.897  34.526  33.063  1.00  0.00     0.020 A 
ATOM     53  C   UNL A   1      44.272  35.325  30.799  1.00  0.00     0.020 A 
ATOM     54  C   UNL A   1      44.182  35.565  32.171  1.00  0.00     0.054 A 
BRANCH  54  55
ATOM     55  S   UNL A   1      44.506  37.227  32.820  1.00  0.00     0.124 S 
ATOM     56  O   UNL A   1      43.652  37.260  34.003  1.00  0.00    -0.237 OA
ATOM     57  O   UNL A   1      45.943  37.198  33.077  1.00  0.00    -0.237 OA
ATOM     58  O   UNL A   1      44.096  38.102  31.723  1.00  0.00    -0.744 OA
ENDBRANCH  54  55
ENDBRANCH  26  49
BRANCH  38  59
ATOM     59  C   UNL A   1      48.104  27.618  30.224  1.00  0.00    -0.014 A 
ATOM     60  C   UNL A   1      48.565  27.174  31.476  1.00  0.00     0.010 A 
ATOM     61  C   UNL A   1      49.033  27.915  29.211  1.00  0.00     0.010 A 
ATOM     62  C   UNL A   1      49.935  27.078  31.728  1.00  0.00     0.020 A 
ATOM     63  C   UNL A   1      50.403  27.798  29.453  1.00  0.00     0.020 A 
ATOM     64  C   UNL A   1      50.846  27.399  30.717  1.00  0.00     0.054 A 
BRANCH  64  65
ATOM     65  S   UNL A   1      52.621  27.265  31.062  1.00  0.00     0.124 S 
ATOM     66  O   UNL A   1      53.037  28.664  31.049  1.00  0.00    -0.237 OA
ATOM     67  O   UNL A   1      52.649  26.613  32.369  1.00  0.00    -0.237 OA
ATOM     68  O   UNL A   1      53.125  26.453  29.958  1.00  0.00    -0.744 OA
ENDBRANCH  64  65
ENDBRANCH  38  59
ENDBRANCH  12  13
ENDBRANCH   5   7
ENDBRANCH   2   3
ENDBRANCH   1   2
BRANCH   1  69
ATOM     69  C   UNL A   1      33.517  34.676  28.511  1.00  0.00     0.023 C 
BRANCH  69  70
ATOM     70  C   UNL A   1      33.569  35.690  29.652  1.00  0.00     0.116 C 
BRANCH  70  71
ATOM     71  N   UNL A   1      32.530  35.438  30.628  1.00  0.00    -0.356 N 
ATOM     72  C   UNL A   1      32.560  35.303  31.974  1.00  0.00     0.223 C 
ATOM     73  H   UNL A   1      31.630  35.349  30.237  1.00  0.00     0.163 HD
ATOM     74  O   UNL A   1      31.484  35.025  32.517  1.00  0.00    -0.275 OA
BRANCH  72  75
ATOM     75  C   UNL A   1      33.815  35.442  32.832  1.00  0.00     0.085 C 
BRANCH  75  76
ATOM     76  C   UNL A   1      33.933  36.863  33.432  1.00  0.00     0.042 C 
BRANCH  76  77
ATOM     77  C   UNL A   1      34.166  38.045  32.501  1.00  0.00     0.157 C 
BRANCH  77  78
ATOM     78  O   UNL A   1      32.978  38.419  31.826  1.00  0.00    -0.396 OA
ATOM     79  H   UNL A   1      33.037  39.351  31.560  1.00  0.00     0.210 HD
ENDBRANCH  77  78
ENDBRANCH  76  77
ENDBRANCH  75  76
BRANCH  75  80
ATOM     80  C   UNL A   1      34.144  34.289  33.797  1.00  0.00     0.049 C 
BRANCH  80  81
ATOM     81  C   UNL A   1      35.238  33.320  33.377  1.00  0.00    -0.047 A 
ATOM     82  C   UNL A   1      36.393  33.221  34.173  1.00  0.00     0.007 A 
ATOM     83  C   UNL A   1      35.098  32.445  32.290  1.00  0.00     0.007 A 
ATOM     84  C   UNL A   1      37.390  32.291  33.877  1.00  0.00     0.039 A 
ATOM     85  C   UNL A   1      36.099  31.516  31.990  1.00  0.00     0.039 A 
ATOM     86  C   UNL A   1      37.235  31.448  32.785  1.00  0.00     0.123 A 
ATOM     87  F   UNL A   1      38.188  30.550  32.504  1.00  0.00    -0.207 F 
ENDBRANCH  80  81
ENDBRANCH  75  80
ENDBRANCH  72  75
ENDBRANCH  70  71
ENDBRANCH  69  70
ENDBRANCH   1  69
TORSDOF 19
ENDMDL
MODEL 3
REMARK VINA RESULT:     -10.6      6.629     13.622
REMARK SMILES O=C(NCCCCNC(=O)[C@@H](CCO)Cc1ccc(F)cc1)c1ccc(-c2c3nc(c(-c4ccc(S(=O)(=O)[O-])cc4)c4ccc([nH]4)c(-c4ccc(S(=O)(=O)[O-])cc4)c4nc(c(-c5ccc(S(=O)(=O)[O-])cc5)c5ccc2[nH]5)C=C4)C=C3)cc1
REMARK SMILES IDX 5 1 4 2 3 3 1 4 2 5 23 7 24 8 82 9 25 10 81 11 26 12 27 13
REMARK SMILES IDX 28 14 75 15 29 16 80 17 74 18 76 19 30 20 79 21 73 22 72 23
REMARK SMILES IDX 31 25 61 26 42 27 60 28 43 29 46 30 59 31 77 32 44 33 45 34
REMARK SMILES IDX 58 36 78 37 47 38 32 39 33 40 41 41 34 42 40 43 35 44 36 45
REMARK SMILES IDX 37 46 38 47 39 48 62 49 63 50 71 51 64 52 70 53 65 54 66 55
REMARK SMILES IDX 67 56 68 57 69 58 48 59 49 60 57 61 50 62 56 63 51 64 52 65
REMARK SMILES IDX 53 66 54 67 55 68 6 69 7 70 8 71 9 72 10 74 11 75 12 76
REMARK SMILES IDX 13 77 14 78 15 80 16 81 17 82 22 83 18 84 21 85 19 86 20 87
REMARK H PARENT 3 6 76 24 46 35 8 73 14 79
REMARK Flexibility Score: inf
ROOT
ATOM      1  C   UNL A   1      35.671  33.497  28.717  1.00  0.00     0.023 C 
ENDROOT
BRANCH   1   2
ATOM      2  C   UNL A   1      36.657  32.921  29.720  1.00  0.00     0.116 C 
BRANCH   2   3
ATOM      3  N   UNL A   1      36.168  31.729  30.404  1.00  0.00    -0.352 N 
ATOM      4  O   UNL A   1      36.243  29.570  31.082  1.00  0.00    -0.269 OA
ATOM      5  C   UNL A   1      36.813  30.523  30.569  1.00  0.00     0.251 C 
ATOM      6  H   UNL A   1      35.267  31.796  30.794  1.00  0.00     0.163 HD
BRANCH   5   7
ATOM      7  C   UNL A   1      38.200  30.403  30.075  1.00  0.00     0.039 A 
ATOM      8  C   UNL A   1      38.426  30.218  28.711  1.00  0.00     0.014 A 
ATOM      9  C   UNL A   1      39.259  30.364  30.985  1.00  0.00     0.014 A 
ATOM     10  C   UNL A   1      39.677  29.807  28.282  1.00  0.00     0.010 A 
ATOM     11  C   UNL A   1      40.545  30.055  30.531  1.00  0.00     0.010 A 
ATOM     12  C   UNL A   1      40.756  29.731  29.182  1.00  0.00    -0.014 A 
BRANCH  12  13
ATOM     13  C   UNL A   1      42.091  29.360  28.649  1.00  0.00     0.031 A 
ATOM     14  C   UNL A   1      43.245  30.327  28.654  1.00  0.00     0.074 A 
ATOM     15  C   UNL A   1      42.271  28.089  28.237  1.00  0.00     0.049 A 
ATOM     16  N   UNL A   1      44.486  30.118  28.295  1.00  0.00    -0.248 NA
ATOM     17  C   UNL A   1      42.978  31.700  29.110  1.00  0.00     0.031 C 
ATOM     18  C   UNL A   1      41.219  27.068  28.176  1.00  0.00     0.029 A 
ATOM     19  N   UNL A   1      43.401  27.421  27.845  1.00  0.00    -0.354 N 
ATOM     20  C   UNL A   1      45.143  31.333  28.454  1.00  0.00     0.074 A 
ATOM     21  C   UNL A   1      44.159  32.280  28.932  1.00  0.00     0.031 C 
ATOM     22  C   UNL A   1      41.766  25.889  27.858  1.00  0.00     0.029 A 
ATOM     23  C   UNL A   1      43.190  26.082  27.617  1.00  0.00     0.049 A 
ATOM     24  H   UNL A   1      44.277  27.857  27.738  1.00  0.00     0.167 HD
ATOM     25  C   UNL A   1      46.446  31.628  28.224  1.00  0.00     0.031 A 
ATOM     26  C   UNL A   1      44.044  25.111  27.246  1.00  0.00     0.031 A 
ATOM     27  C   UNL A   1      47.421  30.676  27.755  1.00  0.00     0.049 A 
ATOM     28  C   UNL A   1      45.483  25.460  27.026  1.00  0.00     0.074 A 
ATOM     29  C   UNL A   1      48.763  30.879  27.478  1.00  0.00     0.029 A 
ATOM     30  N   UNL A   1      47.163  29.336  27.505  1.00  0.00    -0.354 N 
ATOM     31  N   UNL A   1      46.075  26.622  27.165  1.00  0.00    -0.248 NA
ATOM     32  C   UNL A   1      46.367  24.372  26.592  1.00  0.00     0.031 C 
ATOM     33  C   UNL A   1      49.308  29.670  27.032  1.00  0.00     0.029 A 
ATOM     34  C   UNL A   1      48.317  28.703  27.073  1.00  0.00     0.049 A 
ATOM     35  H   UNL A   1      46.288  28.899  27.619  1.00  0.00     0.167 HD
ATOM     36  C   UNL A   1      47.402  26.409  26.820  1.00  0.00     0.074 A 
ATOM     37  C   UNL A   1      47.533  24.998  26.511  1.00  0.00     0.031 C 
ATOM     38  C   UNL A   1      48.419  27.304  26.748  1.00  0.00     0.031 A 
BRANCH  25  39
ATOM     39  C   UNL A   1      46.895  33.048  28.452  1.00  0.00    -0.014 A 
ATOM     40  C   UNL A   1      46.834  34.004  27.422  1.00  0.00     0.010 A 
ATOM     41  C   UNL A   1      47.324  33.447  29.731  1.00  0.00     0.010 A 
ATOM     42  C   UNL A   1      47.222  35.326  27.660  1.00  0.00     0.020 A 
ATOM     43  C   UNL A   1      47.693  34.774  29.978  1.00  0.00     0.020 A 
ATOM     44  C   UNL A   1      47.653  35.703  28.937  1.00  0.00     0.054 A 
BRANCH  44  45
ATOM     45  S   UNL A   1      48.120  37.433  29.227  1.00  0.00     0.124 S 
ATOM     46  O   UNL A   1      47.754  37.610  30.630  1.00  0.00    -0.237 OA
ATOM     47  O   UNL A   1      49.553  37.432  28.947  1.00  0.00    -0.237 OA
ATOM     48  O   UNL A   1      47.302  38.176  28.271  1.00  0.00    -0.744 OA
ENDBRANCH  44  45
ENDBRANCH  25  39
BRANCH  26  49
ATOM     49  C   UNL A   1      43.535  23.731  27.035  1.00  0.00    -0.014 A 
ATOM     50  C   UNL A   1      43.331  22.862  28.120  1.00  0.00     0.010 A 
ATOM     51  C   UNL A   1      43.205  23.299  25.736  1.00  0.00     0.010 A 
ATOM     52  C   UNL A   1      42.812  21.581  27.909  1.00  0.00     0.020 A 
ATOM     53  C   UNL A   1      42.658  22.031  25.526  1.00  0.00     0.020 A 
ATOM     54  C   UNL A   1      42.477  21.175  26.614  1.00  0.00     0.054 A 
BRANCH  54  55
ATOM     55  S   UNL A   1      41.737  19.539  26.360  1.00  0.00     0.124 S 
ATOM     56  O   UNL A   1      42.429  19.078  25.161  1.00  0.00    -0.237 OA
ATOM     57  O   UNL A   1      42.075  18.838  27.596  1.00  0.00    -0.237 OA
ATOM     58  O   UNL A   1      40.316  19.835  26.193  1.00  0.00    -0.744 OA
ENDBRANCH  54  55
ENDBRANCH  26  49
BRANCH  38  59
ATOM     59  C   UNL A   1      49.752  26.768  26.312  1.00  0.00    -0.014 A 
ATOM     60  C   UNL A   1      50.582  26.082  27.217  1.00  0.00     0.010 A 
ATOM     61  C   UNL A   1      50.181  26.953  24.986  1.00  0.00     0.010 A 
ATOM     62  C   UNL A   1      51.842  25.633  26.816  1.00  0.00     0.020 A 
ATOM     63  C   UNL A   1      51.431  26.486  24.576  1.00  0.00     0.020 A 
ATOM     64  C   UNL A   1      52.263  25.847  25.499  1.00  0.00     0.054 A 
BRANCH  64  65
ATOM     65  S   UNL A   1      53.901  25.255  24.996  1.00  0.00     0.124 S 
ATOM     66  O   UNL A   1      54.109  25.974  23.743  1.00  0.00    -0.237 OA
ATOM     67  O   UNL A   1      54.751  25.670  26.108  1.00  0.00    -0.237 OA
ATOM     68  O   UNL A   1      53.719  23.811  24.865  1.00  0.00    -0.744 OA
ENDBRANCH  64  65
ENDBRANCH  38  59
ENDBRANCH  12  13
ENDBRANCH   5   7
ENDBRANCH   2   3
ENDBRANCH   1   2
BRANCH   1  69
ATOM     69  C   UNL A   1      34.251  33.663  29.243  1.00  0.00     0.023 C 
BRANCH  69  70
ATOM     70  C   UNL A   1      33.836  35.108  29.515  1.00  0.00     0.116 C 
BRANCH  70  71
ATOM     71  N   UNL A   1      32.759  35.174  30.480  1.00  0.00    -0.356 N 
ATOM     72  C   UNL A   1      32.751  35.322  31.825  1.00  0.00     0.223 C 
ATOM     73  H   UNL A   1      31.862  35.096  30.082  1.00  0.00     0.163 HD
ATOM     74  O   UNL A   1      31.643  35.275  32.372  1.00  0.00    -0.275 OA
BRANCH  72  75
ATOM     75  C   UNL A   1      34.000  35.509  32.685  1.00  0.00     0.085 C 
BRANCH  75  76
ATOM     76  C   UNL A   1      33.985  36.878  33.409  1.00  0.00     0.042 C 
BRANCH  76  77
ATOM     77  C   UNL A   1      34.014  38.155  32.581  1.00  0.00     0.157 C 
BRANCH  77  78
ATOM     78  O   UNL A   1      32.946  38.200  31.652  1.00  0.00    -0.396 OA
ATOM     79  H   UNL A   1      33.301  38.322  30.757  1.00  0.00     0.210 HD
ENDBRANCH  77  78
ENDBRANCH  76  77
ENDBRANCH  75  76
BRANCH  75  80
ATOM     80  C   UNL A   1      34.456  34.315  33.542  1.00  0.00     0.049 C 
BRANCH  80  81
ATOM     81  C   UNL A   1      35.895  33.853  33.382  1.00  0.00    -0.047 A 
ATOM     82  C   UNL A   1      36.845  34.767  32.894  1.00  0.00     0.007 A 
ATOM     83  C   UNL A   1      36.336  32.589  33.800  1.00  0.00     0.007 A 
ATOM     84  C   UNL A   1      38.194  34.419  32.804  1.00  0.00     0.039 A 
ATOM     85  C   UNL A   1      37.686  32.238  33.705  1.00  0.00     0.039 A 
ATOM     86  C   UNL A   1      38.602  33.156  33.208  1.00  0.00     0.123 A 
ATOM     87  F   UNL A   1      39.896  32.822  33.129  1.00  0.00    -0.207 F 
ENDBRANCH  80  81
ENDBRANCH  75  80
ENDBRANCH  72  75
ENDBRANCH  70  71
ENDBRANCH  69  70
ENDBRANCH   1  69
TORSDOF 19
ENDMDL
