MODEL 1
REMARK VINA RESULT:     -11.1      0.000      0.000
REMARK SMILES CC[C@H]1CN(C(=O)CCC(=O)NCCCCNC(=O)c2ccc(-c3c4nc(c(-c5ccc(S(=O)(=O)[O-])cc5)c5ccc([nH]5)c(-c5ccc(S(=O)(=O)[O-])cc5)c5nc(c(-c6ccc(S(=O)(=O)[O-])cc6)c6ccc3[nH]6)C=C5)C=C4)cc2)c2cc(Cl)ccc2O1
REMARK SMILES IDX 14 1 13 2 12 3 10 4 11 5 9 7 8 8 6 9 7 10 5 11 3 12 4 13
REMARK SMILES IDX 87 14 86 15 80 16 85 17 81 18 84 19 82 20 83 21 2 22 1 23
REMARK SMILES IDX 15 24 16 25 17 26 18 27 19 29 20 30 21 31 79 32 22 33 78 34
REMARK SMILES IDX 23 35 24 36 25 37 72 38 26 39 77 40 71 41 73 42 27 43 76 44
REMARK SMILES IDX 70 45 69 46 28 48 58 49 39 50 57 51 40 52 43 53 56 54 74 55
REMARK SMILES IDX 41 56 42 57 55 59 75 60 44 61 29 62 30 63 38 64 31 65 37 66
REMARK SMILES IDX 32 67 33 68 34 69 35 70 36 71 59 72 60 73 68 74 61 75 67 76
REMARK SMILES IDX 62 77 63 78 64 79 65 80 66 81 45 82 46 83 54 84 47 85 53 86
REMARK SMILES IDX 48 87 49 88 50 89 51 90 52 91
REMARK H PARENT 12 6 17 28 73 47 43 58
REMARK Flexibility Score: inf
ROOT
ATOM      1  C   UNL A   1      31.528  29.171  25.658  1.00  0.00     0.023 C 
ENDROOT
BRANCH   1   2
ATOM      2  C   UNL A   1      31.280  28.812  24.199  1.00  0.00     0.116 C 
BRANCH   2   3
ATOM      3  N   UNL A   1      32.462  29.078  23.393  1.00  0.00    -0.356 N 
ATOM      4  C   UNL A   1      33.444  28.224  22.988  1.00  0.00     0.220 C 
ATOM      5  O   UNL A   1      34.449  28.691  22.450  1.00  0.00    -0.275 OA
ATOM      6  H   UNL A   1      32.569  30.011  23.097  1.00  0.00     0.163 HD
BRANCH   4   7
ATOM      7  C   UNL A   1      33.297  26.731  23.196  1.00  0.00     0.110 C 
BRANCH   7   8
ATOM      8  C   UNL A   1      32.795  26.025  21.936  1.00  0.00     0.110 C 
BRANCH   8   9
ATOM      9  C   UNL A   1      32.944  24.510  22.063  1.00  0.00     0.227 C 
ATOM     10  O   UNL A   1      33.362  23.923  21.060  1.00  0.00    -0.275 OA
BRANCH   9  11
ATOM     11  N   UNL A   1      32.527  23.885  23.250  1.00  0.00    -0.305 N 
ATOM     12  C   UNL A   1      30.776  23.369  25.006  1.00  0.00     0.193 C 
ATOM     13  C   UNL A   1      31.103  23.744  23.566  1.00  0.00     0.170 C 
ATOM     14  O   UNL A   1      31.544  22.263  25.467  1.00  0.00    -0.486 OA
ATOM     15  C   UNL A   1      32.869  22.295  25.116  1.00  0.00     0.143 A 
ATOM     16  C   UNL A   1      33.411  23.093  24.086  1.00  0.00     0.088 A 
ATOM     17  C   UNL A   1      33.655  21.369  25.818  1.00  0.00     0.050 A 
ATOM     18  C   UNL A   1      34.789  22.958  23.840  1.00  0.00     0.050 A 
ATOM     19  C   UNL A   1      35.003  21.217  25.516  1.00  0.00     0.024 A 
ATOM     20  C   UNL A   1      35.565  22.020  24.534  1.00  0.00     0.043 A 
ATOM     21  Cl  UNL A   1      37.229  21.827  24.130  1.00  0.00    -0.084 Cl
BRANCH  12  22
ATOM     22  C   UNL A   1      30.852  24.547  25.986  1.00  0.00     0.044 C 
ATOM     23  C   UNL A   1      29.876  25.647  25.584  1.00  0.00     0.008 C 
ENDBRANCH  12  22
ENDBRANCH   9  11
ENDBRANCH   8   9
ENDBRANCH   7   8
ENDBRANCH   4   7
ENDBRANCH   2   3
ENDBRANCH   1   2
BRANCH   1  24
ATOM     24  C   UNL A   1      32.172  28.049  26.466  1.00  0.00     0.023 C 
BRANCH  24  25
ATOM     25  C   UNL A   1      33.508  28.463  27.062  1.00  0.00     0.116 C 
BRANCH  25  26
ATOM     26  N   UNL A   1      33.518  29.859  27.501  1.00  0.00    -0.352 N 
ATOM     27  C   UNL A   1      34.468  30.634  28.135  1.00  0.00     0.251 C 
ATOM     28  H   UNL A   1      32.681  30.339  27.307  1.00  0.00     0.163 HD
ATOM     29  O   UNL A   1      34.154  31.743  28.543  1.00  0.00    -0.269 OA
BRANCH  27  30
ATOM     30  C   UNL A   1      35.845  30.134  28.362  1.00  0.00     0.039 A 
ATOM     31  C   UNL A   1      36.213  29.570  29.575  1.00  0.00     0.014 A 
ATOM     32  C   UNL A   1      36.792  30.212  27.333  1.00  0.00     0.014 A 
ATOM     33  C   UNL A   1      37.551  29.347  29.856  1.00  0.00     0.010 A 
ATOM     34  C   UNL A   1      38.118  29.812  27.563  1.00  0.00     0.010 A 
ATOM     35  C   UNL A   1      38.524  29.429  28.848  1.00  0.00    -0.014 A 
BRANCH  35  36
ATOM     36  C   UNL A   1      39.926  29.059  29.193  1.00  0.00     0.031 A 
ATOM     37  C   UNL A   1      40.749  29.895  30.137  1.00  0.00     0.074 A 
ATOM     38  C   UNL A   1      40.409  27.884  28.734  1.00  0.00     0.049 A 
ATOM     39  N   UNL A   1      41.947  29.653  30.605  1.00  0.00    -0.248 NA
ATOM     40  C   UNL A   1      40.171  31.162  30.613  1.00  0.00     0.031 C 
ATOM     41  C   UNL A   1      39.694  26.987  27.816  1.00  0.00     0.029 A 
ATOM     42  N   UNL A   1      41.560  27.196  29.024  1.00  0.00    -0.354 N 
ATOM     43  C   UNL A   1      42.277  30.745  31.401  1.00  0.00     0.074 A 
ATOM     44  C   UNL A   1      41.162  31.664  31.339  1.00  0.00     0.031 C 
ATOM     45  C   UNL A   1      40.347  25.822  27.739  1.00  0.00     0.029 A 
ATOM     46  C   UNL A   1      41.590  25.925  28.493  1.00  0.00     0.049 A 
ATOM     47  H   UNL A   1      42.295  27.574  29.561  1.00  0.00     0.167 HD
ATOM     48  C   UNL A   1      43.403  30.952  32.122  1.00  0.00     0.031 A 
ATOM     49  C   UNL A   1      42.511  24.945  28.587  1.00  0.00     0.031 A 
ATOM     50  C   UNL A   1      44.491  30.011  32.199  1.00  0.00     0.049 A 
ATOM     51  C   UNL A   1      43.756  25.208  29.377  1.00  0.00     0.074 A 
ATOM     52  C   UNL A   1      45.677  30.131  32.903  1.00  0.00     0.029 A 
ATOM     53  N   UNL A   1      44.524  28.777  31.566  1.00  0.00    -0.354 N 
ATOM     54  N   UNL A   1      44.058  26.262  30.096  1.00  0.00    -0.248 NA
ATOM     55  C   UNL A   1      44.796  24.171  29.351  1.00  0.00     0.031 C 
ATOM     56  C   UNL A   1      46.451  28.997  32.649  1.00  0.00     0.029 A 
ATOM     57  C   UNL A   1      45.720  28.137  31.845  1.00  0.00     0.049 A 
ATOM     58  H   UNL A   1      43.805  28.411  31.004  1.00  0.00     0.167 HD
ATOM     59  C   UNL A   1      45.329  26.024  30.600  1.00  0.00     0.074 A 
ATOM     60  C   UNL A   1      45.724  24.709  30.133  1.00  0.00     0.031 C 
ATOM     61  C   UNL A   1      46.102  26.831  31.365  1.00  0.00     0.031 A 
BRANCH  48  62
ATOM     62  C   UNL A   1      43.542  32.244  32.890  1.00  0.00    -0.014 A 
ATOM     63  C   UNL A   1      43.026  32.334  34.197  1.00  0.00     0.010 A 
ATOM     64  C   UNL A   1      44.064  33.400  32.284  1.00  0.00     0.010 A 
ATOM     65  C   UNL A   1      42.998  33.559  34.870  1.00  0.00     0.020 A 
ATOM     66  C   UNL A   1      44.064  34.622  32.964  1.00  0.00     0.020 A 
ATOM     67  C   UNL A   1      43.508  34.699  34.243  1.00  0.00     0.054 A 
BRANCH  67  68
ATOM     68  S   UNL A   1      43.437  36.287  35.120  1.00  0.00     0.124 S 
ATOM     69  O   UNL A   1      44.525  37.032  34.497  1.00  0.00    -0.237 OA
ATOM     70  O   UNL A   1      42.088  36.761  34.812  1.00  0.00    -0.237 OA
ATOM     71  O   UNL A   1      43.650  35.914  36.516  1.00  0.00    -0.744 OA
ENDBRANCH  67  68
ENDBRANCH  48  62
BRANCH  49  72
ATOM     72  C   UNL A   1      42.262  23.644  27.902  1.00  0.00    -0.014 A 
ATOM     73  C   UNL A   1      41.797  22.535  28.637  1.00  0.00     0.010 A 
ATOM     74  C   UNL A   1      42.597  23.471  26.549  1.00  0.00     0.010 A 
ATOM     75  C   UNL A   1      41.753  21.265  28.059  1.00  0.00     0.020 A 
ATOM     76  C   UNL A   1      42.518  22.205  25.954  1.00  0.00     0.020 A 
ATOM     77  C   UNL A   1      42.133  21.105  26.726  1.00  0.00     0.054 A 
BRANCH  77  78
ATOM     78  S   UNL A   1      42.141  19.434  26.017  1.00  0.00     0.124 S 
ATOM     79  O   UNL A   1      43.082  19.585  24.910  1.00  0.00    -0.237 OA
ATOM     80  O   UNL A   1      42.608  18.614  27.132  1.00  0.00    -0.237 OA
ATOM     81  O   UNL A   1      40.749  19.222  25.631  1.00  0.00    -0.744 OA
ENDBRANCH  77  78
ENDBRANCH  49  72
BRANCH  61  82
ATOM     82  C   UNL A   1      47.472  26.339  31.745  1.00  0.00    -0.014 A 
ATOM     83  C   UNL A   1      48.542  26.486  30.844  1.00  0.00     0.010 A 
ATOM     84  C   UNL A   1      47.663  25.610  32.931  1.00  0.00     0.010 A 
ATOM     85  C   UNL A   1      49.771  25.875  31.101  1.00  0.00     0.020 A 
ATOM     86  C   UNL A   1      48.901  25.020  33.205  1.00  0.00     0.020 A 
ATOM     87  C   UNL A   1      49.937  25.134  32.274  1.00  0.00     0.054 A 
BRANCH  87  88
ATOM     88  S   UNL A   1      51.523  24.308  32.568  1.00  0.00     0.124 S 
ATOM     89  O   UNL A   1      52.425  25.056  31.698  1.00  0.00    -0.237 OA
ATOM     90  O   UNL A   1      51.727  24.503  34.003  1.00  0.00    -0.237 OA
ATOM     91  O   UNL A   1      51.270  22.926  32.166  1.00  0.00    -0.744 OA
ENDBRANCH  87  88
ENDBRANCH  61  82
ENDBRANCH  35  36
ENDBRANCH  27  30
ENDBRANCH  25  26
ENDBRANCH  24  25
ENDBRANCH   1  24
TORSDOF 18
ENDMDL
MODEL 2
REMARK VINA RESULT:     -10.8      4.220      9.726
REMARK SMILES CC[C@H]1CN(C(=O)CCC(=O)NCCCCNC(=O)c2ccc(-c3c4nc(c(-c5ccc(S(=O)(=O)[O-])cc5)c5ccc([nH]5)c(-c5ccc(S(=O)(=O)[O-])cc5)c5nc(c(-c6ccc(S(=O)(=O)[O-])cc6)c6ccc3[nH]6)C=C5)C=C4)cc2)c2cc(Cl)ccc2O1
REMARK SMILES IDX 14 1 13 2 12 3 10 4 11 5 9 7 8 8 6 9 7 10 5 11 3 12 4 13
REMARK SMILES IDX 87 14 86 15 80 16 85 17 81 18 84 19 82 20 83 21 2 22 1 23
REMARK SMILES IDX 15 24 16 25 17 26 18 27 19 29 20 30 21 31 79 32 22 33 78 34
REMARK SMILES IDX 23 35 24 36 25 37 72 38 26 39 77 40 71 41 73 42 27 43 76 44
REMARK SMILES IDX 70 45 69 46 28 48 58 49 39 50 57 51 40 52 43 53 56 54 74 55
REMARK SMILES IDX 41 56 42 57 55 59 75 60 44 61 29 62 30 63 38 64 31 65 37 66
REMARK SMILES IDX 32 67 33 68 34 69 35 70 36 71 59 72 60 73 68 74 61 75 67 76
REMARK SMILES IDX 62 77 63 78 64 79 65 80 66 81 45 82 46 83 54 84 47 85 53 86
REMARK SMILES IDX 48 87 49 88 50 89 51 90 52 91
REMARK H PARENT 12 6 17 28 73 47 43 58
REMARK Flexibility Score: inf
ROOT
ATOM      1  C   UNL A   1      37.208  22.301  24.804  1.00  0.00     0.023 C 
ENDROOT
BRANCH   1   2
ATOM      2  C   UNL A   1      36.384  21.374  25.688  1.00  0.00     0.116 C 
BRANCH   2   3
ATOM      3  N   UNL A   1      35.093  21.090  25.078  1.00  0.00    -0.356 N 
ATOM      4  C   UNL A   1      33.841  21.219  25.601  1.00  0.00     0.220 C 
ATOM      5  O   UNL A   1      32.887  20.762  24.970  1.00  0.00    -0.275 OA
ATOM      6  H   UNL A   1      35.129  20.756  24.153  1.00  0.00     0.163 HD
BRANCH   4   7
ATOM      7  C   UNL A   1      33.633  21.913  26.931  1.00  0.00     0.110 C 
BRANCH   7   8
ATOM      8  C   UNL A   1      33.601  23.434  26.784  1.00  0.00     0.110 C 
BRANCH   8   9
ATOM      9  C   UNL A   1      32.175  23.931  26.556  1.00  0.00     0.227 C 
ATOM     10  O   UNL A   1      31.363  23.671  27.449  1.00  0.00    -0.275 OA
BRANCH   9  11
ATOM     11  N   UNL A   1      31.862  24.560  25.339  1.00  0.00    -0.305 N 
ATOM     12  C   UNL A   1      31.323  24.494  22.866  1.00  0.00     0.193 C 
ATOM     13  C   UNL A   1      31.301  23.798  24.221  1.00  0.00     0.170 C 
ATOM     14  O   UNL A   1      30.809  25.821  22.928  1.00  0.00    -0.486 OA
ATOM     15  C   UNL A   1      31.226  26.550  24.011  1.00  0.00     0.143 A 
ATOM     16  C   UNL A   1      31.787  26.002  25.185  1.00  0.00     0.088 A 
ATOM     17  C   UNL A   1      30.954  27.921  23.899  1.00  0.00     0.050 A 
ATOM     18  C   UNL A   1      32.114  26.906  26.210  1.00  0.00     0.050 A 
ATOM     19  C   UNL A   1      31.237  28.784  24.951  1.00  0.00     0.024 A 
ATOM     20  C   UNL A   1      31.825  28.272  26.099  1.00  0.00     0.043 A 
ATOM     21  Cl  UNL A   1      32.160  29.324  27.422  1.00  0.00    -0.084 Cl
BRANCH  12  22
ATOM     22  C   UNL A   1      32.690  24.460  22.172  1.00  0.00     0.044 C 
ATOM     23  C   UNL A   1      32.865  25.671  21.263  1.00  0.00     0.008 C 
ENDBRANCH  12  22
ENDBRANCH   9  11
ENDBRANCH   8   9
ENDBRANCH   7   8
ENDBRANCH   4   7
ENDBRANCH   2   3
ENDBRANCH   1   2
BRANCH   1  24
ATOM     24  C   UNL A   1      37.316  23.725  25.340  1.00  0.00     0.023 C 
BRANCH  24  25
ATOM     25  C   UNL A   1      38.239  23.817  26.545  1.00  0.00     0.116 C 
BRANCH  25  26
ATOM     26  N   UNL A   1      39.652  23.852  26.168  1.00  0.00    -0.352 N 
ATOM     27  C   UNL A   1      40.682  24.717  26.476  1.00  0.00     0.251 C 
ATOM     28  H   UNL A   1      39.921  23.112  25.577  1.00  0.00     0.163 HD
ATOM     29  O   UNL A   1      41.747  24.608  25.885  1.00  0.00    -0.269 OA
BRANCH  27  30
ATOM     30  C   UNL A   1      40.509  25.796  27.478  1.00  0.00     0.039 A 
ATOM     31  C   UNL A   1      41.143  27.021  27.330  1.00  0.00     0.014 A 
ATOM     32  C   UNL A   1      39.679  25.589  28.588  1.00  0.00     0.014 A 
ATOM     33  C   UNL A   1      41.178  27.914  28.389  1.00  0.00     0.010 A 
ATOM     34  C   UNL A   1      39.571  26.575  29.580  1.00  0.00     0.010 A 
ATOM     35  C   UNL A   1      40.366  27.727  29.519  1.00  0.00    -0.014 A 
BRANCH  35  36
ATOM     36  C   UNL A   1      40.363  28.787  30.566  1.00  0.00     0.031 A 
ATOM     37  C   UNL A   1      39.300  29.853  30.601  1.00  0.00     0.074 A 
ATOM     38  C   UNL A   1      41.270  28.703  31.565  1.00  0.00     0.049 A 
ATOM     39  N   UNL A   1      39.111  30.785  31.501  1.00  0.00    -0.248 NA
ATOM     40  C   UNL A   1      38.333  29.893  29.492  1.00  0.00     0.031 C 
ATOM     41  C   UNL A   1      42.344  27.704  31.637  1.00  0.00     0.029 A 
ATOM     42  N   UNL A   1      41.397  29.398  32.741  1.00  0.00    -0.354 N 
ATOM     43  C   UNL A   1      38.029  31.536  31.054  1.00  0.00     0.074 A 
ATOM     44  C   UNL A   1      37.613  30.968  29.792  1.00  0.00     0.031 C 
ATOM     45  C   UNL A   1      42.916  27.757  32.845  1.00  0.00     0.029 A 
ATOM     46  C   UNL A   1      42.344  28.871  33.591  1.00  0.00     0.049 A 
ATOM     47  H   UNL A   1      40.863  30.197  32.956  1.00  0.00     0.167 HD
ATOM     48  C   UNL A   1      37.436  32.596  31.651  1.00  0.00     0.031 A 
ATOM     49  C   UNL A   1      42.727  29.238  34.830  1.00  0.00     0.031 A 
ATOM     50  C   UNL A   1      37.843  33.131  32.926  1.00  0.00     0.049 A 
ATOM     51  C   UNL A   1      42.066  30.426  35.460  1.00  0.00     0.074 A 
ATOM     52  C   UNL A   1      37.305  34.204  33.614  1.00  0.00     0.029 A 
ATOM     53  N   UNL A   1      38.872  32.628  33.709  1.00  0.00    -0.354 N 
ATOM     54  N   UNL A   1      41.066  31.140  35.003  1.00  0.00    -0.248 NA
ATOM     55  C   UNL A   1      42.596  30.878  36.753  1.00  0.00     0.031 C 
ATOM     56  C   UNL A   1      38.045  34.388  34.783  1.00  0.00     0.029 A 
ATOM     57  C   UNL A   1      38.999  33.386  34.862  1.00  0.00     0.049 A 
ATOM     58  H   UNL A   1      39.428  31.850  33.480  1.00  0.00     0.167 HD
ATOM     59  C   UNL A   1      40.852  32.136  35.945  1.00  0.00     0.074 A 
ATOM     60  C   UNL A   1      41.803  31.910  37.016  1.00  0.00     0.031 C 
ATOM     61  C   UNL A   1      39.958  33.153  35.914  1.00  0.00     0.031 A 
BRANCH  48  62
ATOM     62  C   UNL A   1      36.285  33.271  30.947  1.00  0.00    -0.014 A 
ATOM     63  C   UNL A   1      36.482  33.826  29.668  1.00  0.00     0.010 A 
ATOM     64  C   UNL A   1      35.051  33.470  31.591  1.00  0.00     0.010 A 
ATOM     65  C   UNL A   1      35.483  34.594  29.061  1.00  0.00     0.020 A 
ATOM     66  C   UNL A   1      34.038  34.213  30.975  1.00  0.00     0.020 A 
ATOM     67  C   UNL A   1      34.271  34.791  29.725  1.00  0.00     0.054 A 
BRANCH  67  68
ATOM     68  S   UNL A   1      32.996  35.814  28.936  1.00  0.00     0.124 S 
ATOM     69  O   UNL A   1      32.201  36.253  30.078  1.00  0.00    -0.237 OA
ATOM     70  O   UNL A   1      33.784  36.855  28.277  1.00  0.00    -0.237 OA
ATOM     71  O   UNL A   1      32.328  34.885  28.027  1.00  0.00    -0.744 OA
ENDBRANCH  67  68
ENDBRANCH  48  62
BRANCH  49  72
ATOM     72  C   UNL A   1      43.791  28.457  35.525  1.00  0.00    -0.014 A 
ATOM     73  C   UNL A   1      43.450  27.339  36.311  1.00  0.00     0.010 A 
ATOM     74  C   UNL A   1      45.128  28.891  35.504  1.00  0.00     0.010 A 
ATOM     75  C   UNL A   1      44.401  26.724  37.126  1.00  0.00     0.020 A 
ATOM     76  C   UNL A   1      46.094  28.252  36.291  1.00  0.00     0.020 A 
ATOM     77  C   UNL A   1      45.714  27.197  37.126  1.00  0.00     0.054 A 
BRANCH  77  78
ATOM     78  S   UNL A   1      46.917  26.431  38.249  1.00  0.00     0.124 S 
ATOM     79  O   UNL A   1      46.236  26.545  39.536  1.00  0.00    -0.237 OA
ATOM     80  O   UNL A   1      47.035  25.076  37.717  1.00  0.00    -0.237 OA
ATOM     81  O   UNL A   1      48.106  27.265  38.093  1.00  0.00    -0.744 OA
ENDBRANCH  77  78
ENDBRANCH  49  72
BRANCH  61  82
ATOM     82  C   UNL A   1      39.961  34.127  37.060  1.00  0.00    -0.014 A 
ATOM     83  C   UNL A   1      39.165  33.876  38.193  1.00  0.00     0.010 A 
ATOM     84  C   UNL A   1      40.642  35.353  36.952  1.00  0.00     0.010 A 
ATOM     85  C   UNL A   1      39.013  34.852  39.179  1.00  0.00     0.020 A 
ATOM     86  C   UNL A   1      40.514  36.321  37.952  1.00  0.00     0.020 A 
ATOM     87  C   UNL A   1      39.678  36.074  39.045  1.00  0.00     0.054 A 
BRANCH  87  88
ATOM     88  S   UNL A   1      39.431  37.347  40.312  1.00  0.00     0.124 S 
ATOM     89  O   UNL A   1      38.660  38.353  39.589  1.00  0.00    -0.237 OA
ATOM     90  O   UNL A   1      38.705  36.625  41.356  1.00  0.00    -0.237 OA
ATOM     91  O   UNL A   1      40.792  37.741  40.671  1.00  0.00    -0.744 OA
ENDBRANCH  87  88
ENDBRANCH  61  82
ENDBRANCH  35  36
ENDBRANCH  27  30
ENDBRANCH  25  26
ENDBRANCH  24  25
ENDBRANCH   1  24
TORSDOF 18
ENDMDL
MODEL 3
REMARK VINA RESULT:     -10.8      0.948      8.199
REMARK SMILES CC[C@H]1CN(C(=O)CCC(=O)NCCCCNC(=O)c2ccc(-c3c4nc(c(-c5ccc(S(=O)(=O)[O-])cc5)c5ccc([nH]5)c(-c5ccc(S(=O)(=O)[O-])cc5)c5nc(c(-c6ccc(S(=O)(=O)[O-])cc6)c6ccc3[nH]6)C=C5)C=C4)cc2)c2cc(Cl)ccc2O1
REMARK SMILES IDX 14 1 13 2 12 3 10 4 11 5 9 7 8 8 6 9 7 10 5 11 3 12 4 13
REMARK SMILES IDX 87 14 86 15 80 16 85 17 81 18 84 19 82 20 83 21 2 22 1 23
REMARK SMILES IDX 15 24 16 25 17 26 18 27 19 29 20 30 21 31 79 32 22 33 78 34
REMARK SMILES IDX 23 35 24 36 25 37 72 38 26 39 77 40 71 41 73 42 27 43 76 44
REMARK SMILES IDX 70 45 69 46 28 48 58 49 39 50 57 51 40 52 43 53 56 54 74 55
REMARK SMILES IDX 41 56 42 57 55 59 75 60 44 61 29 62 30 63 38 64 31 65 37 66
REMARK SMILES IDX 32 67 33 68 34 69 35 70 36 71 59 72 60 73 68 74 61 75 67 76
REMARK SMILES IDX 62 77 63 78 64 79 65 80 66 81 45 82 46 83 54 84 47 85 53 86
REMARK SMILES IDX 48 87 49 88 50 89 51 90 52 91
REMARK H PARENT 12 6 17 28 73 47 43 58
REMARK Flexibility Score: inf
ROOT
ATOM      1  C   UNL A   1      31.586  29.335  25.699  1.00  0.00     0.023 C 
ENDROOT
BRANCH   1   2
ATOM      2  C   UNL A   1      31.347  28.930  24.250  1.00  0.00     0.116 C 
BRANCH   2   3
ATOM      3  N   UNL A   1      32.524  29.199  23.437  1.00  0.00    -0.356 N 
ATOM      4  C   UNL A   1      33.496  28.344  23.011  1.00  0.00     0.220 C 
ATOM      5  O   UNL A   1      34.499  28.811  22.471  1.00  0.00    -0.275 OA
ATOM      6  H   UNL A   1      32.635  30.135  23.154  1.00  0.00     0.163 HD
BRANCH   4   7
ATOM      7  C   UNL A   1      33.339  26.849  23.200  1.00  0.00     0.110 C 
BRANCH   7   8
ATOM      8  C   UNL A   1      32.739  26.177  21.965  1.00  0.00     0.110 C 
BRANCH   8   9
ATOM      9  C   UNL A   1      32.898  24.659  22.037  1.00  0.00     0.227 C 
ATOM     10  O   UNL A   1      33.320  24.111  21.014  1.00  0.00    -0.275 OA
BRANCH   9  11
ATOM     11  N   UNL A   1      32.486  23.989  23.201  1.00  0.00    -0.305 N 
ATOM     12  C   UNL A   1      30.735  23.385  24.928  1.00  0.00     0.193 C 
ATOM     13  C   UNL A   1      31.063  23.812  23.503  1.00  0.00     0.170 C 
ATOM     14  O   UNL A   1      31.521  22.280  25.359  1.00  0.00    -0.486 OA
ATOM     15  C   UNL A   1      32.846  22.347  25.018  1.00  0.00     0.143 A 
ATOM     16  C   UNL A   1      33.380  23.187  24.017  1.00  0.00     0.088 A 
ATOM     17  C   UNL A   1      33.645  21.414  25.695  1.00  0.00     0.050 A 
ATOM     18  C   UNL A   1      34.761  23.085  23.776  1.00  0.00     0.050 A 
ATOM     19  C   UNL A   1      34.998  21.297  25.397  1.00  0.00     0.024 A 
ATOM     20  C   UNL A   1      35.551  22.140  24.445  1.00  0.00     0.043 A 
ATOM     21  Cl  UNL A   1      37.221  21.991  24.046  1.00  0.00    -0.084 Cl
BRANCH  12  22
ATOM     22  C   UNL A   1      30.783  24.533  25.945  1.00  0.00     0.044 C 
ATOM     23  C   UNL A   1      29.877  25.679  25.509  1.00  0.00     0.008 C 
ENDBRANCH  12  22
ENDBRANCH   9  11
ENDBRANCH   8   9
ENDBRANCH   7   8
ENDBRANCH   4   7
ENDBRANCH   2   3
ENDBRANCH   1   2
BRANCH   1  24
ATOM     24  C   UNL A   1      32.242  28.245  26.542  1.00  0.00     0.023 C 
BRANCH  24  25
ATOM     25  C   UNL A   1      33.631  28.643  27.015  1.00  0.00     0.116 C 
BRANCH  25  26
ATOM     26  N   UNL A   1      33.687  30.025  27.493  1.00  0.00    -0.352 N 
ATOM     27  C   UNL A   1      34.650  30.741  28.173  1.00  0.00     0.251 C 
ATOM     28  H   UNL A   1      32.877  30.546  27.289  1.00  0.00     0.163 HD
ATOM     29  O   UNL A   1      34.372  31.853  28.603  1.00  0.00    -0.269 OA
BRANCH  27  30
ATOM     30  C   UNL A   1      35.997  30.177  28.425  1.00  0.00     0.039 A 
ATOM     31  C   UNL A   1      36.301  29.552  29.626  1.00  0.00     0.014 A 
ATOM     32  C   UNL A   1      36.982  30.255  27.431  1.00  0.00     0.014 A 
ATOM     33  C   UNL A   1      37.619  29.264  29.941  1.00  0.00     0.010 A 
ATOM     34  C   UNL A   1      38.282  29.793  27.689  1.00  0.00     0.010 A 
ATOM     35  C   UNL A   1      38.629  29.344  28.970  1.00  0.00    -0.014 A 
BRANCH  35  36
ATOM     36  C   UNL A   1      40.002  28.904  29.344  1.00  0.00     0.031 A 
ATOM     37  C   UNL A   1      40.557  27.583  28.880  1.00  0.00     0.074 A 
ATOM     38  C   UNL A   1      40.793  29.772  30.013  1.00  0.00     0.049 A 
ATOM     39  N   UNL A   1      41.763  27.103  29.046  1.00  0.00    -0.248 NA
ATOM     40  C   UNL A   1      39.654  26.679  28.148  1.00  0.00     0.031 C 
ATOM     41  C   UNL A   1      40.361  31.086  30.507  1.00  0.00     0.029 A 
ATOM     42  N   UNL A   1      42.128  29.733  30.326  1.00  0.00    -0.354 N 
ATOM     43  C   UNL A   1      41.757  25.837  28.469  1.00  0.00     0.074 A 
ATOM     44  C   UNL A   1      40.421  25.610  27.966  1.00  0.00     0.031 C 
ATOM     45  C   UNL A   1      41.430  31.775  30.921  1.00  0.00     0.029 A 
ATOM     46  C   UNL A   1      42.605  30.916  30.845  1.00  0.00     0.049 A 
ATOM     47  H   UNL A   1      42.691  28.936  30.192  1.00  0.00     0.167 HD
ATOM     48  C   UNL A   1      42.777  24.954  28.365  1.00  0.00     0.031 A 
ATOM     49  C   UNL A   1      43.845  31.281  31.230  1.00  0.00     0.031 A 
ATOM     50  C   UNL A   1      44.111  25.209  28.843  1.00  0.00     0.049 A 
ATOM     51  C   UNL A   1      44.952  30.277  31.120  1.00  0.00     0.074 A 
ATOM     52  C   UNL A   1      45.215  24.376  28.784  1.00  0.00     0.029 A 
ATOM     53  N   UNL A   1      44.530  26.384  29.452  1.00  0.00    -0.354 N 
ATOM     54  N   UNL A   1      44.912  29.074  30.600  1.00  0.00    -0.248 NA
ATOM     55  C   UNL A   1      46.259  30.661  31.668  1.00  0.00     0.031 C 
ATOM     56  C   UNL A   1      46.283  25.021  29.410  1.00  0.00     0.029 A 
ATOM     57  C   UNL A   1      45.867  26.286  29.796  1.00  0.00     0.049 A 
ATOM     58  H   UNL A   1      43.960  27.169  29.616  1.00  0.00     0.167 HD
ATOM     59  C   UNL A   1      46.185  28.549  30.768  1.00  0.00     0.074 A 
ATOM     60  C   UNL A   1      46.982  29.579  31.405  1.00  0.00     0.031 C 
ATOM     61  C   UNL A   1      46.644  27.318  30.438  1.00  0.00     0.031 A 
BRANCH  48  62
ATOM     62  C   UNL A   1      42.511  23.618  27.717  1.00  0.00    -0.014 A 
ATOM     63  C   UNL A   1      42.028  22.551  28.499  1.00  0.00     0.010 A 
ATOM     64  C   UNL A   1      42.854  23.375  26.376  1.00  0.00     0.010 A 
ATOM     65  C   UNL A   1      41.924  21.263  27.964  1.00  0.00     0.020 A 
ATOM     66  C   UNL A   1      42.725  22.095  25.828  1.00  0.00     0.020 A 
ATOM     67  C   UNL A   1      42.285  21.042  26.633  1.00  0.00     0.054 A 
BRANCH  67  68
ATOM     68  S   UNL A   1      42.172  19.359  25.963  1.00  0.00     0.124 S 
ATOM     69  O   UNL A   1      42.806  18.566  27.011  1.00  0.00    -0.237 OA
ATOM     70  O   UNL A   1      40.730  19.170  25.813  1.00  0.00    -0.237 OA
ATOM     71  O   UNL A   1      42.912  19.443  24.706  1.00  0.00    -0.744 OA
ENDBRANCH  67  68
ENDBRANCH  48  62
BRANCH  49  72
ATOM     72  C   UNL A   1      44.069  32.659  31.753  1.00  0.00    -0.014 A 
ATOM     73  C   UNL A   1      44.340  33.719  30.864  1.00  0.00     0.010 A 
ATOM     74  C   UNL A   1      44.131  32.900  33.136  1.00  0.00     0.010 A 
ATOM     75  C   UNL A   1      44.751  34.964  31.343  1.00  0.00     0.020 A 
ATOM     76  C   UNL A   1      44.506  34.160  33.621  1.00  0.00     0.020 A 
ATOM     77  C   UNL A   1      44.850  35.170  32.720  1.00  0.00     0.054 A 
BRANCH  77  78
ATOM     78  S   UNL A   1      45.458  36.772  33.319  1.00  0.00     0.124 S 
ATOM     79  O   UNL A   1      46.737  36.399  33.918  1.00  0.00    -0.237 OA
ATOM     80  O   UNL A   1      45.544  37.562  32.093  1.00  0.00    -0.237 OA
ATOM     81  O   UNL A   1      44.425  37.197  34.260  1.00  0.00    -0.744 OA
ENDBRANCH  77  78
ENDBRANCH  49  72
BRANCH  61  82
ATOM     82  C   UNL A   1      48.073  26.988  30.770  1.00  0.00    -0.014 A 
ATOM     83  C   UNL A   1      48.384  26.392  32.006  1.00  0.00     0.010 A 
ATOM     84  C   UNL A   1      49.115  27.395  29.919  1.00  0.00     0.010 A 
ATOM     85  C   UNL A   1      49.714  26.248  32.406  1.00  0.00     0.020 A 
ATOM     86  C   UNL A   1      50.448  27.227  30.304  1.00  0.00     0.020 A 
ATOM     87  C   UNL A   1      50.737  26.680  31.557  1.00  0.00     0.054 A 
BRANCH  87  88
ATOM     88  S   UNL A   1      52.456  26.529  32.114  1.00  0.00     0.124 S 
ATOM     89  O   UNL A   1      52.306  26.493  33.565  1.00  0.00    -0.237 OA
ATOM     90  O   UNL A   1      52.886  25.277  31.493  1.00  0.00    -0.237 OA
ATOM     91  O   UNL A   1      53.095  27.729  31.581  1.00  0.00    -0.744 OA
ENDBRANCH  87  88
ENDBRANCH  61  82
ENDBRANCH  35  36
ENDBRANCH  27  30
ENDBRANCH  25  26
ENDBRANCH  24  25
ENDBRANCH   1  24
TORSDOF 18
ENDMDL
