MODEL 1
REMARK VINA RESULT:     -12.2      0.000      0.000
REMARK SMILES Cc1cccc([C@H]([NH3+])[C@H](O)C(=O)NCCCCNC(=O)c2ccc(-c3c4nc(c(-c5ccc(S(=O)(=O)[O-])cc5)c5ccc([nH]5)c(-c5ccc(S(=O)(=O)[O-])cc5)c5nc(c(-c6ccc(S(=O)(=O)[O-])cc6)c6ccc3[nH]6)C=C5)C=C4)cc2)c1
REMARK SMILES IDX 16 1 15 2 14 3 13 4 11 5 12 6 9 8 7 9 6 10 1 11 2 12 3 13
REMARK SMILES IDX 81 14 4 15 5 16 8 17 10 21 17 23 18 24 19 25 20 27 21 28
REMARK SMILES IDX 22 29 80 30 23 31 79 32 24 33 25 34 26 35 73 36 27 37 78 38
REMARK SMILES IDX 72 39 74 40 28 41 77 42 71 43 70 44 29 46 59 47 40 48 58 49
REMARK SMILES IDX 41 50 44 51 57 52 75 53 42 54 43 55 56 57 76 58 45 59 30 60
REMARK SMILES IDX 31 61 39 62 32 63 38 64 33 65 34 66 35 67 36 68 37 69 60 70
REMARK SMILES IDX 61 71 69 72 62 73 68 74 63 75 64 76 65 77 66 78 67 79 46 80
REMARK SMILES IDX 47 81 55 82 48 83 54 84 49 85 50 86 51 87 52 88 53 89
REMARK H PARENT 13 7 8 18 8 19 8 20 10 22 18 26 74 45 44 56
REMARK Flexibility Score: inf
ROOT
ATOM      1  C   UNL A   1      33.001  29.887  26.228  1.00  0.00     0.023 C 
ENDROOT
BRANCH   1   2
ATOM      2  C   UNL A   1      31.940  28.818  26.470  1.00  0.00     0.023 C 
BRANCH   2   3
ATOM      3  C   UNL A   1      32.453  27.397  26.695  1.00  0.00     0.116 C 
BRANCH   3   4
ATOM      4  N   UNL A   1      31.423  26.395  26.877  1.00  0.00    -0.354 N 
ATOM      5  C   UNL A   1      31.332  25.148  26.334  1.00  0.00     0.255 C 
ATOM      6  O   UNL A   1      30.449  24.399  26.773  1.00  0.00    -0.272 OA
ATOM      7  H   UNL A   1      30.684  26.650  27.476  1.00  0.00     0.163 HD
BRANCH   5   8
ATOM      8  C   UNL A   1      32.275  24.654  25.215  1.00  0.00     0.266 C 
BRANCH   8   9
ATOM      9  C   UNL A   1      31.688  24.857  23.771  1.00  0.00     0.250 C 
BRANCH   9  10
ATOM     10  C   UNL A   1      31.530  26.306  23.325  1.00  0.00     0.013 A 
ATOM     11  C   UNL A   1      28.771  28.917  22.861  1.00  0.00     0.044 C 
ATOM     12  C   UNL A   1      30.125  28.274  22.911  1.00  0.00    -0.051 A 
ATOM     13  C   UNL A   1      31.273  29.029  22.662  1.00  0.00     0.003 A 
ATOM     14  C   UNL A   1      30.265  26.921  23.252  1.00  0.00     0.013 A 
ATOM     15  C   UNL A   1      32.530  28.428  22.690  1.00  0.00     0.001 A 
ATOM     16  C   UNL A   1      32.657  27.070  22.987  1.00  0.00     0.010 A 
ENDBRANCH   9  10
BRANCH   9  17
ATOM     17  N   UNL A   1      30.362  24.189  23.658  1.00  0.00    -0.349 N 
ATOM     18  H   UNL A   1      30.493  23.219  23.371  1.00  0.00     0.345 HD
ATOM     19  H   UNL A   1      29.795  24.675  22.965  1.00  0.00     0.345 HD
ATOM     20  H   UNL A   1      29.891  24.215  24.563  1.00  0.00     0.345 HD
ENDBRANCH   9  17
ENDBRANCH   8   9
BRANCH   8  21
ATOM     21  O   UNL A   1      32.844  23.371  25.461  1.00  0.00    -0.378 OA
ATOM     22  H   UNL A   1      33.801  23.461  25.590  1.00  0.00     0.211 HD
ENDBRANCH   8  21
ENDBRANCH   5   8
ENDBRANCH   3   4
ENDBRANCH   2   3
ENDBRANCH   1   2
BRANCH   1  23
ATOM     23  C   UNL A   1      34.343  29.635  26.905  1.00  0.00     0.116 C 
BRANCH  23  24
ATOM     24  N   UNL A   1      35.061  30.850  27.254  1.00  0.00    -0.352 N 
ATOM     25  C   UNL A   1      36.240  30.969  27.972  1.00  0.00     0.251 C 
ATOM     26  H   UNL A   1      34.660  31.693  26.940  1.00  0.00     0.163 HD
ATOM     27  O   UNL A   1      36.576  32.020  28.495  1.00  0.00    -0.269 OA
BRANCH  25  28
ATOM     28  C   UNL A   1      37.161  29.811  27.964  1.00  0.00     0.039 A 
ATOM     29  C   UNL A   1      37.185  29.003  29.108  1.00  0.00     0.014 A 
ATOM     30  C   UNL A   1      38.133  29.676  26.978  1.00  0.00     0.014 A 
ATOM     31  C   UNL A   1      38.292  28.197  29.356  1.00  0.00     0.010 A 
ATOM     32  C   UNL A   1      39.275  28.961  27.274  1.00  0.00     0.010 A 
ATOM     33  C   UNL A   1      39.377  28.263  28.485  1.00  0.00    -0.014 A 
BRANCH  33  34
ATOM     34  C   UNL A   1      40.691  27.701  28.767  1.00  0.00     0.031 A 
ATOM     35  C   UNL A   1      40.956  26.272  28.477  1.00  0.00     0.074 A 
ATOM     36  C   UNL A   1      41.696  28.515  29.161  1.00  0.00     0.049 A 
ATOM     37  N   UNL A   1      41.978  25.615  28.915  1.00  0.00    -0.248 NA
ATOM     38  C   UNL A   1      40.024  25.433  27.721  1.00  0.00     0.031 C 
ATOM     39  C   UNL A   1      43.127  28.223  29.124  1.00  0.00     0.029 A 
ATOM     40  N   UNL A   1      41.619  29.705  29.892  1.00  0.00    -0.354 N 
ATOM     41  C   UNL A   1      42.003  24.405  28.261  1.00  0.00     0.074 A 
ATOM     42  C   UNL A   1      40.708  24.288  27.641  1.00  0.00     0.031 C 
ATOM     43  C   UNL A   1      43.748  28.998  30.027  1.00  0.00     0.029 A 
ATOM     44  C   UNL A   1      42.712  29.692  30.775  1.00  0.00     0.049 A 
ATOM     45  H   UNL A   1      40.936  30.410  29.806  1.00  0.00     0.167 HD
ATOM     46  C   UNL A   1      43.171  23.705  28.197  1.00  0.00     0.031 A 
ATOM     47  C   UNL A   1      42.599  29.691  32.136  1.00  0.00     0.031 A 
ATOM     48  C   UNL A   1      44.161  24.240  29.130  1.00  0.00     0.049 A 
ATOM     49  C   UNL A   1      43.262  28.495  32.786  1.00  0.00     0.074 A 
ATOM     50  C   UNL A   1      45.300  25.009  28.975  1.00  0.00     0.029 A 
ATOM     51  N   UNL A   1      43.875  24.224  30.491  1.00  0.00    -0.354 N 
ATOM     52  N   UNL A   1      43.637  27.425  32.137  1.00  0.00    -0.248 NA
ATOM     53  C   UNL A   1      43.514  28.387  34.221  1.00  0.00     0.031 C 
ATOM     54  C   UNL A   1      45.625  25.560  30.246  1.00  0.00     0.029 A 
ATOM     55  C   UNL A   1      44.715  25.081  31.175  1.00  0.00     0.049 A 
ATOM     56  H   UNL A   1      43.171  23.677  30.910  1.00  0.00     0.167 HD
ATOM     57  C   UNL A   1      44.137  26.503  33.016  1.00  0.00     0.074 A 
ATOM     58  C   UNL A   1      44.058  27.161  34.308  1.00  0.00     0.031 C 
ATOM     59  C   UNL A   1      44.556  25.267  32.612  1.00  0.00     0.031 A 
BRANCH  46  60
ATOM     60  C   UNL A   1      43.499  22.679  27.127  1.00  0.00    -0.014 A 
ATOM     61  C   UNL A   1      42.648  21.568  26.941  1.00  0.00     0.010 A 
ATOM     62  C   UNL A   1      44.683  22.675  26.363  1.00  0.00     0.010 A 
ATOM     63  C   UNL A   1      42.981  20.506  26.079  1.00  0.00     0.020 A 
ATOM     64  C   UNL A   1      45.018  21.636  25.481  1.00  0.00     0.020 A 
ATOM     65  C   UNL A   1      44.175  20.543  25.360  1.00  0.00     0.054 A 
BRANCH  65  66
ATOM     66  S   UNL A   1      44.635  19.149  24.299  1.00  0.00     0.124 S 
ATOM     67  O   UNL A   1      43.684  18.119  24.710  1.00  0.00    -0.237 OA
ATOM     68  O   UNL A   1      44.442  19.691  22.958  1.00  0.00    -0.237 OA
ATOM     69  O   UNL A   1      46.027  18.881  24.662  1.00  0.00    -0.744 OA
ENDBRANCH  65  66
ENDBRANCH  46  60
BRANCH  47  70
ATOM     70  C   UNL A   1      41.386  30.378  32.656  1.00  0.00    -0.014 A 
ATOM     71  C   UNL A   1      40.258  29.575  32.929  1.00  0.00     0.010 A 
ATOM     72  C   UNL A   1      41.495  31.636  33.275  1.00  0.00     0.010 A 
ATOM     73  C   UNL A   1      39.367  29.930  33.943  1.00  0.00     0.020 A 
ATOM     74  C   UNL A   1      40.599  31.993  34.293  1.00  0.00     0.020 A 
ATOM     75  C   UNL A   1      39.592  31.100  34.668  1.00  0.00     0.054 A 
BRANCH  75  76
ATOM     76  S   UNL A   1      38.694  31.313  36.236  1.00  0.00     0.124 S 
ATOM     77  O   UNL A   1      37.526  32.084  35.825  1.00  0.00    -0.237 OA
ATOM     78  O   UNL A   1      38.432  29.924  36.612  1.00  0.00    -0.237 OA
ATOM     79  O   UNL A   1      39.654  32.018  37.077  1.00  0.00    -0.744 OA
ENDBRANCH  75  76
ENDBRANCH  47  70
BRANCH  59  80
ATOM     80  C   UNL A   1      44.915  24.122  33.530  1.00  0.00    -0.014 A 
ATOM     81  C   UNL A   1      44.073  23.030  33.791  1.00  0.00     0.010 A 
ATOM     82  C   UNL A   1      46.222  24.066  34.070  1.00  0.00     0.010 A 
ATOM     83  C   UNL A   1      44.486  21.969  34.609  1.00  0.00     0.020 A 
ATOM     84  C   UNL A   1      46.660  22.991  34.850  1.00  0.00     0.020 A 
ATOM     85  C   UNL A   1      45.776  21.959  35.140  1.00  0.00     0.054 A 
BRANCH  85  86
ATOM     86  S   UNL A   1      46.324  20.560  36.151  1.00  0.00     0.124 S 
ATOM     87  O   UNL A   1      45.813  19.423  35.390  1.00  0.00    -0.237 OA
ATOM     88  O   UNL A   1      47.778  20.705  36.157  1.00  0.00    -0.237 OA
ATOM     89  O   UNL A   1      45.677  20.799  37.439  1.00  0.00    -0.744 OA
ENDBRANCH  85  86
ENDBRANCH  59  80
ENDBRANCH  33  34
ENDBRANCH  25  28
ENDBRANCH  23  24
ENDBRANCH   1  23
TORSDOF 18
ENDMDL
MODEL 2
REMARK VINA RESULT:     -12.1      5.290     11.689
REMARK SMILES Cc1cccc([C@H]([NH3+])[C@H](O)C(=O)NCCCCNC(=O)c2ccc(-c3c4nc(c(-c5ccc(S(=O)(=O)[O-])cc5)c5ccc([nH]5)c(-c5ccc(S(=O)(=O)[O-])cc5)c5nc(c(-c6ccc(S(=O)(=O)[O-])cc6)c6ccc3[nH]6)C=C5)C=C4)cc2)c1
REMARK SMILES IDX 16 1 15 2 14 3 13 4 11 5 12 6 9 8 7 9 6 10 1 11 2 12 3 13
REMARK SMILES IDX 81 14 4 15 5 16 8 17 10 21 17 23 18 24 19 25 20 27 21 28
REMARK SMILES IDX 22 29 80 30 23 31 79 32 24 33 25 34 26 35 73 36 27 37 78 38
REMARK SMILES IDX 72 39 74 40 28 41 77 42 71 43 70 44 29 46 59 47 40 48 58 49
REMARK SMILES IDX 41 50 44 51 57 52 75 53 42 54 43 55 56 57 76 58 45 59 30 60
REMARK SMILES IDX 31 61 39 62 32 63 38 64 33 65 34 66 35 67 36 68 37 69 60 70
REMARK SMILES IDX 61 71 69 72 62 73 68 74 63 75 64 76 65 77 66 78 67 79 46 80
REMARK SMILES IDX 47 81 55 82 48 83 54 84 49 85 50 86 51 87 52 88 53 89
REMARK H PARENT 13 7 8 18 8 19 8 20 10 22 18 26 74 45 44 56
REMARK Flexibility Score: inf
ROOT
ATOM      1  C   UNL A   1      37.434  22.514  25.085  1.00  0.00     0.023 C 
ENDROOT
BRANCH   1   2
ATOM      2  C   UNL A   1      36.785  22.981  23.786  1.00  0.00     0.023 C 
BRANCH   2   3
ATOM      3  C   UNL A   1      35.289  22.706  23.643  1.00  0.00     0.116 C 
BRANCH   3   4
ATOM      4  N   UNL A   1      34.441  23.428  24.571  1.00  0.00    -0.354 N 
ATOM      5  C   UNL A   1      33.950  23.024  25.777  1.00  0.00     0.255 C 
ATOM      6  O   UNL A   1      33.390  23.878  26.477  1.00  0.00    -0.272 OA
ATOM      7  H   UNL A   1      34.184  24.336  24.292  1.00  0.00     0.163 HD
BRANCH   5   8
ATOM      8  C   UNL A   1      34.068  21.569  26.282  1.00  0.00     0.266 C 
BRANCH   8   9
ATOM      9  C   UNL A   1      32.729  20.755  26.153  1.00  0.00     0.250 C 
BRANCH   9  10
ATOM     10  C   UNL A   1      32.746  19.621  25.134  1.00  0.00     0.013 A 
ATOM     11  C   UNL A   1      33.000  15.804  25.044  1.00  0.00     0.044 C 
ATOM     12  C   UNL A   1      32.851  17.229  24.601  1.00  0.00    -0.051 A 
ATOM     13  C   UNL A   1      32.606  17.527  23.259  1.00  0.00     0.003 A 
ATOM     14  C   UNL A   1      32.907  18.278  25.529  1.00  0.00     0.013 A 
ATOM     15  C   UNL A   1      32.486  18.852  22.844  1.00  0.00     0.001 A 
ATOM     16  C   UNL A   1      32.587  19.894  23.768  1.00  0.00     0.010 A 
ENDBRANCH   9  10
BRANCH   9  17
ATOM     17  N   UNL A   1      31.604  21.668  25.813  1.00  0.00    -0.349 N 
ATOM     18  H   UNL A   1      31.493  22.361  26.554  1.00  0.00     0.345 HD
ATOM     19  H   UNL A   1      30.744  21.128  25.721  1.00  0.00     0.345 HD
ATOM     20  H   UNL A   1      31.805  22.141  24.932  1.00  0.00     0.345 HD
ENDBRANCH   9  17
ENDBRANCH   8   9
BRANCH   8  21
ATOM     21  O   UNL A   1      34.733  21.443  27.535  1.00  0.00    -0.378 OA
ATOM     22  H   UNL A   1      35.527  22.000  27.537  1.00  0.00     0.211 HD
ENDBRANCH   8  21
ENDBRANCH   5   8
ENDBRANCH   3   4
ENDBRANCH   2   3
ENDBRANCH   1   2
BRANCH   1  23
ATOM     23  C   UNL A   1      37.935  23.628  25.998  1.00  0.00     0.116 C 
BRANCH  23  24
ATOM     24  N   UNL A   1      39.023  23.223  26.873  1.00  0.00    -0.352 N 
ATOM     25  C   UNL A   1      39.960  24.029  27.500  1.00  0.00     0.251 C 
ATOM     26  H   UNL A   1      39.103  22.256  27.043  1.00  0.00     0.163 HD
ATOM     27  O   UNL A   1      41.013  23.584  27.927  1.00  0.00    -0.269 OA
BRANCH  25  28
ATOM     28  C   UNL A   1      39.578  25.434  27.767  1.00  0.00     0.039 A 
ATOM     29  C   UNL A   1      40.121  26.416  26.930  1.00  0.00     0.014 A 
ATOM     30  C   UNL A   1      38.918  25.784  28.940  1.00  0.00     0.014 A 
ATOM     31  C   UNL A   1      40.175  27.737  27.366  1.00  0.00     0.010 A 
ATOM     32  C   UNL A   1      39.065  27.070  29.418  1.00  0.00     0.010 A 
ATOM     33  C   UNL A   1      39.737  28.034  28.654  1.00  0.00    -0.014 A 
BRANCH  33  34
ATOM     34  C   UNL A   1      39.991  29.297  29.336  1.00  0.00     0.031 A 
ATOM     35  C   UNL A   1      38.984  30.383  29.268  1.00  0.00     0.074 A 
ATOM     36  C   UNL A   1      41.076  29.421  30.134  1.00  0.00     0.049 A 
ATOM     37  N   UNL A   1      39.208  31.608  29.608  1.00  0.00    -0.248 NA
ATOM     38  C   UNL A   1      37.640  30.181  28.722  1.00  0.00     0.031 C 
ATOM     39  C   UNL A   1      41.293  30.431  31.167  1.00  0.00     0.029 A 
ATOM     40  N   UNL A   1      42.315  28.783  30.025  1.00  0.00    -0.354 N 
ATOM     41  C   UNL A   1      37.995  32.260  29.627  1.00  0.00     0.074 A 
ATOM     42  C   UNL A   1      37.085  31.376  28.945  1.00  0.00     0.031 C 
ATOM     43  C   UNL A   1      42.613  30.559  31.371  1.00  0.00     0.029 A 
ATOM     44  C   UNL A   1      43.279  29.748  30.365  1.00  0.00     0.049 A 
ATOM     45  H   UNL A   1      42.480  27.849  29.762  1.00  0.00     0.167 HD
ATOM     46  C   UNL A   1      37.867  33.409  30.348  1.00  0.00     0.031 A 
ATOM     47  C   UNL A   1      44.245  30.201  29.513  1.00  0.00     0.031 A 
ATOM     48  C   UNL A   1      39.172  33.932  30.747  1.00  0.00     0.049 A 
ATOM     49  C   UNL A   1      44.189  31.698  29.294  1.00  0.00     0.074 A 
ATOM     50  C   UNL A   1      39.865  33.957  31.944  1.00  0.00     0.029 A 
ATOM     51  N   UNL A   1      40.078  34.298  29.757  1.00  0.00    -0.354 N 
ATOM     52  N   UNL A   1      43.171  32.446  29.622  1.00  0.00    -0.248 NA
ATOM     53  C   UNL A   1      45.252  32.464  28.647  1.00  0.00     0.031 C 
ATOM     54  C   UNL A   1      41.232  34.220  31.647  1.00  0.00     0.029 A 
ATOM     55  C   UNL A   1      41.352  34.407  30.279  1.00  0.00     0.049 A 
ATOM     56  H   UNL A   1      39.843  34.458  28.815  1.00  0.00     0.167 HD
ATOM     57  C   UNL A   1      43.401  33.738  29.231  1.00  0.00     0.074 A 
ATOM     58  C   UNL A   1      44.729  33.702  28.644  1.00  0.00     0.031 C 
ATOM     59  C   UNL A   1      42.475  34.726  29.405  1.00  0.00     0.031 A 
BRANCH  46  60
ATOM     60  C   UNL A   1      36.552  33.939  30.891  1.00  0.00    -0.014 A 
ATOM     61  C   UNL A   1      35.442  34.067  30.028  1.00  0.00     0.010 A 
ATOM     62  C   UNL A   1      36.373  34.447  32.193  1.00  0.00     0.010 A 
ATOM     63  C   UNL A   1      34.249  34.697  30.431  1.00  0.00     0.020 A 
ATOM     64  C   UNL A   1      35.183  35.056  32.618  1.00  0.00     0.020 A 
ATOM     65  C   UNL A   1      34.133  35.200  31.726  1.00  0.00     0.054 A 
BRANCH  65  66
ATOM     66  S   UNL A   1      32.623  36.067  32.226  1.00  0.00     0.124 S 
ATOM     67  O   UNL A   1      32.215  36.721  30.985  1.00  0.00    -0.237 OA
ATOM     68  O   UNL A   1      31.764  34.978  32.680  1.00  0.00    -0.237 OA
ATOM     69  O   UNL A   1      33.077  36.975  33.279  1.00  0.00    -0.744 OA
ENDBRANCH  65  66
ENDBRANCH  46  60
BRANCH  47  70
ATOM     70  C   UNL A   1      44.687  29.208  28.496  1.00  0.00    -0.014 A 
ATOM     71  C   UNL A   1      45.588  28.208  28.921  1.00  0.00     0.010 A 
ATOM     72  C   UNL A   1      43.917  28.986  27.340  1.00  0.00     0.010 A 
ATOM     73  C   UNL A   1      45.574  26.946  28.327  1.00  0.00     0.020 A 
ATOM     74  C   UNL A   1      43.903  27.719  26.742  1.00  0.00     0.020 A 
ATOM     75  C   UNL A   1      44.675  26.690  27.291  1.00  0.00     0.054 A 
BRANCH  75  76
ATOM     76  S   UNL A   1      44.373  24.955  26.838  1.00  0.00     0.124 S 
ATOM     77  O   UNL A   1      44.154  24.326  28.136  1.00  0.00    -0.237 OA
ATOM     78  O   UNL A   1      43.188  25.077  25.989  1.00  0.00    -0.237 OA
ATOM     79  O   UNL A   1      45.600  24.572  26.148  1.00  0.00    -0.744 OA
ENDBRANCH  75  76
ENDBRANCH  47  70
BRANCH  59  80
ATOM     80  C   UNL A   1      42.557  36.115  28.817  1.00  0.00    -0.014 A 
ATOM     81  C   UNL A   1      43.255  37.179  29.408  1.00  0.00     0.010 A 
ATOM     82  C   UNL A   1      42.009  36.344  27.532  1.00  0.00     0.010 A 
ATOM     83  C   UNL A   1      43.342  38.433  28.784  1.00  0.00     0.020 A 
ATOM     84  C   UNL A   1      42.129  37.575  26.880  1.00  0.00     0.020 A 
ATOM     85  C   UNL A   1      42.771  38.625  27.525  1.00  0.00     0.054 A 
BRANCH  85  86
ATOM     86  S   UNL A   1      42.932  40.228  26.699  1.00  0.00     0.124 S 
ATOM     87  O   UNL A   1      44.064  39.991  25.806  1.00  0.00    -0.237 OA
ATOM     88  O   UNL A   1      41.639  40.392  26.039  1.00  0.00    -0.237 OA
ATOM     89  O   UNL A   1      43.182  41.154  27.800  1.00  0.00    -0.744 OA
ENDBRANCH  85  86
ENDBRANCH  59  80
ENDBRANCH  33  34
ENDBRANCH  25  28
ENDBRANCH  23  24
ENDBRANCH   1  23
TORSDOF 18
ENDMDL
MODEL 3
REMARK VINA RESULT:     -11.7      5.035     11.402
REMARK SMILES Cc1cccc([C@H]([NH3+])[C@H](O)C(=O)NCCCCNC(=O)c2ccc(-c3c4nc(c(-c5ccc(S(=O)(=O)[O-])cc5)c5ccc([nH]5)c(-c5ccc(S(=O)(=O)[O-])cc5)c5nc(c(-c6ccc(S(=O)(=O)[O-])cc6)c6ccc3[nH]6)C=C5)C=C4)cc2)c1
REMARK SMILES IDX 16 1 15 2 14 3 13 4 11 5 12 6 9 8 7 9 6 10 1 11 2 12 3 13
REMARK SMILES IDX 81 14 4 15 5 16 8 17 10 21 17 23 18 24 19 25 20 27 21 28
REMARK SMILES IDX 22 29 80 30 23 31 79 32 24 33 25 34 26 35 73 36 27 37 78 38
REMARK SMILES IDX 72 39 74 40 28 41 77 42 71 43 70 44 29 46 59 47 40 48 58 49
REMARK SMILES IDX 41 50 44 51 57 52 75 53 42 54 43 55 56 57 76 58 45 59 30 60
REMARK SMILES IDX 31 61 39 62 32 63 38 64 33 65 34 66 35 67 36 68 37 69 60 70
REMARK SMILES IDX 61 71 69 72 62 73 68 74 63 75 64 76 65 77 66 78 67 79 46 80
REMARK SMILES IDX 47 81 55 82 48 83 54 84 49 85 50 86 51 87 52 88 53 89
REMARK H PARENT 13 7 8 18 8 19 8 20 10 22 18 26 74 45 44 56
REMARK Flexibility Score: inf
ROOT
ATOM      1  C   UNL A   1      36.490  23.188  26.490  1.00  0.00     0.023 C 
ENDROOT
BRANCH   1   2
ATOM      2  C   UNL A   1      35.593  22.340  25.595  1.00  0.00     0.023 C 
BRANCH   2   3
ATOM      3  C   UNL A   1      34.715  23.103  24.603  1.00  0.00     0.116 C 
BRANCH   3   4
ATOM      4  N   UNL A   1      33.739  22.295  23.900  1.00  0.00    -0.354 N 
ATOM      5  C   UNL A   1      32.919  22.643  22.868  1.00  0.00     0.255 C 
ATOM      6  O   UNL A   1      32.291  21.734  22.310  1.00  0.00    -0.272 OA
ATOM      7  H   UNL A   1      33.656  21.364  24.212  1.00  0.00     0.163 HD
BRANCH   5   8
ATOM      8  C   UNL A   1      32.755  24.102  22.389  1.00  0.00     0.266 C 
BRANCH   8   9
ATOM      9  C   UNL A   1      31.435  24.782  22.904  1.00  0.00     0.250 C 
BRANCH   9  10
ATOM     10  C   UNL A   1      31.554  25.523  24.231  1.00  0.00     0.013 A 
ATOM     11  C   UNL A   1      34.058  27.721  26.113  1.00  0.00     0.044 C 
ATOM     12  C   UNL A   1      32.811  26.964  25.768  1.00  0.00    -0.051 A 
ATOM     13  C   UNL A   1      31.695  27.026  26.606  1.00  0.00     0.003 A 
ATOM     14  C   UNL A   1      32.726  26.223  24.582  1.00  0.00     0.013 A 
ATOM     15  C   UNL A   1      30.542  26.308  26.296  1.00  0.00     0.001 A 
ATOM     16  C   UNL A   1      30.481  25.537  25.134  1.00  0.00     0.010 A 
ENDBRANCH   9  10
BRANCH   9  17
ATOM     17  N   UNL A   1      30.352  23.768  23.034  1.00  0.00    -0.349 N 
ATOM     18  H   UNL A   1      29.651  23.926  22.310  1.00  0.00     0.345 HD
ATOM     19  H   UNL A   1      29.918  23.850  23.952  1.00  0.00     0.345 HD
ATOM     20  H   UNL A   1      30.748  22.834  22.927  1.00  0.00     0.345 HD
ENDBRANCH   9  17
ENDBRANCH   8   9
BRANCH   8  21
ATOM     21  O   UNL A   1      33.030  24.290  21.004  1.00  0.00    -0.378 OA
ATOM     22  H   UNL A   1      33.641  23.602  20.699  1.00  0.00     0.211 HD
ENDBRANCH   8  21
ENDBRANCH   5   8
ENDBRANCH   3   4
ENDBRANCH   2   3
ENDBRANCH   1   2
BRANCH   1  23
ATOM     23  C   UNL A   1      37.889  23.452  25.946  1.00  0.00     0.116 C 
BRANCH  23  24
ATOM     24  N   UNL A   1      38.955  23.032  26.842  1.00  0.00    -0.352 N 
ATOM     25  C   UNL A   1      39.877  23.828  27.504  1.00  0.00     0.251 C 
ATOM     26  H   UNL A   1      39.029  22.063  27.000  1.00  0.00     0.163 HD
ATOM     27  O   UNL A   1      40.918  23.375  27.951  1.00  0.00    -0.269 OA
BRANCH  25  28
ATOM     28  C   UNL A   1      39.490  25.229  27.782  1.00  0.00     0.039 A 
ATOM     29  C   UNL A   1      39.990  26.215  26.922  1.00  0.00     0.014 A 
ATOM     30  C   UNL A   1      38.871  25.576  28.978  1.00  0.00     0.014 A 
ATOM     31  C   UNL A   1      40.045  27.537  27.352  1.00  0.00     0.010 A 
ATOM     32  C   UNL A   1      39.022  26.865  29.447  1.00  0.00     0.010 A 
ATOM     33  C   UNL A   1      39.654  27.834  28.655  1.00  0.00    -0.014 A 
BRANCH  33  34
ATOM     34  C   UNL A   1      39.919  29.102  29.323  1.00  0.00     0.031 A 
ATOM     35  C   UNL A   1      38.932  30.203  29.228  1.00  0.00     0.074 A 
ATOM     36  C   UNL A   1      40.996  29.218  30.134  1.00  0.00     0.049 A 
ATOM     37  N   UNL A   1      39.171  31.428  29.554  1.00  0.00    -0.248 NA
ATOM     38  C   UNL A   1      37.592  30.015  28.667  1.00  0.00     0.031 C 
ATOM     39  C   UNL A   1      41.217  30.239  31.156  1.00  0.00     0.029 A 
ATOM     40  N   UNL A   1      42.227  28.560  30.050  1.00  0.00    -0.354 N 
ATOM     41  C   UNL A   1      37.970  32.100  29.550  1.00  0.00     0.074 A 
ATOM     42  C   UNL A   1      37.054  31.222  28.867  1.00  0.00     0.031 C 
ATOM     43  C   UNL A   1      42.536  30.348  31.376  1.00  0.00     0.029 A 
ATOM     44  C   UNL A   1      43.202  29.512  30.389  1.00  0.00     0.049 A 
ATOM     45  H   UNL A   1      42.379  27.619  29.801  1.00  0.00     0.167 HD
ATOM     46  C   UNL A   1      37.851  33.260  30.254  1.00  0.00     0.031 A 
ATOM     47  C   UNL A   1      44.186  29.939  29.544  1.00  0.00     0.031 A 
ATOM     48  C   UNL A   1      39.159  33.768  30.663  1.00  0.00     0.049 A 
ATOM     49  C   UNL A   1      44.157  31.433  29.304  1.00  0.00     0.074 A 
ATOM     50  C   UNL A   1      39.837  33.797  31.868  1.00  0.00     0.029 A 
ATOM     51  N   UNL A   1      40.084  34.106  29.680  1.00  0.00    -0.354 N 
ATOM     52  N   UNL A   1      43.147  32.202  29.609  1.00  0.00    -0.248 NA
ATOM     53  C   UNL A   1      45.241  32.173  28.662  1.00  0.00     0.031 C 
ATOM     54  C   UNL A   1      41.212  34.034  31.585  1.00  0.00     0.029 A 
ATOM     55  C   UNL A   1      41.353  34.201  30.217  1.00  0.00     0.049 A 
ATOM     56  H   UNL A   1      39.863  34.257  28.732  1.00  0.00     0.167 HD
ATOM     57  C   UNL A   1      43.404  33.485  29.204  1.00  0.00     0.074 A 
ATOM     58  C   UNL A   1      44.738  33.420  28.635  1.00  0.00     0.031 C 
ATOM     59  C   UNL A   1      42.492  34.490  29.353  1.00  0.00     0.031 A 
BRANCH  46  60
ATOM     60  C   UNL A   1      36.538  33.819  30.772  1.00  0.00    -0.014 A 
ATOM     61  C   UNL A   1      35.477  34.059  29.872  1.00  0.00     0.010 A 
ATOM     62  C   UNL A   1      36.322  34.249  32.097  1.00  0.00     0.010 A 
ATOM     63  C   UNL A   1      34.298  34.720  30.263  1.00  0.00     0.020 A 
ATOM     64  C   UNL A   1      35.143  34.888  32.508  1.00  0.00     0.020 A 
ATOM     65  C   UNL A   1      34.143  35.143  31.582  1.00  0.00     0.054 A 
BRANCH  65  66
ATOM     66  S   UNL A   1      32.654  36.050  32.073  1.00  0.00     0.124 S 
ATOM     67  O   UNL A   1      31.772  34.977  32.526  1.00  0.00    -0.237 OA
ATOM     68  O   UNL A   1      33.152  36.943  33.115  1.00  0.00    -0.237 OA
ATOM     69  O   UNL A   1      32.231  36.714  30.840  1.00  0.00    -0.744 OA
ENDBRANCH  65  66
ENDBRANCH  46  60
BRANCH  47  70
ATOM     70  C   UNL A   1      44.625  28.925  28.546  1.00  0.00    -0.014 A 
ATOM     71  C   UNL A   1      44.038  28.987  27.264  1.00  0.00     0.010 A 
ATOM     72  C   UNL A   1      45.856  28.264  28.702  1.00  0.00     0.010 A 
ATOM     73  C   UNL A   1      44.755  28.578  26.139  1.00  0.00     0.020 A 
ATOM     74  C   UNL A   1      46.576  27.851  27.572  1.00  0.00     0.020 A 
ATOM     75  C   UNL A   1      46.050  28.085  26.298  1.00  0.00     0.054 A 
BRANCH  75  76
ATOM     76  S   UNL A   1      47.104  27.973  24.820  1.00  0.00     0.124 S 
ATOM     77  O   UNL A   1      48.439  28.170  25.372  1.00  0.00    -0.237 OA
ATOM     78  O   UNL A   1      46.808  26.618  24.353  1.00  0.00    -0.237 OA
ATOM     79  O   UNL A   1      46.604  29.050  23.972  1.00  0.00    -0.744 OA
ENDBRANCH  75  76
ENDBRANCH  47  70
BRANCH  59  80
ATOM     80  C   UNL A   1      42.604  35.870  28.748  1.00  0.00    -0.014 A 
ATOM     81  C   UNL A   1      41.972  36.259  27.556  1.00  0.00     0.010 A 
ATOM     82  C   UNL A   1      43.277  36.880  29.475  1.00  0.00     0.010 A 
ATOM     83  C   UNL A   1      42.068  37.572  27.074  1.00  0.00     0.020 A 
ATOM     84  C   UNL A   1      43.341  38.203  29.027  1.00  0.00     0.020 A 
ATOM     85  C   UNL A   1      42.759  38.535  27.810  1.00  0.00     0.054 A 
BRANCH  85  86
ATOM     86  S   UNL A   1      42.834  40.243  27.211  1.00  0.00     0.124 S 
ATOM     87  O   UNL A   1      41.454  40.475  26.793  1.00  0.00    -0.237 OA
ATOM     88  O   UNL A   1      43.263  40.989  28.391  1.00  0.00    -0.237 OA
ATOM     89  O   UNL A   1      43.817  40.181  26.132  1.00  0.00    -0.744 OA
ENDBRANCH  85  86
ENDBRANCH  59  80
ENDBRANCH  33  34
ENDBRANCH  25  28
ENDBRANCH  23  24
ENDBRANCH   1  23
TORSDOF 18
ENDMDL
