MODEL 1
REMARK VINA RESULT:     -12.5      0.000      0.000
REMARK SMILES C[C@@H]1CC[C@H](C)[N@H+]1Cc1cc2c(cc1Cl)C=C(C(=O)NCCCCNC(=O)c1ccc(-c3c4nc(c(-c5ccc(S(=O)(=O)[O-])cc5)c5ccc([nH]5)c(-c5ccc(S(=O)(=O)[O-])cc5)c5nc(c(-c6ccc(S(=O)(=O)[O-])cc6)c6ccc3[nH]6)C=C5)C=C4)cc1)[C@@H](C(F)(F)F)O2
REMARK SMILES IDX 23 1 22 2 21 3 20 4 18 5 19 6 17 8 9 9 10 10 14 11 11 12
REMARK SMILES IDX 13 13 15 14 12 15 93 16 16 17 88 18 8 19 7 20 6 21 5 22 4 23
REMARK SMILES IDX 3 24 2 25 1 27 89 28 90 29 91 30 92 31 24 32 25 33 26 34
REMARK SMILES IDX 27 36 28 37 29 38 87 39 30 40 86 41 31 42 32 43 33 44 80 45
REMARK SMILES IDX 34 46 85 47 79 48 81 49 35 50 84 51 78 52 77 53 36 55 66 56
REMARK SMILES IDX 47 57 65 58 48 59 51 60 64 61 82 62 49 63 50 64 63 66 83 67
REMARK SMILES IDX 52 68 37 69 38 70 46 71 39 72 45 73 40 74 41 75 42 76 43 77
REMARK SMILES IDX 44 78 67 79 68 80 76 81 69 82 75 83 70 84 71 85 72 86 73 87
REMARK SMILES IDX 74 88 53 89 54 90 62 91 55 92 61 93 56 94 57 95 58 96 59 97
REMARK SMILES IDX 60 98
REMARK H PARENT 20 7 7 26 25 35 81 54 51 65
REMARK Flexibility Score: inf
ROOT
ATOM      1  C   UNL A   1      37.256  23.707  25.158  1.00  0.00     0.023 C 
ENDROOT
BRANCH   1   2
ATOM      2  C   UNL A   1      37.441  22.268  24.675  1.00  0.00     0.023 C 
BRANCH   2   3
ATOM      3  C   UNL A   1      37.207  21.210  25.750  1.00  0.00     0.116 C 
BRANCH   3   4
ATOM      4  N   UNL A   1      36.336  20.146  25.283  1.00  0.00    -0.352 N 
ATOM      5  C   UNL A   1      35.047  20.033  24.889  1.00  0.00     0.251 C 
ATOM      6  O   UNL A   1      34.698  18.901  24.539  1.00  0.00    -0.270 OA
ATOM      7  H   UNL A   1      36.807  19.283  25.242  1.00  0.00     0.163 HD
BRANCH   5   8
ATOM      8  C   UNL A   1      34.056  21.145  24.859  1.00  0.00     0.067 C 
ATOM      9  C   UNL A   1      31.071  24.939  23.359  1.00  0.00     0.029 A 
ATOM     10  C   UNL A   1      30.972  23.919  24.326  1.00  0.00     0.058 A 
ATOM     11  C   UNL A   1      32.271  25.037  22.634  1.00  0.00     0.050 A 
ATOM     12  C   UNL A   1      31.988  22.983  24.483  1.00  0.00     0.128 A 
ATOM     13  C   UNL A   1      33.266  24.056  22.755  1.00  0.00     0.033 A 
ATOM     14  Cl  UNL A   1      32.640  26.384  21.614  1.00  0.00    -0.084 Cl
ATOM     15  C   UNL A   1      33.113  23.011  23.662  1.00  0.00     0.019 A 
ATOM     16  O   UNL A   1      31.816  22.026  25.444  1.00  0.00    -0.475 OA
ATOM     17  C   UNL A   1      34.084  21.927  23.762  1.00  0.00     0.025 C 
ATOM     18  C   UNL A   1      33.059  21.446  25.942  1.00  0.00     0.314 C 
BRANCH   9  19
ATOM     19  C   UNL A   1      29.869  25.842  23.149  1.00  0.00     0.301 C 
BRANCH  19  20
ATOM     20  N   UNL A   1      29.879  27.138  23.850  1.00  0.00    -0.327 N 
ATOM     21  C   UNL A   1      27.929  28.548  23.262  1.00  0.00     0.075 C 
ATOM     22  C   UNL A   1      29.423  28.311  23.087  1.00  0.00     0.181 C 
ATOM     23  C   UNL A   1      30.250  29.479  23.618  1.00  0.00     0.071 C 
ATOM     24  C   UNL A   1      31.562  28.817  23.982  1.00  0.00     0.071 C 
ATOM     25  C   UNL A   1      31.130  27.469  24.543  1.00  0.00     0.181 C 
ATOM     26  H   UNL A   1      29.163  26.947  24.550  1.00  0.00     0.348 HD
ATOM     27  C   UNL A   1      30.852  27.534  26.046  1.00  0.00     0.075 C 
ENDBRANCH  19  20
ENDBRANCH   9  19
BRANCH  18  28
ATOM     28  C   UNL A   1      33.657  22.340  27.051  1.00  0.00     0.429 C 
ATOM     29  F   UNL A   1      34.432  23.312  26.509  1.00  0.00    -0.167 F 
ATOM     30  F   UNL A   1      32.704  22.965  27.781  1.00  0.00    -0.167 F 
ATOM     31  F   UNL A   1      34.427  21.653  27.925  1.00  0.00    -0.167 F 
ENDBRANCH  18  28
ENDBRANCH   5   8
ENDBRANCH   3   4
ENDBRANCH   2   3
ENDBRANCH   1   2
BRANCH   1  32
ATOM     32  C   UNL A   1      38.176  24.138  26.297  1.00  0.00     0.116 C 
BRANCH  32  33
ATOM     33  N   UNL A   1      39.593  23.911  26.042  1.00  0.00    -0.352 N 
ATOM     34  C   UNL A   1      40.658  24.643  26.522  1.00  0.00     0.251 C 
ATOM     35  H   UNL A   1      39.816  23.147  25.462  1.00  0.00     0.163 HD
ATOM     36  O   UNL A   1      41.805  24.387  26.183  1.00  0.00    -0.269 OA
BRANCH  34  37
ATOM     37  C   UNL A   1      40.364  25.786  27.409  1.00  0.00     0.039 A 
ATOM     38  C   UNL A   1      41.054  26.988  27.243  1.00  0.00     0.014 A 
ATOM     39  C   UNL A   1      39.502  25.598  28.492  1.00  0.00     0.014 A 
ATOM     40  C   UNL A   1      41.020  27.934  28.257  1.00  0.00     0.010 A 
ATOM     41  C   UNL A   1      39.411  26.586  29.474  1.00  0.00     0.010 A 
ATOM     42  C   UNL A   1      40.217  27.734  29.394  1.00  0.00    -0.014 A 
BRANCH  42  43
ATOM     43  C   UNL A   1      40.264  28.723  30.499  1.00  0.00     0.031 A 
ATOM     44  C   UNL A   1      39.263  29.846  30.569  1.00  0.00     0.074 A 
ATOM     45  C   UNL A   1      41.160  28.553  31.490  1.00  0.00     0.049 A 
ATOM     46  N   UNL A   1      39.133  30.773  31.484  1.00  0.00    -0.248 NA
ATOM     47  C   UNL A   1      38.278  29.944  29.478  1.00  0.00     0.031 C 
ATOM     48  C   UNL A   1      42.148  27.474  31.549  1.00  0.00     0.029 A 
ATOM     49  N   UNL A   1      41.356  29.250  32.654  1.00  0.00    -0.354 N 
ATOM     50  C   UNL A   1      38.068  31.568  31.076  1.00  0.00     0.074 A 
ATOM     51  C   UNL A   1      37.601  31.032  29.816  1.00  0.00     0.031 C 
ATOM     52  C   UNL A   1      42.793  27.536  32.723  1.00  0.00     0.029 A 
ATOM     53  C   UNL A   1      42.314  28.696  33.469  1.00  0.00     0.049 A 
ATOM     54  H   UNL A   1      40.857  30.067  32.885  1.00  0.00     0.167 HD
ATOM     55  C   UNL A   1      37.526  32.640  31.700  1.00  0.00     0.031 A 
ATOM     56  C   UNL A   1      42.766  29.077  34.680  1.00  0.00     0.031 A 
ATOM     57  C   UNL A   1      37.990  33.161  32.959  1.00  0.00     0.049 A 
ATOM     58  C   UNL A   1      42.186  30.299  35.326  1.00  0.00     0.074 A 
ATOM     59  C   UNL A   1      37.511  34.252  33.663  1.00  0.00     0.029 A 
ATOM     60  N   UNL A   1      39.029  32.626  33.706  1.00  0.00    -0.354 N 
ATOM     61  N   UNL A   1      41.208  31.063  34.902  1.00  0.00    -0.248 NA
ATOM     62  C   UNL A   1      42.775  30.720  36.603  1.00  0.00     0.031 C 
ATOM     63  C   UNL A   1      38.291  34.405  34.813  1.00  0.00     0.029 A 
ATOM     64  C   UNL A   1      39.218  33.376  34.855  1.00  0.00     0.049 A 
ATOM     65  H   UNL A   1      39.553  31.831  33.457  1.00  0.00     0.167 HD
ATOM     66  C   UNL A   1      41.065  32.059  35.858  1.00  0.00     0.074 A 
ATOM     67  C   UNL A   1      42.040  31.788  36.895  1.00  0.00     0.031 C 
ATOM     68  C   UNL A   1      40.205  33.105  35.870  1.00  0.00     0.031 A 
BRANCH  55  69
ATOM     69  C   UNL A   1      36.371  33.340  31.034  1.00  0.00    -0.014 A 
ATOM     70  C   UNL A   1      36.504  33.808  29.714  1.00  0.00     0.010 A 
ATOM     71  C   UNL A   1      35.189  33.623  31.744  1.00  0.00     0.010 A 
ATOM     72  C   UNL A   1      35.487  34.559  29.119  1.00  0.00     0.020 A 
ATOM     73  C   UNL A   1      34.160  34.354  31.144  1.00  0.00     0.020 A 
ATOM     74  C   UNL A   1      34.323  34.834  29.842  1.00  0.00     0.054 A 
BRANCH  74  75
ATOM     75  S   UNL A   1      33.006  35.805  29.056  1.00  0.00     0.124 S 
ATOM     76  O   UNL A   1      33.760  36.858  28.384  1.00  0.00    -0.237 OA
ATOM     77  O   UNL A   1      32.364  34.828  28.179  1.00  0.00    -0.237 OA
ATOM     78  O   UNL A   1      32.189  36.241  30.186  1.00  0.00    -0.744 OA
ENDBRANCH  74  75
ENDBRANCH  55  69
BRANCH  56  79
ATOM     79  C   UNL A   1      43.814  28.257  35.343  1.00  0.00    -0.014 A 
ATOM     80  C   UNL A   1      45.175  28.469  35.048  1.00  0.00     0.010 A 
ATOM     81  C   UNL A   1      43.452  27.186  36.176  1.00  0.00     0.010 A 
ATOM     82  C   UNL A   1      46.147  27.585  35.517  1.00  0.00     0.020 A 
ATOM     83  C   UNL A   1      44.427  26.313  36.670  1.00  0.00     0.020 A 
ATOM     84  C   UNL A   1      45.764  26.500  36.308  1.00  0.00     0.054 A 
BRANCH  84  85
ATOM     85  S   UNL A   1      47.031  25.318  36.845  1.00  0.00     0.124 S 
ATOM     86  O   UNL A   1      46.655  24.120  36.099  1.00  0.00    -0.237 OA
ATOM     87  O   UNL A   1      48.272  25.959  36.420  1.00  0.00    -0.237 OA
ATOM     88  O   UNL A   1      46.835  25.244  38.291  1.00  0.00    -0.744 OA
ENDBRANCH  84  85
ENDBRANCH  56  79
BRANCH  68  89
ATOM     89  C   UNL A   1      40.275  34.062  37.029  1.00  0.00    -0.014 A 
ATOM     90  C   UNL A   1      39.434  33.877  38.141  1.00  0.00     0.010 A 
ATOM     91  C   UNL A   1      41.085  35.209  36.960  1.00  0.00     0.010 A 
ATOM     92  C   UNL A   1      39.377  34.838  39.152  1.00  0.00     0.020 A 
ATOM     93  C   UNL A   1      41.046  36.162  37.980  1.00  0.00     0.020 A 
ATOM     94  C   UNL A   1      40.175  35.982  39.058  1.00  0.00     0.054 A 
BRANCH  94  95
ATOM     95  S   UNL A   1      40.069  37.235  40.365  1.00  0.00     0.124 S 
ATOM     96  O   UNL A   1      38.659  37.172  40.737  1.00  0.00    -0.237 OA
ATOM     97  O   UNL A   1      41.008  36.739  41.369  1.00  0.00    -0.237 OA
ATOM     98  O   UNL A   1      40.485  38.465  39.691  1.00  0.00    -0.744 OA
ENDBRANCH  94  95
ENDBRANCH  68  89
ENDBRANCH  42  43
ENDBRANCH  34  37
ENDBRANCH  32  33
ENDBRANCH   1  32
TORSDOF 17
ENDMDL
MODEL 2
REMARK VINA RESULT:     -12.5      3.551      8.472
REMARK SMILES C[C@@H]1CC[C@H](C)[N@H+]1Cc1cc2c(cc1Cl)C=C(C(=O)NCCCCNC(=O)c1ccc(-c3c4nc(c(-c5ccc(S(=O)(=O)[O-])cc5)c5ccc([nH]5)c(-c5ccc(S(=O)(=O)[O-])cc5)c5nc(c(-c6ccc(S(=O)(=O)[O-])cc6)c6ccc3[nH]6)C=C5)C=C4)cc1)[C@@H](C(F)(F)F)O2
REMARK SMILES IDX 23 1 22 2 21 3 20 4 18 5 19 6 17 8 9 9 10 10 14 11 11 12
REMARK SMILES IDX 13 13 15 14 12 15 93 16 16 17 88 18 8 19 7 20 6 21 5 22 4 23
REMARK SMILES IDX 3 24 2 25 1 27 89 28 90 29 91 30 92 31 24 32 25 33 26 34
REMARK SMILES IDX 27 36 28 37 29 38 87 39 30 40 86 41 31 42 32 43 33 44 80 45
REMARK SMILES IDX 34 46 85 47 79 48 81 49 35 50 84 51 78 52 77 53 36 55 66 56
REMARK SMILES IDX 47 57 65 58 48 59 51 60 64 61 82 62 49 63 50 64 63 66 83 67
REMARK SMILES IDX 52 68 37 69 38 70 46 71 39 72 45 73 40 74 41 75 42 76 43 77
REMARK SMILES IDX 44 78 67 79 68 80 76 81 69 82 75 83 70 84 71 85 72 86 73 87
REMARK SMILES IDX 74 88 53 89 54 90 62 91 55 92 61 93 56 94 57 95 58 96 59 97
REMARK SMILES IDX 60 98
REMARK H PARENT 20 7 7 26 25 35 81 54 51 65
REMARK Flexibility Score: inf
ROOT
ATOM      1  C   UNL A   1      36.919  22.860  24.545  1.00  0.00     0.023 C 
ENDROOT
BRANCH   1   2
ATOM      2  C   UNL A   1      36.833  21.407  24.074  1.00  0.00     0.023 C 
BRANCH   2   3
ATOM      3  C   UNL A   1      36.639  20.393  25.198  1.00  0.00     0.116 C 
BRANCH   3   4
ATOM      4  N   UNL A   1      35.559  19.466  24.910  1.00  0.00    -0.352 N 
ATOM      5  C   UNL A   1      34.222  19.543  24.718  1.00  0.00     0.251 C 
ATOM      6  O   UNL A   1      33.660  18.472  24.472  1.00  0.00    -0.270 OA
ATOM      7  H   UNL A   1      35.885  18.540  24.836  1.00  0.00     0.163 HD
BRANCH   5   8
ATOM      8  C   UNL A   1      33.414  20.794  24.790  1.00  0.00     0.067 C 
ATOM      9  C   UNL A   1      30.724  24.902  23.590  1.00  0.00     0.029 A 
ATOM     10  C   UNL A   1      30.704  23.976  24.652  1.00  0.00     0.058 A 
ATOM     11  C   UNL A   1      31.732  24.762  22.621  1.00  0.00     0.050 A 
ATOM     12  C   UNL A   1      31.590  22.904  24.681  1.00  0.00     0.128 A 
ATOM     13  C   UNL A   1      32.582  23.647  22.624  1.00  0.00     0.033 A 
ATOM     14  Cl  UNL A   1      32.044  25.964  21.417  1.00  0.00    -0.084 Cl
ATOM     15  C   UNL A   1      32.494  22.701  23.642  1.00  0.00     0.019 A 
ATOM     16  O   UNL A   1      31.507  22.052  25.747  1.00  0.00    -0.475 OA
ATOM     17  C   UNL A   1      33.302  21.487  23.640  1.00  0.00     0.025 C 
ATOM     18  C   UNL A   1      32.737  21.318  26.025  1.00  0.00     0.314 C 
BRANCH   9  19
ATOM     19  C   UNL A   1      29.642  25.967  23.552  1.00  0.00     0.301 C 
BRANCH  19  20
ATOM     20  N   UNL A   1      30.022  27.318  23.999  1.00  0.00    -0.327 N 
ATOM     21  C   UNL A   1      28.504  29.068  23.123  1.00  0.00     0.075 C 
ATOM     22  C   UNL A   1      29.873  28.409  23.023  1.00  0.00     0.181 C 
ATOM     23  C   UNL A   1      31.000  29.388  23.342  1.00  0.00     0.071 C 
ATOM     24  C   UNL A   1      32.097  28.476  23.847  1.00  0.00     0.071 C 
ATOM     25  C   UNL A   1      31.339  27.421  24.641  1.00  0.00     0.181 C 
ATOM     26  H   UNL A   1      29.305  27.459  24.709  1.00  0.00     0.348 HD
ATOM     27  C   UNL A   1      31.138  27.835  26.100  1.00  0.00     0.075 C 
ENDBRANCH  19  20
ENDBRANCH   9  19
BRANCH  18  28
ATOM     28  C   UNL A   1      33.688  22.178  26.887  1.00  0.00     0.429 C 
ATOM     29  F   UNL A   1      34.695  21.418  27.384  1.00  0.00    -0.167 F 
ATOM     30  F   UNL A   1      34.268  23.174  26.178  1.00  0.00    -0.167 F 
ATOM     31  F   UNL A   1      33.067  22.759  27.937  1.00  0.00    -0.167 F 
ENDBRANCH  18  28
ENDBRANCH   5   8
ENDBRANCH   3   4
ENDBRANCH   2   3
ENDBRANCH   1   2
BRANCH   1  32
ATOM     32  C   UNL A   1      37.743  23.089  25.809  1.00  0.00     0.116 C 
BRANCH  32  33
ATOM     33  N   UNL A   1      39.059  22.463  25.789  1.00  0.00    -0.352 N 
ATOM     34  C   UNL A   1      40.244  22.989  26.256  1.00  0.00     0.251 C 
ATOM     35  H   UNL A   1      39.107  21.560  25.399  1.00  0.00     0.163 HD
ATOM     36  O   UNL A   1      41.299  22.385  26.125  1.00  0.00    -0.269 OA
BRANCH  34  37
ATOM     37  C   UNL A   1      40.208  24.334  26.864  1.00  0.00     0.039 A 
ATOM     38  C   UNL A   1      40.508  25.454  26.086  1.00  0.00     0.014 A 
ATOM     39  C   UNL A   1      40.015  24.449  28.242  1.00  0.00     0.014 A 
ATOM     40  C   UNL A   1      40.792  26.658  26.714  1.00  0.00     0.010 A 
ATOM     41  C   UNL A   1      40.226  25.683  28.862  1.00  0.00     0.010 A 
ATOM     42  C   UNL A   1      40.676  26.780  28.110  1.00  0.00    -0.014 A 
BRANCH  42  43
ATOM     43  C   UNL A   1      41.065  28.056  28.762  1.00  0.00     0.031 A 
ATOM     44  C   UNL A   1      42.505  28.337  29.100  1.00  0.00     0.074 A 
ATOM     45  C   UNL A   1      40.125  28.997  28.967  1.00  0.00     0.049 A 
ATOM     46  N   UNL A   1      43.027  29.414  29.632  1.00  0.00    -0.248 NA
ATOM     47  C   UNL A   1      43.490  27.283  28.802  1.00  0.00     0.031 C 
ATOM     48  C   UNL A   1      38.707  28.851  28.637  1.00  0.00     0.029 A 
ATOM     49  N   UNL A   1      40.225  30.275  29.455  1.00  0.00    -0.354 N 
ATOM     50  C   UNL A   1      44.390  29.163  29.745  1.00  0.00     0.074 A 
ATOM     51  C   UNL A   1      44.615  27.823  29.250  1.00  0.00     0.031 C 
ATOM     52  C   UNL A   1      38.083  30.017  28.859  1.00  0.00     0.029 A 
ATOM     53  C   UNL A   1      39.040  30.971  29.412  1.00  0.00     0.049 A 
ATOM     54  H   UNL A   1      41.063  30.657  29.801  1.00  0.00     0.167 HD
ATOM     55  C   UNL A   1      45.364  29.981  30.210  1.00  0.00     0.031 A 
ATOM     56  C   UNL A   1      38.748  32.233  29.780  1.00  0.00     0.031 A 
ATOM     57  C   UNL A   1      45.134  31.318  30.690  1.00  0.00     0.049 A 
ATOM     58  C   UNL A   1      39.834  33.102  30.342  1.00  0.00     0.074 A 
ATOM     59  C   UNL A   1      46.057  32.218  31.193  1.00  0.00     0.029 A 
ATOM     60  N   UNL A   1      43.901  31.952  30.719  1.00  0.00    -0.354 N 
ATOM     61  N   UNL A   1      41.109  32.830  30.480  1.00  0.00    -0.248 NA
ATOM     62  C   UNL A   1      39.443  34.438  30.808  1.00  0.00     0.031 C 
ATOM     63  C   UNL A   1      45.375  33.378  31.569  1.00  0.00     0.029 A 
ATOM     64  C   UNL A   1      44.036  33.223  31.249  1.00  0.00     0.049 A 
ATOM     65  H   UNL A   1      43.054  31.555  30.408  1.00  0.00     0.167 HD
ATOM     66  C   UNL A   1      41.675  33.960  31.055  1.00  0.00     0.074 A 
ATOM     67  C   UNL A   1      40.609  34.928  31.215  1.00  0.00     0.031 C 
ATOM     68  C   UNL A   1      42.963  34.171  31.419  1.00  0.00     0.031 A 
BRANCH  55  69
ATOM     69  C   UNL A   1      46.776  29.459  30.236  1.00  0.00    -0.014 A 
ATOM     70  C   UNL A   1      47.598  29.608  29.103  1.00  0.00     0.010 A 
ATOM     71  C   UNL A   1      47.261  28.736  31.341  1.00  0.00     0.010 A 
ATOM     72  C   UNL A   1      48.870  29.032  29.066  1.00  0.00     0.020 A 
ATOM     73  C   UNL A   1      48.542  28.177  31.316  1.00  0.00     0.020 A 
ATOM     74  C   UNL A   1      49.332  28.313  30.171  1.00  0.00     0.054 A 
BRANCH  74  75
ATOM     75  S   UNL A   1      50.988  27.574  30.112  1.00  0.00     0.124 S 
ATOM     76  O   UNL A   1      50.792  26.320  30.833  1.00  0.00    -0.237 OA
ATOM     77  O   UNL A   1      51.234  27.448  28.677  1.00  0.00    -0.237 OA
ATOM     78  O   UNL A   1      51.823  28.564  30.790  1.00  0.00    -0.744 OA
ENDBRANCH  74  75
ENDBRANCH  55  69
BRANCH  56  79
ATOM     79  C   UNL A   1      37.358  32.729  29.596  1.00  0.00    -0.014 A 
ATOM     80  C   UNL A   1      36.988  33.378  28.402  1.00  0.00     0.010 A 
ATOM     81  C   UNL A   1      36.438  32.664  30.656  1.00  0.00     0.010 A 
ATOM     82  C   UNL A   1      35.749  34.012  28.297  1.00  0.00     0.020 A 
ATOM     83  C   UNL A   1      35.185  33.275  30.542  1.00  0.00     0.020 A 
ATOM     84  C   UNL A   1      34.864  33.974  29.376  1.00  0.00     0.054 A 
BRANCH  84  85
ATOM     85  S   UNL A   1      33.290  34.867  29.249  1.00  0.00     0.124 S 
ATOM     86  O   UNL A   1      33.717  36.142  28.680  1.00  0.00    -0.237 OA
ATOM     87  O   UNL A   1      32.505  34.014  28.361  1.00  0.00    -0.237 OA
ATOM     88  O   UNL A   1      32.819  34.924  30.631  1.00  0.00    -0.744 OA
ENDBRANCH  84  85
ENDBRANCH  56  79
BRANCH  68  89
ATOM     89  C   UNL A   1      43.309  35.492  32.048  1.00  0.00    -0.014 A 
ATOM     90  C   UNL A   1      43.045  35.708  33.413  1.00  0.00     0.010 A 
ATOM     91  C   UNL A   1      43.781  36.556  31.261  1.00  0.00     0.010 A 
ATOM     92  C   UNL A   1      43.216  36.975  33.974  1.00  0.00     0.020 A 
ATOM     93  C   UNL A   1      43.975  37.820  31.824  1.00  0.00     0.020 A 
ATOM     94  C   UNL A   1      43.669  38.027  33.172  1.00  0.00     0.054 A 
BRANCH  94  95
ATOM     95  S   UNL A   1      43.859  39.673  33.909  1.00  0.00     0.124 S 
ATOM     96  O   UNL A   1      44.030  39.358  35.325  1.00  0.00    -0.237 OA
ATOM     97  O   UNL A   1      45.044  40.196  33.233  1.00  0.00    -0.237 OA
ATOM     98  O   UNL A   1      42.608  40.347  33.564  1.00  0.00    -0.744 OA
ENDBRANCH  94  95
ENDBRANCH  68  89
ENDBRANCH  42  43
ENDBRANCH  34  37
ENDBRANCH  32  33
ENDBRANCH   1  32
TORSDOF 17
ENDMDL
MODEL 3
REMARK VINA RESULT:     -12.3      1.591      8.110
REMARK SMILES C[C@@H]1CC[C@H](C)[N@H+]1Cc1cc2c(cc1Cl)C=C(C(=O)NCCCCNC(=O)c1ccc(-c3c4nc(c(-c5ccc(S(=O)(=O)[O-])cc5)c5ccc([nH]5)c(-c5ccc(S(=O)(=O)[O-])cc5)c5nc(c(-c6ccc(S(=O)(=O)[O-])cc6)c6ccc3[nH]6)C=C5)C=C4)cc1)[C@@H](C(F)(F)F)O2
REMARK SMILES IDX 23 1 22 2 21 3 20 4 18 5 19 6 17 8 9 9 10 10 14 11 11 12
REMARK SMILES IDX 13 13 15 14 12 15 93 16 16 17 88 18 8 19 7 20 6 21 5 22 4 23
REMARK SMILES IDX 3 24 2 25 1 27 89 28 90 29 91 30 92 31 24 32 25 33 26 34
REMARK SMILES IDX 27 36 28 37 29 38 87 39 30 40 86 41 31 42 32 43 33 44 80 45
REMARK SMILES IDX 34 46 85 47 79 48 81 49 35 50 84 51 78 52 77 53 36 55 66 56
REMARK SMILES IDX 47 57 65 58 48 59 51 60 64 61 82 62 49 63 50 64 63 66 83 67
REMARK SMILES IDX 52 68 37 69 38 70 46 71 39 72 45 73 40 74 41 75 42 76 43 77
REMARK SMILES IDX 44 78 67 79 68 80 76 81 69 82 75 83 70 84 71 85 72 86 73 87
REMARK SMILES IDX 74 88 53 89 54 90 62 91 55 92 61 93 56 94 57 95 58 96 59 97
REMARK SMILES IDX 60 98
REMARK H PARENT 20 7 7 26 25 35 81 54 51 65
REMARK Flexibility Score: inf
ROOT
ATOM      1  C   UNL A   1      39.531  22.905  26.638  1.00  0.00     0.023 C 
ENDROOT
BRANCH   1   2
ATOM      2  C   UNL A   1      38.404  23.919  26.436  1.00  0.00     0.023 C 
BRANCH   2   3
ATOM      3  C   UNL A   1      37.274  23.431  25.534  1.00  0.00     0.116 C 
BRANCH   3   4
ATOM      4  N   UNL A   1      36.256  22.714  26.281  1.00  0.00    -0.352 N 
ATOM      5  C   UNL A   1      34.907  22.746  26.385  1.00  0.00     0.251 C 
ATOM      6  O   UNL A   1      34.417  21.918  27.159  1.00  0.00    -0.270 OA
ATOM      7  H   UNL A   1      36.650  22.026  26.865  1.00  0.00     0.163 HD
BRANCH   5   8
ATOM      8  C   UNL A   1      34.011  23.688  25.656  1.00  0.00     0.067 C 
ATOM      9  C   UNL A   1      31.847  27.861  23.798  1.00  0.00     0.029 A 
ATOM     10  C   UNL A   1      32.034  26.546  23.330  1.00  0.00     0.058 A 
ATOM     11  C   UNL A   1      32.281  28.158  25.102  1.00  0.00     0.050 A 
ATOM     12  C   UNL A   1      32.715  25.605  24.095  1.00  0.00     0.128 A 
ATOM     13  C   UNL A   1      33.018  27.223  25.844  1.00  0.00     0.033 A 
ATOM     14  Cl  UNL A   1      31.886  29.638  25.904  1.00  0.00    -0.084 Cl
ATOM     15  C   UNL A   1      33.259  25.953  25.330  1.00  0.00     0.019 A 
ATOM     16  O   UNL A   1      32.853  24.350  23.570  1.00  0.00    -0.475 OA
ATOM     17  C   UNL A   1      34.088  24.980  26.031  1.00  0.00     0.025 C 
ATOM     18  C   UNL A   1      33.053  23.302  24.565  1.00  0.00     0.314 C 
BRANCH   9  19
ATOM     19  C   UNL A   1      31.217  28.871  22.856  1.00  0.00     0.301 C 
BRANCH  19  20
ATOM     20  N   UNL A   1      29.819  29.248  23.123  1.00  0.00    -0.327 N 
ATOM     21  C   UNL A   1      28.422  27.308  23.774  1.00  0.00     0.075 C 
ATOM     22  C   UNL A   1      28.779  28.306  22.680  1.00  0.00     0.181 C 
ATOM     23  C   UNL A   1      27.586  29.179  22.296  1.00  0.00     0.071 C 
ATOM     24  C   UNL A   1      28.250  30.440  21.785  1.00  0.00     0.071 C 
ATOM     25  C   UNL A   1      29.444  30.608  22.715  1.00  0.00     0.181 C 
ATOM     26  H   UNL A   1      29.834  29.209  24.142  1.00  0.00     0.348 HD
ATOM     27  C   UNL A   1      29.089  31.412  23.967  1.00  0.00     0.075 C 
ENDBRANCH  19  20
ENDBRANCH   9  19
BRANCH  18  28
ATOM     28  C   UNL A   1      31.692  22.833  25.126  1.00  0.00     0.429 C 
ATOM     29  F   UNL A   1      31.483  23.355  26.360  1.00  0.00    -0.167 F 
ATOM     30  F   UNL A   1      30.652  23.229  24.356  1.00  0.00    -0.167 F 
ATOM     31  F   UNL A   1      31.603  21.488  25.238  1.00  0.00    -0.167 F 
ENDBRANCH  18  28
ENDBRANCH   5   8
ENDBRANCH   3   4
ENDBRANCH   2   3
ENDBRANCH   1   2
BRANCH   1  32
ATOM     32  C   UNL A   1      40.920  23.505  26.842  1.00  0.00     0.116 C 
BRANCH  32  33
ATOM     33  N   UNL A   1      41.373  24.355  25.749  1.00  0.00    -0.352 N 
ATOM     34  C   UNL A   1      41.804  25.663  25.828  1.00  0.00     0.251 C 
ATOM     35  H   UNL A   1      41.372  23.951  24.851  1.00  0.00     0.163 HD
ATOM     36  O   UNL A   1      42.101  26.292  24.822  1.00  0.00    -0.269 OA
BRANCH  34  37
ATOM     37  C   UNL A   1      41.835  26.298  27.160  1.00  0.00     0.039 A 
ATOM     38  C   UNL A   1      41.062  25.772  28.196  1.00  0.00     0.014 A 
ATOM     39  C   UNL A   1      42.527  27.500  27.320  1.00  0.00     0.014 A 
ATOM     40  C   UNL A   1      40.837  26.540  29.330  1.00  0.00     0.010 A 
ATOM     41  C   UNL A   1      42.359  28.235  28.496  1.00  0.00     0.010 A 
ATOM     42  C   UNL A   1      41.465  27.789  29.483  1.00  0.00    -0.014 A 
BRANCH  42  43
ATOM     43  C   UNL A   1      41.141  28.623  30.667  1.00  0.00     0.031 A 
ATOM     44  C   UNL A   1      42.051  28.641  31.866  1.00  0.00     0.074 A 
ATOM     45  C   UNL A   1      40.068  29.434  30.620  1.00  0.00     0.049 A 
ATOM     46  N   UNL A   1      41.944  29.342  32.967  1.00  0.00    -0.248 NA
ATOM     47  C   UNL A   1      43.236  27.766  31.830  1.00  0.00     0.031 C 
ATOM     48  C   UNL A   1      39.141  29.533  29.491  1.00  0.00     0.029 A 
ATOM     49  N   UNL A   1      39.601  30.360  31.517  1.00  0.00    -0.354 N 
ATOM     50  C   UNL A   1      43.031  28.985  33.756  1.00  0.00     0.074 A 
ATOM     51  C   UNL A   1      43.776  27.986  33.021  1.00  0.00     0.031 C 
ATOM     52  C   UNL A   1      38.264  30.519  29.729  1.00  0.00     0.029 A 
ATOM     53  C   UNL A   1      38.521  31.074  31.055  1.00  0.00     0.049 A 
ATOM     54  H   UNL A   1      40.001  30.501  32.406  1.00  0.00     0.167 HD
ATOM     55  C   UNL A   1      43.380  29.455  34.977  1.00  0.00     0.031 A 
ATOM     56  C   UNL A   1      37.809  32.063  31.630  1.00  0.00     0.031 A 
ATOM     57  C   UNL A   1      42.640  30.458  35.697  1.00  0.00     0.049 A 
ATOM     58  C   UNL A   1      38.184  32.530  33.005  1.00  0.00     0.074 A 
ATOM     59  C   UNL A   1      42.909  30.989  36.946  1.00  0.00     0.029 A 
ATOM     60  N   UNL A   1      41.495  31.088  35.232  1.00  0.00    -0.354 N 
ATOM     61  N   UNL A   1      39.191  32.148  33.752  1.00  0.00    -0.248 NA
ATOM     62  C   UNL A   1      37.322  33.547  33.621  1.00  0.00     0.031 C 
ATOM     63  C   UNL A   1      41.901  31.905  37.257  1.00  0.00     0.029 A 
ATOM     64  C   UNL A   1      41.035  31.988  36.179  1.00  0.00     0.049 A 
ATOM     65  H   UNL A   1      41.073  30.920  34.359  1.00  0.00     0.167 HD
ATOM     66  C   UNL A   1      39.084  32.876  34.930  1.00  0.00     0.074 A 
ATOM     67  C   UNL A   1      37.928  33.738  34.787  1.00  0.00     0.031 C 
ATOM     68  C   UNL A   1      39.873  32.827  36.031  1.00  0.00     0.031 A 
BRANCH  55  69
ATOM     69  C   UNL A   1      44.615  28.891  35.629  1.00  0.00    -0.014 A 
ATOM     70  C   UNL A   1      45.870  29.475  35.372  1.00  0.00     0.010 A 
ATOM     71  C   UNL A   1      44.550  27.727  36.416  1.00  0.00     0.010 A 
ATOM     72  C   UNL A   1      47.038  28.898  35.875  1.00  0.00     0.020 A 
ATOM     73  C   UNL A   1      45.716  27.160  36.939  1.00  0.00     0.020 A 
ATOM     74  C   UNL A   1      46.955  27.738  36.651  1.00  0.00     0.054 A 
BRANCH  74  75
ATOM     75  S   UNL A   1      48.480  27.002  37.303  1.00  0.00     0.124 S 
ATOM     76  O   UNL A   1      49.161  26.575  36.085  1.00  0.00    -0.237 OA
ATOM     77  O   UNL A   1      49.098  28.118  38.016  1.00  0.00    -0.237 OA
ATOM     78  O   UNL A   1      47.993  25.924  38.161  1.00  0.00    -0.744 OA
ENDBRANCH  74  75
ENDBRANCH  55  69
BRANCH  56  79
ATOM     79  C   UNL A   1      36.686  32.672  30.870  1.00  0.00    -0.014 A 
ATOM     80  C   UNL A   1      36.944  33.598  29.841  1.00  0.00     0.010 A 
ATOM     81  C   UNL A   1      35.357  32.423  31.251  1.00  0.00     0.010 A 
ATOM     82  C   UNL A   1      35.900  34.314  29.254  1.00  0.00     0.020 A 
ATOM     83  C   UNL A   1      34.306  33.119  30.646  1.00  0.00     0.020 A 
ATOM     84  C   UNL A   1      34.589  34.084  29.676  1.00  0.00     0.054 A 
BRANCH  84  85
ATOM     85  S   UNL A   1      33.252  35.078  28.958  1.00  0.00     0.124 S 
ATOM     86  O   UNL A   1      32.393  35.304  30.117  1.00  0.00    -0.237 OA
ATOM     87  O   UNL A   1      33.957  36.256  28.459  1.00  0.00    -0.237 OA
ATOM     88  O   UNL A   1      32.696  34.205  27.926  1.00  0.00    -0.744 OA
ENDBRANCH  84  85
ENDBRANCH  56  79
BRANCH  68  89
ATOM     89  C   UNL A   1      39.517  33.715  37.191  1.00  0.00    -0.014 A 
ATOM     90  C   UNL A   1      40.029  35.025  37.253  1.00  0.00     0.010 A 
ATOM     91  C   UNL A   1      38.779  33.212  38.276  1.00  0.00     0.010 A 
ATOM     92  C   UNL A   1      39.835  35.806  38.393  1.00  0.00     0.020 A 
ATOM     93  C   UNL A   1      38.565  33.999  39.410  1.00  0.00     0.020 A 
ATOM     94  C   UNL A   1      39.115  35.283  39.471  1.00  0.00     0.054 A 
BRANCH  94  95
ATOM     95  S   UNL A   1      38.896  36.299  40.957  1.00  0.00     0.124 S 
ATOM     96  O   UNL A   1      37.817  35.602  41.650  1.00  0.00    -0.237 OA
ATOM     97  O   UNL A   1      40.208  36.226  41.597  1.00  0.00    -0.237 OA
ATOM     98  O   UNL A   1      38.549  37.615  40.421  1.00  0.00    -0.744 OA
ENDBRANCH  94  95
ENDBRANCH  68  89
ENDBRANCH  42  43
ENDBRANCH  34  37
ENDBRANCH  32  33
ENDBRANCH   1  32
TORSDOF 17
ENDMDL
