MODEL 1
REMARK VINA RESULT:     -10.9      0.000      0.000
REMARK SMILES CC[C@H](C)CN(CC)c1nc(C(=O)NCCCCNC(=O)c2ccc(-c3c4nc(c(-c5ccc(S(=O)(=O)[O-])cc5)c5ccc([nH]5)c(-c5ccc(S(=O)(=O)[O-])cc5)c5nc(c(-c6ccc(S(=O)(=O)[O-])cc6)c6ccc3[nH]6)C=C5)C=C4)cc2)cc2ccccc12
REMARK SMILES IDX 16 1 15 2 14 3 12 4 13 5 11 7 9 8 10 9 88 10 83 11 87 12
REMARK SMILES IDX 82 13 84 14 86 15 85 16 6 17 5 18 3 19 4 20 2 21 1 22 7 23
REMARK SMILES IDX 8 24 17 25 18 26 19 27 20 28 21 30 22 31 23 32 81 33 24 34
REMARK SMILES IDX 80 35 25 36 26 37 27 38 74 39 28 40 79 41 73 42 75 43 29 44
REMARK SMILES IDX 78 45 72 46 71 47 30 49 60 50 41 51 59 52 42 53 45 54 58 55
REMARK SMILES IDX 76 56 43 57 44 58 57 60 77 61 46 62 31 63 32 64 40 65 33 66
REMARK SMILES IDX 39 67 34 68 35 69 36 70 37 71 38 72 61 73 62 74 70 75 63 76
REMARK SMILES IDX 69 77 64 78 65 79 66 80 67 81 68 82 47 83 48 84 56 85 49 86
REMARK SMILES IDX 55 87 50 88 51 89 52 90 53 91 54 92
REMARK H PARENT 14 6 19 29 75 48 45 59
REMARK Flexibility Score: inf
ROOT
ATOM      1  C   UNL A   1      31.681  27.999  25.481  1.00  0.00     0.023 C 
ENDROOT
BRANCH   1   2
ATOM      2  C   UNL A   1      31.412  26.932  24.427  1.00  0.00     0.116 C 
BRANCH   2   3
ATOM      3  N   UNL A   1      32.303  27.012  23.290  1.00  0.00    -0.351 N 
ATOM      4  C   UNL A   1      33.105  26.043  22.727  1.00  0.00     0.269 C 
ATOM      5  O   UNL A   1      33.778  26.369  21.745  1.00  0.00    -0.268 OA
ATOM      6  H   UNL A   1      32.343  27.893  22.852  1.00  0.00     0.163 HD
BRANCH   4   7
ATOM      7  C   UNL A   1      33.199  24.633  23.242  1.00  0.00     0.131 A 
ATOM      8  C   UNL A   1      33.826  23.122  24.899  1.00  0.00     0.137 A 
ATOM      9  N   UNL A   1      33.791  24.392  24.436  1.00  0.00    -0.225 NA
ATOM     10  C   UNL A   1      33.162  22.064  24.223  1.00  0.00     0.024 A 
ATOM     11  C   UNL A   1      32.651  22.320  22.936  1.00  0.00    -0.012 A 
ATOM     12  C   UNL A   1      33.011  20.757  24.739  1.00  0.00     0.012 A 
ATOM     13  C   UNL A   1      32.663  23.626  22.451  1.00  0.00     0.043 A 
ATOM     14  C   UNL A   1      32.159  21.262  22.153  1.00  0.00     0.009 A 
ATOM     15  C   UNL A   1      32.523  19.710  23.958  1.00  0.00     0.001 A 
ATOM     16  C   UNL A   1      32.126  19.959  22.651  1.00  0.00     0.001 A 
BRANCH   8  17
ATOM     17  N   UNL A   1      34.682  22.840  25.974  1.00  0.00    -0.356 N 
BRANCH  17  18
ATOM     18  C   UNL A   1      36.129  23.031  25.710  1.00  0.00     0.121 C 
BRANCH  18  19
ATOM     19  C   UNL A   1      36.664  22.019  24.665  1.00  0.00     0.005 C 
ATOM     20  C   UNL A   1      36.801  22.672  23.282  1.00  0.00     0.009 C 
BRANCH  19  21
ATOM     21  C   UNL A   1      38.000  21.358  25.063  1.00  0.00     0.002 C 
ATOM     22  C   UNL A   1      38.751  22.218  26.081  1.00  0.00     0.004 C 
ENDBRANCH  19  21
ENDBRANCH  18  19
ENDBRANCH  17  18
BRANCH  17  23
ATOM     23  C   UNL A   1      34.191  23.128  27.325  1.00  0.00     0.114 C 
ATOM     24  C   UNL A   1      33.261  22.073  27.900  1.00  0.00     0.027 C 
ENDBRANCH  17  23
ENDBRANCH   8  17
ENDBRANCH   4   7
ENDBRANCH   2   3
ENDBRANCH   1   2
BRANCH   1  25
ATOM     25  C   UNL A   1      33.143  28.382  25.685  1.00  0.00     0.023 C 
BRANCH  25  26
ATOM     26  C   UNL A   1      33.579  28.574  27.133  1.00  0.00     0.116 C 
BRANCH  26  27
ATOM     27  N   UNL A   1      33.598  29.968  27.553  1.00  0.00    -0.352 N 
ATOM     28  C   UNL A   1      34.603  30.694  28.154  1.00  0.00     0.251 C 
ATOM     29  H   UNL A   1      32.767  30.468  27.381  1.00  0.00     0.163 HD
ATOM     30  O   UNL A   1      34.394  31.834  28.539  1.00  0.00    -0.269 OA
BRANCH  28  31
ATOM     31  C   UNL A   1      35.928  30.066  28.366  1.00  0.00     0.039 A 
ATOM     32  C   UNL A   1      36.879  30.132  27.346  1.00  0.00     0.014 A 
ATOM     33  C   UNL A   1      36.241  29.455  29.582  1.00  0.00     0.014 A 
ATOM     34  C   UNL A   1      38.177  29.670  27.582  1.00  0.00     0.010 A 
ATOM     35  C   UNL A   1      37.553  29.075  29.843  1.00  0.00     0.010 A 
ATOM     36  C   UNL A   1      38.539  29.186  28.850  1.00  0.00    -0.014 A 
BRANCH  36  37
ATOM     37  C   UNL A   1      39.941  28.809  29.168  1.00  0.00     0.031 A 
ATOM     38  C   UNL A   1      40.871  29.814  29.793  1.00  0.00     0.074 A 
ATOM     39  C   UNL A   1      40.402  27.591  28.820  1.00  0.00     0.049 A 
ATOM     40  N   UNL A   1      42.147  29.702  30.061  1.00  0.00    -0.248 NA
ATOM     41  C   UNL A   1      40.299  31.127  30.133  1.00  0.00     0.031 C 
ATOM     42  C   UNL A   1      39.617  26.540  28.165  1.00  0.00     0.029 A 
ATOM     43  N   UNL A   1      41.649  27.032  28.956  1.00  0.00    -0.354 N 
ATOM     44  C   UNL A   1      42.534  30.932  30.579  1.00  0.00     0.074 A 
ATOM     45  C   UNL A   1      41.371  31.791  30.542  1.00  0.00     0.031 C 
ATOM     46  C   UNL A   1      40.392  25.459  27.983  1.00  0.00     0.029 A 
ATOM     47  C   UNL A   1      41.738  25.750  28.463  1.00  0.00     0.049 A 
ATOM     48  H   UNL A   1      42.408  27.503  29.368  1.00  0.00     0.167 HD
ATOM     49  C   UNL A   1      43.742  31.308  31.061  1.00  0.00     0.031 A 
ATOM     50  C   UNL A   1      42.786  24.905  28.399  1.00  0.00     0.031 A 
ATOM     51  C   UNL A   1      44.893  30.448  31.113  1.00  0.00     0.049 A 
ATOM     52  C   UNL A   1      44.119  25.346  28.939  1.00  0.00     0.074 A 
ATOM     53  C   UNL A   1      46.145  30.717  31.639  1.00  0.00     0.029 A 
ATOM     54  N   UNL A   1      44.935  29.151  30.624  1.00  0.00    -0.354 N 
ATOM     55  N   UNL A   1      44.447  26.493  29.485  1.00  0.00    -0.248 NA
ATOM     56  C   UNL A   1      45.220  24.376  28.864  1.00  0.00     0.031 C 
ATOM     57  C   UNL A   1      46.958  29.599  31.424  1.00  0.00     0.029 A 
ATOM     58  C   UNL A   1      46.197  28.615  30.816  1.00  0.00     0.049 A 
ATOM     59  H   UNL A   1      44.180  28.682  30.202  1.00  0.00     0.167 HD
ATOM     60  C   UNL A   1      45.785  26.371  29.844  1.00  0.00     0.074 A 
ATOM     61  C   UNL A   1      46.202  25.036  29.465  1.00  0.00     0.031 C 
ATOM     62  C   UNL A   1      46.596  27.283  30.436  1.00  0.00     0.031 A 
BRANCH  49  63
ATOM     63  C   UNL A   1      43.878  32.720  31.570  1.00  0.00    -0.014 A 
ATOM     64  C   UNL A   1      44.219  33.774  30.704  1.00  0.00     0.010 A 
ATOM     65  C   UNL A   1      43.628  33.002  32.926  1.00  0.00     0.010 A 
ATOM     66  C   UNL A   1      44.353  35.076  31.192  1.00  0.00     0.020 A 
ATOM     67  C   UNL A   1      43.731  34.308  33.412  1.00  0.00     0.020 A 
ATOM     68  C   UNL A   1      44.112  35.334  32.545  1.00  0.00     0.054 A 
BRANCH  68  69
ATOM     69  S   UNL A   1      44.275  37.038  33.146  1.00  0.00     0.124 S 
ATOM     70  O   UNL A   1      43.557  36.977  34.417  1.00  0.00    -0.237 OA
ATOM     71  O   UNL A   1      45.722  37.204  33.250  1.00  0.00    -0.237 OA
ATOM     72  O   UNL A   1      43.633  37.836  32.105  1.00  0.00    -0.744 OA
ENDBRANCH  68  69
ENDBRANCH  49  63
BRANCH  50  73
ATOM     73  C   UNL A   1      42.613  23.548  27.812  1.00  0.00    -0.014 A 
ATOM     74  C   UNL A   1      42.947  23.305  26.468  1.00  0.00     0.010 A 
ATOM     75  C   UNL A   1      42.123  22.487  28.597  1.00  0.00     0.010 A 
ATOM     76  C   UNL A   1      42.780  22.032  25.914  1.00  0.00     0.020 A 
ATOM     77  C   UNL A   1      41.980  21.206  28.053  1.00  0.00     0.020 A 
ATOM     78  C   UNL A   1      42.299  20.990  26.711  1.00  0.00     0.054 A 
BRANCH  78  79
ATOM     79  S   UNL A   1      42.138  19.335  25.985  1.00  0.00     0.124 S 
ATOM     80  O   UNL A   1      40.697  19.236  25.771  1.00  0.00    -0.237 OA
ATOM     81  O   UNL A   1      42.952  19.439  24.777  1.00  0.00    -0.237 OA
ATOM     82  O   UNL A   1      42.680  18.455  27.018  1.00  0.00    -0.744 OA
ENDBRANCH  78  79
ENDBRANCH  50  73
BRANCH  62  83
ATOM     83  C   UNL A   1      48.007  26.861  30.746  1.00  0.00    -0.014 A 
ATOM     84  C   UNL A   1      49.046  27.052  29.820  1.00  0.00     0.010 A 
ATOM     85  C   UNL A   1      48.305  26.321  32.011  1.00  0.00     0.010 A 
ATOM     86  C   UNL A   1      50.356  26.686  30.143  1.00  0.00     0.020 A 
ATOM     87  C   UNL A   1      49.617  25.980  32.348  1.00  0.00     0.020 A 
ATOM     88  C   UNL A   1      50.633  26.153  31.407  1.00  0.00     0.054 A 
BRANCH  88  89
ATOM     89  S   UNL A   1      52.349  25.736  31.821  1.00  0.00     0.124 S 
ATOM     90  O   UNL A   1      53.056  26.108  30.599  1.00  0.00    -0.237 OA
ATOM     91  O   UNL A   1      52.613  26.581  32.983  1.00  0.00    -0.237 OA
ATOM     92  O   UNL A   1      52.299  24.303  32.101  1.00  0.00    -0.744 OA
ENDBRANCH  88  89
ENDBRANCH  62  83
ENDBRANCH  36  37
ENDBRANCH  28  31
ENDBRANCH  26  27
ENDBRANCH  25  26
ENDBRANCH   1  25
TORSDOF 19
ENDMDL
MODEL 2
REMARK VINA RESULT:     -10.6      0.790      2.233
REMARK SMILES CC[C@H](C)CN(CC)c1nc(C(=O)NCCCCNC(=O)c2ccc(-c3c4nc(c(-c5ccc(S(=O)(=O)[O-])cc5)c5ccc([nH]5)c(-c5ccc(S(=O)(=O)[O-])cc5)c5nc(c(-c6ccc(S(=O)(=O)[O-])cc6)c6ccc3[nH]6)C=C5)C=C4)cc2)cc2ccccc12
REMARK SMILES IDX 16 1 15 2 14 3 12 4 13 5 11 7 9 8 10 9 88 10 83 11 87 12
REMARK SMILES IDX 82 13 84 14 86 15 85 16 6 17 5 18 3 19 4 20 2 21 1 22 7 23
REMARK SMILES IDX 8 24 17 25 18 26 19 27 20 28 21 30 22 31 23 32 81 33 24 34
REMARK SMILES IDX 80 35 25 36 26 37 27 38 74 39 28 40 79 41 73 42 75 43 29 44
REMARK SMILES IDX 78 45 72 46 71 47 30 49 60 50 41 51 59 52 42 53 45 54 58 55
REMARK SMILES IDX 76 56 43 57 44 58 57 60 77 61 46 62 31 63 32 64 40 65 33 66
REMARK SMILES IDX 39 67 34 68 35 69 36 70 37 71 38 72 61 73 62 74 70 75 63 76
REMARK SMILES IDX 69 77 64 78 65 79 66 80 67 81 68 82 47 83 48 84 56 85 49 86
REMARK SMILES IDX 55 87 50 88 51 89 52 90 53 91 54 92
REMARK H PARENT 14 6 19 29 75 48 45 59
REMARK Flexibility Score: inf
ROOT
ATOM      1  C   UNL A   1      32.420  26.664  25.780  1.00  0.00     0.023 C 
ENDROOT
BRANCH   1   2
ATOM      2  C   UNL A   1      31.587  26.320  24.550  1.00  0.00     0.116 C 
BRANCH   2   3
ATOM      3  N   UNL A   1      32.303  26.500  23.305  1.00  0.00    -0.351 N 
ATOM      4  C   UNL A   1      33.302  25.737  22.743  1.00  0.00     0.269 C 
ATOM      5  O   UNL A   1      33.750  26.108  21.654  1.00  0.00    -0.268 OA
ATOM      6  H   UNL A   1      32.034  27.289  22.780  1.00  0.00     0.163 HD
BRANCH   4   7
ATOM      7  C   UNL A   1      33.863  24.495  23.380  1.00  0.00     0.131 A 
ATOM      8  C   UNL A   1      33.643  22.261  23.995  1.00  0.00     0.137 A 
ATOM      9  N   UNL A   1      33.103  23.377  23.458  1.00  0.00    -0.225 NA
ATOM     10  C   UNL A   1      35.011  22.201  24.372  1.00  0.00     0.024 A 
ATOM     11  C   UNL A   1      35.746  23.403  24.383  1.00  0.00    -0.012 A 
ATOM     12  C   UNL A   1      35.679  21.022  24.774  1.00  0.00     0.012 A 
ATOM     13  C   UNL A   1      35.162  24.558  23.867  1.00  0.00     0.043 A 
ATOM     14  C   UNL A   1      37.042  23.428  24.928  1.00  0.00     0.009 A 
ATOM     15  C   UNL A   1      36.964  21.053  25.314  1.00  0.00     0.001 A 
ATOM     16  C   UNL A   1      37.633  22.265  25.420  1.00  0.00     0.001 A 
BRANCH   8  17
ATOM     17  N   UNL A   1      32.775  21.212  24.336  1.00  0.00    -0.356 N 
BRANCH  17  18
ATOM     18  C   UNL A   1      31.671  21.568  25.259  1.00  0.00     0.121 C 
BRANCH  18  19
ATOM     19  C   UNL A   1      32.113  22.612  26.315  1.00  0.00     0.005 C 
ATOM     20  C   UNL A   1      30.913  23.422  26.828  1.00  0.00     0.009 C 
BRANCH  19  21
ATOM     21  C   UNL A   1      32.881  22.006  27.509  1.00  0.00     0.002 C 
ATOM     22  C   UNL A   1      34.198  22.746  27.742  1.00  0.00     0.004 C 
ENDBRANCH  19  21
ENDBRANCH  18  19
ENDBRANCH  17  18
BRANCH  17  23
ATOM     23  C   UNL A   1      32.512  20.192  23.317  1.00  0.00     0.114 C 
ATOM     24  C   UNL A   1      31.863  20.716  22.047  1.00  0.00     0.027 C 
ENDBRANCH  17  23
ENDBRANCH   8  17
ENDBRANCH   4   7
ENDBRANCH   2   3
ENDBRANCH   1   2
BRANCH   1  25
ATOM     25  C   UNL A   1      32.347  28.112  26.251  1.00  0.00     0.023 C 
BRANCH  25  26
ATOM     26  C   UNL A   1      33.358  28.509  27.321  1.00  0.00     0.116 C 
BRANCH  26  27
ATOM     27  N   UNL A   1      33.396  29.942  27.580  1.00  0.00    -0.352 N 
ATOM     28  C   UNL A   1      34.419  30.722  28.073  1.00  0.00     0.251 C 
ATOM     29  H   UNL A   1      32.564  30.426  27.372  1.00  0.00     0.163 HD
ATOM     30  O   UNL A   1      34.226  31.900  28.330  1.00  0.00    -0.269 OA
BRANCH  28  31
ATOM     31  C   UNL A   1      35.744  30.109  28.324  1.00  0.00     0.039 A 
ATOM     32  C   UNL A   1      36.692  30.103  27.299  1.00  0.00     0.014 A 
ATOM     33  C   UNL A   1      36.062  29.586  29.579  1.00  0.00     0.014 A 
ATOM     34  C   UNL A   1      37.991  29.659  27.562  1.00  0.00     0.010 A 
ATOM     35  C   UNL A   1      37.375  29.225  29.862  1.00  0.00     0.010 A 
ATOM     36  C   UNL A   1      38.358  29.266  28.860  1.00  0.00    -0.014 A 
BRANCH  36  37
ATOM     37  C   UNL A   1      39.760  28.911  29.200  1.00  0.00     0.031 A 
ATOM     38  C   UNL A   1      40.662  29.929  29.845  1.00  0.00     0.074 A 
ATOM     39  C   UNL A   1      40.248  27.703  28.853  1.00  0.00     0.049 A 
ATOM     40  N   UNL A   1      41.935  29.838  30.133  1.00  0.00    -0.248 NA
ATOM     41  C   UNL A   1      40.062  31.231  30.182  1.00  0.00     0.031 C 
ATOM     42  C   UNL A   1      39.492  26.642  28.181  1.00  0.00     0.029 A 
ATOM     43  N   UNL A   1      41.502  27.165  29.007  1.00  0.00    -0.354 N 
ATOM     44  C   UNL A   1      42.292  31.072  30.663  1.00  0.00     0.074 A 
ATOM     45  C   UNL A   1      41.115  31.911  30.611  1.00  0.00     0.031 C 
ATOM     46  C   UNL A   1      40.289  25.575  28.006  1.00  0.00     0.029 A 
ATOM     47  C   UNL A   1      41.622  25.887  28.510  1.00  0.00     0.049 A 
ATOM     48  H   UNL A   1      42.246  27.648  29.434  1.00  0.00     0.167 HD
ATOM     49  C   UNL A   1      43.485  31.467  31.167  1.00  0.00     0.031 A 
ATOM     50  C   UNL A   1      42.686  25.062  28.459  1.00  0.00     0.031 A 
ATOM     51  C   UNL A   1      44.650  30.627  31.234  1.00  0.00     0.049 A 
ATOM     52  C   UNL A   1      44.001  25.523  29.023  1.00  0.00     0.074 A 
ATOM     53  C   UNL A   1      45.888  30.915  31.782  1.00  0.00     0.029 A 
ATOM     54  N   UNL A   1      44.723  29.333  30.739  1.00  0.00    -0.354 N 
ATOM     55  N   UNL A   1      44.301  26.673  29.580  1.00  0.00    -0.248 NA
ATOM     56  C   UNL A   1      45.121  24.573  28.962  1.00  0.00     0.031 C 
ATOM     57  C   UNL A   1      46.724  29.813  31.575  1.00  0.00     0.029 A 
ATOM     58  C   UNL A   1      45.991  28.818  30.950  1.00  0.00     0.049 A 
ATOM     59  H   UNL A   1      43.983  28.853  30.303  1.00  0.00     0.167 HD
ATOM     60  C   UNL A   1      45.635  26.573  29.960  1.00  0.00     0.074 A 
ATOM     61  C   UNL A   1      46.080  25.247  29.582  1.00  0.00     0.031 C 
ATOM     62  C   UNL A   1      46.419  27.495  30.570  1.00  0.00     0.031 A 
BRANCH  49  63
ATOM     63  C   UNL A   1      43.588  32.878  31.685  1.00  0.00    -0.014 A 
ATOM     64  C   UNL A   1      43.829  33.955  30.814  1.00  0.00     0.010 A 
ATOM     65  C   UNL A   1      43.406  33.135  33.057  1.00  0.00     0.010 A 
ATOM     66  C   UNL A   1      43.933  35.257  31.309  1.00  0.00     0.020 A 
ATOM     67  C   UNL A   1      43.480  34.440  33.552  1.00  0.00     0.020 A 
ATOM     68  C   UNL A   1      43.763  35.491  32.677  1.00  0.00     0.054 A 
BRANCH  68  69
ATOM     69  S   UNL A   1      43.885  37.194  33.289  1.00  0.00     0.124 S 
ATOM     70  O   UNL A   1      43.975  37.954  32.045  1.00  0.00    -0.237 OA
ATOM     71  O   UNL A   1      42.640  37.357  34.035  1.00  0.00    -0.237 OA
ATOM     72  O   UNL A   1      45.098  37.184  34.102  1.00  0.00    -0.744 OA
ENDBRANCH  68  69
ENDBRANCH  49  63
BRANCH  50  73
ATOM     73  C   UNL A   1      42.546  23.704  27.863  1.00  0.00    -0.014 A 
ATOM     74  C   UNL A   1      42.828  23.492  26.502  1.00  0.00     0.010 A 
ATOM     75  C   UNL A   1      42.141  22.614  28.656  1.00  0.00     0.010 A 
ATOM     76  C   UNL A   1      42.691  22.219  25.940  1.00  0.00     0.020 A 
ATOM     77  C   UNL A   1      42.030  21.334  28.103  1.00  0.00     0.020 A 
ATOM     78  C   UNL A   1      42.295  21.147  26.744  1.00  0.00     0.054 A 
BRANCH  78  79
ATOM     79  S   UNL A   1      42.175  19.495  26.005  1.00  0.00     0.124 S 
ATOM     80  O   UNL A   1      40.747  19.393  25.719  1.00  0.00    -0.237 OA
ATOM     81  O   UNL A   1      43.048  19.606  24.839  1.00  0.00    -0.237 OA
ATOM     82  O   UNL A   1      42.668  18.612  27.060  1.00  0.00    -0.744 OA
ENDBRANCH  78  79
ENDBRANCH  50  73
BRANCH  62  83
ATOM     83  C   UNL A   1      47.832  27.096  30.902  1.00  0.00    -0.014 A 
ATOM     84  C   UNL A   1      48.143  26.444  32.107  1.00  0.00     0.010 A 
ATOM     85  C   UNL A   1      48.854  27.325  29.961  1.00  0.00     0.010 A 
ATOM     86  C   UNL A   1      49.456  26.050  32.378  1.00  0.00     0.020 A 
ATOM     87  C   UNL A   1      50.162  26.908  30.216  1.00  0.00     0.020 A 
ATOM     88  C   UNL A   1      50.457  26.284  31.430  1.00  0.00     0.054 A 
BRANCH  88  89
ATOM     89  S   UNL A   1      52.143  25.715  31.782  1.00  0.00     0.124 S 
ATOM     90  O   UNL A   1      51.936  24.295  32.049  1.00  0.00    -0.237 OA
ATOM     91  O   UNL A   1      52.852  26.025  30.543  1.00  0.00    -0.237 OA
ATOM     92  O   UNL A   1      52.545  26.515  32.937  1.00  0.00    -0.744 OA
ENDBRANCH  88  89
ENDBRANCH  62  83
ENDBRANCH  36  37
ENDBRANCH  28  31
ENDBRANCH  26  27
ENDBRANCH  25  26
ENDBRANCH   1  25
TORSDOF 19
ENDMDL
MODEL 3
REMARK VINA RESULT:     -10.1      0.522      8.125
REMARK SMILES CC[C@H](C)CN(CC)c1nc(C(=O)NCCCCNC(=O)c2ccc(-c3c4nc(c(-c5ccc(S(=O)(=O)[O-])cc5)c5ccc([nH]5)c(-c5ccc(S(=O)(=O)[O-])cc5)c5nc(c(-c6ccc(S(=O)(=O)[O-])cc6)c6ccc3[nH]6)C=C5)C=C4)cc2)cc2ccccc12
REMARK SMILES IDX 16 1 15 2 14 3 12 4 13 5 11 7 9 8 10 9 88 10 83 11 87 12
REMARK SMILES IDX 82 13 84 14 86 15 85 16 6 17 5 18 3 19 4 20 2 21 1 22 7 23
REMARK SMILES IDX 8 24 17 25 18 26 19 27 20 28 21 30 22 31 23 32 81 33 24 34
REMARK SMILES IDX 80 35 25 36 26 37 27 38 74 39 28 40 79 41 73 42 75 43 29 44
REMARK SMILES IDX 78 45 72 46 71 47 30 49 60 50 41 51 59 52 42 53 45 54 58 55
REMARK SMILES IDX 76 56 43 57 44 58 57 60 77 61 46 62 31 63 32 64 40 65 33 66
REMARK SMILES IDX 39 67 34 68 35 69 36 70 37 71 38 72 61 73 62 74 70 75 63 76
REMARK SMILES IDX 69 77 64 78 65 79 66 80 67 81 68 82 47 83 48 84 56 85 49 86
REMARK SMILES IDX 55 87 50 88 51 89 52 90 53 91 54 92
REMARK H PARENT 14 6 19 29 75 48 45 59
REMARK Flexibility Score: inf
ROOT
ATOM      1  C   UNL A   1      31.669  27.753  25.419  1.00  0.00     0.023 C 
ENDROOT
BRANCH   1   2
ATOM      2  C   UNL A   1      31.265  26.849  24.259  1.00  0.00     0.116 C 
BRANCH   2   3
ATOM      3  N   UNL A   1      32.179  26.913  23.138  1.00  0.00    -0.351 N 
ATOM      4  C   UNL A   1      33.034  25.954  22.641  1.00  0.00     0.269 C 
ATOM      5  O   UNL A   1      33.714  26.261  21.658  1.00  0.00    -0.268 OA
ATOM      6  H   UNL A   1      32.191  27.772  22.658  1.00  0.00     0.163 HD
BRANCH   4   7
ATOM      7  C   UNL A   1      33.175  24.576  23.227  1.00  0.00     0.131 A 
ATOM      8  C   UNL A   1      33.896  23.169  24.936  1.00  0.00     0.137 A 
ATOM      9  N   UNL A   1      33.819  24.410  24.407  1.00  0.00    -0.225 NA
ATOM     10  C   UNL A   1      33.227  22.064  24.346  1.00  0.00     0.024 A 
ATOM     11  C   UNL A   1      32.661  22.240  23.069  1.00  0.00    -0.012 A 
ATOM     12  C   UNL A   1      33.122  20.785  24.937  1.00  0.00     0.012 A 
ATOM     13  C   UNL A   1      32.627  23.518  22.514  1.00  0.00     0.043 A 
ATOM     14  C   UNL A   1      32.158  21.132  22.365  1.00  0.00     0.009 A 
ATOM     15  C   UNL A   1      32.624  19.689  24.234  1.00  0.00     0.001 A 
ATOM     16  C   UNL A   1      32.170  19.858  22.933  1.00  0.00     0.001 A 
BRANCH   8  17
ATOM     17  N   UNL A   1      34.800  22.961  25.990  1.00  0.00    -0.356 N 
BRANCH  17  18
ATOM     18  C   UNL A   1      36.218  23.272  25.689  1.00  0.00     0.121 C 
BRANCH  18  19
ATOM     19  C   UNL A   1      36.934  22.088  24.990  1.00  0.00     0.005 C 
ATOM     20  C   UNL A   1      36.836  22.207  23.462  1.00  0.00     0.009 C 
BRANCH  19  21
ATOM     21  C   UNL A   1      38.411  21.919  25.405  1.00  0.00     0.002 C 
ATOM     22  C   UNL A   1      38.779  22.897  26.521  1.00  0.00     0.004 C 
ENDBRANCH  19  21
ENDBRANCH  18  19
ENDBRANCH  17  18
BRANCH  17  23
ATOM     23  C   UNL A   1      34.321  23.209  27.352  1.00  0.00     0.114 C 
ATOM     24  C   UNL A   1      33.253  22.241  27.835  1.00  0.00     0.027 C 
ENDBRANCH  17  23
ENDBRANCH   8  17
ENDBRANCH   4   7
ENDBRANCH   2   3
ENDBRANCH   1   2
BRANCH   1  25
ATOM     25  C   UNL A   1      33.164  28.005  25.578  1.00  0.00     0.023 C 
BRANCH  25  26
ATOM     26  C   UNL A   1      33.645  28.239  27.005  1.00  0.00     0.116 C 
BRANCH  26  27
ATOM     27  N   UNL A   1      33.531  29.625  27.436  1.00  0.00    -0.352 N 
ATOM     28  C   UNL A   1      34.460  30.437  28.050  1.00  0.00     0.251 C 
ATOM     29  H   UNL A   1      32.658  30.047  27.261  1.00  0.00     0.163 HD
ATOM     30  O   UNL A   1      34.142  31.550  28.442  1.00  0.00    -0.269 OA
BRANCH  28  31
ATOM     31  C   UNL A   1      35.836  29.934  28.267  1.00  0.00     0.039 A 
ATOM     32  C   UNL A   1      36.766  30.040  27.231  1.00  0.00     0.014 A 
ATOM     33  C   UNL A   1      36.215  29.402  29.501  1.00  0.00     0.014 A 
ATOM     34  C   UNL A   1      38.102  29.701  27.466  1.00  0.00     0.010 A 
ATOM     35  C   UNL A   1      37.558  29.147  29.758  1.00  0.00     0.010 A 
ATOM     36  C   UNL A   1      38.519  29.302  28.747  1.00  0.00    -0.014 A 
BRANCH  36  37
ATOM     37  C   UNL A   1      39.951  29.059  29.059  1.00  0.00     0.031 A 
ATOM     38  C   UNL A   1      40.581  27.733  28.731  1.00  0.00     0.074 A 
ATOM     39  C   UNL A   1      40.663  30.000  29.712  1.00  0.00     0.049 A 
ATOM     40  N   UNL A   1      41.786  27.301  29.007  1.00  0.00    -0.248 NA
ATOM     41  C   UNL A   1      39.738  26.751  28.030  1.00  0.00     0.031 C 
ATOM     42  C   UNL A   1      40.158  31.311  30.130  1.00  0.00     0.029 A 
ATOM     43  N   UNL A   1      41.964  29.994  30.152  1.00  0.00    -0.354 N 
ATOM     44  C   UNL A   1      41.837  25.996  28.533  1.00  0.00     0.074 A 
ATOM     45  C   UNL A   1      40.529  25.688  27.998  1.00  0.00     0.031 C 
ATOM     46  C   UNL A   1      41.143  31.990  30.739  1.00  0.00     0.029 A 
ATOM     47  C   UNL A   1      42.336  31.152  30.798  1.00  0.00     0.049 A 
ATOM     48  H   UNL A   1      42.574  29.234  30.018  1.00  0.00     0.167 HD
ATOM     49  C   UNL A   1      42.883  25.136  28.525  1.00  0.00     0.031 A 
ATOM     50  C   UNL A   1      43.501  31.498  31.378  1.00  0.00     0.031 A 
ATOM     51  C   UNL A   1      44.188  25.448  29.041  1.00  0.00     0.049 A 
ATOM     52  C   UNL A   1      44.649  30.526  31.358  1.00  0.00     0.074 A 
ATOM     53  C   UNL A   1      45.331  24.666  29.024  1.00  0.00     0.029 A 
ATOM     54  N   UNL A   1      44.529  26.639  29.667  1.00  0.00    -0.354 N 
ATOM     55  N   UNL A   1      44.696  29.319  30.846  1.00  0.00    -0.248 NA
ATOM     56  C   UNL A   1      45.903  30.965  31.984  1.00  0.00     0.031 C 
ATOM     57  C   UNL A   1      46.348  25.365  29.682  1.00  0.00     0.029 A 
ATOM     58  C   UNL A   1      45.856  26.604  30.059  1.00  0.00     0.049 A 
ATOM     59  H   UNL A   1      43.916  27.396  29.811  1.00  0.00     0.167 HD
ATOM     60  C   UNL A   1      45.993  28.866  31.064  1.00  0.00     0.074 A 
ATOM     61  C   UNL A   1      46.701  29.933  31.742  1.00  0.00     0.031 C 
ATOM     62  C   UNL A   1      46.548  27.675  30.731  1.00  0.00     0.031 A 
BRANCH  49  63
ATOM     63  C   UNL A   1      42.654  23.768  27.937  1.00  0.00    -0.014 A 
ATOM     64  C   UNL A   1      42.219  22.697  28.738  1.00  0.00     0.010 A 
ATOM     65  C   UNL A   1      42.843  23.558  26.558  1.00  0.00     0.010 A 
ATOM     66  C   UNL A   1      42.020  21.431  28.182  1.00  0.00     0.020 A 
ATOM     67  C   UNL A   1      42.617  22.300  25.992  1.00  0.00     0.020 A 
ATOM     68  C   UNL A   1      42.225  21.239  26.812  1.00  0.00     0.054 A 
BRANCH  68  69
ATOM     69  S   UNL A   1      41.942  19.589  26.115  1.00  0.00     0.124 S 
ATOM     70  O   UNL A   1      42.720  19.648  24.880  1.00  0.00    -0.237 OA
ATOM     71  O   UNL A   1      42.473  18.707  27.151  1.00  0.00    -0.237 OA
ATOM     72  O   UNL A   1      40.494  19.533  25.935  1.00  0.00    -0.744 OA
ENDBRANCH  68  69
ENDBRANCH  49  63
BRANCH  50  73
ATOM     73  C   UNL A   1      43.647  32.836  32.014  1.00  0.00    -0.014 A 
ATOM     74  C   UNL A   1      43.386  33.004  33.386  1.00  0.00     0.010 A 
ATOM     75  C   UNL A   1      44.060  33.947  31.256  1.00  0.00     0.010 A 
ATOM     76  C   UNL A   1      43.517  34.261  33.983  1.00  0.00     0.020 A 
ATOM     77  C   UNL A   1      44.218  35.200  31.857  1.00  0.00     0.020 A 
ATOM     78  C   UNL A   1      43.934  35.351  33.216  1.00  0.00     0.054 A 
BRANCH  78  79
ATOM     79  S   UNL A   1      44.147  36.962  34.024  1.00  0.00     0.124 S 
ATOM     80  O   UNL A   1      44.887  37.713  33.015  1.00  0.00    -0.237 OA
ATOM     81  O   UNL A   1      42.768  37.388  34.247  1.00  0.00    -0.237 OA
ATOM     82  O   UNL A   1      44.894  36.639  35.238  1.00  0.00    -0.744 OA
ENDBRANCH  78  79
ENDBRANCH  50  73
BRANCH  62  83
ATOM     83  C   UNL A   1      48.002  27.469  31.060  1.00  0.00    -0.014 A 
ATOM     84  C   UNL A   1      48.399  26.878  32.272  1.00  0.00     0.010 A 
ATOM     85  C   UNL A   1      48.982  27.817  30.111  1.00  0.00     0.010 A 
ATOM     86  C   UNL A   1      49.754  26.663  32.540  1.00  0.00     0.020 A 
ATOM     87  C   UNL A   1      50.334  27.578  30.365  1.00  0.00     0.020 A 
ATOM     88  C   UNL A   1      50.713  27.013  31.584  1.00  0.00     0.054 A 
BRANCH  88  89
ATOM     89  S   UNL A   1      52.460  26.675  31.935  1.00  0.00     0.124 S 
ATOM     90  O   UNL A   1      53.118  27.847  31.364  1.00  0.00    -0.237 OA
ATOM     91  O   UNL A   1      52.484  26.588  33.393  1.00  0.00    -0.237 OA
ATOM     92  O   UNL A   1      52.716  25.415  31.240  1.00  0.00    -0.744 OA
ENDBRANCH  88  89
ENDBRANCH  62  83
ENDBRANCH  36  37
ENDBRANCH  28  31
ENDBRANCH  26  27
ENDBRANCH  25  26
ENDBRANCH   1  25
TORSDOF 19
ENDMDL
