MODEL 1
REMARK VINA RESULT:     -10.4      0.000      0.000
REMARK SMILES COCCC(=O)N1CCc2cc(C(=O)NCCCCNC(=O)c3ccc(-c4c5nc(c(-c6ccc(S(=O)(=O)[O-])cc6)c6ccc([nH]6)c(-c6ccc(S(=O)(=O)[O-])cc6)c6nc(c(-c7ccc(S(=O)(=O)[O-])cc7)c7ccc4[nH]7)C=C6)C=C5)cc3)ccc21
REMARK SMILES IDX 17 1 16 2 15 3 13 4 14 5 12 7 7 8 8 9 85 10 9 11 10 12 84 13
REMARK SMILES IDX 11 14 83 15 5 16 6 17 4 18 3 19 2 20 1 21 18 22 19 23 20 24
REMARK SMILES IDX 21 25 22 27 23 28 24 29 82 30 25 31 81 32 26 33 27 34 28 35
REMARK SMILES IDX 75 36 29 37 80 38 74 39 76 40 30 41 79 42 73 43 72 44 31 46
REMARK SMILES IDX 61 47 42 48 60 49 43 50 46 51 59 52 77 53 44 54 45 55 58 57
REMARK SMILES IDX 78 58 47 59 32 60 33 61 41 62 34 63 40 64 35 65 36 66 37 67
REMARK SMILES IDX 38 68 39 69 62 70 63 71 71 72 64 73 70 74 65 75 66 76 67 77
REMARK SMILES IDX 68 78 69 79 48 80 49 81 57 82 50 83 56 84 51 85 52 86 53 87
REMARK SMILES IDX 54 88 55 89
REMARK H PARENT 15 6 20 26 76 45 46 56
REMARK Flexibility Score: inf
ROOT
ATOM      1  C   UNL A   1      32.370  28.014  24.783  1.00  0.00     0.023 C 
ENDROOT
BRANCH   1   2
ATOM      2  C   UNL A   1      31.500  27.272  23.765  1.00  0.00     0.116 C 
BRANCH   2   3
ATOM      3  N   UNL A   1      32.248  26.968  22.558  1.00  0.00    -0.352 N 
ATOM      4  C   UNL A   1      32.932  25.843  22.165  1.00  0.00     0.251 C 
ATOM      5  O   UNL A   1      33.413  25.815  21.033  1.00  0.00    -0.269 OA
ATOM      6  H   UNL A   1      32.270  27.701  21.901  1.00  0.00     0.163 HD
BRANCH   4   7
ATOM      7  C   UNL A   1      33.031  24.627  23.020  1.00  0.00     0.040 A 
ATOM      8  N   UNL A   1      33.874  20.960  24.728  1.00  0.00    -0.312 N 
ATOM      9  C   UNL A   1      35.292  21.082  25.077  1.00  0.00     0.130 C 
ATOM     10  C   UNL A   1      33.404  22.195  24.287  1.00  0.00     0.047 A 
ATOM     11  C   UNL A   1      35.685  22.550  24.851  1.00  0.00     0.059 C 
ATOM     12  C   UNL A   1      34.461  23.094  24.186  1.00  0.00    -0.022 A 
ATOM     13  C   UNL A   1      32.118  22.566  23.957  1.00  0.00     0.027 A 
ATOM     14  C   UNL A   1      34.295  24.309  23.538  1.00  0.00     0.019 A 
ATOM     15  C   UNL A   1      31.937  23.799  23.326  1.00  0.00     0.016 A 
BRANCH   8  16
ATOM     16  C   UNL A   1      33.243  19.741  24.667  1.00  0.00     0.229 C 
ATOM     17  O   UNL A   1      32.079  19.607  25.052  1.00  0.00    -0.274 OA
BRANCH  16  18
ATOM     18  C   UNL A   1      34.134  18.508  24.492  1.00  0.00     0.129 C 
BRANCH  18  19
ATOM     19  C   UNL A   1      33.721  17.456  23.474  1.00  0.00     0.169 C 
BRANCH  19  20
ATOM     20  O   UNL A   1      33.221  16.254  24.069  1.00  0.00    -0.384 OA
ATOM     21  C   UNL A   1      33.675  16.015  25.393  1.00  0.00     0.194 C 
ENDBRANCH  19  20
ENDBRANCH  18  19
ENDBRANCH  16  18
ENDBRANCH   8  16
ENDBRANCH   4   7
ENDBRANCH   2   3
ENDBRANCH   1   2
BRANCH   1  22
ATOM     22  C   UNL A   1      33.126  27.110  25.756  1.00  0.00     0.023 C 
BRANCH  22  23
ATOM     23  C   UNL A   1      34.092  27.827  26.691  1.00  0.00     0.116 C 
BRANCH  23  24
ATOM     24  N   UNL A   1      33.668  29.175  27.028  1.00  0.00    -0.352 N 
ATOM     25  C   UNL A   1      34.360  30.162  27.692  1.00  0.00     0.251 C 
ATOM     26  H   UNL A   1      32.758  29.417  26.742  1.00  0.00     0.163 HD
ATOM     27  O   UNL A   1      33.794  31.202  27.999  1.00  0.00    -0.269 OA
BRANCH  25  28
ATOM     28  C   UNL A   1      35.777  29.943  28.062  1.00  0.00     0.039 A 
ATOM     29  C   UNL A   1      36.075  29.517  29.358  1.00  0.00     0.014 A 
ATOM     30  C   UNL A   1      36.805  30.140  27.135  1.00  0.00     0.014 A 
ATOM     31  C   UNL A   1      37.397  29.233  29.704  1.00  0.00     0.010 A 
ATOM     32  C   UNL A   1      38.109  29.774  27.455  1.00  0.00     0.010 A 
ATOM     33  C   UNL A   1      38.421  29.324  28.747  1.00  0.00    -0.014 A 
BRANCH  33  34
ATOM     34  C   UNL A   1      39.820  28.957  29.087  1.00  0.00     0.031 A 
ATOM     35  C   UNL A   1      40.723  29.949  29.771  1.00  0.00     0.074 A 
ATOM     36  C   UNL A   1      40.292  27.742  28.741  1.00  0.00     0.049 A 
ATOM     37  N   UNL A   1      41.970  29.807  30.144  1.00  0.00    -0.248 NA
ATOM     38  C   UNL A   1      40.163  31.282  30.051  1.00  0.00     0.031 C 
ATOM     39  C   UNL A   1      39.534  26.711  28.026  1.00  0.00     0.029 A 
ATOM     40  N   UNL A   1      41.520  27.166  28.946  1.00  0.00    -0.354 N 
ATOM     41  C   UNL A   1      42.344  31.030  30.690  1.00  0.00     0.074 A 
ATOM     42  C   UNL A   1      41.214  31.920  30.545  1.00  0.00     0.031 C 
ATOM     43  C   UNL A   1      40.302  25.618  27.888  1.00  0.00     0.029 A 
ATOM     44  C   UNL A   1      41.616  25.880  28.466  1.00  0.00     0.049 A 
ATOM     45  H   UNL A   1      42.264  27.629  29.395  1.00  0.00     0.167 HD
ATOM     46  C   UNL A   1      43.513  31.375  31.280  1.00  0.00     0.031 A 
ATOM     47  C   UNL A   1      42.643  25.009  28.488  1.00  0.00     0.031 A 
ATOM     48  C   UNL A   1      44.633  30.484  31.430  1.00  0.00     0.049 A 
ATOM     49  C   UNL A   1      43.934  25.417  29.148  1.00  0.00     0.074 A 
ATOM     50  C   UNL A   1      45.839  30.719  32.067  1.00  0.00     0.029 A 
ATOM     51  N   UNL A   1      44.688  29.190  30.934  1.00  0.00    -0.354 N 
ATOM     52  N   UNL A   1      44.238  26.552  29.731  1.00  0.00    -0.248 NA
ATOM     53  C   UNL A   1      45.012  24.420  29.164  1.00  0.00     0.031 C 
ATOM     54  C   UNL A   1      46.646  29.588  31.903  1.00  0.00     0.029 A 
ATOM     55  C   UNL A   1      45.919  28.624  31.224  1.00  0.00     0.049 A 
ATOM     56  H   UNL A   1      43.960  28.740  30.447  1.00  0.00     0.167 HD
ATOM     57  C   UNL A   1      45.536  26.396  30.206  1.00  0.00     0.074 A 
ATOM     58  C   UNL A   1      45.947  25.050  29.862  1.00  0.00     0.031 C 
ATOM     59  C   UNL A   1      46.318  27.286  30.866  1.00  0.00     0.031 A 
BRANCH  46  60
ATOM     60  C   UNL A   1      43.641  32.783  31.803  1.00  0.00    -0.014 A 
ATOM     61  C   UNL A   1      44.222  33.801  31.024  1.00  0.00     0.010 A 
ATOM     62  C   UNL A   1      43.133  33.105  33.075  1.00  0.00     0.010 A 
ATOM     63  C   UNL A   1      44.332  35.102  31.523  1.00  0.00     0.020 A 
ATOM     64  C   UNL A   1      43.213  34.411  33.566  1.00  0.00     0.020 A 
ATOM     65  C   UNL A   1      43.827  35.398  32.793  1.00  0.00     0.054 A 
BRANCH  65  66
ATOM     66  S   UNL A   1      43.962  37.100  33.404  1.00  0.00     0.124 S 
ATOM     67  O   UNL A   1      43.044  37.087  34.540  1.00  0.00    -0.237 OA
ATOM     68  O   UNL A   1      45.379  37.206  33.743  1.00  0.00    -0.237 OA
ATOM     69  O   UNL A   1      43.534  37.913  32.268  1.00  0.00    -0.744 OA
ENDBRANCH  65  66
ENDBRANCH  46  60
BRANCH  47  70
ATOM     70  C   UNL A   1      42.488  23.658  27.882  1.00  0.00    -0.014 A 
ATOM     71  C   UNL A   1      43.063  23.360  26.634  1.00  0.00     0.010 A 
ATOM     72  C   UNL A   1      41.768  22.654  28.557  1.00  0.00     0.010 A 
ATOM     73  C   UNL A   1      42.901  22.096  26.061  1.00  0.00     0.020 A 
ATOM     74  C   UNL A   1      41.631  21.379  28.003  1.00  0.00     0.020 A 
ATOM     75  C   UNL A   1      42.188  21.111  26.751  1.00  0.00     0.054 A 
BRANCH  75  76
ATOM     76  S   UNL A   1      42.032  19.462  26.010  1.00  0.00     0.124 S 
ATOM     77  O   UNL A   1      42.856  19.588  24.813  1.00  0.00    -0.237 OA
ATOM     78  O   UNL A   1      42.564  18.595  27.058  1.00  0.00    -0.237 OA
ATOM     79  O   UNL A   1      40.596  19.330  25.772  1.00  0.00    -0.744 OA
ENDBRANCH  75  76
ENDBRANCH  47  70
BRANCH  59  80
ATOM     80  C   UNL A   1      47.689  26.825  31.285  1.00  0.00    -0.014 A 
ATOM     81  C   UNL A   1      48.811  27.022  30.459  1.00  0.00     0.010 A 
ATOM     82  C   UNL A   1      47.864  26.214  32.541  1.00  0.00     0.010 A 
ATOM     83  C   UNL A   1      50.073  26.580  30.864  1.00  0.00     0.020 A 
ATOM     84  C   UNL A   1      49.130  25.800  32.963  1.00  0.00     0.020 A 
ATOM     85  C   UNL A   1      50.223  25.969  32.112  1.00  0.00     0.054 A 
BRANCH  85  86
ATOM     86  S   UNL A   1      51.876  25.425  32.624  1.00  0.00     0.124 S 
ATOM     87  O   UNL A   1      52.182  26.361  33.703  1.00  0.00    -0.237 OA
ATOM     88  O   UNL A   1      51.646  24.043  33.037  1.00  0.00    -0.237 OA
ATOM     89  O   UNL A   1      52.683  25.582  31.416  1.00  0.00    -0.744 OA
ENDBRANCH  85  86
ENDBRANCH  59  80
ENDBRANCH  33  34
ENDBRANCH  25  28
ENDBRANCH  23  24
ENDBRANCH  22  23
ENDBRANCH   1  22
TORSDOF 18
ENDMDL
MODEL 2
REMARK VINA RESULT:     -10.3      2.253      2.772
REMARK SMILES COCCC(=O)N1CCc2cc(C(=O)NCCCCNC(=O)c3ccc(-c4c5nc(c(-c6ccc(S(=O)(=O)[O-])cc6)c6ccc([nH]6)c(-c6ccc(S(=O)(=O)[O-])cc6)c6nc(c(-c7ccc(S(=O)(=O)[O-])cc7)c7ccc4[nH]7)C=C6)C=C5)cc3)ccc21
REMARK SMILES IDX 17 1 16 2 15 3 13 4 14 5 12 7 7 8 8 9 85 10 9 11 10 12 84 13
REMARK SMILES IDX 11 14 83 15 5 16 6 17 4 18 3 19 2 20 1 21 18 22 19 23 20 24
REMARK SMILES IDX 21 25 22 27 23 28 24 29 82 30 25 31 81 32 26 33 27 34 28 35
REMARK SMILES IDX 75 36 29 37 80 38 74 39 76 40 30 41 79 42 73 43 72 44 31 46
REMARK SMILES IDX 61 47 42 48 60 49 43 50 46 51 59 52 77 53 44 54 45 55 58 57
REMARK SMILES IDX 78 58 47 59 32 60 33 61 41 62 34 63 40 64 35 65 36 66 37 67
REMARK SMILES IDX 38 68 39 69 62 70 63 71 71 72 64 73 70 74 65 75 66 76 67 77
REMARK SMILES IDX 68 78 69 79 48 80 49 81 57 82 50 83 56 84 51 85 52 86 53 87
REMARK SMILES IDX 54 88 55 89
REMARK H PARENT 15 6 20 26 76 45 46 56
REMARK Flexibility Score: inf
ROOT
ATOM      1  C   UNL A   1      32.937  28.366  24.088  1.00  0.00     0.023 C 
ENDROOT
BRANCH   1   2
ATOM      2  C   UNL A   1      31.880  27.550  23.340  1.00  0.00     0.116 C 
BRANCH   2   3
ATOM      3  N   UNL A   1      32.401  27.043  22.083  1.00  0.00    -0.352 N 
ATOM      4  C   UNL A   1      32.878  25.806  21.723  1.00  0.00     0.251 C 
ATOM      5  O   UNL A   1      33.182  25.613  20.547  1.00  0.00    -0.269 OA
ATOM      6  H   UNL A   1      32.415  27.706  21.354  1.00  0.00     0.163 HD
BRANCH   4   7
ATOM      7  C   UNL A   1      32.952  24.667  22.681  1.00  0.00     0.040 A 
ATOM      8  N   UNL A   1      33.807  21.201  24.764  1.00  0.00    -0.312 N 
ATOM      9  C   UNL A   1      35.172  21.438  25.242  1.00  0.00     0.130 C 
ATOM     10  C   UNL A   1      33.321  22.368  24.176  1.00  0.00     0.047 A 
ATOM     11  C   UNL A   1      35.507  22.906  24.936  1.00  0.00     0.059 C 
ATOM     12  C   UNL A   1      34.332  23.320  24.109  1.00  0.00    -0.022 A 
ATOM     13  C   UNL A   1      32.059  22.632  23.690  1.00  0.00     0.027 A 
ATOM     14  C   UNL A   1      34.170  24.469  23.349  1.00  0.00     0.019 A 
ATOM     15  C   UNL A   1      31.878  23.798  22.943  1.00  0.00     0.016 A 
BRANCH   8  16
ATOM     16  C   UNL A   1      33.254  19.945  24.740  1.00  0.00     0.229 C 
ATOM     17  O   UNL A   1      32.163  19.720  25.271  1.00  0.00    -0.274 OA
BRANCH  16  18
ATOM     18  C   UNL A   1      34.190  18.782  24.401  1.00  0.00     0.129 C 
BRANCH  18  19
ATOM     19  C   UNL A   1      33.596  17.386  24.282  1.00  0.00     0.169 C 
BRANCH  19  20
ATOM     20  O   UNL A   1      33.668  16.631  25.496  1.00  0.00    -0.384 OA
ATOM     21  C   UNL A   1      32.593  15.725  25.695  1.00  0.00     0.194 C 
ENDBRANCH  19  20
ENDBRANCH  18  19
ENDBRANCH  16  18
ENDBRANCH   8  16
ENDBRANCH   4   7
ENDBRANCH   2   3
ENDBRANCH   1   2
BRANCH   1  22
ATOM     22  C   UNL A   1      33.573  27.651  25.278  1.00  0.00     0.023 C 
BRANCH  22  23
ATOM     23  C   UNL A   1      34.505  28.504  26.128  1.00  0.00     0.116 C 
BRANCH  23  24
ATOM     24  N   UNL A   1      33.928  29.786  26.499  1.00  0.00    -0.352 N 
ATOM     25  C   UNL A   1      34.349  30.683  27.453  1.00  0.00     0.251 C 
ATOM     26  H   UNL A   1      33.124  30.049  25.997  1.00  0.00     0.163 HD
ATOM     27  O   UNL A   1      33.661  31.661  27.715  1.00  0.00    -0.269 OA
BRANCH  25  28
ATOM     28  C   UNL A   1      35.615  30.440  28.182  1.00  0.00     0.039 A 
ATOM     29  C   UNL A   1      35.591  29.623  29.314  1.00  0.00     0.014 A 
ATOM     30  C   UNL A   1      36.819  31.000  27.746  1.00  0.00     0.014 A 
ATOM     31  C   UNL A   1      36.785  29.320  29.971  1.00  0.00     0.010 A 
ATOM     32  C   UNL A   1      38.016  30.628  28.350  1.00  0.00     0.010 A 
ATOM     33  C   UNL A   1      38.013  29.790  29.475  1.00  0.00    -0.014 A 
BRANCH  33  34
ATOM     34  C   UNL A   1      39.294  29.416  30.127  1.00  0.00     0.031 A 
ATOM     35  C   UNL A   1      39.776  30.163  31.342  1.00  0.00     0.074 A 
ATOM     36  C   UNL A   1      40.047  28.431  29.597  1.00  0.00     0.049 A 
ATOM     37  N   UNL A   1      40.866  29.978  32.044  1.00  0.00    -0.248 NA
ATOM     38  C   UNL A   1      38.939  31.276  31.820  1.00  0.00     0.031 C 
ATOM     39  C   UNL A   1      39.718  27.668  28.390  1.00  0.00     0.029 A 
ATOM     40  N   UNL A   1      41.243  27.898  30.008  1.00  0.00    -0.354 N 
ATOM     41  C   UNL A   1      40.850  30.955  33.033  1.00  0.00     0.074 A 
ATOM     42  C   UNL A   1      39.675  31.767  32.806  1.00  0.00     0.031 C 
ATOM     43  C   UNL A   1      40.668  26.742  28.182  1.00  0.00     0.029 A 
ATOM     44  C   UNL A   1      41.693  26.869  29.213  1.00  0.00     0.049 A 
ATOM     45  H   UNL A   1      41.734  28.222  30.798  1.00  0.00     0.167 HD
ATOM     46  C   UNL A   1      41.721  31.146  34.052  1.00  0.00     0.031 A 
ATOM     47  C   UNL A   1      42.803  26.112  29.302  1.00  0.00     0.031 A 
ATOM     48  C   UNL A   1      42.885  30.331  34.280  1.00  0.00     0.049 A 
ATOM     49  C   UNL A   1      43.758  26.345  30.444  1.00  0.00     0.074 A 
ATOM     50  C   UNL A   1      43.796  30.405  35.320  1.00  0.00     0.029 A 
ATOM     51  N   UNL A   1      43.303  29.297  33.456  1.00  0.00    -0.354 N 
ATOM     52  N   UNL A   1      43.680  27.221  31.416  1.00  0.00    -0.248 NA
ATOM     53  C   UNL A   1      44.939  25.475  30.506  1.00  0.00     0.031 C 
ATOM     54  C   UNL A   1      44.798  29.455  35.090  1.00  0.00     0.029 A 
ATOM     55  C   UNL A   1      44.475  28.745  33.945  1.00  0.00     0.049 A 
ATOM     56  H   UNL A   1      42.836  29.000  32.641  1.00  0.00     0.167 HD
ATOM     57  C   UNL A   1      44.792  26.992  32.220  1.00  0.00     0.074 A 
ATOM     58  C   UNL A   1      45.510  25.879  31.632  1.00  0.00     0.031 C 
ATOM     59  C   UNL A   1      45.184  27.643  33.344  1.00  0.00     0.031 A 
BRANCH  46  60
ATOM     60  C   UNL A   1      41.448  32.288  34.998  1.00  0.00    -0.014 A 
ATOM     61  C   UNL A   1      41.999  33.564  34.778  1.00  0.00     0.010 A 
ATOM     62  C   UNL A   1      40.593  32.095  36.099  1.00  0.00     0.010 A 
ATOM     63  C   UNL A   1      41.735  34.614  35.663  1.00  0.00     0.020 A 
ATOM     64  C   UNL A   1      40.302  33.150  36.969  1.00  0.00     0.020 A 
ATOM     65  C   UNL A   1      40.888  34.398  36.755  1.00  0.00     0.054 A 
BRANCH  65  66
ATOM     66  S   UNL A   1      40.545  35.784  37.872  1.00  0.00     0.124 S 
ATOM     67  O   UNL A   1      39.758  36.671  37.020  1.00  0.00    -0.237 OA
ATOM     68  O   UNL A   1      39.811  35.143  38.960  1.00  0.00    -0.237 OA
ATOM     69  O   UNL A   1      41.872  36.281  38.228  1.00  0.00    -0.744 OA
ENDBRANCH  65  66
ENDBRANCH  46  60
BRANCH  47  70
ATOM     70  C   UNL A   1      43.065  25.050  28.292  1.00  0.00    -0.014 A 
ATOM     71  C   UNL A   1      43.794  25.334  27.124  1.00  0.00     0.010 A 
ATOM     72  C   UNL A   1      42.590  23.741  28.497  1.00  0.00     0.010 A 
ATOM     73  C   UNL A   1      44.024  24.338  26.170  1.00  0.00     0.020 A 
ATOM     74  C   UNL A   1      42.844  22.735  27.562  1.00  0.00     0.020 A 
ATOM     75  C   UNL A   1      43.550  23.043  26.397  1.00  0.00     0.054 A 
BRANCH  75  76
ATOM     76  S   UNL A   1      43.900  21.755  25.168  1.00  0.00     0.124 S 
ATOM     77  O   UNL A   1      42.855  20.777  25.446  1.00  0.00    -0.237 OA
ATOM     78  O   UNL A   1      43.771  22.481  23.906  1.00  0.00    -0.237 OA
ATOM     79  O   UNL A   1      45.260  21.331  25.496  1.00  0.00    -0.744 OA
ENDBRANCH  75  76
ENDBRANCH  47  70
BRANCH  59  80
ATOM     80  C   UNL A   1      46.433  27.153  34.028  1.00  0.00    -0.014 A 
ATOM     81  C   UNL A   1      47.688  27.730  33.760  1.00  0.00     0.010 A 
ATOM     82  C   UNL A   1      46.344  26.119  34.979  1.00  0.00     0.010 A 
ATOM     83  C   UNL A   1      48.835  27.254  34.400  1.00  0.00     0.020 A 
ATOM     84  C   UNL A   1      47.484  25.663  35.645  1.00  0.00     0.020 A 
ATOM     85  C   UNL A   1      48.726  26.221  35.337  1.00  0.00     0.054 A 
BRANCH  85  86
ATOM     86  S   UNL A   1      50.227  25.639  36.171  1.00  0.00     0.124 S 
ATOM     87  O   UNL A   1      51.258  26.472  35.558  1.00  0.00    -0.237 OA
ATOM     88  O   UNL A   1      49.943  25.922  37.576  1.00  0.00    -0.237 OA
ATOM     89  O   UNL A   1      50.287  24.220  35.827  1.00  0.00    -0.744 OA
ENDBRANCH  85  86
ENDBRANCH  59  80
ENDBRANCH  33  34
ENDBRANCH  25  28
ENDBRANCH  23  24
ENDBRANCH  22  23
ENDBRANCH   1  22
TORSDOF 18
ENDMDL
MODEL 3
REMARK VINA RESULT:     -10.1      2.798      9.576
REMARK SMILES COCCC(=O)N1CCc2cc(C(=O)NCCCCNC(=O)c3ccc(-c4c5nc(c(-c6ccc(S(=O)(=O)[O-])cc6)c6ccc([nH]6)c(-c6ccc(S(=O)(=O)[O-])cc6)c6nc(c(-c7ccc(S(=O)(=O)[O-])cc7)c7ccc4[nH]7)C=C6)C=C5)cc3)ccc21
REMARK SMILES IDX 17 1 16 2 15 3 13 4 14 5 12 7 7 8 8 9 85 10 9 11 10 12 84 13
REMARK SMILES IDX 11 14 83 15 5 16 6 17 4 18 3 19 2 20 1 21 18 22 19 23 20 24
REMARK SMILES IDX 21 25 22 27 23 28 24 29 82 30 25 31 81 32 26 33 27 34 28 35
REMARK SMILES IDX 75 36 29 37 80 38 74 39 76 40 30 41 79 42 73 43 72 44 31 46
REMARK SMILES IDX 61 47 42 48 60 49 43 50 46 51 59 52 77 53 44 54 45 55 58 57
REMARK SMILES IDX 78 58 47 59 32 60 33 61 41 62 34 63 40 64 35 65 36 66 37 67
REMARK SMILES IDX 38 68 39 69 62 70 63 71 71 72 64 73 70 74 65 75 66 76 67 77
REMARK SMILES IDX 68 78 69 79 48 80 49 81 57 82 50 83 56 84 51 85 52 86 53 87
REMARK SMILES IDX 54 88 55 89
REMARK H PARENT 15 6 20 26 76 45 46 56
REMARK Flexibility Score: inf
ROOT
ATOM      1  C   UNL A   1      34.584  22.659  24.841  1.00  0.00     0.023 C 
ENDROOT
BRANCH   1   2
ATOM      2  C   UNL A   1      33.258  22.644  24.076  1.00  0.00     0.116 C 
BRANCH   2   3
ATOM      3  N   UNL A   1      32.167  22.199  24.925  1.00  0.00    -0.352 N 
ATOM      4  C   UNL A   1      31.180  22.891  25.584  1.00  0.00     0.251 C 
ATOM      5  O   UNL A   1      30.310  22.253  26.175  1.00  0.00    -0.269 OA
ATOM      6  H   UNL A   1      32.126  21.223  25.052  1.00  0.00     0.163 HD
BRANCH   4   7
ATOM      7  C   UNL A   1      31.071  24.376  25.531  1.00  0.00     0.040 A 
ATOM      8  N   UNL A   1      31.148  28.389  24.549  1.00  0.00    -0.312 N 
ATOM      9  C   UNL A   1      30.179  28.475  23.453  1.00  0.00     0.130 C 
ATOM     10  C   UNL A   1      31.106  27.108  25.097  1.00  0.00     0.047 A 
ATOM     11  C   UNL A   1      29.470  27.113  23.374  1.00  0.00     0.059 C 
ATOM     12  C   UNL A   1      30.271  26.296  24.338  1.00  0.00    -0.022 A 
ATOM     13  C   UNL A   1      31.765  26.617  26.203  1.00  0.00     0.027 A 
ATOM     14  C   UNL A   1      30.254  24.923  24.530  1.00  0.00     0.019 A 
ATOM     15  C   UNL A   1      31.736  25.238  26.420  1.00  0.00     0.016 A 
BRANCH   8  16
ATOM     16  C   UNL A   1      32.063  29.385  24.789  1.00  0.00     0.229 C 
ATOM     17  O   UNL A   1      33.210  29.317  24.340  1.00  0.00    -0.274 OA
BRANCH  16  18
ATOM     18  C   UNL A   1      31.750  30.353  25.933  1.00  0.00     0.129 C 
BRANCH  18  19
ATOM     19  C   UNL A   1      32.525  30.208  27.235  1.00  0.00     0.169 C 
BRANCH  19  20
ATOM     20  O   UNL A   1      33.512  31.227  27.426  1.00  0.00    -0.384 OA
ATOM     21  C   UNL A   1      34.826  30.743  27.663  1.00  0.00     0.194 C 
ENDBRANCH  19  20
ENDBRANCH  18  19
ENDBRANCH  16  18
ENDBRANCH   8  16
ENDBRANCH   4   7
ENDBRANCH   2   3
ENDBRANCH   1   2
BRANCH   1  22
ATOM     22  C   UNL A   1      34.895  23.973  25.555  1.00  0.00     0.023 C 
BRANCH  22  23
ATOM     23  C   UNL A   1      36.370  24.350  25.609  1.00  0.00     0.116 C 
BRANCH  23  24
ATOM     24  N   UNL A   1      37.255  23.198  25.601  1.00  0.00    -0.352 N 
ATOM     25  C   UNL A   1      38.541  23.088  26.079  1.00  0.00     0.251 C 
ATOM     26  H   UNL A   1      36.884  22.381  25.197  1.00  0.00     0.163 HD
ATOM     27  O   UNL A   1      39.183  22.067  25.872  1.00  0.00    -0.269 OA
BRANCH  25  28
ATOM     28  C   UNL A   1      39.151  24.222  26.811  1.00  0.00     0.039 A 
ATOM     29  C   UNL A   1      39.963  25.114  26.109  1.00  0.00     0.014 A 
ATOM     30  C   UNL A   1      38.913  24.413  28.175  1.00  0.00     0.014 A 
ATOM     31  C   UNL A   1      40.487  26.231  26.763  1.00  0.00     0.010 A 
ATOM     32  C   UNL A   1      39.364  25.571  28.802  1.00  0.00     0.010 A 
ATOM     33  C   UNL A   1      40.164  26.489  28.106  1.00  0.00    -0.014 A 
BRANCH  33  34
ATOM     34  C   UNL A   1      40.659  27.711  28.790  1.00  0.00     0.031 A 
ATOM     35  C   UNL A   1      42.068  27.769  29.319  1.00  0.00     0.074 A 
ATOM     36  C   UNL A   1      39.826  28.755  28.975  1.00  0.00     0.049 A 
ATOM     37  N   UNL A   1      42.674  28.748  29.942  1.00  0.00    -0.248 NA
ATOM     38  C   UNL A   1      42.897  26.564  29.149  1.00  0.00     0.031 C 
ATOM     39  C   UNL A   1      38.421  28.802  28.558  1.00  0.00     0.029 A 
ATOM     40  N   UNL A   1      40.038  29.979  29.556  1.00  0.00    -0.354 N 
ATOM     41  C   UNL A   1      43.946  28.275  30.246  1.00  0.00     0.074 A 
ATOM     42  C   UNL A   1      44.004  26.902  29.794  1.00  0.00     0.031 C 
ATOM     43  C   UNL A   1      37.912  30.006  28.863  1.00  0.00     0.029 A 
ATOM     44  C   UNL A   1      38.936  30.803  29.531  1.00  0.00     0.049 A 
ATOM     45  H   UNL A   1      40.898  30.244  29.954  1.00  0.00     0.167 HD
ATOM     46  C   UNL A   1      44.979  28.929  30.828  1.00  0.00     0.031 A 
ATOM     47  C   UNL A   1      38.767  32.057  29.991  1.00  0.00     0.031 A 
ATOM     48  C   UNL A   1      44.920  30.297  31.269  1.00  0.00     0.049 A 
ATOM     49  C   UNL A   1      39.931  32.762  30.636  1.00  0.00     0.074 A 
ATOM     50  C   UNL A   1      45.931  31.069  31.813  1.00  0.00     0.029 A 
ATOM     51  N   UNL A   1      43.788  31.097  31.221  1.00  0.00    -0.354 N 
ATOM     52  N   UNL A   1      41.150  32.324  30.839  1.00  0.00    -0.248 NA
ATOM     53  C   UNL A   1      39.697  34.137  31.099  1.00  0.00     0.031 C 
ATOM     54  C   UNL A   1      45.394  32.316  32.152  1.00  0.00     0.029 A 
ATOM     55  C   UNL A   1      44.067  32.344  31.755  1.00  0.00     0.049 A 
ATOM     56  H   UNL A   1      42.914  30.819  30.862  1.00  0.00     0.167 HD
ATOM     57  C   UNL A   1      41.837  33.378  31.432  1.00  0.00     0.074 A 
ATOM     58  C   UNL A   1      40.902  34.482  31.531  1.00  0.00     0.031 C 
ATOM     59  C   UNL A   1      43.124  33.430  31.856  1.00  0.00     0.031 A 
BRANCH  46  60
ATOM     60  C   UNL A   1      46.264  28.166  31.024  1.00  0.00    -0.014 A 
ATOM     61  C   UNL A   1      47.294  28.215  30.066  1.00  0.00     0.010 A 
ATOM     62  C   UNL A   1      46.465  27.425  32.203  1.00  0.00     0.010 A 
ATOM     63  C   UNL A   1      48.481  27.503  30.263  1.00  0.00     0.020 A 
ATOM     64  C   UNL A   1      47.662  26.736  32.418  1.00  0.00     0.020 A 
ATOM     65  C   UNL A   1      48.657  26.767  31.439  1.00  0.00     0.054 A 
BRANCH  65  66
ATOM     66  S   UNL A   1      50.216  25.873  31.677  1.00  0.00     0.124 S 
ATOM     67  O   UNL A   1      51.199  26.948  31.572  1.00  0.00    -0.237 OA
ATOM     68  O   UNL A   1      50.055  25.299  33.010  1.00  0.00    -0.237 OA
ATOM     69  O   UNL A   1      50.234  24.906  30.583  1.00  0.00    -0.744 OA
ENDBRANCH  65  66
ENDBRANCH  46  60
BRANCH  47  70
ATOM     70  C   UNL A   1      37.449  32.735  29.844  1.00  0.00    -0.014 A 
ATOM     71  C   UNL A   1      37.205  33.603  28.765  1.00  0.00     0.010 A 
ATOM     72  C   UNL A   1      36.424  32.509  30.782  1.00  0.00     0.010 A 
ATOM     73  C   UNL A   1      35.972  34.250  28.639  1.00  0.00     0.020 A 
ATOM     74  C   UNL A   1      35.180  33.129  30.642  1.00  0.00     0.020 A 
ATOM     75  C   UNL A   1      34.966  34.006  29.577  1.00  0.00     0.054 A 
BRANCH  75  76
ATOM     76  S   UNL A   1      33.358  34.820  29.367  1.00  0.00     0.124 S 
ATOM     77  O   UNL A   1      33.729  36.055  28.686  1.00  0.00    -0.237 OA
ATOM     78  O   UNL A   1      32.617  33.850  28.564  1.00  0.00    -0.237 OA
ATOM     79  O   UNL A   1      32.875  34.979  30.737  1.00  0.00    -0.744 OA
ENDBRANCH  75  76
ENDBRANCH  47  70
BRANCH  59  80
ATOM     80  C   UNL A   1      43.607  34.730  32.444  1.00  0.00    -0.014 A 
ATOM     81  C   UNL A   1      43.552  34.972  33.828  1.00  0.00     0.010 A 
ATOM     82  C   UNL A   1      44.157  35.712  31.599  1.00  0.00     0.010 A 
ATOM     83  C   UNL A   1      43.999  36.189  34.351  1.00  0.00     0.020 A 
ATOM     84  C   UNL A   1      44.635  36.916  32.122  1.00  0.00     0.020 A 
ATOM     85  C   UNL A   1      44.535  37.154  33.493  1.00  0.00     0.054 A 
BRANCH  85  86
ATOM     86  S   UNL A   1      45.131  38.714  34.200  1.00  0.00     0.124 S 
ATOM     87  O   UNL A   1      44.874  39.657  33.114  1.00  0.00    -0.237 OA
ATOM     88  O   UNL A   1      44.288  38.873  35.383  1.00  0.00    -0.237 OA
ATOM     89  O   UNL A   1      46.541  38.454  34.478  1.00  0.00    -0.744 OA
ENDBRANCH  85  86
ENDBRANCH  59  80
ENDBRANCH  33  34
ENDBRANCH  25  28
ENDBRANCH  23  24
ENDBRANCH  22  23
ENDBRANCH   1  22
TORSDOF 18
ENDMDL
