MODEL 1
REMARK VINA RESULT:     -11.9      0.000      0.000
REMARK SMILES O=C(NCCCCNC(=O)[C@@H]1[C@H](C(=O)Nc2ccccc2OC(F)F)[C@@H]2C=C[C@H]1C2)c1ccc(-c2c3nc(c(-c4ccc(S(=O)(=O)[O-])cc4)c4ccc([nH]4)c(-c4ccc(S(=O)(=O)[O-])cc4)c4nc(c(-c5ccc(S(=O)(=O)[O-])cc5)c5ccc2[nH]5)C=C4)C=C3)cc1
REMARK SMILES IDX 6 1 5 2 4 3 3 4 1 5 2 6 31 8 32 9 90 10 33 11 89 12 34 13
REMARK SMILES IDX 35 14 36 15 83 16 37 17 88 18 82 19 84 20 38 21 87 22 81 23
REMARK SMILES IDX 80 24 39 26 69 27 50 28 68 29 51 30 54 31 67 32 85 33 52 34
REMARK SMILES IDX 53 35 66 37 86 38 55 39 40 40 41 41 49 42 42 43 48 44 43 45
REMARK SMILES IDX 44 46 45 47 46 48 47 49 70 50 71 51 79 52 72 53 78 54 73 55
REMARK SMILES IDX 74 56 75 57 76 58 77 59 56 60 57 61 65 62 58 63 64 64 59 65
REMARK SMILES IDX 60 66 61 67 62 68 63 69 7 70 8 71 9 72 10 74 11 75 12 76
REMARK SMILES IDX 29 77 26 78 28 79 30 80 27 81 13 82 14 83 15 84 16 86 17 87
REMARK SMILES IDX 21 88 18 89 20 90 19 91 22 92 23 93 24 94 25 95
REMARK H PARENT 3 7 84 25 54 36 8 73 15 85
REMARK Flexibility Score: inf
ROOT
ATOM      1  C   UNL A   1      37.599  21.871  25.596  1.00  0.00     0.023 C 
ENDROOT
BRANCH   1   2
ATOM      2  C   UNL A   1      37.574  23.397  25.636  1.00  0.00     0.023 C 
BRANCH   2   3
ATOM      3  C   UNL A   1      38.559  24.044  26.605  1.00  0.00     0.116 C 
BRANCH   3   4
ATOM      4  N   UNL A   1      39.915  24.132  26.076  1.00  0.00    -0.352 N 
ATOM      5  O   UNL A   1      41.950  25.021  25.696  1.00  0.00    -0.269 OA
ATOM      6  C   UNL A   1      40.919  25.035  26.349  1.00  0.00     0.251 C 
ATOM      7  H   UNL A   1      40.149  23.436  25.422  1.00  0.00     0.163 HD
BRANCH   6   8
ATOM      8  C   UNL A   1      40.723  26.036  27.417  1.00  0.00     0.039 A 
ATOM      9  C   UNL A   1      41.466  27.217  27.418  1.00  0.00     0.014 A 
ATOM     10  C   UNL A   1      39.802  25.780  28.436  1.00  0.00     0.014 A 
ATOM     11  C   UNL A   1      41.421  28.053  28.524  1.00  0.00     0.010 A 
ATOM     12  C   UNL A   1      39.688  26.675  29.504  1.00  0.00     0.010 A 
ATOM     13  C   UNL A   1      40.525  27.798  29.575  1.00  0.00    -0.014 A 
BRANCH  13  14
ATOM     14  C   UNL A   1      40.449  28.758  30.705  1.00  0.00     0.031 A 
ATOM     15  C   UNL A   1      41.433  28.708  31.843  1.00  0.00     0.074 A 
ATOM     16  C   UNL A   1      39.501  29.714  30.668  1.00  0.00     0.049 A 
ATOM     17  N   UNL A   1      41.519  29.494  32.885  1.00  0.00    -0.248 NA
ATOM     18  C   UNL A   1      42.444  27.639  31.812  1.00  0.00     0.031 C 
ATOM     19  C   UNL A   1      38.494  29.859  29.611  1.00  0.00     0.029 A 
ATOM     20  N   UNL A   1      39.242  30.759  31.515  1.00  0.00    -0.354 N 
ATOM     21  C   UNL A   1      42.573  29.004  33.649  1.00  0.00     0.074 A 
ATOM     22  C   UNL A   1      43.086  27.840  32.956  1.00  0.00     0.031 C 
ATOM     23  C   UNL A   1      37.769  30.961  29.842  1.00  0.00     0.029 A 
ATOM     24  C   UNL A   1      38.207  31.560  31.097  1.00  0.00     0.049 A 
ATOM     25  H   UNL A   1      39.749  30.920  32.344  1.00  0.00     0.167 HD
ATOM     26  C   UNL A   1      43.065  29.481  34.819  1.00  0.00     0.031 A 
ATOM     27  C   UNL A   1      37.652  32.646  31.665  1.00  0.00     0.031 A 
ATOM     28  C   UNL A   1      42.546  30.640  35.498  1.00  0.00     0.049 A 
ATOM     29  C   UNL A   1      38.200  33.137  32.971  1.00  0.00     0.074 A 
ATOM     30  C   UNL A   1      42.989  31.219  36.675  1.00  0.00     0.029 A 
ATOM     31  N   UNL A   1      41.467  31.396  35.066  1.00  0.00    -0.354 N 
ATOM     32  N   UNL A   1      39.208  32.668  33.666  1.00  0.00    -0.248 NA
ATOM     33  C   UNL A   1      37.534  34.299  33.571  1.00  0.00     0.031 C 
ATOM     34  C   UNL A   1      42.148  32.294  36.980  1.00  0.00     0.029 A 
ATOM     35  C   UNL A   1      41.213  32.419  35.964  1.00  0.00     0.049 A 
ATOM     36  H   UNL A   1      40.955  31.230  34.241  1.00  0.00     0.167 HD
ATOM     37  C   UNL A   1      39.302  33.482  34.788  1.00  0.00     0.074 A 
ATOM     38  C   UNL A   1      38.265  34.487  34.662  1.00  0.00     0.031 C 
ATOM     39  C   UNL A   1      40.165  33.400  35.830  1.00  0.00     0.031 A 
BRANCH  26  40
ATOM     40  C   UNL A   1      44.202  28.726  35.459  1.00  0.00    -0.014 A 
ATOM     41  C   UNL A   1      43.965  27.669  36.357  1.00  0.00     0.010 A 
ATOM     42  C   UNL A   1      45.529  29.050  35.123  1.00  0.00     0.010 A 
ATOM     43  C   UNL A   1      45.035  26.980  36.937  1.00  0.00     0.020 A 
ATOM     44  C   UNL A   1      46.601  28.348  35.682  1.00  0.00     0.020 A 
ATOM     45  C   UNL A   1      46.347  27.329  36.601  1.00  0.00     0.054 A 
BRANCH  45  46
ATOM     46  S   UNL A   1      47.716  26.412  37.361  1.00  0.00     0.124 S 
ATOM     47  O   UNL A   1      48.722  26.445  36.301  1.00  0.00    -0.237 OA
ATOM     48  O   UNL A   1      48.025  27.212  38.543  1.00  0.00    -0.237 OA
ATOM     49  O   UNL A   1      47.144  25.097  37.634  1.00  0.00    -0.744 OA
ENDBRANCH  45  46
ENDBRANCH  26  40
BRANCH  27  50
ATOM     50  C   UNL A   1      36.504  33.314  30.999  1.00  0.00    -0.014 A 
ATOM     51  C   UNL A   1      35.277  33.463  31.664  1.00  0.00     0.010 A 
ATOM     52  C   UNL A   1      36.658  33.860  29.711  1.00  0.00     0.010 A 
ATOM     53  C   UNL A   1      34.220  34.145  31.052  1.00  0.00     0.020 A 
ATOM     54  C   UNL A   1      35.615  34.566  29.108  1.00  0.00     0.020 A 
ATOM     55  C   UNL A   1      34.399  34.698  29.780  1.00  0.00     0.054 A 
BRANCH  55  56
ATOM     56  S   UNL A   1      33.044  35.647  29.037  1.00  0.00     0.124 S 
ATOM     57  O   UNL A   1      32.427  34.657  28.159  1.00  0.00    -0.237 OA
ATOM     58  O   UNL A   1      32.255  36.039  30.203  1.00  0.00    -0.237 OA
ATOM     59  O   UNL A   1      33.729  36.746  28.361  1.00  0.00    -0.744 OA
ENDBRANCH  55  56
ENDBRANCH  27  50
BRANCH  39  60
ATOM     60  C   UNL A   1      40.029  34.439  36.908  1.00  0.00    -0.014 A 
ATOM     61  C   UNL A   1      39.144  34.252  37.985  1.00  0.00     0.010 A 
ATOM     62  C   UNL A   1      40.816  35.603  36.858  1.00  0.00     0.010 A 
ATOM     63  C   UNL A   1      39.026  35.229  38.976  1.00  0.00     0.020 A 
ATOM     64  C   UNL A   1      40.720  36.569  37.861  1.00  0.00     0.020 A 
ATOM     65  C   UNL A   1      39.813  36.383  38.906  1.00  0.00     0.054 A 
BRANCH  65  66
ATOM     66  S   UNL A   1      39.666  37.621  40.222  1.00  0.00     0.124 S 
ATOM     67  O   UNL A   1      40.658  38.614  39.816  1.00  0.00    -0.237 OA
ATOM     68  O   UNL A   1      38.272  38.045  40.115  1.00  0.00    -0.237 OA
ATOM     69  O   UNL A   1      39.992  36.875  41.436  1.00  0.00    -0.744 OA
ENDBRANCH  65  66
ENDBRANCH  39  60
ENDBRANCH  13  14
ENDBRANCH   6   8
ENDBRANCH   3   4
ENDBRANCH   2   3
ENDBRANCH   1   2
BRANCH   1  70
ATOM     70  C   UNL A   1      36.254  21.195  25.336  1.00  0.00     0.116 C 
BRANCH  70  71
ATOM     71  N   UNL A   1      35.228  21.546  26.292  1.00  0.00    -0.356 N 
ATOM     72  C   UNL A   1      34.298  22.542  26.194  1.00  0.00     0.224 C 
ATOM     73  H   UNL A   1      35.196  21.002  27.112  1.00  0.00     0.163 HD
ATOM     74  O   UNL A   1      33.920  23.053  27.250  1.00  0.00    -0.275 OA
BRANCH  72  75
ATOM     75  C   UNL A   1      33.936  23.184  24.872  1.00  0.00     0.098 C 
ATOM     76  C   UNL A   1      32.645  24.069  24.742  1.00  0.00     0.099 C 
ATOM     77  C   UNL A   1      33.924  22.397  23.541  1.00  0.00     0.025 C 
ATOM     78  C   UNL A   1      32.144  23.723  23.302  1.00  0.00     0.025 C 
ATOM     79  C   UNL A   1      32.720  21.503  23.448  1.00  0.00    -0.027 C 
ATOM     80  C   UNL A   1      33.469  23.507  22.575  1.00  0.00     0.017 C 
ATOM     81  C   UNL A   1      31.660  22.298  23.246  1.00  0.00    -0.027 C 
BRANCH  76  82
ATOM     82  C   UNL A   1      31.437  24.328  25.656  1.00  0.00     0.229 C 
ATOM     83  O   UNL A   1      31.172  23.445  26.495  1.00  0.00    -0.274 OA
ATOM     84  N   UNL A   1      30.786  25.503  25.860  1.00  0.00    -0.323 N 
ATOM     85  H   UNL A   1      30.306  25.541  26.720  1.00  0.00     0.170 HD
BRANCH  84  86
ATOM     86  C   UNL A   1      30.656  26.666  25.104  1.00  0.00     0.084 A 
ATOM     87  C   UNL A   1      29.857  26.585  23.953  1.00  0.00     0.030 A 
ATOM     88  C   UNL A   1      31.376  27.837  25.339  1.00  0.00     0.149 A 
ATOM     89  C   UNL A   1      29.595  27.720  23.184  1.00  0.00     0.002 A 
ATOM     90  C   UNL A   1      31.073  28.986  24.596  1.00  0.00     0.049 A 
ATOM     91  C   UNL A   1      30.170  28.935  23.535  1.00  0.00     0.004 A 
BRANCH  88  92
ATOM     92  O   UNL A   1      32.426  28.010  26.189  1.00  0.00    -0.433 OA
BRANCH  92  93
ATOM     93  C   UNL A   1      32.200  28.596  27.468  1.00  0.00     0.542 C 
ATOM     94  F   UNL A   1      32.182  29.944  27.395  1.00  0.00    -0.167 F 
ATOM     95  F   UNL A   1      31.020  28.185  27.994  1.00  0.00    -0.167 F 
ENDBRANCH  92  93
ENDBRANCH  88  92
ENDBRANCH  84  86
ENDBRANCH  76  82
ENDBRANCH  72  75
ENDBRANCH  70  71
ENDBRANCH   1  70
TORSDOF 18
ENDMDL
MODEL 2
REMARK VINA RESULT:     -11.7      6.410     11.494
REMARK SMILES O=C(NCCCCNC(=O)[C@@H]1[C@H](C(=O)Nc2ccccc2OC(F)F)[C@@H]2C=C[C@H]1C2)c1ccc(-c2c3nc(c(-c4ccc(S(=O)(=O)[O-])cc4)c4ccc([nH]4)c(-c4ccc(S(=O)(=O)[O-])cc4)c4nc(c(-c5ccc(S(=O)(=O)[O-])cc5)c5ccc2[nH]5)C=C4)C=C3)cc1
REMARK SMILES IDX 6 1 5 2 4 3 3 4 1 5 2 6 31 8 32 9 90 10 33 11 89 12 34 13
REMARK SMILES IDX 35 14 36 15 83 16 37 17 88 18 82 19 84 20 38 21 87 22 81 23
REMARK SMILES IDX 80 24 39 26 69 27 50 28 68 29 51 30 54 31 67 32 85 33 52 34
REMARK SMILES IDX 53 35 66 37 86 38 55 39 40 40 41 41 49 42 42 43 48 44 43 45
REMARK SMILES IDX 44 46 45 47 46 48 47 49 70 50 71 51 79 52 72 53 78 54 73 55
REMARK SMILES IDX 74 56 75 57 76 58 77 59 56 60 57 61 65 62 58 63 64 64 59 65
REMARK SMILES IDX 60 66 61 67 62 68 63 69 7 70 8 71 9 72 10 74 11 75 12 76
REMARK SMILES IDX 29 77 26 78 28 79 30 80 27 81 13 82 14 83 15 84 16 86 17 87
REMARK SMILES IDX 21 88 18 89 20 90 19 91 22 92 23 93 24 94 25 95
REMARK H PARENT 3 7 84 25 54 36 8 73 15 85
REMARK Flexibility Score: inf
ROOT
ATOM      1  C   UNL A   1      33.825  28.483  25.488  1.00  0.00     0.023 C 
ENDROOT
BRANCH   1   2
ATOM      2  C   UNL A   1      33.938  28.749  26.986  1.00  0.00     0.023 C 
BRANCH   2   3
ATOM      3  C   UNL A   1      35.240  29.403  27.440  1.00  0.00     0.116 C 
BRANCH   3   4
ATOM      4  N   UNL A   1      35.234  29.785  28.847  1.00  0.00    -0.352 N 
ATOM      5  O   UNL A   1      35.990  29.956  30.963  1.00  0.00    -0.269 OA
ATOM      6  C   UNL A   1      36.234  29.710  29.793  1.00  0.00     0.251 C 
ATOM      7  H   UNL A   1      34.382  30.155  29.172  1.00  0.00     0.163 HD
BRANCH   6   8
ATOM      8  C   UNL A   1      37.592  29.302  29.381  1.00  0.00     0.039 A 
ATOM      9  C   UNL A   1      38.425  28.631  30.277  1.00  0.00     0.014 A 
ATOM     10  C   UNL A   1      38.041  29.612  28.094  1.00  0.00     0.014 A 
ATOM     11  C   UNL A   1      39.759  28.430  29.951  1.00  0.00     0.010 A 
ATOM     12  C   UNL A   1      39.360  29.321  27.735  1.00  0.00     0.010 A 
ATOM     13  C   UNL A   1      40.241  28.764  28.675  1.00  0.00    -0.014 A 
BRANCH  13  14
ATOM     14  C   UNL A   1      41.654  28.463  28.337  1.00  0.00     0.031 A 
ATOM     15  C   UNL A   1      42.729  29.509  28.458  1.00  0.00     0.074 A 
ATOM     16  C   UNL A   1      41.967  27.207  27.961  1.00  0.00     0.049 A 
ATOM     17  N   UNL A   1      44.012  29.394  28.232  1.00  0.00    -0.248 NA
ATOM     18  C   UNL A   1      42.312  30.856  28.879  1.00  0.00     0.031 C 
ATOM     19  C   UNL A   1      41.005  26.110  27.811  1.00  0.00     0.029 A 
ATOM     20  N   UNL A   1      43.174  26.630  27.666  1.00  0.00    -0.354 N 
ATOM     21  C   UNL A   1      44.555  30.655  28.457  1.00  0.00     0.074 A 
ATOM     22  C   UNL A   1      43.457  31.525  28.822  1.00  0.00     0.031 C 
ATOM     23  C   UNL A   1      41.665  24.984  27.512  1.00  0.00     0.029 A 
ATOM     24  C   UNL A   1      43.084  25.290  27.376  1.00  0.00     0.049 A 
ATOM     25  H   UNL A   1      44.023  27.129  27.662  1.00  0.00     0.167 HD
ATOM     26  C   UNL A   1      45.850  31.048  28.365  1.00  0.00     0.031 A 
ATOM     27  C   UNL A   1      44.031  24.404  27.019  1.00  0.00     0.031 A 
ATOM     28  C   UNL A   1      46.934  30.173  28.001  1.00  0.00     0.049 A 
ATOM     29  C   UNL A   1      45.451  24.871  26.902  1.00  0.00     0.074 A 
ATOM     30  C   UNL A   1      48.283  30.467  27.903  1.00  0.00     0.029 A 
ATOM     31  N   UNL A   1      46.795  28.833  27.669  1.00  0.00    -0.354 N 
ATOM     32  N   UNL A   1      45.944  26.064  27.136  1.00  0.00    -0.248 NA
ATOM     33  C   UNL A   1      46.439  23.878  26.469  1.00  0.00     0.031 C 
ATOM     34  C   UNL A   1      48.953  29.319  27.465  1.00  0.00     0.029 A 
ATOM     35  C   UNL A   1      48.028  28.294  27.342  1.00  0.00     0.049 A 
ATOM     36  H   UNL A   1      45.944  28.338  27.666  1.00  0.00     0.167 HD
ATOM     37  C   UNL A   1      47.305  25.964  26.882  1.00  0.00     0.074 A 
ATOM     38  C   UNL A   1      47.559  24.587  26.503  1.00  0.00     0.031 C 
ATOM     39  C   UNL A   1      48.258  26.925  26.951  1.00  0.00     0.031 A 
BRANCH  26  40
ATOM     40  C   UNL A   1      46.160  32.499  28.628  1.00  0.00    -0.014 A 
ATOM     41  C   UNL A   1      46.411  32.970  29.930  1.00  0.00     0.010 A 
ATOM     42  C   UNL A   1      46.247  33.399  27.549  1.00  0.00     0.010 A 
ATOM     43  C   UNL A   1      46.701  34.321  30.150  1.00  0.00     0.020 A 
ATOM     44  C   UNL A   1      46.560  34.745  27.763  1.00  0.00     0.020 A 
ATOM     45  C   UNL A   1      46.767  35.201  29.066  1.00  0.00     0.054 A 
BRANCH  45  46
ATOM     46  S   UNL A   1      47.155  36.946  29.379  1.00  0.00     0.124 S 
ATOM     47  O   UNL A   1      47.647  36.900  30.754  1.00  0.00    -0.237 OA
ATOM     48  O   UNL A   1      48.161  37.240  28.363  1.00  0.00    -0.237 OA
ATOM     49  O   UNL A   1      45.875  37.624  29.199  1.00  0.00    -0.744 OA
ENDBRANCH  45  46
ENDBRANCH  26  40
BRANCH  27  50
ATOM     50  C   UNL A   1      43.646  22.998  26.731  1.00  0.00    -0.014 A 
ATOM     51  C   UNL A   1      44.102  22.353  25.570  1.00  0.00     0.010 A 
ATOM     52  C   UNL A   1      42.866  22.278  27.655  1.00  0.00     0.010 A 
ATOM     53  C   UNL A   1      43.782  21.012  25.336  1.00  0.00     0.020 A 
ATOM     54  C   UNL A   1      42.569  20.931  27.440  1.00  0.00     0.020 A 
ATOM     55  C   UNL A   1      43.023  20.308  26.276  1.00  0.00     0.054 A 
BRANCH  55  56
ATOM     56  S   UNL A   1      42.687  18.548  25.993  1.00  0.00     0.124 S 
ATOM     57  O   UNL A   1      43.490  18.274  24.805  1.00  0.00    -0.237 OA
ATOM     58  O   UNL A   1      43.157  17.932  27.232  1.00  0.00    -0.237 OA
ATOM     59  O   UNL A   1      41.240  18.505  25.797  1.00  0.00    -0.744 OA
ENDBRANCH  55  56
ENDBRANCH  27  50
BRANCH  39  60
ATOM     60  C   UNL A   1      49.666  26.512  26.623  1.00  0.00    -0.014 A 
ATOM     61  C   UNL A   1      50.529  26.027  27.622  1.00  0.00     0.010 A 
ATOM     62  C   UNL A   1      50.121  26.584  25.295  1.00  0.00     0.010 A 
ATOM     63  C   UNL A   1      51.836  25.653  27.302  1.00  0.00     0.020 A 
ATOM     64  C   UNL A   1      51.418  26.185  24.967  1.00  0.00     0.020 A 
ATOM     65  C   UNL A   1      52.273  25.737  25.976  1.00  0.00     0.054 A 
BRANCH  65  66
ATOM     66  S   UNL A   1      53.963  25.213  25.579  1.00  0.00     0.124 S 
ATOM     67  O   UNL A   1      53.727  24.052  24.724  1.00  0.00    -0.237 OA
ATOM     68  O   UNL A   1      54.516  26.386  24.908  1.00  0.00    -0.237 OA
ATOM     69  O   UNL A   1      54.548  24.916  26.885  1.00  0.00    -0.744 OA
ENDBRANCH  65  66
ENDBRANCH  39  60
ENDBRANCH  13  14
ENDBRANCH   6   8
ENDBRANCH   3   4
ENDBRANCH   2   3
ENDBRANCH   1   2
BRANCH   1  70
ATOM     70  C   UNL A   1      33.564  27.031  25.093  1.00  0.00     0.116 C 
BRANCH  70  71
ATOM     71  N   UNL A   1      33.786  26.085  26.164  1.00  0.00    -0.356 N 
ATOM     72  C   UNL A   1      34.254  24.805  26.065  1.00  0.00     0.224 C 
ATOM     73  H   UNL A   1      33.575  26.401  27.072  1.00  0.00     0.163 HD
ATOM     74  O   UNL A   1      33.855  24.003  26.913  1.00  0.00    -0.275 OA
BRANCH  72  75
ATOM     75  C   UNL A   1      35.001  24.307  24.847  1.00  0.00     0.098 C 
ATOM     76  C   UNL A   1      34.335  23.275  23.868  1.00  0.00     0.099 C 
ATOM     77  C   UNL A   1      36.457  23.790  24.920  1.00  0.00     0.025 C 
ATOM     78  C   UNL A   1      35.546  22.379  23.449  1.00  0.00     0.025 C 
ATOM     79  C   UNL A   1      36.519  22.418  25.531  1.00  0.00    -0.027 C 
ATOM     80  C   UNL A   1      36.679  23.402  23.446  1.00  0.00     0.017 C 
ATOM     81  C   UNL A   1      36.024  21.566  24.623  1.00  0.00    -0.027 C 
BRANCH  76  82
ATOM     82  C   UNL A   1      33.062  22.418  23.933  1.00  0.00     0.229 C 
ATOM     83  O   UNL A   1      33.213  21.184  23.833  1.00  0.00    -0.274 OA
ATOM     84  N   UNL A   1      31.826  22.794  24.355  1.00  0.00    -0.323 N 
ATOM     85  H   UNL A   1      31.270  22.041  24.660  1.00  0.00     0.170 HD
BRANCH  84  86
ATOM     86  C   UNL A   1      31.183  24.027  24.447  1.00  0.00     0.084 A 
ATOM     87  C   UNL A   1      31.283  24.875  23.334  1.00  0.00     0.030 A 
ATOM     88  C   UNL A   1      30.587  24.514  25.610  1.00  0.00     0.149 A 
ATOM     89  C   UNL A   1      30.596  26.090  23.298  1.00  0.00     0.002 A 
ATOM     90  C   UNL A   1      29.858  25.711  25.554  1.00  0.00     0.049 A 
ATOM     91  C   UNL A   1      29.844  26.488  24.397  1.00  0.00     0.004 A 
BRANCH  88  92
ATOM     92  O   UNL A   1      30.670  23.996  26.867  1.00  0.00    -0.433 OA
BRANCH  92  93
ATOM     93  C   UNL A   1      30.175  22.683  27.114  1.00  0.00     0.542 C 
ATOM     94  F   UNL A   1      29.439  22.640  28.246  1.00  0.00    -0.167 F 
ATOM     95  F   UNL A   1      29.401  22.249  26.089  1.00  0.00    -0.167 F 
ENDBRANCH  92  93
ENDBRANCH  88  92
ENDBRANCH  84  86
ENDBRANCH  76  82
ENDBRANCH  72  75
ENDBRANCH  70  71
ENDBRANCH   1  70
TORSDOF 18
ENDMDL
MODEL 3
REMARK VINA RESULT:     -11.6      0.535      8.050
REMARK SMILES O=C(NCCCCNC(=O)[C@@H]1[C@H](C(=O)Nc2ccccc2OC(F)F)[C@@H]2C=C[C@H]1C2)c1ccc(-c2c3nc(c(-c4ccc(S(=O)(=O)[O-])cc4)c4ccc([nH]4)c(-c4ccc(S(=O)(=O)[O-])cc4)c4nc(c(-c5ccc(S(=O)(=O)[O-])cc5)c5ccc2[nH]5)C=C4)C=C3)cc1
REMARK SMILES IDX 6 1 5 2 4 3 3 4 1 5 2 6 31 8 32 9 90 10 33 11 89 12 34 13
REMARK SMILES IDX 35 14 36 15 83 16 37 17 88 18 82 19 84 20 38 21 87 22 81 23
REMARK SMILES IDX 80 24 39 26 69 27 50 28 68 29 51 30 54 31 67 32 85 33 52 34
REMARK SMILES IDX 53 35 66 37 86 38 55 39 40 40 41 41 49 42 42 43 48 44 43 45
REMARK SMILES IDX 44 46 45 47 46 48 47 49 70 50 71 51 79 52 72 53 78 54 73 55
REMARK SMILES IDX 74 56 75 57 76 58 77 59 56 60 57 61 65 62 58 63 64 64 59 65
REMARK SMILES IDX 60 66 61 67 62 68 63 69 7 70 8 71 9 72 10 74 11 75 12 76
REMARK SMILES IDX 29 77 26 78 28 79 30 80 27 81 13 82 14 83 15 84 16 86 17 87
REMARK SMILES IDX 21 88 18 89 20 90 19 91 22 92 23 93 24 94 25 95
REMARK H PARENT 3 7 84 25 54 36 8 73 15 85
REMARK Flexibility Score: inf
ROOT
ATOM      1  C   UNL A   1      37.633  22.004  25.474  1.00  0.00     0.023 C 
ENDROOT
BRANCH   1   2
ATOM      2  C   UNL A   1      37.563  23.522  25.622  1.00  0.00     0.023 C 
BRANCH   2   3
ATOM      3  C   UNL A   1      38.541  24.129  26.624  1.00  0.00     0.116 C 
BRANCH   3   4
ATOM      4  N   UNL A   1      39.913  24.179  26.132  1.00  0.00    -0.352 N 
ATOM      5  O   UNL A   1      41.983  25.011  25.812  1.00  0.00    -0.269 OA
ATOM      6  C   UNL A   1      40.935  25.052  26.436  1.00  0.00     0.251 C 
ATOM      7  H   UNL A   1      40.145  23.479  25.482  1.00  0.00     0.163 HD
BRANCH   6   8
ATOM      8  C   UNL A   1      40.738  26.055  27.503  1.00  0.00     0.039 A 
ATOM      9  C   UNL A   1      41.507  27.219  27.522  1.00  0.00     0.014 A 
ATOM     10  C   UNL A   1      39.791  25.817  28.503  1.00  0.00     0.014 A 
ATOM     11  C   UNL A   1      41.457  28.054  28.630  1.00  0.00     0.010 A 
ATOM     12  C   UNL A   1      39.674  26.712  29.570  1.00  0.00     0.010 A 
ATOM     13  C   UNL A   1      40.535  27.816  29.662  1.00  0.00    -0.014 A 
BRANCH  13  14
ATOM     14  C   UNL A   1      40.456  28.774  30.793  1.00  0.00     0.031 A 
ATOM     15  C   UNL A   1      39.427  29.871  30.820  1.00  0.00     0.074 A 
ATOM     16  C   UNL A   1      41.304  28.611  31.827  1.00  0.00     0.049 A 
ATOM     17  N   UNL A   1      39.209  30.766  31.749  1.00  0.00    -0.248 NA
ATOM     18  C   UNL A   1      38.532  29.983  29.658  1.00  0.00     0.031 C 
ATOM     19  C   UNL A   1      42.344  27.579  31.909  1.00  0.00     0.029 A 
ATOM     20  N   UNL A   1      41.412  29.283  33.017  1.00  0.00    -0.354 N 
ATOM     21  C   UNL A   1      38.172  31.564  31.276  1.00  0.00     0.074 A 
ATOM     22  C   UNL A   1      37.816  31.055  29.968  1.00  0.00     0.031 C 
ATOM     23  C   UNL A   1      42.941  27.649  33.105  1.00  0.00     0.029 A 
ATOM     24  C   UNL A   1      42.382  28.773  33.847  1.00  0.00     0.049 A 
ATOM     25  H   UNL A   1      40.851  30.056  33.252  1.00  0.00     0.167 HD
ATOM     26  C   UNL A   1      37.576  32.623  31.879  1.00  0.00     0.031 A 
ATOM     27  C   UNL A   1      42.794  29.173  35.063  1.00  0.00     0.031 A 
ATOM     28  C   UNL A   1      37.940  33.119  33.181  1.00  0.00     0.049 A 
ATOM     29  C   UNL A   1      42.134  30.362  35.696  1.00  0.00     0.074 A 
ATOM     30  C   UNL A   1      37.382  34.169  33.889  1.00  0.00     0.029 A 
ATOM     31  N   UNL A   1      38.959  32.604  33.970  1.00  0.00    -0.354 N 
ATOM     32  N   UNL A   1      41.145  31.091  35.237  1.00  0.00    -0.248 NA
ATOM     33  C   UNL A   1      42.648  30.784  37.003  1.00  0.00     0.031 C 
ATOM     34  C   UNL A   1      38.095  34.321  35.084  1.00  0.00     0.029 A 
ATOM     35  C   UNL A   1      39.062  33.330  35.145  1.00  0.00     0.049 A 
ATOM     36  H   UNL A   1      39.525  31.836  33.730  1.00  0.00     0.167 HD
ATOM     37  C   UNL A   1      40.913  32.059  36.206  1.00  0.00     0.074 A 
ATOM     38  C   UNL A   1      41.848  31.804  37.284  1.00  0.00     0.031 C 
ATOM     39  C   UNL A   1      40.011  33.071  36.200  1.00  0.00     0.031 A 
BRANCH  26  40
ATOM     40  C   UNL A   1      36.491  33.340  31.118  1.00  0.00    -0.014 A 
ATOM     41  C   UNL A   1      36.748  33.950  29.876  1.00  0.00     0.010 A 
ATOM     42  C   UNL A   1      35.182  33.367  31.633  1.00  0.00     0.010 A 
ATOM     43  C   UNL A   1      35.724  34.607  29.186  1.00  0.00     0.020 A 
ATOM     44  C   UNL A   1      34.151  34.003  30.935  1.00  0.00     0.020 A 
ATOM     45  C   UNL A   1      34.433  34.636  29.723  1.00  0.00     0.054 A 
BRANCH  45  46
ATOM     46  S   UNL A   1      33.122  35.488  28.802  1.00  0.00     0.124 S 
ATOM     47  O   UNL A   1      32.529  34.389  28.044  1.00  0.00    -0.237 OA
ATOM     48  O   UNL A   1      32.286  36.039  29.865  1.00  0.00    -0.237 OA
ATOM     49  O   UNL A   1      33.843  36.476  28.005  1.00  0.00    -0.744 OA
ENDBRANCH  45  46
ENDBRANCH  26  40
BRANCH  27  50
ATOM     50  C   UNL A   1      43.901  28.445  35.736  1.00  0.00    -0.014 A 
ATOM     51  C   UNL A   1      45.236  28.840  35.552  1.00  0.00     0.010 A 
ATOM     52  C   UNL A   1      43.613  27.385  36.617  1.00  0.00     0.010 A 
ATOM     53  C   UNL A   1      46.266  28.186  36.236  1.00  0.00     0.020 A 
ATOM     54  C   UNL A   1      44.636  26.748  37.322  1.00  0.00     0.020 A 
ATOM     55  C   UNL A   1      45.958  27.148  37.121  1.00  0.00     0.054 A 
BRANCH  55  56
ATOM     56  S   UNL A   1      47.300  26.366  38.057  1.00  0.00     0.124 S 
ATOM     57  O   UNL A   1      48.477  27.048  37.527  1.00  0.00    -0.237 OA
ATOM     58  O   UNL A   1      46.951  26.686  39.440  1.00  0.00    -0.237 OA
ATOM     59  O   UNL A   1      47.182  24.953  37.706  1.00  0.00    -0.744 OA
ENDBRANCH  55  56
ENDBRANCH  27  50
BRANCH  39  60
ATOM     60  C   UNL A   1      39.986  33.967  37.406  1.00  0.00    -0.014 A 
ATOM     61  C   UNL A   1      40.804  35.110  37.475  1.00  0.00     0.010 A 
ATOM     62  C   UNL A   1      39.115  33.679  38.471  1.00  0.00     0.010 A 
ATOM     63  C   UNL A   1      40.773  35.930  38.605  1.00  0.00     0.020 A 
ATOM     64  C   UNL A   1      39.063  34.511  39.590  1.00  0.00     0.020 A 
ATOM     65  C   UNL A   1      39.904  35.623  39.657  1.00  0.00     0.054 A 
BRANCH  65  66
ATOM     66  S   UNL A   1      39.858  36.721  41.099  1.00  0.00     0.124 S 
ATOM     67  O   UNL A   1      39.493  38.000  40.495  1.00  0.00    -0.237 OA
ATOM     68  O   UNL A   1      38.832  36.109  41.940  1.00  0.00    -0.237 OA
ATOM     69  O   UNL A   1      41.217  36.649  41.632  1.00  0.00    -0.744 OA
ENDBRANCH  65  66
ENDBRANCH  39  60
ENDBRANCH  13  14
ENDBRANCH   6   8
ENDBRANCH   3   4
ENDBRANCH   2   3
ENDBRANCH   1   2
BRANCH   1  70
ATOM     70  C   UNL A   1      36.289  21.290  25.347  1.00  0.00     0.116 C 
BRANCH  70  71
ATOM     71  N   UNL A   1      35.305  21.718  26.317  1.00  0.00    -0.356 N 
ATOM     72  C   UNL A   1      34.411  22.745  26.203  1.00  0.00     0.224 C 
ATOM     73  H   UNL A   1      35.276  21.209  27.159  1.00  0.00     0.163 HD
ATOM     74  O   UNL A   1      34.083  23.312  27.248  1.00  0.00    -0.275 OA
BRANCH  72  75
ATOM     75  C   UNL A   1      34.034  23.347  24.867  1.00  0.00     0.098 C 
ATOM     76  C   UNL A   1      32.713  24.181  24.711  1.00  0.00     0.099 C 
ATOM     77  C   UNL A   1      34.060  22.534  23.552  1.00  0.00     0.025 C 
ATOM     78  C   UNL A   1      32.234  23.789  23.275  1.00  0.00     0.025 C 
ATOM     79  C   UNL A   1      32.890  21.595  23.469  1.00  0.00    -0.027 C 
ATOM     80  C   UNL A   1      33.571  23.608  22.561  1.00  0.00     0.017 C 
ATOM     81  C   UNL A   1      31.803  22.346  23.245  1.00  0.00    -0.027 C 
BRANCH  76  82
ATOM     82  C   UNL A   1      31.490  24.414  25.612  1.00  0.00     0.229 C 
ATOM     83  O   UNL A   1      31.245  23.533  26.460  1.00  0.00    -0.274 OA
ATOM     84  N   UNL A   1      30.801  25.571  25.797  1.00  0.00    -0.323 N 
ATOM     85  H   UNL A   1      30.314  25.604  26.653  1.00  0.00     0.170 HD
BRANCH  84  86
ATOM     86  C   UNL A   1      30.641  26.720  25.026  1.00  0.00     0.084 A 
ATOM     87  C   UNL A   1      29.800  26.618  23.908  1.00  0.00     0.030 A 
ATOM     88  C   UNL A   1      31.369  27.895  25.212  1.00  0.00     0.149 A 
ATOM     89  C   UNL A   1      29.508  27.739  23.129  1.00  0.00     0.002 A 
ATOM     90  C   UNL A   1      31.037  29.031  24.461  1.00  0.00     0.049 A 
ATOM     91  C   UNL A   1      30.095  28.961  23.436  1.00  0.00     0.004 A 
BRANCH  88  92
ATOM     92  O   UNL A   1      32.451  28.083  26.019  1.00  0.00    -0.433 OA
BRANCH  92  93
ATOM     93  C   UNL A   1      32.292  28.791  27.245  1.00  0.00     0.542 C 
ATOM     94  F   UNL A   1      31.885  27.971  28.238  1.00  0.00    -0.167 F 
ATOM     95  F   UNL A   1      33.454  29.376  27.628  1.00  0.00    -0.167 F 
ENDBRANCH  92  93
ENDBRANCH  88  92
ENDBRANCH  84  86
ENDBRANCH  76  82
ENDBRANCH  72  75
ENDBRANCH  70  71
ENDBRANCH   1  70
TORSDOF 18
ENDMDL
