MODEL 1
REMARK VINA RESULT:     -10.9      0.000      0.000
REMARK SMILES [NH3+]Cc1ccc(C(=O)N2[C@@H](C(=O)NCCCCNC(=O)c3ccc(-c4c5nc(c(-c6ccc(S(=O)(=O)[O-])cc6)c6ccc([nH]6)c(-c6ccc(S(=O)(=O)[O-])cc6)c6nc(c(-c7ccc(S(=O)(=O)[O-])cc7)c7ccc4[nH]7)C=C6)C=C5)cc3)C[C@H]3CCCC[C@@H]32)o1
REMARK SMILES IDX 15 1 14 2 13 3 11 4 12 5 10 7 9 8 87 9 81 10 82 11 86 12
REMARK SMILES IDX 83 13 85 14 84 15 7 16 8 17 6 18 3 19 4 20 88 21 5 22 2 23
REMARK SMILES IDX 1 24 16 28 17 29 18 30 19 31 20 33 21 34 22 35 80 36 23 37
REMARK SMILES IDX 79 38 24 39 25 40 26 41 73 42 27 43 78 44 72 45 74 46 28 47
REMARK SMILES IDX 77 48 71 49 70 50 29 52 59 53 40 54 58 55 41 56 44 57 57 58
REMARK SMILES IDX 75 59 42 60 43 61 56 63 76 64 45 65 30 66 31 67 39 68 32 69
REMARK SMILES IDX 38 70 33 71 34 72 35 73 36 74 37 75 60 76 61 77 69 78 62 79
REMARK SMILES IDX 68 80 63 81 64 82 65 83 66 84 67 85 46 86 47 87 55 88 48 89
REMARK SMILES IDX 54 90 49 91 50 92 51 93 52 94 53 95
REMARK H PARENT 13 6 1 25 1 26 1 27 18 32 74 51 44 62
REMARK Flexibility Score: inf
ROOT
ATOM      1  C   UNL A   1      34.984  22.548  24.269  1.00  0.00     0.023 C 
ENDROOT
BRANCH   1   2
ATOM      2  C   UNL A   1      33.588  23.152  24.095  1.00  0.00     0.116 C 
BRANCH   2   3
ATOM      3  N   UNL A   1      33.586  24.350  23.276  1.00  0.00    -0.354 N 
ATOM      4  C   UNL A   1      33.430  25.668  23.579  1.00  0.00     0.242 C 
ATOM      5  O   UNL A   1      33.567  26.462  22.638  1.00  0.00    -0.273 OA
ATOM      6  H   UNL A   1      33.723  24.177  22.317  1.00  0.00     0.163 HD
BRANCH   4   7
ATOM      7  C   UNL A   1      32.871  26.207  24.923  1.00  0.00     0.175 C 
ATOM      8  N   UNL A   1      31.955  27.360  24.933  1.00  0.00    -0.321 N 
ATOM      9  C   UNL A   1      32.635  28.530  25.457  1.00  0.00     0.089 C 
ATOM     10  C   UNL A   1      34.083  26.668  25.770  1.00  0.00     0.041 C 
ATOM     11  C   UNL A   1      33.567  27.904  26.493  1.00  0.00     0.014 C 
ATOM     12  C   UNL A   1      31.846  29.662  26.108  1.00  0.00     0.025 C 
ATOM     13  C   UNL A   1      34.605  28.908  26.965  1.00  0.00     0.006 C 
ATOM     14  C   UNL A   1      32.833  30.719  26.624  1.00  0.00     0.002 C 
ATOM     15  C   UNL A   1      33.903  30.136  27.556  1.00  0.00     0.000 C 
BRANCH   8  16
ATOM     16  C   UNL A   1      30.659  27.401  24.432  1.00  0.00     0.290 C 
ATOM     17  O   UNL A   1      29.857  26.521  24.749  1.00  0.00    -0.265 OA
BRANCH  16  18
ATOM     18  C   UNL A   1      30.299  28.440  23.480  1.00  0.00     0.192 A 
ATOM     19  C   UNL A   1      28.864  29.876  22.588  1.00  0.00     0.159 A 
ATOM     20  C   UNL A   1      29.928  29.800  21.719  1.00  0.00     0.052 A 
ATOM     21  O   UNL A   1      29.093  29.072  23.666  1.00  0.00    -0.450 OA
ATOM     22  C   UNL A   1      30.839  28.872  22.281  1.00  0.00     0.057 A 
BRANCH  19  23
ATOM     23  C   UNL A   1      27.569  30.613  22.536  1.00  0.00     0.335 C 
BRANCH  23  24
ATOM     24  N   UNL A   1      27.542  31.766  23.434  1.00  0.00    -0.351 N 
ATOM     25  H   UNL A   1      27.493  31.443  24.400  1.00  0.00     0.344 HD
ATOM     26  H   UNL A   1      26.725  32.341  23.225  1.00  0.00     0.344 HD
ATOM     27  H   UNL A   1      28.390  32.319  23.302  1.00  0.00     0.344 HD
ENDBRANCH  23  24
ENDBRANCH  19  23
ENDBRANCH  16  18
ENDBRANCH   8  16
ENDBRANCH   4   7
ENDBRANCH   2   3
ENDBRANCH   1   2
BRANCH   1  28
ATOM     28  C   UNL A   1      35.758  23.027  25.497  1.00  0.00     0.023 C 
BRANCH  28  29
ATOM     29  C   UNL A   1      37.158  23.569  25.220  1.00  0.00     0.116 C 
BRANCH  29  30
ATOM     30  N   UNL A   1      38.235  22.647  25.550  1.00  0.00    -0.352 N 
ATOM     31  C   UNL A   1      39.375  22.910  26.275  1.00  0.00     0.251 C 
ATOM     32  H   UNL A   1      38.137  21.727  25.213  1.00  0.00     0.163 HD
ATOM     33  O   UNL A   1      40.247  22.055  26.401  1.00  0.00    -0.269 OA
BRANCH  31  34
ATOM     34  C   UNL A   1      39.557  24.256  26.856  1.00  0.00     0.039 A 
ATOM     35  C   UNL A   1      39.155  24.482  28.175  1.00  0.00     0.014 A 
ATOM     36  C   UNL A   1      40.181  25.267  26.123  1.00  0.00     0.014 A 
ATOM     37  C   UNL A   1      39.455  25.702  28.785  1.00  0.00     0.010 A 
ATOM     38  C   UNL A   1      40.542  26.453  26.753  1.00  0.00     0.010 A 
ATOM     39  C   UNL A   1      40.188  26.680  28.092  1.00  0.00    -0.014 A 
BRANCH  39  40
ATOM     40  C   UNL A   1      40.605  27.942  28.752  1.00  0.00     0.031 A 
ATOM     41  C   UNL A   1      41.977  28.059  29.359  1.00  0.00     0.074 A 
ATOM     42  C   UNL A   1      39.723  28.955  28.871  1.00  0.00     0.049 A 
ATOM     43  N   UNL A   1      42.499  29.053  30.029  1.00  0.00    -0.248 NA
ATOM     44  C   UNL A   1      42.866  26.893  29.218  1.00  0.00     0.031 C 
ATOM     45  C   UNL A   1      38.345  28.944  28.375  1.00  0.00     0.029 A 
ATOM     46  N   UNL A   1      39.854  30.190  29.456  1.00  0.00    -0.354 N 
ATOM     47  C   UNL A   1      43.767  28.627  30.408  1.00  0.00     0.074 A 
ATOM     48  C   UNL A   1      43.916  27.268  29.934  1.00  0.00     0.031 C 
ATOM     49  C   UNL A   1      37.767  30.125  28.652  1.00  0.00     0.029 A 
ATOM     50  C   UNL A   1      38.720  30.963  29.374  1.00  0.00     0.049 A 
ATOM     51  H   UNL A   1      40.682  30.494  29.894  1.00  0.00     0.167 HD
ATOM     52  C   UNL A   1      44.728  29.311  31.074  1.00  0.00     0.031 A 
ATOM     53  C   UNL A   1      38.473  32.207  29.827  1.00  0.00     0.031 A 
ATOM     54  C   UNL A   1      44.585  30.669  31.524  1.00  0.00     0.049 A 
ATOM     55  C   UNL A   1      39.565  32.957  30.540  1.00  0.00     0.074 A 
ATOM     56  C   UNL A   1      45.522  31.471  32.152  1.00  0.00     0.029 A 
ATOM     57  N   UNL A   1      43.432  31.428  31.391  1.00  0.00    -0.354 N 
ATOM     58  N   UNL A   1      40.781  32.560  30.832  1.00  0.00    -0.248 NA
ATOM     59  C   UNL A   1      39.256  34.327  30.972  1.00  0.00     0.031 C 
ATOM     60  C   UNL A   1      44.924  32.704  32.432  1.00  0.00     0.029 A 
ATOM     61  C   UNL A   1      43.630  32.685  31.937  1.00  0.00     0.049 A 
ATOM     62  H   UNL A   1      42.598  31.119  30.970  1.00  0.00     0.167 HD
ATOM     63  C   UNL A   1      41.391  33.641  31.459  1.00  0.00     0.074 A 
ATOM     64  C   UNL A   1      40.414  34.710  31.492  1.00  0.00     0.031 C 
ATOM     65  C   UNL A   1      42.647  33.738  31.960  1.00  0.00     0.031 A 
BRANCH  52  66
ATOM     66  C   UNL A   1      46.022  28.594  31.349  1.00  0.00    -0.014 A 
ATOM     67  C   UNL A   1      46.202  27.853  32.532  1.00  0.00     0.010 A 
ATOM     68  C   UNL A   1      47.063  28.640  30.404  1.00  0.00     0.010 A 
ATOM     69  C   UNL A   1      47.416  27.210  32.786  1.00  0.00     0.020 A 
ATOM     70  C   UNL A   1      48.270  27.975  30.643  1.00  0.00     0.020 A 
ATOM     71  C   UNL A   1      48.445  27.280  31.842  1.00  0.00     0.054 A 
BRANCH  71  72
ATOM     72  S   UNL A   1      50.005  26.424  32.190  1.00  0.00     0.124 S 
ATOM     73  O   UNL A   1      50.393  27.014  33.469  1.00  0.00    -0.237 OA
ATOM     74  O   UNL A   1      49.598  25.021  32.244  1.00  0.00    -0.237 OA
ATOM     75  O   UNL A   1      50.854  26.779  31.056  1.00  0.00    -0.744 OA
ENDBRANCH  71  72
ENDBRANCH  52  66
BRANCH  53  76
ATOM     76  C   UNL A   1      37.145  32.834  29.593  1.00  0.00    -0.014 A 
ATOM     77  C   UNL A   1      36.167  32.827  30.603  1.00  0.00     0.010 A 
ATOM     78  C   UNL A   1      36.856  33.456  28.364  1.00  0.00     0.010 A 
ATOM     79  C   UNL A   1      34.918  33.416  30.385  1.00  0.00     0.020 A 
ATOM     80  C   UNL A   1      35.617  34.067  28.151  1.00  0.00     0.020 A 
ATOM     81  C   UNL A   1      34.651  34.033  29.160  1.00  0.00     0.054 A 
BRANCH  81  82
ATOM     82  S   UNL A   1      33.044  34.840  28.917  1.00  0.00     0.124 S 
ATOM     83  O   UNL A   1      33.437  36.152  28.414  1.00  0.00    -0.237 OA
ATOM     84  O   UNL A   1      32.389  33.961  27.953  1.00  0.00    -0.237 OA
ATOM     85  O   UNL A   1      32.455  34.832  30.255  1.00  0.00    -0.744 OA
ENDBRANCH  81  82
ENDBRANCH  53  76
BRANCH  65  86
ATOM     86  C   UNL A   1      43.050  35.058  32.558  1.00  0.00    -0.014 A 
ATOM     87  C   UNL A   1      43.744  36.018  31.800  1.00  0.00     0.010 A 
ATOM     88  C   UNL A   1      42.682  35.360  33.882  1.00  0.00     0.010 A 
ATOM     89  C   UNL A   1      44.088  37.248  32.368  1.00  0.00     0.020 A 
ATOM     90  C   UNL A   1      43.004  36.597  34.444  1.00  0.00     0.020 A 
ATOM     91  C   UNL A   1      43.718  37.529  33.687  1.00  0.00     0.054 A 
BRANCH  91  92
ATOM     92  S   UNL A   1      44.138  39.148  34.388  1.00  0.00     0.124 S 
ATOM     93  O   UNL A   1      43.005  39.966  33.962  1.00  0.00    -0.237 OA
ATOM     94  O   UNL A   1      44.209  38.872  35.820  1.00  0.00    -0.237 OA
ATOM     95  O   UNL A   1      45.415  39.476  33.759  1.00  0.00    -0.744 OA
ENDBRANCH  91  92
ENDBRANCH  65  86
ENDBRANCH  39  40
ENDBRANCH  31  34
ENDBRANCH  29  30
ENDBRANCH  28  29
ENDBRANCH   1  28
TORSDOF 18
ENDMDL
MODEL 2
REMARK VINA RESULT:     -10.5      4.326      6.356
REMARK SMILES [NH3+]Cc1ccc(C(=O)N2[C@@H](C(=O)NCCCCNC(=O)c3ccc(-c4c5nc(c(-c6ccc(S(=O)(=O)[O-])cc6)c6ccc([nH]6)c(-c6ccc(S(=O)(=O)[O-])cc6)c6nc(c(-c7ccc(S(=O)(=O)[O-])cc7)c7ccc4[nH]7)C=C6)C=C5)cc3)C[C@H]3CCCC[C@@H]32)o1
REMARK SMILES IDX 15 1 14 2 13 3 11 4 12 5 10 7 9 8 87 9 81 10 82 11 86 12
REMARK SMILES IDX 83 13 85 14 84 15 7 16 8 17 6 18 3 19 4 20 88 21 5 22 2 23
REMARK SMILES IDX 1 24 16 28 17 29 18 30 19 31 20 33 21 34 22 35 80 36 23 37
REMARK SMILES IDX 79 38 24 39 25 40 26 41 73 42 27 43 78 44 72 45 74 46 28 47
REMARK SMILES IDX 77 48 71 49 70 50 29 52 59 53 40 54 58 55 41 56 44 57 57 58
REMARK SMILES IDX 75 59 42 60 43 61 56 63 76 64 45 65 30 66 31 67 39 68 32 69
REMARK SMILES IDX 38 70 33 71 34 72 35 73 36 74 37 75 60 76 61 77 69 78 62 79
REMARK SMILES IDX 68 80 63 81 64 82 65 83 66 84 67 85 46 86 47 87 55 88 48 89
REMARK SMILES IDX 54 90 49 91 50 92 51 93 52 94 53 95
REMARK H PARENT 13 6 1 25 1 26 1 27 18 32 74 51 44 62
REMARK Flexibility Score: inf
ROOT
ATOM      1  C   UNL A   1      37.602  21.863  25.640  1.00  0.00     0.023 C 
ENDROOT
BRANCH   1   2
ATOM      2  C   UNL A   1      36.483  21.257  24.790  1.00  0.00     0.116 C 
BRANCH   2   3
ATOM      3  N   UNL A   1      35.941  22.188  23.818  1.00  0.00    -0.354 N 
ATOM      4  C   UNL A   1      35.264  23.362  23.950  1.00  0.00     0.242 C 
ATOM      5  O   UNL A   1      35.011  23.965  22.897  1.00  0.00    -0.273 OA
ATOM      6  H   UNL A   1      36.090  21.919  22.883  1.00  0.00     0.163 HD
BRANCH   4   7
ATOM      7  C   UNL A   1      34.599  23.857  25.262  1.00  0.00     0.175 C 
ATOM      8  N   UNL A   1      33.345  23.242  25.731  1.00  0.00    -0.321 N 
ATOM      9  C   UNL A   1      32.240  24.165  25.550  1.00  0.00     0.089 C 
ATOM     10  C   UNL A   1      34.244  25.351  25.060  1.00  0.00     0.041 C 
ATOM     11  C   UNL A   1      32.922  25.510  25.796  1.00  0.00     0.014 C 
ATOM     12  C   UNL A   1      30.993  24.066  26.422  1.00  0.00     0.025 C 
ATOM     13  C   UNL A   1      32.027  26.659  25.364  1.00  0.00     0.006 C 
ATOM     14  C   UNL A   1      30.036  25.208  26.050  1.00  0.00     0.002 C 
ATOM     15  C   UNL A   1      30.697  26.590  26.122  1.00  0.00     0.000 C 
BRANCH   8  16
ATOM     16  C   UNL A   1      33.175  21.942  26.191  1.00  0.00     0.290 C 
ATOM     17  O   UNL A   1      33.418  21.677  27.369  1.00  0.00    -0.265 OA
BRANCH  16  18
ATOM     18  C   UNL A   1      32.788  20.902  25.250  1.00  0.00     0.192 A 
ATOM     19  C   UNL A   1      32.531  18.778  24.663  1.00  0.00     0.159 A 
ATOM     20  C   UNL A   1      32.407  19.518  23.509  1.00  0.00     0.052 A 
ATOM     21  O   UNL A   1      32.740  19.613  25.723  1.00  0.00    -0.450 OA
ATOM     22  C   UNL A   1      32.585  20.874  23.881  1.00  0.00     0.057 A 
BRANCH  19  23
ATOM     23  C   UNL A   1      32.515  17.312  24.928  1.00  0.00     0.335 C 
BRANCH  23  24
ATOM     24  N   UNL A   1      33.270  16.950  26.127  1.00  0.00    -0.351 N 
ATOM     25  H   UNL A   1      32.664  17.019  26.944  1.00  0.00     0.344 HD
ATOM     26  H   UNL A   1      34.062  17.585  26.234  1.00  0.00     0.344 HD
ATOM     27  H   UNL A   1      33.612  15.992  26.037  1.00  0.00     0.344 HD
ENDBRANCH  23  24
ENDBRANCH  19  23
ENDBRANCH  16  18
ENDBRANCH   8  16
ENDBRANCH   4   7
ENDBRANCH   2   3
ENDBRANCH   1   2
BRANCH   1  28
ATOM     28  C   UNL A   1      39.001  21.304  25.380  1.00  0.00     0.023 C 
BRANCH  28  29
ATOM     29  C   UNL A   1      39.670  20.628  26.573  1.00  0.00     0.116 C 
BRANCH  29  30
ATOM     30  N   UNL A   1      40.581  19.549  26.218  1.00  0.00    -0.352 N 
ATOM     31  C   UNL A   1      41.945  19.622  26.045  1.00  0.00     0.251 C 
ATOM     32  H   UNL A   1      40.173  18.662  26.085  1.00  0.00     0.163 HD
ATOM     33  O   UNL A   1      42.579  18.645  25.656  1.00  0.00    -0.269 OA
BRANCH  31  34
ATOM     34  C   UNL A   1      42.627  20.911  26.285  1.00  0.00     0.039 A 
ATOM     35  C   UNL A   1      42.975  21.704  25.190  1.00  0.00     0.014 A 
ATOM     36  C   UNL A   1      42.857  21.360  27.587  1.00  0.00     0.014 A 
ATOM     37  C   UNL A   1      43.482  22.988  25.405  1.00  0.00     0.010 A 
ATOM     38  C   UNL A   1      43.295  22.663  27.800  1.00  0.00     0.010 A 
ATOM     39  C   UNL A   1      43.606  23.492  26.711  1.00  0.00    -0.014 A 
BRANCH  39  40
ATOM     40  C   UNL A   1      44.047  24.886  26.961  1.00  0.00     0.031 A 
ATOM     41  C   UNL A   1      45.494  25.261  26.793  1.00  0.00     0.074 A 
ATOM     42  C   UNL A   1      43.159  25.796  27.411  1.00  0.00     0.049 A 
ATOM     43  N   UNL A   1      46.080  26.408  27.023  1.00  0.00    -0.248 NA
ATOM     44  C   UNL A   1      46.406  24.200  26.333  1.00  0.00     0.031 C 
ATOM     45  C   UNL A   1      41.740  25.542  27.669  1.00  0.00     0.029 A 
ATOM     46  N   UNL A   1      43.323  27.119  27.741  1.00  0.00    -0.354 N 
ATOM     47  C   UNL A   1      47.429  26.201  26.758  1.00  0.00     0.074 A 
ATOM     48  C   UNL A   1      47.581  24.809  26.396  1.00  0.00     0.031 C 
ATOM     49  C   UNL A   1      41.159  26.678  28.090  1.00  0.00     0.029 A 
ATOM     50  C   UNL A   1      42.168  27.730  28.165  1.00  0.00     0.049 A 
ATOM     51  H   UNL A   1      44.189  27.585  27.681  1.00  0.00     0.167 HD
ATOM     52  C   UNL A   1      48.447  27.094  26.794  1.00  0.00     0.031 A 
ATOM     53  C   UNL A   1      41.943  28.996  28.568  1.00  0.00     0.031 A 
ATOM     54  C   UNL A   1      48.289  28.482  27.133  1.00  0.00     0.049 A 
ATOM     55  C   UNL A   1      43.084  29.976  28.574  1.00  0.00     0.074 A 
ATOM     56  C   UNL A   1      49.247  29.481  27.138  1.00  0.00     0.029 A 
ATOM     57  N   UNL A   1      47.096  29.070  27.523  1.00  0.00    -0.354 N 
ATOM     58  N   UNL A   1      44.341  29.776  28.257  1.00  0.00    -0.248 NA
ATOM     59  C   UNL A   1      42.772  31.354  28.978  1.00  0.00     0.031 C 
ATOM     60  C   UNL A   1      48.640  30.666  27.567  1.00  0.00     0.029 A 
ATOM     61  C   UNL A   1      47.294  30.415  27.784  1.00  0.00     0.049 A 
ATOM     62  H   UNL A   1      46.234  28.600  27.602  1.00  0.00     0.167 HD
ATOM     63  C   UNL A   1      44.966  31.011  28.399  1.00  0.00     0.074 A 
ATOM     64  C   UNL A   1      43.945  31.950  28.817  1.00  0.00     0.031 C 
ATOM     65  C   UNL A   1      46.267  31.336  28.198  1.00  0.00     0.031 A 
BRANCH  52  66
ATOM     66  C   UNL A   1      49.822  26.588  26.453  1.00  0.00    -0.014 A 
ATOM     67  C   UNL A   1      50.673  26.076  27.449  1.00  0.00     0.010 A 
ATOM     68  C   UNL A   1      50.262  26.602  25.117  1.00  0.00     0.010 A 
ATOM     69  C   UNL A   1      51.956  25.630  27.123  1.00  0.00     0.020 A 
ATOM     70  C   UNL A   1      51.536  26.131  24.783  1.00  0.00     0.020 A 
ATOM     71  C   UNL A   1      52.382  25.666  25.792  1.00  0.00     0.054 A 
BRANCH  71  72
ATOM     72  S   UNL A   1      54.046  25.066  25.394  1.00  0.00     0.124 S 
ATOM     73  O   UNL A   1      54.742  25.243  26.666  1.00  0.00    -0.237 OA
ATOM     74  O   UNL A   1      53.804  23.681  24.998  1.00  0.00    -0.237 OA
ATOM     75  O   UNL A   1      54.484  25.950  24.316  1.00  0.00    -0.744 OA
ENDBRANCH  71  72
ENDBRANCH  52  66
BRANCH  53  76
ATOM     76  C   UNL A   1      40.574  29.416  28.969  1.00  0.00    -0.014 A 
ATOM     77  C   UNL A   1      39.604  29.706  27.994  1.00  0.00     0.010 A 
ATOM     78  C   UNL A   1      40.227  29.512  30.329  1.00  0.00     0.010 A 
ATOM     79  C   UNL A   1      38.317  30.101  28.369  1.00  0.00     0.020 A 
ATOM     80  C   UNL A   1      38.934  29.882  30.709  1.00  0.00     0.020 A 
ATOM     81  C   UNL A   1      37.989  30.186  29.725  1.00  0.00     0.054 A 
BRANCH  81  82
ATOM     82  S   UNL A   1      36.297  30.645  30.191  1.00  0.00     0.124 S 
ATOM     83  O   UNL A   1      35.522  30.130  29.067  1.00  0.00    -0.237 OA
ATOM     84  O   UNL A   1      36.115  29.946  31.460  1.00  0.00    -0.237 OA
ATOM     85  O   UNL A   1      36.358  32.102  30.296  1.00  0.00    -0.744 OA
ENDBRANCH  81  82
ENDBRANCH  53  76
BRANCH  65  86
ATOM     86  C   UNL A   1      46.657  32.775  28.396  1.00  0.00    -0.014 A 
ATOM     87  C   UNL A   1      47.159  33.229  29.628  1.00  0.00     0.010 A 
ATOM     88  C   UNL A   1      46.567  33.672  27.316  1.00  0.00     0.010 A 
ATOM     89  C   UNL A   1      47.538  34.565  29.784  1.00  0.00     0.020 A 
ATOM     90  C   UNL A   1      46.967  35.002  27.463  1.00  0.00     0.020 A 
ATOM     91  C   UNL A   1      47.438  35.443  28.701  1.00  0.00     0.054 A 
BRANCH  91  92
ATOM     92  S   UNL A   1      47.976  37.162  28.915  1.00  0.00     0.124 S 
ATOM     93  O   UNL A   1      49.417  37.009  29.094  1.00  0.00    -0.237 OA
ATOM     94  O   UNL A   1      47.563  37.789  27.662  1.00  0.00    -0.237 OA
ATOM     95  O   UNL A   1      47.245  37.608  30.098  1.00  0.00    -0.744 OA
ENDBRANCH  91  92
ENDBRANCH  65  86
ENDBRANCH  39  40
ENDBRANCH  31  34
ENDBRANCH  29  30
ENDBRANCH  28  29
ENDBRANCH   1  28
TORSDOF 18
ENDMDL
MODEL 3
REMARK VINA RESULT:     -10.4      2.329      3.868
REMARK SMILES [NH3+]Cc1ccc(C(=O)N2[C@@H](C(=O)NCCCCNC(=O)c3ccc(-c4c5nc(c(-c6ccc(S(=O)(=O)[O-])cc6)c6ccc([nH]6)c(-c6ccc(S(=O)(=O)[O-])cc6)c6nc(c(-c7ccc(S(=O)(=O)[O-])cc7)c7ccc4[nH]7)C=C6)C=C5)cc3)C[C@H]3CCCC[C@@H]32)o1
REMARK SMILES IDX 15 1 14 2 13 3 11 4 12 5 10 7 9 8 87 9 81 10 82 11 86 12
REMARK SMILES IDX 83 13 85 14 84 15 7 16 8 17 6 18 3 19 4 20 88 21 5 22 2 23
REMARK SMILES IDX 1 24 16 28 17 29 18 30 19 31 20 33 21 34 22 35 80 36 23 37
REMARK SMILES IDX 79 38 24 39 25 40 26 41 73 42 27 43 78 44 72 45 74 46 28 47
REMARK SMILES IDX 77 48 71 49 70 50 29 52 59 53 40 54 58 55 41 56 44 57 57 58
REMARK SMILES IDX 75 59 42 60 43 61 56 63 76 64 45 65 30 66 31 67 39 68 32 69
REMARK SMILES IDX 38 70 33 71 34 72 35 73 36 74 37 75 60 76 61 77 69 78 62 79
REMARK SMILES IDX 68 80 63 81 64 82 65 83 66 84 67 85 46 86 47 87 55 88 48 89
REMARK SMILES IDX 54 90 49 91 50 92 51 93 52 94 53 95
REMARK H PARENT 13 6 1 25 1 26 1 27 18 32 74 51 44 62
REMARK Flexibility Score: inf
ROOT
ATOM      1  C   UNL A   1      34.535  24.433  25.115  1.00  0.00     0.023 C 
ENDROOT
BRANCH   1   2
ATOM      2  C   UNL A   1      34.042  25.849  25.420  1.00  0.00     0.116 C 
BRANCH   2   3
ATOM      3  N   UNL A   1      32.749  25.871  26.079  1.00  0.00    -0.354 N 
ATOM      4  C   UNL A   1      31.489  26.110  25.621  1.00  0.00     0.242 C 
ATOM      5  O   UNL A   1      30.576  25.965  26.445  1.00  0.00    -0.273 OA
ATOM      6  H   UNL A   1      32.791  25.676  27.043  1.00  0.00     0.163 HD
BRANCH   4   7
ATOM      7  C   UNL A   1      31.154  26.765  24.255  1.00  0.00     0.175 C 
ATOM      8  N   UNL A   1      31.284  28.222  24.082  1.00  0.00    -0.321 N 
ATOM      9  C   UNL A   1      29.969  28.831  23.998  1.00  0.00     0.089 C 
ATOM     10  C   UNL A   1      29.662  26.472  23.960  1.00  0.00     0.041 C 
ATOM     11  C   UNL A   1      29.174  27.742  23.280  1.00  0.00     0.014 C 
ATOM     12  C   UNL A   1      29.772  30.158  23.273  1.00  0.00     0.025 C 
ATOM     13  C   UNL A   1      27.683  28.028  23.346  1.00  0.00     0.006 C 
ATOM     14  C   UNL A   1      28.279  30.514  23.288  1.00  0.00     0.002 C 
ATOM     15  C   UNL A   1      27.392  29.397  22.722  1.00  0.00     0.000 C 
BRANCH   8  16
ATOM     16  C   UNL A   1      32.460  28.962  24.095  1.00  0.00     0.290 C 
ATOM     17  O   UNL A   1      33.153  29.020  23.078  1.00  0.00    -0.265 OA
BRANCH  16  18
ATOM     18  C   UNL A   1      32.888  29.591  25.335  1.00  0.00     0.192 A 
ATOM     19  C   UNL A   1      34.269  29.802  27.058  1.00  0.00     0.159 A 
ATOM     20  C   UNL A   1      33.145  30.531  27.370  1.00  0.00     0.052 A 
ATOM     21  O   UNL A   1      34.128  29.249  25.818  1.00  0.00    -0.450 OA
ATOM     22  C   UNL A   1      32.256  30.386  26.276  1.00  0.00     0.057 A 
BRANCH  19  23
ATOM     23  C   UNL A   1      35.519  29.501  27.812  1.00  0.00     0.335 C 
BRANCH  23  24
ATOM     24  N   UNL A   1      35.436  29.895  29.217  1.00  0.00    -0.351 N 
ATOM     25  H   UNL A   1      34.549  30.371  29.385  1.00  0.00     0.344 HD
ATOM     26  H   UNL A   1      36.208  30.524  29.440  1.00  0.00     0.344 HD
ATOM     27  H   UNL A   1      35.493  29.065  29.807  1.00  0.00     0.344 HD
ENDBRANCH  23  24
ENDBRANCH  19  23
ENDBRANCH  16  18
ENDBRANCH   8  16
ENDBRANCH   4   7
ENDBRANCH   2   3
ENDBRANCH   1   2
BRANCH   1  28
ATOM     28  C   UNL A   1      35.364  23.774  26.218  1.00  0.00     0.023 C 
BRANCH  28  29
ATOM     29  C   UNL A   1      36.876  23.929  26.084  1.00  0.00     0.116 C 
BRANCH  29  30
ATOM     30  N   UNL A   1      37.611  22.672  26.089  1.00  0.00    -0.352 N 
ATOM     31  C   UNL A   1      38.950  22.482  26.345  1.00  0.00     0.251 C 
ATOM     32  H   UNL A   1      37.089  21.863  25.883  1.00  0.00     0.163 HD
ATOM     33  O   UNL A   1      39.458  21.370  26.226  1.00  0.00    -0.269 OA
BRANCH  31  34
ATOM     34  C   UNL A   1      39.779  23.648  26.716  1.00  0.00     0.039 A 
ATOM     35  C   UNL A   1      39.924  24.691  25.799  1.00  0.00     0.014 A 
ATOM     36  C   UNL A   1      40.351  23.736  27.987  1.00  0.00     0.014 A 
ATOM     37  C   UNL A   1      40.578  25.863  26.190  1.00  0.00     0.010 A 
ATOM     38  C   UNL A   1      40.938  24.929  28.397  1.00  0.00     0.010 A 
ATOM     39  C   UNL A   1      41.051  26.006  27.505  1.00  0.00    -0.014 A 
BRANCH  39  40
ATOM     40  C   UNL A   1      41.659  27.277  27.971  1.00  0.00     0.031 A 
ATOM     41  C   UNL A   1      43.152  27.453  27.946  1.00  0.00     0.074 A 
ATOM     42  C   UNL A   1      40.872  28.242  28.488  1.00  0.00     0.049 A 
ATOM     43  N   UNL A   1      43.870  28.462  28.367  1.00  0.00    -0.248 NA
ATOM     44  C   UNL A   1      43.944  26.337  27.401  1.00  0.00     0.031 C 
ATOM     45  C   UNL A   1      39.414  28.169  28.620  1.00  0.00     0.029 A 
ATOM     46  N   UNL A   1      41.189  29.473  29.007  1.00  0.00    -0.354 N 
ATOM     47  C   UNL A   1      45.195  28.094  28.160  1.00  0.00     0.074 A 
ATOM     48  C   UNL A   1      45.182  26.753  27.619  1.00  0.00     0.031 C 
ATOM     49  C   UNL A   1      38.963  29.314  29.158  1.00  0.00     0.029 A 
ATOM     50  C   UNL A   1      40.098  30.188  29.439  1.00  0.00     0.049 A 
ATOM     51  H   UNL A   1      42.112  29.811  29.065  1.00  0.00     0.167 HD
ATOM     52  C   UNL A   1      46.320  28.816  28.381  1.00  0.00     0.031 A 
ATOM     53  C   UNL A   1      40.018  31.411  29.998  1.00  0.00     0.031 A 
ATOM     54  C   UNL A   1      46.328  30.157  28.898  1.00  0.00     0.049 A 
ATOM     55  C   UNL A   1      41.278  32.204  30.210  1.00  0.00     0.074 A 
ATOM     56  C   UNL A   1      47.410  30.996  29.100  1.00  0.00     0.029 A 
ATOM     57  N   UNL A   1      45.199  30.859  29.292  1.00  0.00    -0.354 N 
ATOM     58  N   UNL A   1      42.518  31.864  29.946  1.00  0.00    -0.248 NA
ATOM     59  C   UNL A   1      41.128  33.549  30.781  1.00  0.00     0.031 C 
ATOM     60  C   UNL A   1      46.940  32.192  29.650  1.00  0.00     0.029 A 
ATOM     61  C   UNL A   1      45.559  32.116  29.748  1.00  0.00     0.049 A 
ATOM     62  H   UNL A   1      44.278  30.515  29.252  1.00  0.00     0.167 HD
ATOM     63  C   UNL A   1      43.293  32.965  30.295  1.00  0.00     0.074 A 
ATOM     64  C   UNL A   1      42.381  33.982  30.776  1.00  0.00     0.031 C 
ATOM     65  C   UNL A   1      44.638  33.117  30.222  1.00  0.00     0.031 A 
BRANCH  52  66
ATOM     66  C   UNL A   1      47.635  28.161  28.058  1.00  0.00    -0.014 A 
ATOM     67  C   UNL A   1      48.332  27.418  29.029  1.00  0.00     0.010 A 
ATOM     68  C   UNL A   1      48.172  28.268  26.762  1.00  0.00     0.010 A 
ATOM     69  C   UNL A   1      49.564  26.834  28.723  1.00  0.00     0.020 A 
ATOM     70  C   UNL A   1      49.391  27.662  26.445  1.00  0.00     0.020 A 
ATOM     71  C   UNL A   1      50.089  26.964  27.434  1.00  0.00     0.054 A 
BRANCH  71  72
ATOM     72  S   UNL A   1      51.681  26.183  27.059  1.00  0.00     0.124 S 
ATOM     73  O   UNL A   1      52.116  26.935  25.884  1.00  0.00    -0.237 OA
ATOM     74  O   UNL A   1      52.453  26.421  28.277  1.00  0.00    -0.237 OA
ATOM     75  O   UNL A   1      51.332  24.786  26.811  1.00  0.00    -0.744 OA
ENDBRANCH  71  72
ENDBRANCH  52  66
BRANCH  53  76
ATOM     76  C   UNL A   1      38.692  31.973  30.370  1.00  0.00    -0.014 A 
ATOM     77  C   UNL A   1      37.930  32.682  29.425  1.00  0.00     0.010 A 
ATOM     78  C   UNL A   1      38.176  31.788  31.666  1.00  0.00     0.010 A 
ATOM     79  C   UNL A   1      36.684  33.211  29.772  1.00  0.00     0.020 A 
ATOM     80  C   UNL A   1      36.919  32.294  32.009  1.00  0.00     0.020 A 
ATOM     81  C   UNL A   1      36.185  33.013  31.062  1.00  0.00     0.054 A 
BRANCH  81  82
ATOM     82  S   UNL A   1      34.541  33.659  31.475  1.00  0.00     0.124 S 
ATOM     83  O   UNL A   1      33.943  33.834  30.156  1.00  0.00    -0.237 OA
ATOM     84  O   UNL A   1      33.974  32.587  32.291  1.00  0.00    -0.237 OA
ATOM     85  O   UNL A   1      34.833  34.893  32.201  1.00  0.00    -0.744 OA
ENDBRANCH  81  82
ENDBRANCH  53  76
BRANCH  65  86
ATOM     86  C   UNL A   1      45.205  34.446  30.640  1.00  0.00    -0.014 A 
ATOM     87  C   UNL A   1      45.344  35.500  29.720  1.00  0.00     0.010 A 
ATOM     88  C   UNL A   1      45.554  34.657  31.987  1.00  0.00     0.010 A 
ATOM     89  C   UNL A   1      45.850  36.734  30.135  1.00  0.00     0.020 A 
ATOM     90  C   UNL A   1      46.038  35.897  32.409  1.00  0.00     0.020 A 
ATOM     91  C   UNL A   1      46.196  36.925  31.476  1.00  0.00     0.054 A 
BRANCH  91  92
ATOM     92  S   UNL A   1      46.810  38.549  32.000  1.00  0.00     0.124 S 
ATOM     93  O   UNL A   1      47.806  38.842  30.973  1.00  0.00    -0.237 OA
ATOM     94  O   UNL A   1      45.608  39.377  31.962  1.00  0.00    -0.237 OA
ATOM     95  O   UNL A   1      47.347  38.301  33.336  1.00  0.00    -0.744 OA
ENDBRANCH  91  92
ENDBRANCH  65  86
ENDBRANCH  39  40
ENDBRANCH  31  34
ENDBRANCH  29  30
ENDBRANCH  28  29
ENDBRANCH   1  28
TORSDOF 18
ENDMDL
