MODEL 1
REMARK VINA RESULT:     -11.4      0.000      0.000
REMARK SMILES O=Cc1ccc(-c2cnccc2C(=O)NCCCCNC(=O)c2ccc(-c3c4nc(c(-c5ccc(S(=O)(=O)[O-])cc5)c5ccc([nH]5)c(-c5ccc(S(=O)(=O)[O-])cc5)c5nc(c(-c6ccc(S(=O)(=O)[O-])cc6)c6ccc3[nH]6)C=C5)C=C4)cc2)s1
REMARK SMILES IDX 18 1 17 2 16 3 15 4 13 5 14 6 12 8 7 9 8 10 9 11 11 12 10 13
REMARK SMILES IDX 6 14 3 15 4 16 83 17 5 18 2 19 1 20 19 21 20 22 21 23 22 25
REMARK SMILES IDX 23 26 24 27 82 28 25 29 81 30 26 31 27 32 28 33 75 34 29 35
REMARK SMILES IDX 80 36 74 37 76 38 30 39 79 40 73 41 72 42 31 44 61 45 42 46
REMARK SMILES IDX 60 47 43 48 46 49 59 50 77 51 44 52 45 53 58 55 78 56 47 57
REMARK SMILES IDX 32 58 33 59 41 60 34 61 40 62 35 63 36 64 37 65 38 66 39 67
REMARK SMILES IDX 62 68 63 69 71 70 64 71 70 72 65 73 66 74 67 75 68 76 69 77
REMARK SMILES IDX 48 78 49 79 57 80 50 81 56 82 51 83 52 84 53 85 54 86 55 87
REMARK H PARENT 15 7 20 24 76 43 46 54
REMARK Flexibility Score: inf
ROOT
ATOM      1  C   UNL A   1      34.106  28.860  27.587  1.00  0.00     0.023 C 
ENDROOT
BRANCH   1   2
ATOM      2  C   UNL A   1      32.723  29.042  26.964  1.00  0.00     0.023 C 
BRANCH   2   3
ATOM      3  C   UNL A   1      32.597  30.045  25.827  1.00  0.00     0.116 C 
BRANCH   3   4
ATOM      4  N   UNL A   1      33.108  29.648  24.542  1.00  0.00    -0.352 N 
ATOM      5  C   UNL A   1      32.514  28.908  23.549  1.00  0.00     0.252 C 
ATOM      6  O   UNL A   1      33.121  28.809  22.480  1.00  0.00    -0.269 OA
ATOM      7  H   UNL A   1      34.022  29.954  24.344  1.00  0.00     0.163 HD
BRANCH   5   8
ATOM      8  C   UNL A   1      31.247  28.126  23.691  1.00  0.00     0.051 A 
ATOM      9  C   UNL A   1      29.921  28.542  23.481  1.00  0.00     0.023 A 
ATOM     10  C   UNL A   1      28.931  27.552  23.580  1.00  0.00     0.121 A 
ATOM     11  N   UNL A   1      29.141  26.247  23.869  1.00  0.00    -0.264 NA
ATOM     12  C   UNL A   1      31.479  26.764  23.983  1.00  0.00     0.034 A 
ATOM     13  C   UNL A   1      30.417  25.881  24.064  1.00  0.00     0.112 A 
BRANCH   9  14
ATOM     14  C   UNL A   1      29.471  29.896  23.158  1.00  0.00     0.037 A 
ATOM     15  C   UNL A   1      28.496  31.811  21.930  1.00  0.00     0.067 A 
ATOM     16  C   UNL A   1      28.782  32.124  23.243  1.00  0.00     0.024 A 
ATOM     17  S   UNL A   1      29.034  30.247  21.524  1.00  0.00    -0.132 S 
ATOM     18  C   UNL A   1      29.349  31.018  23.954  1.00  0.00     0.021 A 
BRANCH  15  19
ATOM     19  C   UNL A   1      27.848  32.622  20.924  1.00  0.00     0.270 C 
ATOM     20  O   UNL A   1      28.158  32.636  19.737  1.00  0.00    -0.297 OA
ENDBRANCH  15  19
ENDBRANCH   9  14
ENDBRANCH   5   8
ENDBRANCH   3   4
ENDBRANCH   2   3
ENDBRANCH   1   2
BRANCH   1  21
ATOM     21  C   UNL A   1      35.039  30.069  27.621  1.00  0.00     0.116 C 
BRANCH  21  22
ATOM     22  N   UNL A   1      35.226  30.666  28.937  1.00  0.00    -0.352 N 
ATOM     23  C   UNL A   1      36.300  30.620  29.799  1.00  0.00     0.251 C 
ATOM     24  H   UNL A   1      34.458  31.189  29.264  1.00  0.00     0.163 HD
ATOM     25  O   UNL A   1      36.226  31.169  30.896  1.00  0.00    -0.269 OA
BRANCH  23  26
ATOM     26  C   UNL A   1      37.515  29.857  29.446  1.00  0.00     0.039 A 
ATOM     27  C   UNL A   1      37.968  29.895  28.124  1.00  0.00     0.014 A 
ATOM     28  C   UNL A   1      38.238  29.160  30.414  1.00  0.00     0.014 A 
ATOM     29  C   UNL A   1      39.221  29.365  27.807  1.00  0.00     0.010 A 
ATOM     30  C   UNL A   1      39.521  28.712  30.118  1.00  0.00     0.010 A 
ATOM     31  C   UNL A   1      40.039  28.842  28.820  1.00  0.00    -0.014 A 
BRANCH  31  32
ATOM     32  C   UNL A   1      41.460  28.488  28.569  1.00  0.00     0.031 A 
ATOM     33  C   UNL A   1      42.517  29.554  28.568  1.00  0.00     0.074 A 
ATOM     34  C   UNL A   1      41.773  27.222  28.220  1.00  0.00     0.049 A 
ATOM     35  N   UNL A   1      43.776  29.467  28.226  1.00  0.00    -0.248 NA
ATOM     36  C   UNL A   1      42.094  30.906  28.968  1.00  0.00     0.031 C 
ATOM     37  C   UNL A   1      40.825  26.106  28.126  1.00  0.00     0.029 A 
ATOM     38  N   UNL A   1      42.974  26.661  27.862  1.00  0.00    -0.354 N 
ATOM     39  C   UNL A   1      44.286  30.756  28.332  1.00  0.00     0.074 A 
ATOM     40  C   UNL A   1      43.191  31.611  28.735  1.00  0.00     0.031 C 
ATOM     41  C   UNL A   1      41.484  24.996  27.756  1.00  0.00     0.029 A 
ATOM     42  C   UNL A   1      42.889  25.326  27.546  1.00  0.00     0.049 A 
ATOM     43  H   UNL A   1      43.817  27.169  27.833  1.00  0.00     0.167 HD
ATOM     44  C   UNL A   1      45.553  31.185  28.125  1.00  0.00     0.031 A 
ATOM     45  C   UNL A   1      43.832  24.462  27.121  1.00  0.00     0.031 A 
ATOM     46  C   UNL A   1      46.644  30.324  27.752  1.00  0.00     0.049 A 
ATOM     47  C   UNL A   1      45.242  24.951  26.943  1.00  0.00     0.074 A 
ATOM     48  C   UNL A   1      47.978  30.648  27.582  1.00  0.00     0.029 A 
ATOM     49  N   UNL A   1      46.526  28.965  27.501  1.00  0.00    -0.354 N 
ATOM     50  N   UNL A   1      45.715  26.164  27.102  1.00  0.00    -0.248 NA
ATOM     51  C   UNL A   1      46.244  23.957  26.537  1.00  0.00     0.031 C 
ATOM     52  C   UNL A   1      48.662  29.490  27.196  1.00  0.00     0.029 A 
ATOM     53  C   UNL A   1      47.762  28.437  27.169  1.00  0.00     0.049 A 
ATOM     54  H   UNL A   1      45.688  28.451  27.551  1.00  0.00     0.167 HD
ATOM     55  C   UNL A   1      47.077  26.074  26.841  1.00  0.00     0.074 A 
ATOM     56  C   UNL A   1      47.352  24.687  26.524  1.00  0.00     0.031 C 
ATOM     57  C   UNL A   1      48.015  27.052  26.863  1.00  0.00     0.031 A 
BRANCH  44  58
ATOM     58  C   UNL A   1      45.820  32.657  28.293  1.00  0.00    -0.014 A 
ATOM     59  C   UNL A   1      46.138  33.198  29.551  1.00  0.00     0.010 A 
ATOM     60  C   UNL A   1      45.764  33.509  27.175  1.00  0.00     0.010 A 
ATOM     61  C   UNL A   1      46.342  34.572  29.700  1.00  0.00     0.020 A 
ATOM     62  C   UNL A   1      45.994  34.882  27.315  1.00  0.00     0.020 A 
ATOM     63  C   UNL A   1      46.260  35.407  28.581  1.00  0.00     0.054 A 
BRANCH  63  64
ATOM     64  S   UNL A   1      46.528  37.188  28.801  1.00  0.00     0.124 S 
ATOM     65  O   UNL A   1      45.890  37.430  30.092  1.00  0.00    -0.237 OA
ATOM     66  O   UNL A   1      47.985  37.299  28.790  1.00  0.00    -0.237 OA
ATOM     67  O   UNL A   1      45.852  37.783  27.650  1.00  0.00    -0.744 OA
ENDBRANCH  63  64
ENDBRANCH  44  58
BRANCH  45  68
ATOM     68  C   UNL A   1      43.474  23.042  26.860  1.00  0.00    -0.014 A 
ATOM     69  C   UNL A   1      43.779  22.449  25.622  1.00  0.00     0.010 A 
ATOM     70  C   UNL A   1      42.856  22.264  27.857  1.00  0.00     0.010 A 
ATOM     71  C   UNL A   1      43.461  21.109  25.381  1.00  0.00     0.020 A 
ATOM     72  C   UNL A   1      42.557  20.918  27.627  1.00  0.00     0.020 A 
ATOM     73  C   UNL A   1      42.854  20.350  26.386  1.00  0.00     0.054 A 
BRANCH  73  74
ATOM     74  S   UNL A   1      42.510  18.595  26.075  1.00  0.00     0.124 S 
ATOM     75  O   UNL A   1      42.875  17.984  27.349  1.00  0.00    -0.237 OA
ATOM     76  O   UNL A   1      41.083  18.602  25.762  1.00  0.00    -0.237 OA
ATOM     77  O   UNL A   1      43.384  18.272  24.950  1.00  0.00    -0.744 OA
ENDBRANCH  73  74
ENDBRANCH  45  68
BRANCH  57  78
ATOM     78  C   UNL A   1      49.435  26.652  26.571  1.00  0.00    -0.014 A 
ATOM     79  C   UNL A   1      49.959  26.733  25.269  1.00  0.00     0.010 A 
ATOM     80  C   UNL A   1      50.272  26.253  27.629  1.00  0.00     0.010 A 
ATOM     81  C   UNL A   1      51.293  26.400  25.027  1.00  0.00     0.020 A 
ATOM     82  C   UNL A   1      51.612  25.940  27.392  1.00  0.00     0.020 A 
ATOM     83  C   UNL A   1      52.111  26.004  26.090  1.00  0.00     0.054 A 
BRANCH  83  84
ATOM     84  S   UNL A   1      53.855  25.631  25.761  1.00  0.00     0.124 S 
ATOM     85  O   UNL A   1      54.316  25.162  27.064  1.00  0.00    -0.237 OA
ATOM     86  O   UNL A   1      53.777  24.610  24.718  1.00  0.00    -0.237 OA
ATOM     87  O   UNL A   1      54.407  26.913  25.327  1.00  0.00    -0.744 OA
ENDBRANCH  83  84
ENDBRANCH  57  78
ENDBRANCH  31  32
ENDBRANCH  23  26
ENDBRANCH  21  22
ENDBRANCH   1  21
TORSDOF 16
ENDMDL
MODEL 2
REMARK VINA RESULT:     -11.1      3.209      4.606
REMARK SMILES O=Cc1ccc(-c2cnccc2C(=O)NCCCCNC(=O)c2ccc(-c3c4nc(c(-c5ccc(S(=O)(=O)[O-])cc5)c5ccc([nH]5)c(-c5ccc(S(=O)(=O)[O-])cc5)c5nc(c(-c6ccc(S(=O)(=O)[O-])cc6)c6ccc3[nH]6)C=C5)C=C4)cc2)s1
REMARK SMILES IDX 18 1 17 2 16 3 15 4 13 5 14 6 12 8 7 9 8 10 9 11 11 12 10 13
REMARK SMILES IDX 6 14 3 15 4 16 83 17 5 18 2 19 1 20 19 21 20 22 21 23 22 25
REMARK SMILES IDX 23 26 24 27 82 28 25 29 81 30 26 31 27 32 28 33 75 34 29 35
REMARK SMILES IDX 80 36 74 37 76 38 30 39 79 40 73 41 72 42 31 44 61 45 42 46
REMARK SMILES IDX 60 47 43 48 46 49 59 50 77 51 44 52 45 53 58 55 78 56 47 57
REMARK SMILES IDX 32 58 33 59 41 60 34 61 40 62 35 63 36 64 37 65 38 66 39 67
REMARK SMILES IDX 62 68 63 69 71 70 64 71 70 72 65 73 66 74 67 75 68 76 69 77
REMARK SMILES IDX 48 78 49 79 57 80 50 81 56 82 51 83 52 84 53 85 54 86 55 87
REMARK H PARENT 15 7 20 24 76 43 46 54
REMARK Flexibility Score: inf
ROOT
ATOM      1  C   UNL A   1      33.977  28.647  25.973  1.00  0.00     0.023 C 
ENDROOT
BRANCH   1   2
ATOM      2  C   UNL A   1      33.068  28.724  24.747  1.00  0.00     0.023 C 
BRANCH   2   3
ATOM      3  C   UNL A   1      33.723  29.050  23.413  1.00  0.00     0.116 C 
BRANCH   3   4
ATOM      4  N   UNL A   1      33.900  27.964  22.486  1.00  0.00    -0.352 N 
ATOM      5  C   UNL A   1      33.111  26.863  22.258  1.00  0.00     0.252 C 
ATOM      6  O   UNL A   1      33.420  26.134  21.313  1.00  0.00    -0.269 OA
ATOM      7  H   UNL A   1      34.710  28.019  21.930  1.00  0.00     0.163 HD
BRANCH   5   8
ATOM      8  C   UNL A   1      31.974  26.417  23.123  1.00  0.00     0.051 A 
ATOM      9  C   UNL A   1      31.992  25.556  24.233  1.00  0.00     0.023 A 
ATOM     10  C   UNL A   1      30.782  25.405  24.928  1.00  0.00     0.121 A 
ATOM     11  N   UNL A   1      29.609  26.004  24.616  1.00  0.00    -0.264 NA
ATOM     12  C   UNL A   1      30.758  27.055  22.794  1.00  0.00     0.034 A 
ATOM     13  C   UNL A   1      29.625  26.820  23.551  1.00  0.00     0.112 A 
BRANCH   9  14
ATOM     14  C   UNL A   1      33.144  24.812  24.744  1.00  0.00     0.037 A 
ATOM     15  C   UNL A   1      34.556  22.953  25.565  1.00  0.00     0.067 A 
ATOM     16  C   UNL A   1      35.284  24.105  25.347  1.00  0.00     0.024 A 
ATOM     17  S   UNL A   1      32.888  23.210  25.337  1.00  0.00    -0.132 S 
ATOM     18  C   UNL A   1      34.468  25.183  24.875  1.00  0.00     0.021 A 
BRANCH  15  19
ATOM     19  C   UNL A   1      35.024  21.643  25.958  1.00  0.00     0.270 C 
ATOM     20  O   UNL A   1      34.949  20.639  25.256  1.00  0.00    -0.297 OA
ENDBRANCH  15  19
ENDBRANCH   9  14
ENDBRANCH   5   8
ENDBRANCH   3   4
ENDBRANCH   2   3
ENDBRANCH   1   2
BRANCH   1  21
ATOM     21  C   UNL A   1      33.372  28.986  27.333  1.00  0.00     0.116 C 
BRANCH  21  22
ATOM     22  N   UNL A   1      33.579  30.359  27.776  1.00  0.00    -0.352 N 
ATOM     23  C   UNL A   1      34.700  30.976  28.288  1.00  0.00     0.251 C 
ATOM     24  H   UNL A   1      32.789  30.941  27.696  1.00  0.00     0.163 HD
ATOM     25  O   UNL A   1      34.640  32.151  28.643  1.00  0.00    -0.269 OA
BRANCH  23  26
ATOM     26  C   UNL A   1      35.953  30.218  28.481  1.00  0.00     0.039 A 
ATOM     27  C   UNL A   1      36.900  30.217  27.452  1.00  0.00     0.014 A 
ATOM     28  C   UNL A   1      36.226  29.566  29.684  1.00  0.00     0.014 A 
ATOM     29  C   UNL A   1      38.173  29.694  27.685  1.00  0.00     0.010 A 
ATOM     30  C   UNL A   1      37.520  29.126  29.945  1.00  0.00     0.010 A 
ATOM     31  C   UNL A   1      38.515  29.219  28.960  1.00  0.00    -0.014 A 
BRANCH  31  32
ATOM     32  C   UNL A   1      39.917  28.877  29.313  1.00  0.00     0.031 A 
ATOM     33  C   UNL A   1      40.814  29.907  29.938  1.00  0.00     0.074 A 
ATOM     34  C   UNL A   1      40.413  27.673  28.957  1.00  0.00     0.049 A 
ATOM     35  N   UNL A   1      42.098  29.846  30.179  1.00  0.00    -0.248 NA
ATOM     36  C   UNL A   1      40.192  31.191  30.303  1.00  0.00     0.031 C 
ATOM     37  C   UNL A   1      39.659  26.606  28.289  1.00  0.00     0.029 A 
ATOM     38  N   UNL A   1      41.676  27.148  29.088  1.00  0.00    -0.354 N 
ATOM     39  C   UNL A   1      42.446  31.092  30.688  1.00  0.00     0.074 A 
ATOM     40  C   UNL A   1      41.245  31.899  30.687  1.00  0.00     0.031 C 
ATOM     41  C   UNL A   1      40.467  25.552  28.090  1.00  0.00     0.029 A 
ATOM     42  C   UNL A   1      41.803  25.879  28.573  1.00  0.00     0.049 A 
ATOM     43  H   UNL A   1      42.419  27.636  29.510  1.00  0.00     0.167 HD
ATOM     44  C   UNL A   1      43.652  31.521  31.127  1.00  0.00     0.031 A 
ATOM     45  C   UNL A   1      42.878  25.071  28.487  1.00  0.00     0.031 A 
ATOM     46  C   UNL A   1      44.836  30.703  31.153  1.00  0.00     0.049 A 
ATOM     47  C   UNL A   1      44.196  25.551  29.025  1.00  0.00     0.074 A 
ATOM     48  C   UNL A   1      46.092  31.020  31.640  1.00  0.00     0.029 A 
ATOM     49  N   UNL A   1      44.908  29.402  30.678  1.00  0.00    -0.354 N 
ATOM     50  N   UNL A   1      44.492  26.714  29.554  1.00  0.00    -0.248 NA
ATOM     51  C   UNL A   1      45.322  24.609  28.962  1.00  0.00     0.031 C 
ATOM     52  C   UNL A   1      46.931  29.921  31.430  1.00  0.00     0.029 A 
ATOM     53  C   UNL A   1      46.187  28.904  30.853  1.00  0.00     0.049 A 
ATOM     54  H   UNL A   1      44.158  28.905  30.276  1.00  0.00     0.167 HD
ATOM     55  C   UNL A   1      45.832  26.635  29.912  1.00  0.00     0.074 A 
ATOM     56  C   UNL A   1      46.286  25.308  29.548  1.00  0.00     0.031 C 
ATOM     57  C   UNL A   1      46.616  27.578  30.490  1.00  0.00     0.031 A 
BRANCH  44  58
ATOM     58  C   UNL A   1      43.746  32.943  31.611  1.00  0.00    -0.014 A 
ATOM     59  C   UNL A   1      43.564  33.261  32.969  1.00  0.00     0.010 A 
ATOM     60  C   UNL A   1      44.032  33.974  30.698  1.00  0.00     0.010 A 
ATOM     61  C   UNL A   1      43.612  34.591  33.397  1.00  0.00     0.020 A 
ATOM     62  C   UNL A   1      44.108  35.303  31.127  1.00  0.00     0.020 A 
ATOM     63  C   UNL A   1      43.875  35.605  32.470  1.00  0.00     0.054 A 
BRANCH  63  64
ATOM     64  S   UNL A   1      43.932  37.322  33.051  1.00  0.00     0.124 S 
ATOM     65  O   UNL A   1      45.207  37.356  33.762  1.00  0.00    -0.237 OA
ATOM     66  O   UNL A   1      43.887  38.086  31.806  1.00  0.00    -0.237 OA
ATOM     67  O   UNL A   1      42.744  37.441  33.894  1.00  0.00    -0.744 OA
ENDBRANCH  63  64
ENDBRANCH  44  58
BRANCH  45  68
ATOM     68  C   UNL A   1      42.741  23.716  27.889  1.00  0.00    -0.014 A 
ATOM     69  C   UNL A   1      42.332  22.628  28.680  1.00  0.00     0.010 A 
ATOM     70  C   UNL A   1      42.987  23.509  26.518  1.00  0.00     0.010 A 
ATOM     71  C   UNL A   1      42.184  21.357  28.117  1.00  0.00     0.020 A 
ATOM     72  C   UNL A   1      42.817  22.245  25.947  1.00  0.00     0.020 A 
ATOM     73  C   UNL A   1      42.425  21.173  26.752  1.00  0.00     0.054 A 
BRANCH  73  74
ATOM     74  S   UNL A   1      42.162  19.530  26.028  1.00  0.00     0.124 S 
ATOM     75  O   UNL A   1      42.617  18.650  27.099  1.00  0.00    -0.237 OA
ATOM     76  O   UNL A   1      40.724  19.523  25.770  1.00  0.00    -0.237 OA
ATOM     77  O   UNL A   1      43.000  19.548  24.832  1.00  0.00    -0.744 OA
ENDBRANCH  73  74
ENDBRANCH  45  68
BRANCH  57  78
ATOM     78  C   UNL A   1      48.037  27.197  30.800  1.00  0.00    -0.014 A 
ATOM     79  C   UNL A   1      48.371  26.557  32.006  1.00  0.00     0.010 A 
ATOM     80  C   UNL A   1      49.039  27.426  29.840  1.00  0.00     0.010 A 
ATOM     81  C   UNL A   1      49.691  26.172  32.255  1.00  0.00     0.020 A 
ATOM     82  C   UNL A   1      50.355  27.023  30.078  1.00  0.00     0.020 A 
ATOM     83  C   UNL A   1      50.674  26.408  31.290  1.00  0.00     0.054 A 
BRANCH  83  84
ATOM     84  S   UNL A   1      52.369  25.848  31.611  1.00  0.00     0.124 S 
ATOM     85  O   UNL A   1      52.996  26.015  30.304  1.00  0.00    -0.237 OA
ATOM     86  O   UNL A   1      52.823  26.771  32.649  1.00  0.00    -0.237 OA
ATOM     87  O   UNL A   1      52.199  24.465  32.050  1.00  0.00    -0.744 OA
ENDBRANCH  83  84
ENDBRANCH  57  78
ENDBRANCH  31  32
ENDBRANCH  23  26
ENDBRANCH  21  22
ENDBRANCH   1  21
TORSDOF 16
ENDMDL
MODEL 3
REMARK VINA RESULT:     -11.1      2.991      3.925
REMARK SMILES O=Cc1ccc(-c2cnccc2C(=O)NCCCCNC(=O)c2ccc(-c3c4nc(c(-c5ccc(S(=O)(=O)[O-])cc5)c5ccc([nH]5)c(-c5ccc(S(=O)(=O)[O-])cc5)c5nc(c(-c6ccc(S(=O)(=O)[O-])cc6)c6ccc3[nH]6)C=C5)C=C4)cc2)s1
REMARK SMILES IDX 18 1 17 2 16 3 15 4 13 5 14 6 12 8 7 9 8 10 9 11 11 12 10 13
REMARK SMILES IDX 6 14 3 15 4 16 83 17 5 18 2 19 1 20 19 21 20 22 21 23 22 25
REMARK SMILES IDX 23 26 24 27 82 28 25 29 81 30 26 31 27 32 28 33 75 34 29 35
REMARK SMILES IDX 80 36 74 37 76 38 30 39 79 40 73 41 72 42 31 44 61 45 42 46
REMARK SMILES IDX 60 47 43 48 46 49 59 50 77 51 44 52 45 53 58 55 78 56 47 57
REMARK SMILES IDX 32 58 33 59 41 60 34 61 40 62 35 63 36 64 37 65 38 66 39 67
REMARK SMILES IDX 62 68 63 69 71 70 64 71 70 72 65 73 66 74 67 75 68 76 69 77
REMARK SMILES IDX 48 78 49 79 57 80 50 81 56 82 51 83 52 84 53 85 54 86 55 87
REMARK H PARENT 15 7 20 24 76 43 46 54
REMARK Flexibility Score: inf
ROOT
ATOM      1  C   UNL A   1      33.187  28.317  27.093  1.00  0.00     0.023 C 
ENDROOT
BRANCH   1   2
ATOM      2  C   UNL A   1      32.730  27.217  26.136  1.00  0.00     0.023 C 
BRANCH   2   3
ATOM      3  C   UNL A   1      32.715  25.791  26.668  1.00  0.00     0.116 C 
BRANCH   3   4
ATOM      4  N   UNL A   1      31.430  25.209  26.949  1.00  0.00    -0.352 N 
ATOM      5  C   UNL A   1      30.843  24.081  26.430  1.00  0.00     0.252 C 
ATOM      6  O   UNL A   1      29.774  23.721  26.931  1.00  0.00    -0.269 OA
ATOM      7  H   UNL A   1      30.891  25.692  27.615  1.00  0.00     0.163 HD
BRANCH   5   8
ATOM      8  C   UNL A   1      31.334  23.316  25.242  1.00  0.00     0.051 A 
ATOM      9  C   UNL A   1      31.612  23.779  23.945  1.00  0.00     0.023 A 
ATOM     10  C   UNL A   1      32.173  22.851  23.055  1.00  0.00     0.121 A 
ATOM     11  N   UNL A   1      32.455  21.557  23.334  1.00  0.00    -0.264 NA
ATOM     12  C   UNL A   1      31.633  21.970  25.547  1.00  0.00     0.034 A 
ATOM     13  C   UNL A   1      32.178  21.145  24.580  1.00  0.00     0.112 A 
BRANCH   9  14
ATOM     14  C   UNL A   1      31.388  25.132  23.433  1.00  0.00     0.037 A 
ATOM     15  C   UNL A   1      30.362  27.350  23.041  1.00  0.00     0.067 A 
ATOM     16  C   UNL A   1      31.622  27.252  22.488  1.00  0.00     0.024 A 
ATOM     17  S   UNL A   1      29.848  25.866  23.699  1.00  0.00    -0.132 S 
ATOM     18  C   UNL A   1      32.216  25.969  22.710  1.00  0.00     0.021 A 
BRANCH  15  19
ATOM     19  C   UNL A   1      29.483  28.495  23.103  1.00  0.00     0.270 C 
ATOM     20  O   UNL A   1      28.985  29.042  22.124  1.00  0.00    -0.297 OA
ENDBRANCH  15  19
ENDBRANCH   9  14
ENDBRANCH   5   8
ENDBRANCH   3   4
ENDBRANCH   2   3
ENDBRANCH   1   2
BRANCH   1  21
ATOM     21  C   UNL A   1      33.654  29.640  26.490  1.00  0.00     0.116 C 
BRANCH  21  22
ATOM     22  N   UNL A   1      33.685  30.763  27.418  1.00  0.00    -0.352 N 
ATOM     23  C   UNL A   1      34.645  31.146  28.330  1.00  0.00     0.251 C 
ATOM     24  H   UNL A   1      32.890  31.343  27.390  1.00  0.00     0.163 HD
ATOM     25  O   UNL A   1      34.444  32.117  29.055  1.00  0.00    -0.269 OA
BRANCH  23  26
ATOM     26  C   UNL A   1      35.883  30.357  28.495  1.00  0.00     0.039 A 
ATOM     27  C   UNL A   1      36.820  30.358  27.456  1.00  0.00     0.014 A 
ATOM     28  C   UNL A   1      36.153  29.673  29.680  1.00  0.00     0.014 A 
ATOM     29  C   UNL A   1      38.084  29.802  27.665  1.00  0.00     0.010 A 
ATOM     30  C   UNL A   1      37.439  29.199  29.918  1.00  0.00     0.010 A 
ATOM     31  C   UNL A   1      38.427  29.291  28.926  1.00  0.00    -0.014 A 
BRANCH  31  32
ATOM     32  C   UNL A   1      39.824  28.911  29.258  1.00  0.00     0.031 A 
ATOM     33  C   UNL A   1      40.763  29.921  29.854  1.00  0.00     0.074 A 
ATOM     34  C   UNL A   1      40.277  27.689  28.906  1.00  0.00     0.049 A 
ATOM     35  N   UNL A   1      42.048  29.824  30.073  1.00  0.00    -0.248 NA
ATOM     36  C   UNL A   1      40.187  31.226  30.216  1.00  0.00     0.031 C 
ATOM     37  C   UNL A   1      39.480  26.638  28.265  1.00  0.00     0.029 A 
ATOM     38  N   UNL A   1      41.526  27.128  29.020  1.00  0.00    -0.354 N 
ATOM     39  C   UNL A   1      42.443  31.065  30.561  1.00  0.00     0.074 A 
ATOM     40  C   UNL A   1      41.267  31.907  30.572  1.00  0.00     0.031 C 
ATOM     41  C   UNL A   1      40.252  25.558  28.063  1.00  0.00     0.029 A 
ATOM     42  C   UNL A   1      41.606  25.850  28.518  1.00  0.00     0.049 A 
ATOM     43  H   UNL A   1      42.292  27.598  29.423  1.00  0.00     0.167 HD
ATOM     44  C   UNL A   1      43.670  31.461  30.974  1.00  0.00     0.031 A 
ATOM     45  C   UNL A   1      42.654  25.009  28.422  1.00  0.00     0.031 A 
ATOM     46  C   UNL A   1      44.829  30.609  30.987  1.00  0.00     0.049 A 
ATOM     47  C   UNL A   1      43.996  25.455  28.930  1.00  0.00     0.074 A 
ATOM     48  C   UNL A   1      46.102  30.893  31.448  1.00  0.00     0.029 A 
ATOM     49  N   UNL A   1      44.852  29.301  30.526  1.00  0.00    -0.354 N 
ATOM     50  N   UNL A   1      44.336  26.614  29.440  1.00  0.00    -0.248 NA
ATOM     51  C   UNL A   1      45.092  24.479  28.858  1.00  0.00     0.031 C 
ATOM     52  C   UNL A   1      46.904  29.767  31.236  1.00  0.00     0.029 A 
ATOM     53  C   UNL A   1      46.119  28.767  30.684  1.00  0.00     0.049 A 
ATOM     54  H   UNL A   1      44.082  28.823  30.144  1.00  0.00     0.167 HD
ATOM     55  C   UNL A   1      45.680  26.499  29.775  1.00  0.00     0.074 A 
ATOM     56  C   UNL A   1      46.087  25.155  29.418  1.00  0.00     0.031 C 
ATOM     57  C   UNL A   1      46.502  27.424  30.328  1.00  0.00     0.031 A 
BRANCH  44  58
ATOM     58  C   UNL A   1      43.814  32.885  31.439  1.00  0.00    -0.014 A 
ATOM     59  C   UNL A   1      43.580  33.238  32.780  1.00  0.00     0.010 A 
ATOM     60  C   UNL A   1      44.202  33.883  30.526  1.00  0.00     0.010 A 
ATOM     61  C   UNL A   1      43.678  34.570  33.190  1.00  0.00     0.020 A 
ATOM     62  C   UNL A   1      44.327  35.214  30.938  1.00  0.00     0.020 A 
ATOM     63  C   UNL A   1      44.042  35.552  32.263  1.00  0.00     0.054 A 
BRANCH  63  64
ATOM     64  S   UNL A   1      44.161  37.274  32.818  1.00  0.00     0.124 S 
ATOM     65  O   UNL A   1      43.083  37.347  33.801  1.00  0.00    -0.237 OA
ATOM     66  O   UNL A   1      45.514  37.344  33.366  1.00  0.00    -0.237 OA
ATOM     67  O   UNL A   1      43.946  38.047  31.597  1.00  0.00    -0.744 OA
ENDBRANCH  63  64
ENDBRANCH  44  58
BRANCH  45  68
ATOM     68  C   UNL A   1      42.466  23.652  27.841  1.00  0.00    -0.014 A 
ATOM     69  C   UNL A   1      42.525  23.461  26.450  1.00  0.00     0.010 A 
ATOM     70  C   UNL A   1      42.257  22.539  28.676  1.00  0.00     0.010 A 
ATOM     71  C   UNL A   1      42.368  22.184  25.902  1.00  0.00     0.020 A 
ATOM     72  C   UNL A   1      42.122  21.257  28.134  1.00  0.00     0.020 A 
ATOM     73  C   UNL A   1      42.169  21.089  26.748  1.00  0.00     0.054 A 
BRANCH  73  74
ATOM     74  S   UNL A   1      42.033  19.431  26.021  1.00  0.00     0.124 S 
ATOM     75  O   UNL A   1      40.599  19.323  25.778  1.00  0.00    -0.237 OA
ATOM     76  O   UNL A   1      42.872  19.538  24.829  1.00  0.00    -0.237 OA
ATOM     77  O   UNL A   1      42.560  18.558  27.067  1.00  0.00    -0.744 OA
ENDBRANCH  73  74
ENDBRANCH  45  68
BRANCH  57  78
ATOM     78  C   UNL A   1      47.916  27.004  30.617  1.00  0.00    -0.014 A 
ATOM     79  C   UNL A   1      48.925  27.136  29.647  1.00  0.00     0.010 A 
ATOM     80  C   UNL A   1      48.249  26.533  31.900  1.00  0.00     0.010 A 
ATOM     81  C   UNL A   1      50.242  26.782  29.950  1.00  0.00     0.020 A 
ATOM     82  C   UNL A   1      49.569  26.198  32.212  1.00  0.00     0.020 A 
ATOM     83  C   UNL A   1      50.555  26.314  31.231  1.00  0.00     0.054 A 
BRANCH  83  84
ATOM     84  S   UNL A   1      52.281  25.914  31.619  1.00  0.00     0.124 S 
ATOM     85  O   UNL A   1      52.942  26.151  30.339  1.00  0.00    -0.237 OA
ATOM     86  O   UNL A   1      52.603  26.867  32.679  1.00  0.00    -0.237 OA
ATOM     87  O   UNL A   1      52.225  24.517  32.044  1.00  0.00    -0.744 OA
ENDBRANCH  83  84
ENDBRANCH  57  78
ENDBRANCH  31  32
ENDBRANCH  23  26
ENDBRANCH  21  22
ENDBRANCH   1  21
TORSDOF 16
ENDMDL
