MODEL 1
REMARK VINA RESULT:     -10.7      0.000      0.000
REMARK SMILES CC(C)C[C@@H](NC(=O)Cn1nc(O)ccc1=O)C(=O)NCCCCNC(=O)c1ccc(-c2c3nc(c(-c4ccc(S(=O)(=O)[O-])cc4)c4ccc([nH]4)c(-c4ccc(S(=O)(=O)[O-])cc4)c4nc(c(-c5ccc(S(=O)(=O)[O-])cc5)c5ccc2[nH]5)C=C4)C=C3)cc1
REMARK SMILES IDX 22 1 21 2 20 3 18 4 19 5 5 7 4 8 2 9 1 10 3 11 6 12 7 13
REMARK SMILES IDX 8 15 9 16 10 17 11 18 16 19 12 20 15 21 17 22 14 23 13 24
REMARK SMILES IDX 23 26 24 27 25 28 26 29 27 31 28 32 29 33 87 34 30 35 86 36
REMARK SMILES IDX 31 37 32 38 33 39 80 40 34 41 85 42 79 43 81 44 35 45 84 46
REMARK SMILES IDX 78 47 77 48 36 50 66 51 47 52 65 53 48 54 51 55 64 56 82 57
REMARK SMILES IDX 49 58 50 59 63 61 83 62 52 63 37 64 38 65 46 66 39 67 45 68
REMARK SMILES IDX 40 69 41 70 42 71 43 72 44 73 67 74 68 75 76 76 69 77 75 78
REMARK SMILES IDX 70 79 71 80 72 81 73 82 74 83 53 84 54 85 62 86 55 87 61 88
REMARK SMILES IDX 56 89 57 90 58 91 59 92 60 93
REMARK H PARENT 20 6 6 14 13 25 25 30 81 49 51 60
REMARK Flexibility Score: inf
ROOT
ATOM      1  C   UNL A   1      31.515  27.042  26.501  1.00  0.00     0.023 C 
ENDROOT
BRANCH   1   2
ATOM      2  C   UNL A   1      32.164  25.666  26.376  1.00  0.00     0.116 C 
BRANCH   2   3
ATOM      3  N   UNL A   1      31.240  24.586  26.695  1.00  0.00    -0.354 N 
ATOM      4  C   UNL A   1      31.307  23.252  26.391  1.00  0.00     0.242 C 
ATOM      5  O   UNL A   1      30.319  22.556  26.651  1.00  0.00    -0.273 OA
ATOM      6  H   UNL A   1      30.445  24.857  27.208  1.00  0.00     0.163 HD
BRANCH   4   7
ATOM      7  C   UNL A   1      32.436  22.696  25.501  1.00  0.00     0.171 C 
BRANCH   7   8
ATOM      8  C   UNL A   1      33.186  21.789  26.514  1.00  0.00     0.038 C 
BRANCH   8   9
ATOM      9  C   UNL A   1      34.718  21.729  26.545  1.00  0.00    -0.015 C 
ATOM     10  C   UNL A   1      35.292  20.936  25.376  1.00  0.00     0.007 C 
ATOM     11  C   UNL A   1      35.234  23.178  26.485  1.00  0.00     0.007 C 
ENDBRANCH   8   9
ENDBRANCH   7   8
BRANCH   7  12
ATOM     12  N   UNL A   1      31.988  21.985  24.301  1.00  0.00    -0.343 N 
ATOM     13  C   UNL A   1      32.204  22.228  22.975  1.00  0.00     0.242 C 
ATOM     14  H   UNL A   1      31.433  21.192  24.483  1.00  0.00     0.164 HD
ATOM     15  O   UNL A   1      31.981  21.271  22.221  1.00  0.00    -0.273 OA
BRANCH  13  16
ATOM     16  C   UNL A   1      32.834  23.514  22.418  1.00  0.00     0.248 C 
BRANCH  16  17
ATOM     17  N   UNL A   1      32.067  24.745  22.564  1.00  0.00    -0.217 N 
ATOM     18  N   UNL A   1      30.857  24.647  23.226  1.00  0.00    -0.131 NA
ATOM     19  C   UNL A   1      32.616  25.958  22.152  1.00  0.00     0.267 A 
ATOM     20  C   UNL A   1      30.192  25.742  23.343  1.00  0.00     0.229 A 
ATOM     21  C   UNL A   1      31.776  27.166  22.358  1.00  0.00     0.079 A 
ATOM     22  O   UNL A   1      33.700  26.082  21.591  1.00  0.00    -0.268 OA
ATOM     23  C   UNL A   1      30.571  27.078  22.922  1.00  0.00     0.075 A 
BRANCH  20  24
ATOM     24  O   UNL A   1      28.960  25.718  23.858  1.00  0.00    -0.492 OA
ATOM     25  H   UNL A   1      28.665  26.422  24.401  1.00  0.00     0.295 HD
ENDBRANCH  20  24
ENDBRANCH  16  17
ENDBRANCH  13  16
ENDBRANCH   7  12
ENDBRANCH   4   7
ENDBRANCH   2   3
ENDBRANCH   1   2
BRANCH   1  26
ATOM     26  C   UNL A   1      32.126  27.954  27.566  1.00  0.00     0.023 C 
BRANCH  26  27
ATOM     27  C   UNL A   1      33.464  28.579  27.186  1.00  0.00     0.116 C 
BRANCH  27  28
ATOM     28  N   UNL A   1      33.473  30.024  27.294  1.00  0.00    -0.352 N 
ATOM     29  C   UNL A   1      34.492  30.836  27.754  1.00  0.00     0.251 C 
ATOM     30  H   UNL A   1      32.651  30.483  27.003  1.00  0.00     0.163 HD
ATOM     31  O   UNL A   1      34.327  32.036  27.862  1.00  0.00    -0.269 OA
BRANCH  29  32
ATOM     32  C   UNL A   1      35.770  30.210  28.170  1.00  0.00     0.039 A 
ATOM     33  C   UNL A   1      35.940  29.692  29.456  1.00  0.00     0.014 A 
ATOM     34  C   UNL A   1      36.823  30.177  27.253  1.00  0.00     0.014 A 
ATOM     35  C   UNL A   1      37.199  29.245  29.863  1.00  0.00     0.010 A 
ATOM     36  C   UNL A   1      38.071  29.685  27.648  1.00  0.00     0.010 A 
ATOM     37  C   UNL A   1      38.283  29.248  28.966  1.00  0.00    -0.014 A 
BRANCH  37  38
ATOM     38  C   UNL A   1      39.634  28.798  29.397  1.00  0.00     0.031 A 
ATOM     39  C   UNL A   1      40.489  29.672  30.281  1.00  0.00     0.074 A 
ATOM     40  C   UNL A   1      40.103  27.597  29.002  1.00  0.00     0.049 A 
ATOM     41  N   UNL A   1      41.707  29.464  30.713  1.00  0.00    -0.248 NA
ATOM     42  C   UNL A   1      39.901  30.941  30.744  1.00  0.00     0.031 C 
ATOM     43  C   UNL A   1      39.368  26.635  28.178  1.00  0.00     0.029 A 
ATOM     44  N   UNL A   1      41.303  26.975  29.247  1.00  0.00    -0.354 N 
ATOM     45  C   UNL A   1      42.036  30.573  31.484  1.00  0.00     0.074 A 
ATOM     46  C   UNL A   1      40.898  31.466  31.445  1.00  0.00     0.031 C 
ATOM     47  C   UNL A   1      40.116  25.532  28.022  1.00  0.00     0.029 A 
ATOM     48  C   UNL A   1      41.406  25.727  28.678  1.00  0.00     0.049 A 
ATOM     49  H   UNL A   1      42.022  27.384  29.782  1.00  0.00     0.167 HD
ATOM     50  C   UNL A   1      43.176  30.817  32.173  1.00  0.00     0.031 A 
ATOM     51  C   UNL A   1      42.423  24.841  28.668  1.00  0.00     0.031 A 
ATOM     52  C   UNL A   1      44.304  29.924  32.226  1.00  0.00     0.049 A 
ATOM     53  C   UNL A   1      43.709  25.177  29.372  1.00  0.00     0.074 A 
ATOM     54  C   UNL A   1      45.492  30.091  32.921  1.00  0.00     0.029 A 
ATOM     55  N   UNL A   1      44.393  28.705  31.573  1.00  0.00    -0.354 N 
ATOM     56  N   UNL A   1      44.000  26.231  30.094  1.00  0.00    -0.248 NA
ATOM     57  C   UNL A   1      44.810  24.206  29.255  1.00  0.00     0.031 C 
ATOM     58  C   UNL A   1      46.321  29.005  32.638  1.00  0.00     0.029 A 
ATOM     59  C   UNL A   1      45.625  28.125  31.826  1.00  0.00     0.049 A 
ATOM     60  H   UNL A   1      43.686  28.311  31.013  1.00  0.00     0.167 HD
ATOM     61  C   UNL A   1      45.305  26.040  30.535  1.00  0.00     0.074 A 
ATOM     62  C   UNL A   1      45.746  24.765  30.011  1.00  0.00     0.031 C 
ATOM     63  C   UNL A   1      46.064  26.854  31.307  1.00  0.00     0.031 A 
BRANCH  50  64
ATOM     64  C   UNL A   1      43.290  32.104  32.951  1.00  0.00    -0.014 A 
ATOM     65  C   UNL A   1      43.901  33.224  32.359  1.00  0.00     0.010 A 
ATOM     66  C   UNL A   1      42.953  32.147  34.315  1.00  0.00     0.010 A 
ATOM     67  C   UNL A   1      44.215  34.349  33.125  1.00  0.00     0.020 A 
ATOM     68  C   UNL A   1      43.242  33.282  35.080  1.00  0.00     0.020 A 
ATOM     69  C   UNL A   1      43.897  34.364  34.486  1.00  0.00     0.054 A 
BRANCH  69  70
ATOM     70  S   UNL A   1      44.365  35.808  35.479  1.00  0.00     0.124 S 
ATOM     71  O   UNL A   1      43.206  35.973  36.351  1.00  0.00    -0.237 OA
ATOM     72  O   UNL A   1      45.591  35.361  36.135  1.00  0.00    -0.237 OA
ATOM     73  O   UNL A   1      44.553  36.861  34.482  1.00  0.00    -0.744 OA
ENDBRANCH  69  70
ENDBRANCH  50  64
BRANCH  51  74
ATOM     74  C   UNL A   1      42.249  23.533  27.978  1.00  0.00    -0.014 A 
ATOM     75  C   UNL A   1      41.723  22.421  28.662  1.00  0.00     0.010 A 
ATOM     76  C   UNL A   1      42.658  23.382  26.641  1.00  0.00     0.010 A 
ATOM     77  C   UNL A   1      41.656  21.172  28.040  1.00  0.00     0.020 A 
ATOM     78  C   UNL A   1      42.564  22.140  26.005  1.00  0.00     0.020 A 
ATOM     79  C   UNL A   1      42.089  21.037  26.719  1.00  0.00     0.054 A 
BRANCH  79  80
ATOM     80  S   UNL A   1      42.024  19.400  25.941  1.00  0.00     0.124 S 
ATOM     81  O   UNL A   1      40.602  19.272  25.634  1.00  0.00    -0.237 OA
ATOM     82  O   UNL A   1      42.906  19.558  24.788  1.00  0.00    -0.237 OA
ATOM     83  O   UNL A   1      42.524  18.507  26.984  1.00  0.00    -0.744 OA
ENDBRANCH  79  80
ENDBRANCH  51  74
BRANCH  63  84
ATOM     84  C   UNL A   1      47.460  26.413  31.664  1.00  0.00    -0.014 A 
ATOM     85  C   UNL A   1      48.471  26.440  30.684  1.00  0.00     0.010 A 
ATOM     86  C   UNL A   1      47.739  25.839  32.916  1.00  0.00     0.010 A 
ATOM     87  C   UNL A   1      49.720  25.866  30.935  1.00  0.00     0.020 A 
ATOM     88  C   UNL A   1      48.997  25.288  33.181  1.00  0.00     0.020 A 
ATOM     89  C   UNL A   1      49.970  25.281  32.178  1.00  0.00     0.054 A 
BRANCH  89  90
ATOM     90  S   UNL A   1      51.581  24.501  32.471  1.00  0.00     0.124 S 
ATOM     91  O   UNL A   1      51.771  24.714  33.903  1.00  0.00    -0.237 OA
ATOM     92  O   UNL A   1      51.348  23.115  32.068  1.00  0.00    -0.237 OA
ATOM     93  O   UNL A   1      52.488  25.248  31.603  1.00  0.00    -0.744 OA
ENDBRANCH  89  90
ENDBRANCH  63  84
ENDBRANCH  37  38
ENDBRANCH  29  32
ENDBRANCH  27  28
ENDBRANCH  26  27
ENDBRANCH   1  26
TORSDOF 20
ENDMDL
MODEL 2
REMARK VINA RESULT:     -10.4      2.860      9.284
REMARK SMILES CC(C)C[C@@H](NC(=O)Cn1nc(O)ccc1=O)C(=O)NCCCCNC(=O)c1ccc(-c2c3nc(c(-c4ccc(S(=O)(=O)[O-])cc4)c4ccc([nH]4)c(-c4ccc(S(=O)(=O)[O-])cc4)c4nc(c(-c5ccc(S(=O)(=O)[O-])cc5)c5ccc2[nH]5)C=C4)C=C3)cc1
REMARK SMILES IDX 22 1 21 2 20 3 18 4 19 5 5 7 4 8 2 9 1 10 3 11 6 12 7 13
REMARK SMILES IDX 8 15 9 16 10 17 11 18 16 19 12 20 15 21 17 22 14 23 13 24
REMARK SMILES IDX 23 26 24 27 25 28 26 29 27 31 28 32 29 33 87 34 30 35 86 36
REMARK SMILES IDX 31 37 32 38 33 39 80 40 34 41 85 42 79 43 81 44 35 45 84 46
REMARK SMILES IDX 78 47 77 48 36 50 66 51 47 52 65 53 48 54 51 55 64 56 82 57
REMARK SMILES IDX 49 58 50 59 63 61 83 62 52 63 37 64 38 65 46 66 39 67 45 68
REMARK SMILES IDX 40 69 41 70 42 71 43 72 44 73 67 74 68 75 76 76 69 77 75 78
REMARK SMILES IDX 70 79 71 80 72 81 73 82 74 83 53 84 54 85 62 86 55 87 61 88
REMARK SMILES IDX 56 89 57 90 58 91 59 92 60 93
REMARK H PARENT 20 6 6 14 13 25 25 30 81 49 51 60
REMARK Flexibility Score: inf
ROOT
ATOM      1  C   UNL A   1      34.569  24.254  25.337  1.00  0.00     0.023 C 
ENDROOT
BRANCH   1   2
ATOM      2  C   UNL A   1      33.988  25.652  25.536  1.00  0.00     0.116 C 
BRANCH   2   3
ATOM      3  N   UNL A   1      34.398  26.577  24.488  1.00  0.00    -0.354 N 
ATOM      4  C   UNL A   1      33.823  27.749  24.074  1.00  0.00     0.242 C 
ATOM      5  O   UNL A   1      34.284  28.285  23.060  1.00  0.00    -0.273 OA
ATOM      6  H   UNL A   1      35.215  26.320  24.003  1.00  0.00     0.163 HD
BRANCH   4   7
ATOM      7  C   UNL A   1      32.482  28.228  24.664  1.00  0.00     0.171 C 
BRANCH   7   8
ATOM      8  C   UNL A   1      32.927  29.531  25.381  1.00  0.00     0.038 C 
BRANCH   8   9
ATOM      9  C   UNL A   1      32.677  29.740  26.879  1.00  0.00    -0.015 C 
ATOM     10  C   UNL A   1      32.386  28.432  27.608  1.00  0.00     0.007 C 
ATOM     11  C   UNL A   1      33.944  30.385  27.469  1.00  0.00     0.007 C 
ENDBRANCH   8   9
ENDBRANCH   7   8
BRANCH   7  12
ATOM     12  N   UNL A   1      31.411  28.436  23.686  1.00  0.00    -0.343 N 
ATOM     13  C   UNL A   1      30.844  27.591  22.777  1.00  0.00     0.242 C 
ATOM     14  H   UNL A   1      31.035  29.345  23.684  1.00  0.00     0.164 HD
ATOM     15  O   UNL A   1      29.746  27.955  22.332  1.00  0.00    -0.273 OA
BRANCH  13  16
ATOM     16  C   UNL A   1      31.394  26.201  22.419  1.00  0.00     0.248 C 
BRANCH  16  17
ATOM     17  N   UNL A   1      31.245  25.151  23.420  1.00  0.00    -0.217 N 
ATOM     18  N   UNL A   1      30.450  25.444  24.512  1.00  0.00    -0.131 NA
ATOM     19  C   UNL A   1      31.794  23.891  23.190  1.00  0.00     0.267 A 
ATOM     20  C   UNL A   1      30.332  24.508  25.387  1.00  0.00     0.229 A 
ATOM     21  C   UNL A   1      31.575  22.874  24.251  1.00  0.00     0.079 A 
ATOM     22  O   UNL A   1      32.477  23.590  22.216  1.00  0.00    -0.268 OA
ATOM     23  C   UNL A   1      30.877  23.163  25.350  1.00  0.00     0.075 A 
BRANCH  20  24
ATOM     24  O   UNL A   1      29.683  24.745  26.530  1.00  0.00    -0.492 OA
ATOM     25  H   UNL A   1      29.164  24.072  26.923  1.00  0.00     0.295 HD
ENDBRANCH  20  24
ENDBRANCH  16  17
ENDBRANCH  13  16
ENDBRANCH   7  12
ENDBRANCH   4   7
ENDBRANCH   2   3
ENDBRANCH   1   2
BRANCH   1  26
ATOM     26  C   UNL A   1      35.944  24.027  25.970  1.00  0.00     0.023 C 
BRANCH  26  27
ATOM     27  C   UNL A   1      37.048  23.648  24.989  1.00  0.00     0.116 C 
BRANCH  27  28
ATOM     28  N   UNL A   1      37.941  22.626  25.498  1.00  0.00    -0.352 N 
ATOM     29  C   UNL A   1      39.031  22.789  26.331  1.00  0.00     0.251 C 
ATOM     30  H   UNL A   1      37.746  21.704  25.215  1.00  0.00     0.163 HD
ATOM     31  O   UNL A   1      39.741  21.843  26.614  1.00  0.00    -0.269 OA
BRANCH  29  32
ATOM     32  C   UNL A   1      39.355  24.149  26.824  1.00  0.00     0.039 A 
ATOM     33  C   UNL A   1      40.046  25.065  26.027  1.00  0.00     0.014 A 
ATOM     34  C   UNL A   1      38.982  24.490  28.126  1.00  0.00     0.014 A 
ATOM     35  C   UNL A   1      40.465  26.281  26.573  1.00  0.00     0.010 A 
ATOM     36  C   UNL A   1      39.362  25.728  28.655  1.00  0.00     0.010 A 
ATOM     37  C   UNL A   1      40.138  26.620  27.897  1.00  0.00    -0.014 A 
BRANCH  37  38
ATOM     38  C   UNL A   1      40.602  27.902  28.496  1.00  0.00     0.031 A 
ATOM     39  C   UNL A   1      42.044  28.084  28.900  1.00  0.00     0.074 A 
ATOM     40  C   UNL A   1      39.731  28.916  28.677  1.00  0.00     0.049 A 
ATOM     41  N   UNL A   1      42.613  29.110  29.478  1.00  0.00    -0.248 NA
ATOM     42  C   UNL A   1      42.968  26.973  28.614  1.00  0.00     0.031 C 
ATOM     43  C   UNL A   1      38.317  28.890  28.298  1.00  0.00     0.029 A 
ATOM     44  N   UNL A   1      39.908  30.167  29.215  1.00  0.00    -0.354 N 
ATOM     45  C   UNL A   1      43.952  28.770  29.637  1.00  0.00     0.074 A 
ATOM     46  C   UNL A   1      44.109  27.430  29.114  1.00  0.00     0.031 C 
ATOM     47  C   UNL A   1      37.768  30.082  28.577  1.00  0.00     0.029 A 
ATOM     48  C   UNL A   1      38.767  30.937  29.212  1.00  0.00     0.049 A 
ATOM     49  H   UNL A   1      40.770  30.485  29.569  1.00  0.00     0.167 HD
ATOM     50  C   UNL A   1      44.959  29.510  30.158  1.00  0.00     0.031 A 
ATOM     51  C   UNL A   1      38.540  32.183  29.676  1.00  0.00     0.031 A 
ATOM     52  C   UNL A   1      44.807  30.849  30.666  1.00  0.00     0.049 A 
ATOM     53  C   UNL A   1      39.659  32.950  30.327  1.00  0.00     0.074 A 
ATOM     54  C   UNL A   1      45.787  31.676  31.192  1.00  0.00     0.029 A 
ATOM     55  N   UNL A   1      43.619  31.560  30.711  1.00  0.00    -0.354 N 
ATOM     56  N   UNL A   1      40.916  32.608  30.468  1.00  0.00    -0.248 NA
ATOM     57  C   UNL A   1      39.327  34.269  30.888  1.00  0.00     0.031 C 
ATOM     58  C   UNL A   1      45.180  32.860  31.612  1.00  0.00     0.029 A 
ATOM     59  C   UNL A   1      43.836  32.803  31.283  1.00  0.00     0.049 A 
ATOM     60  H   UNL A   1      42.750  31.231  30.385  1.00  0.00     0.167 HD
ATOM     61  C   UNL A   1      41.529  33.678  31.111  1.00  0.00     0.074 A 
ATOM     62  C   UNL A   1      40.511  34.684  31.323  1.00  0.00     0.031 C 
ATOM     63  C   UNL A   1      42.823  33.808  31.490  1.00  0.00     0.031 A 
BRANCH  50  64
ATOM     64  C   UNL A   1      46.343  28.914  30.212  1.00  0.00    -0.014 A 
ATOM     65  C   UNL A   1      47.185  29.008  29.088  1.00  0.00     0.010 A 
ATOM     66  C   UNL A   1      46.737  28.117  31.300  1.00  0.00     0.010 A 
ATOM     67  C   UNL A   1      48.377  28.281  29.032  1.00  0.00     0.020 A 
ATOM     68  C   UNL A   1      47.942  27.408  31.258  1.00  0.00     0.020 A 
ATOM     69  C   UNL A   1      48.739  27.473  30.113  1.00  0.00     0.054 A 
BRANCH  69  70
ATOM     70  S   UNL A   1      50.260  26.489  29.998  1.00  0.00     0.124 S 
ATOM     71  O   UNL A   1      50.589  26.594  28.580  1.00  0.00    -0.237 OA
ATOM     72  O   UNL A   1      51.162  27.188  30.910  1.00  0.00    -0.237 OA
ATOM     73  O   UNL A   1      49.842  25.162  30.447  1.00  0.00    -0.744 OA
ENDBRANCH  69  70
ENDBRANCH  50  64
BRANCH  51  74
ATOM     74  C   UNL A   1      37.189  32.788  29.519  1.00  0.00    -0.014 A 
ATOM     75  C   UNL A   1      36.751  33.257  28.267  1.00  0.00     0.010 A 
ATOM     76  C   UNL A   1      36.352  32.944  30.639  1.00  0.00     0.010 A 
ATOM     77  C   UNL A   1      35.524  33.915  28.145  1.00  0.00     0.020 A 
ATOM     78  C   UNL A   1      35.111  33.575  30.515  1.00  0.00     0.020 A 
ATOM     79  C   UNL A   1      34.718  34.081  29.274  1.00  0.00     0.054 A 
BRANCH  79  80
ATOM     80  S   UNL A   1      33.144  34.967  29.100  1.00  0.00     0.124 S 
ATOM     81  O   UNL A   1      33.592  36.290  28.676  1.00  0.00    -0.237 OA
ATOM     82  O   UNL A   1      32.445  34.183  28.086  1.00  0.00    -0.237 OA
ATOM     83  O   UNL A   1      32.566  34.900  30.440  1.00  0.00    -0.744 OA
ENDBRANCH  79  80
ENDBRANCH  51  74
BRANCH  63  84
ATOM     84  C   UNL A   1      43.251  35.083  32.168  1.00  0.00    -0.014 A 
ATOM     85  C   UNL A   1      43.008  35.257  33.544  1.00  0.00     0.010 A 
ATOM     86  C   UNL A   1      43.760  36.161  31.423  1.00  0.00     0.010 A 
ATOM     87  C   UNL A   1      43.225  36.495  34.154  1.00  0.00     0.020 A 
ATOM     88  C   UNL A   1      44.005  37.395  32.037  1.00  0.00     0.020 A 
ATOM     89  C   UNL A   1      43.709  37.560  33.392  1.00  0.00     0.054 A 
BRANCH  89  90
ATOM     90  S   UNL A   1      43.944  39.173  34.189  1.00  0.00     0.124 S 
ATOM     91  O   UNL A   1      45.209  39.620  33.613  1.00  0.00    -0.237 OA
ATOM     92  O   UNL A   1      42.761  39.919  33.763  1.00  0.00    -0.237 OA
ATOM     93  O   UNL A   1      43.985  38.849  35.614  1.00  0.00    -0.744 OA
ENDBRANCH  89  90
ENDBRANCH  63  84
ENDBRANCH  37  38
ENDBRANCH  29  32
ENDBRANCH  27  28
ENDBRANCH  26  27
ENDBRANCH   1  26
TORSDOF 20
ENDMDL
MODEL 3
REMARK VINA RESULT:     -10.4      1.238      8.245
REMARK SMILES CC(C)C[C@@H](NC(=O)Cn1nc(O)ccc1=O)C(=O)NCCCCNC(=O)c1ccc(-c2c3nc(c(-c4ccc(S(=O)(=O)[O-])cc4)c4ccc([nH]4)c(-c4ccc(S(=O)(=O)[O-])cc4)c4nc(c(-c5ccc(S(=O)(=O)[O-])cc5)c5ccc2[nH]5)C=C4)C=C3)cc1
REMARK SMILES IDX 22 1 21 2 20 3 18 4 19 5 5 7 4 8 2 9 1 10 3 11 6 12 7 13
REMARK SMILES IDX 8 15 9 16 10 17 11 18 16 19 12 20 15 21 17 22 14 23 13 24
REMARK SMILES IDX 23 26 24 27 25 28 26 29 27 31 28 32 29 33 87 34 30 35 86 36
REMARK SMILES IDX 31 37 32 38 33 39 80 40 34 41 85 42 79 43 81 44 35 45 84 46
REMARK SMILES IDX 78 47 77 48 36 50 66 51 47 52 65 53 48 54 51 55 64 56 82 57
REMARK SMILES IDX 49 58 50 59 63 61 83 62 52 63 37 64 38 65 46 66 39 67 45 68
REMARK SMILES IDX 40 69 41 70 42 71 43 72 44 73 67 74 68 75 76 76 69 77 75 78
REMARK SMILES IDX 70 79 71 80 72 81 73 82 74 83 53 84 54 85 62 86 55 87 61 88
REMARK SMILES IDX 56 89 57 90 58 91 59 92 60 93
REMARK H PARENT 20 6 6 14 13 25 25 30 81 49 51 60
REMARK Flexibility Score: inf
ROOT
ATOM      1  C   UNL A   1      32.107  26.934  26.230  1.00  0.00     0.023 C 
ENDROOT
BRANCH   1   2
ATOM      2  C   UNL A   1      32.991  25.704  26.034  1.00  0.00     0.116 C 
BRANCH   2   3
ATOM      3  N   UNL A   1      32.215  24.503  25.755  1.00  0.00    -0.354 N 
ATOM      4  C   UNL A   1      32.438  23.504  24.845  1.00  0.00     0.242 C 
ATOM      5  O   UNL A   1      31.550  22.656  24.698  1.00  0.00    -0.273 OA
ATOM      6  H   UNL A   1      31.407  24.393  26.305  1.00  0.00     0.163 HD
BRANCH   4   7
ATOM      7  C   UNL A   1      33.603  23.590  23.840  1.00  0.00     0.171 C 
BRANCH   7   8
ATOM      8  C   UNL A   1      34.316  22.236  24.103  1.00  0.00     0.038 C 
BRANCH   8   9
ATOM      9  C   UNL A   1      35.681  22.177  24.799  1.00  0.00    -0.015 C 
ATOM     10  C   UNL A   1      36.182  20.747  24.976  1.00  0.00     0.007 C 
ATOM     11  C   UNL A   1      36.674  22.963  23.925  1.00  0.00     0.007 C 
ENDBRANCH   8   9
ENDBRANCH   7   8
BRANCH   7  12
ATOM     12  N   UNL A   1      33.206  23.779  22.442  1.00  0.00    -0.343 N 
ATOM     13  C   UNL A   1      33.080  24.907  21.685  1.00  0.00     0.242 C 
ATOM     14  H   UNL A   1      32.991  22.945  21.966  1.00  0.00     0.164 HD
ATOM     15  O   UNL A   1      33.055  24.720  20.461  1.00  0.00    -0.273 OA
BRANCH  13  16
ATOM     16  C   UNL A   1      33.131  26.339  22.243  1.00  0.00     0.248 C 
BRANCH  16  17
ATOM     17  N   UNL A   1      31.872  26.919  22.693  1.00  0.00    -0.217 N 
ATOM     18  N   UNL A   1      30.892  26.034  23.102  1.00  0.00    -0.131 NA
ATOM     19  C   UNL A   1      31.746  28.303  22.804  1.00  0.00     0.267 A 
ATOM     20  C   UNL A   1      29.786  26.563  23.493  1.00  0.00     0.229 A 
ATOM     21  C   UNL A   1      30.437  28.808  23.292  1.00  0.00     0.079 A 
ATOM     22  O   UNL A   1      32.607  29.114  22.479  1.00  0.00    -0.268 OA
ATOM     23  C   UNL A   1      29.452  27.970  23.616  1.00  0.00     0.075 A 
BRANCH  20  24
ATOM     24  O   UNL A   1      28.745  25.781  23.790  1.00  0.00    -0.492 OA
ATOM     25  H   UNL A   1      28.710  24.903  23.465  1.00  0.00     0.295 HD
ENDBRANCH  20  24
ENDBRANCH  16  17
ENDBRANCH  13  16
ENDBRANCH   7  12
ENDBRANCH   4   7
ENDBRANCH   2   3
ENDBRANCH   1   2
BRANCH   1  26
ATOM     26  C   UNL A   1      32.477  27.815  27.425  1.00  0.00     0.023 C 
BRANCH  26  27
ATOM     27  C   UNL A   1      33.751  28.634  27.250  1.00  0.00     0.116 C 
BRANCH  27  28
ATOM     28  N   UNL A   1      33.621  30.002  27.709  1.00  0.00    -0.352 N 
ATOM     29  C   UNL A   1      34.577  30.787  28.325  1.00  0.00     0.251 C 
ATOM     30  H   UNL A   1      32.743  30.424  27.564  1.00  0.00     0.163 HD
ATOM     31  O   UNL A   1      34.299  31.899  28.730  1.00  0.00    -0.269 OA
BRANCH  29  32
ATOM     32  C   UNL A   1      35.932  30.224  28.537  1.00  0.00     0.039 A 
ATOM     33  C   UNL A   1      36.302  29.665  29.763  1.00  0.00     0.014 A 
ATOM     34  C   UNL A   1      36.852  30.294  27.489  1.00  0.00     0.014 A 
ATOM     35  C   UNL A   1      37.628  29.280  29.977  1.00  0.00     0.010 A 
ATOM     36  C   UNL A   1      38.168  29.864  27.691  1.00  0.00     0.010 A 
ATOM     37  C   UNL A   1      38.579  29.387  28.947  1.00  0.00    -0.014 A 
BRANCH  37  38
ATOM     38  C   UNL A   1      39.999  29.004  29.173  1.00  0.00     0.031 A 
ATOM     39  C   UNL A   1      40.502  27.642  28.766  1.00  0.00     0.074 A 
ATOM     40  C   UNL A   1      40.851  29.880  29.744  1.00  0.00     0.049 A 
ATOM     41  N   UNL A   1      41.691  27.120  28.930  1.00  0.00    -0.248 NA
ATOM     42  C   UNL A   1      39.550  26.750  28.082  1.00  0.00     0.031 C 
ATOM     43  C   UNL A   1      40.508  31.244  30.152  1.00  0.00     0.029 A 
ATOM     44  N   UNL A   1      42.180  29.761  30.068  1.00  0.00    -0.354 N 
ATOM     45  C   UNL A   1      41.630  25.843  28.385  1.00  0.00     0.074 A 
ATOM     46  C   UNL A   1      40.279  25.655  27.903  1.00  0.00     0.031 C 
ATOM     47  C   UNL A   1      41.607  31.846  30.633  1.00  0.00     0.029 A 
ATOM     48  C   UNL A   1      42.718  30.897  30.629  1.00  0.00     0.049 A 
ATOM     49  H   UNL A   1      42.701  28.939  29.914  1.00  0.00     0.167 HD
ATOM     50  C   UNL A   1      42.613  24.917  28.284  1.00  0.00     0.031 A 
ATOM     51  C   UNL A   1      43.956  31.149  31.101  1.00  0.00     0.031 A 
ATOM     52  C   UNL A   1      43.963  25.107  28.750  1.00  0.00     0.049 A 
ATOM     53  C   UNL A   1      45.005  30.072  31.051  1.00  0.00     0.074 A 
ATOM     54  C   UNL A   1      45.026  24.222  28.664  1.00  0.00     0.029 A 
ATOM     55  N   UNL A   1      44.441  26.245  29.378  1.00  0.00    -0.354 N 
ATOM     56  N   UNL A   1      44.926  28.871  30.533  1.00  0.00    -0.248 NA
ATOM     57  C   UNL A   1      46.310  30.381  31.657  1.00  0.00     0.031 C 
ATOM     58  C   UNL A   1      46.128  24.799  29.296  1.00  0.00     0.029 A 
ATOM     59  C   UNL A   1      45.775  26.072  29.711  1.00  0.00     0.049 A 
ATOM     60  H   UNL A   1      43.913  27.055  29.561  1.00  0.00     0.167 HD
ATOM     61  C   UNL A   1      46.174  28.291  30.728  1.00  0.00     0.074 A 
ATOM     62  C   UNL A   1      46.996  29.273  31.401  1.00  0.00     0.031 C 
ATOM     63  C   UNL A   1      46.596  27.052  30.378  1.00  0.00     0.031 A 
BRANCH  50  64
ATOM     64  C   UNL A   1      42.297  23.594  27.634  1.00  0.00    -0.014 A 
ATOM     65  C   UNL A   1      41.593  22.613  28.358  1.00  0.00     0.010 A 
ATOM     66  C   UNL A   1      42.846  23.261  26.383  1.00  0.00     0.010 A 
ATOM     67  C   UNL A   1      41.480  21.311  27.864  1.00  0.00     0.020 A 
ATOM     68  C   UNL A   1      42.713  21.965  25.874  1.00  0.00     0.020 A 
ATOM     69  C   UNL A   1      42.056  20.992  26.631  1.00  0.00     0.054 A 
BRANCH  69  70
ATOM     70  S   UNL A   1      41.951  19.282  26.034  1.00  0.00     0.124 S 
ATOM     71  O   UNL A   1      42.775  19.325  24.830  1.00  0.00    -0.237 OA
ATOM     72  O   UNL A   1      42.503  18.520  27.150  1.00  0.00    -0.237 OA
ATOM     73  O   UNL A   1      40.521  19.088  25.806  1.00  0.00    -0.744 OA
ENDBRANCH  69  70
ENDBRANCH  50  64
BRANCH  51  74
ATOM     74  C   UNL A   1      44.272  32.498  31.644  1.00  0.00    -0.014 A 
ATOM     75  C   UNL A   1      44.776  33.512  30.809  1.00  0.00     0.010 A 
ATOM     76  C   UNL A   1      44.116  32.759  33.018  1.00  0.00     0.010 A 
ATOM     77  C   UNL A   1      45.165  34.743  31.342  1.00  0.00     0.020 A 
ATOM     78  C   UNL A   1      44.476  34.000  33.550  1.00  0.00     0.020 A 
ATOM     79  C   UNL A   1      45.024  34.975  32.713  1.00  0.00     0.054 A 
BRANCH  79  80
ATOM     80  S   UNL A   1      45.566  36.568  33.390  1.00  0.00     0.124 S 
ATOM     81  O   UNL A   1      45.269  36.404  34.810  1.00  0.00    -0.237 OA
ATOM     82  O   UNL A   1      46.984  36.598  33.042  1.00  0.00    -0.237 OA
ATOM     83  O   UNL A   1      44.735  37.539  32.683  1.00  0.00    -0.744 OA
ENDBRANCH  79  80
ENDBRANCH  51  74
BRANCH  63  84
ATOM     84  C   UNL A   1      48.016  26.658  30.691  1.00  0.00    -0.014 A 
ATOM     85  C   UNL A   1      48.321  26.091  31.943  1.00  0.00     0.010 A 
ATOM     86  C   UNL A   1      49.065  26.978  29.812  1.00  0.00     0.010 A 
ATOM     87  C   UNL A   1      49.649  25.890  32.328  1.00  0.00     0.020 A 
ATOM     88  C   UNL A   1      50.395  26.752  30.183  1.00  0.00     0.020 A 
ATOM     89  C   UNL A   1      50.678  26.235  31.449  1.00  0.00     0.054 A 
BRANCH  89  90
ATOM     90  S   UNL A   1      52.398  26.008  31.981  1.00  0.00     0.124 S 
ATOM     91  O   UNL A   1      52.413  24.605  32.384  1.00  0.00    -0.237 OA
ATOM     92  O   UNL A   1      53.155  26.322  30.771  1.00  0.00    -0.237 OA
ATOM     93  O   UNL A   1      52.551  26.972  33.069  1.00  0.00    -0.744 OA
ENDBRANCH  89  90
ENDBRANCH  63  84
ENDBRANCH  37  38
ENDBRANCH  29  32
ENDBRANCH  27  28
ENDBRANCH  26  27
ENDBRANCH   1  26
TORSDOF 20
ENDMDL
