MODEL 1
REMARK VINA RESULT:     -11.2      0.000      0.000
REMARK SMILES COc1cccc(NC(=O)c2nccnc2C(=O)NCCCCNC(=O)c2ccc(-c3c4nc(c(-c5ccc(S(=O)(=O)[O-])cc5)c5ccc([nH]5)c(-c5ccc(S(=O)(=O)[O-])cc5)c5nc(c(-c6ccc(S(=O)(=O)[O-])cc6)c6ccc3[nH]6)C=C5)C=C4)cc2)c1
REMARK SMILES IDX 21 1 20 2 19 3 17 4 18 5 16 7 11 8 12 9 13 10 15 11 14 12
REMARK SMILES IDX 9 13 8 14 10 16 7 17 3 18 4 19 87 20 5 21 6 22 2 23 1 24
REMARK SMILES IDX 22 25 23 26 24 27 25 28 26 30 27 31 28 32 86 33 29 34 85 35
REMARK SMILES IDX 30 36 31 37 32 38 79 39 33 40 84 41 78 42 80 43 34 44 83 45
REMARK SMILES IDX 77 46 76 47 35 49 65 50 46 51 64 52 47 53 50 54 63 55 81 56
REMARK SMILES IDX 48 57 49 58 62 60 82 61 51 62 36 63 37 64 45 65 38 66 44 67
REMARK SMILES IDX 39 68 40 69 41 70 42 71 43 72 66 73 67 74 75 75 68 76 74 77
REMARK SMILES IDX 69 78 70 79 71 80 72 81 73 82 52 83 53 84 61 85 54 86 60 87
REMARK SMILES IDX 55 88 56 89 57 90 58 91 59 92
REMARK H PARENT 19 6 8 15 24 29 80 48 50 59
REMARK Flexibility Score: inf
ROOT
ATOM      1  C   UNL A   1      33.128  27.805  24.861  1.00  0.00     0.023 C 
ENDROOT
BRANCH   1   2
ATOM      2  C   UNL A   1      33.819  26.446  24.878  1.00  0.00     0.116 C 
BRANCH   2   3
ATOM      3  N   UNL A   1      33.281  25.458  23.976  1.00  0.00    -0.351 N 
ATOM      4  C   UNL A   1      33.509  24.106  23.852  1.00  0.00     0.272 C 
ATOM      5  O   UNL A   1      32.813  23.519  23.016  1.00  0.00    -0.267 OA
ATOM      6  H   UNL A   1      32.631  25.817  23.328  1.00  0.00     0.163 HD
BRANCH   4   7
ATOM      7  C   UNL A   1      34.565  23.310  24.563  1.00  0.00     0.159 A 
ATOM      8  C   UNL A   1      34.405  22.357  25.558  1.00  0.00     0.159 A 
ATOM      9  N   UNL A   1      35.439  21.566  26.011  1.00  0.00    -0.247 NA
ATOM     10  C   UNL A   1      36.643  21.782  25.448  1.00  0.00     0.132 A 
ATOM     11  N   UNL A   1      35.821  23.530  24.042  1.00  0.00    -0.247 NA
ATOM     12  C   UNL A   1      36.834  22.756  24.493  1.00  0.00     0.132 A 
BRANCH   8  13
ATOM     13  C   UNL A   1      33.135  22.076  26.232  1.00  0.00     0.276 C 
ATOM     14  N   UNL A   1      32.293  21.060  25.802  1.00  0.00    -0.320 N 
ATOM     15  H   UNL A   1      31.423  21.058  26.265  1.00  0.00     0.170 HD
ATOM     16  O   UNL A   1      32.816  22.764  27.201  1.00  0.00    -0.267 OA
BRANCH  14  17
ATOM     17  C   UNL A   1      32.417  20.025  24.842  1.00  0.00     0.045 A 
ATOM     18  C   UNL A   1      32.870  17.649  24.470  1.00  0.00     0.120 A 
ATOM     19  C   UNL A   1      32.697  17.830  23.099  1.00  0.00     0.046 A 
ATOM     20  C   UNL A   1      32.720  18.742  25.335  1.00  0.00     0.072 A 
ATOM     21  C   UNL A   1      32.417  19.091  22.595  1.00  0.00     0.006 A 
ATOM     22  C   UNL A   1      32.298  20.182  23.460  1.00  0.00     0.026 A 
BRANCH  18  23
ATOM     23  O   UNL A   1      33.174  16.365  24.828  1.00  0.00    -0.497 OA
ATOM     24  C   UNL A   1      34.496  16.114  25.286  1.00  0.00     0.278 C 
ENDBRANCH  18  23
ENDBRANCH  14  17
ENDBRANCH   8  13
ENDBRANCH   4   7
ENDBRANCH   2   3
ENDBRANCH   1   2
BRANCH   1  25
ATOM     25  C   UNL A   1      32.419  28.239  26.144  1.00  0.00     0.023 C 
BRANCH  25  26
ATOM     26  C   UNL A   1      33.292  28.531  27.362  1.00  0.00     0.116 C 
BRANCH  26  27
ATOM     27  N   UNL A   1      33.401  29.946  27.693  1.00  0.00    -0.352 N 
ATOM     28  C   UNL A   1      34.464  30.682  28.163  1.00  0.00     0.251 C 
ATOM     29  H   UNL A   1      32.575  30.462  27.556  1.00  0.00     0.163 HD
ATOM     30  O   UNL A   1      34.297  31.866  28.450  1.00  0.00    -0.269 OA
BRANCH  28  31
ATOM     31  C   UNL A   1      35.789  30.054  28.374  1.00  0.00     0.039 A 
ATOM     32  C   UNL A   1      36.708  30.050  27.320  1.00  0.00     0.014 A 
ATOM     33  C   UNL A   1      36.141  29.486  29.600  1.00  0.00     0.014 A 
ATOM     34  C   UNL A   1      38.011  29.587  27.532  1.00  0.00     0.010 A 
ATOM     35  C   UNL A   1      37.462  29.108  29.836  1.00  0.00     0.010 A 
ATOM     36  C   UNL A   1      38.417  29.169  28.810  1.00  0.00    -0.014 A 
BRANCH  36  37
ATOM     37  C   UNL A   1      39.836  28.832  29.106  1.00  0.00     0.031 A 
ATOM     38  C   UNL A   1      40.757  29.862  29.704  1.00  0.00     0.074 A 
ATOM     39  C   UNL A   1      40.323  27.624  28.752  1.00  0.00     0.049 A 
ATOM     40  N   UNL A   1      42.044  29.782  29.937  1.00  0.00    -0.248 NA
ATOM     41  C   UNL A   1      40.163  31.161  30.057  1.00  0.00     0.031 C 
ATOM     42  C   UNL A   1      39.554  26.550  28.117  1.00  0.00     0.029 A 
ATOM     43  N   UNL A   1      41.587  27.099  28.864  1.00  0.00    -0.354 N 
ATOM     44  C   UNL A   1      42.415  31.025  30.437  1.00  0.00     0.074 A 
ATOM     45  C   UNL A   1      41.228  31.853  30.432  1.00  0.00     0.031 C 
ATOM     46  C   UNL A   1      40.352  25.488  27.926  1.00  0.00     0.029 A 
ATOM     47  C   UNL A   1      41.699  25.816  28.382  1.00  0.00     0.049 A 
ATOM     48  H   UNL A   1      42.343  27.595  29.256  1.00  0.00     0.167 HD
ATOM     49  C   UNL A   1      43.628  31.437  30.878  1.00  0.00     0.031 A 
ATOM     50  C   UNL A   1      42.765  24.995  28.305  1.00  0.00     0.031 A 
ATOM     51  C   UNL A   1      44.804  30.609  30.905  1.00  0.00     0.049 A 
ATOM     52  C   UNL A   1      44.098  25.469  28.813  1.00  0.00     0.074 A 
ATOM     53  C   UNL A   1      46.063  30.917  31.391  1.00  0.00     0.029 A 
ATOM     54  N   UNL A   1      44.866  29.307  30.432  1.00  0.00    -0.354 N 
ATOM     55  N   UNL A   1      44.414  26.629  29.337  1.00  0.00    -0.248 NA
ATOM     56  C   UNL A   1      45.216  24.518  28.729  1.00  0.00     0.031 C 
ATOM     57  C   UNL A   1      46.897  29.813  31.177  1.00  0.00     0.029 A 
ATOM     58  C   UNL A   1      46.145  28.802  30.601  1.00  0.00     0.049 A 
ATOM     59  H   UNL A   1      44.113  28.814  30.034  1.00  0.00     0.167 HD
ATOM     60  C   UNL A   1      45.762  26.539  29.667  1.00  0.00     0.074 A 
ATOM     61  C   UNL A   1      46.197  25.208  29.297  1.00  0.00     0.031 C 
ATOM     62  C   UNL A   1      46.564  27.476  30.229  1.00  0.00     0.031 A 
BRANCH  49  63
ATOM     63  C   UNL A   1      43.740  32.856  31.370  1.00  0.00    -0.014 A 
ATOM     64  C   UNL A   1      43.521  33.171  32.724  1.00  0.00     0.010 A 
ATOM     65  C   UNL A   1      44.092  33.883  30.477  1.00  0.00     0.010 A 
ATOM     66  C   UNL A   1      43.602  34.493  33.165  1.00  0.00     0.020 A 
ATOM     67  C   UNL A   1      44.201  35.205  30.920  1.00  0.00     0.020 A 
ATOM     68  C   UNL A   1      43.935  35.504  32.258  1.00  0.00     0.054 A 
BRANCH  68  69
ATOM     69  S   UNL A   1      44.041  37.212  32.858  1.00  0.00     0.124 S 
ATOM     70  O   UNL A   1      42.902  37.281  33.771  1.00  0.00    -0.237 OA
ATOM     71  O   UNL A   1      45.356  37.250  33.493  1.00  0.00    -0.237 OA
ATOM     72  O   UNL A   1      43.916  38.015  31.644  1.00  0.00    -0.744 OA
ENDBRANCH  68  69
ENDBRANCH  49  63
BRANCH  50  73
ATOM     73  C   UNL A   1      42.609  23.625  27.746  1.00  0.00    -0.014 A 
ATOM     74  C   UNL A   1      42.914  23.370  26.397  1.00  0.00     0.010 A 
ATOM     75  C   UNL A   1      42.169  22.564  28.559  1.00  0.00     0.010 A 
ATOM     76  C   UNL A   1      42.767  22.086  25.867  1.00  0.00     0.020 A 
ATOM     77  C   UNL A   1      42.044  21.273  28.038  1.00  0.00     0.020 A 
ATOM     78  C   UNL A   1      42.334  21.044  26.691  1.00  0.00     0.054 A 
BRANCH  78  79
ATOM     79  S   UNL A   1      42.203  19.373  25.996  1.00  0.00     0.124 S 
ATOM     80  O   UNL A   1      42.997  19.487  24.778  1.00  0.00    -0.237 OA
ATOM     81  O   UNL A   1      42.780  18.544  27.052  1.00  0.00    -0.237 OA
ATOM     82  O   UNL A   1      40.766  19.199  25.797  1.00  0.00    -0.744 OA
ENDBRANCH  78  79
ENDBRANCH  50  73
BRANCH  62  83
ATOM     83  C   UNL A   1      47.990  27.085  30.513  1.00  0.00    -0.014 A 
ATOM     84  C   UNL A   1      49.022  27.401  29.613  1.00  0.00     0.010 A 
ATOM     85  C   UNL A   1      48.305  26.441  31.723  1.00  0.00     0.010 A 
ATOM     86  C   UNL A   1      50.344  27.054  29.908  1.00  0.00     0.020 A 
ATOM     87  C   UNL A   1      49.627  26.115  32.032  1.00  0.00     0.020 A 
ATOM     88  C   UNL A   1      50.638  26.412  31.115  1.00  0.00     0.054 A 
BRANCH  88  89
ATOM     89  S   UNL A   1      52.366  26.015  31.498  1.00  0.00     0.124 S 
ATOM     90  O   UNL A   1      52.256  24.659  32.029  1.00  0.00    -0.237 OA
ATOM     91  O   UNL A   1      53.020  26.129  30.197  1.00  0.00    -0.237 OA
ATOM     92  O   UNL A   1      52.748  27.037  32.471  1.00  0.00    -0.744 OA
ENDBRANCH  88  89
ENDBRANCH  62  83
ENDBRANCH  36  37
ENDBRANCH  28  31
ENDBRANCH  26  27
ENDBRANCH  25  26
ENDBRANCH   1  25
TORSDOF 17
ENDMDL
MODEL 2
REMARK VINA RESULT:     -11.1      1.510      3.206
REMARK SMILES COc1cccc(NC(=O)c2nccnc2C(=O)NCCCCNC(=O)c2ccc(-c3c4nc(c(-c5ccc(S(=O)(=O)[O-])cc5)c5ccc([nH]5)c(-c5ccc(S(=O)(=O)[O-])cc5)c5nc(c(-c6ccc(S(=O)(=O)[O-])cc6)c6ccc3[nH]6)C=C5)C=C4)cc2)c1
REMARK SMILES IDX 21 1 20 2 19 3 17 4 18 5 16 7 11 8 12 9 13 10 15 11 14 12
REMARK SMILES IDX 9 13 8 14 10 16 7 17 3 18 4 19 87 20 5 21 6 22 2 23 1 24
REMARK SMILES IDX 22 25 23 26 24 27 25 28 26 30 27 31 28 32 86 33 29 34 85 35
REMARK SMILES IDX 30 36 31 37 32 38 79 39 33 40 84 41 78 42 80 43 34 44 83 45
REMARK SMILES IDX 77 46 76 47 35 49 65 50 46 51 64 52 47 53 50 54 63 55 81 56
REMARK SMILES IDX 48 57 49 58 62 60 82 61 51 62 36 63 37 64 45 65 38 66 44 67
REMARK SMILES IDX 39 68 40 69 41 70 42 71 43 72 66 73 67 74 75 75 68 76 74 77
REMARK SMILES IDX 69 78 70 79 71 80 72 81 73 82 52 83 53 84 61 85 54 86 60 87
REMARK SMILES IDX 55 88 56 89 57 90 58 91 59 92
REMARK H PARENT 19 6 8 15 24 29 80 48 50 59
REMARK Flexibility Score: inf
ROOT
ATOM      1  C   UNL A   1      31.437  27.255  26.151  1.00  0.00     0.023 C 
ENDROOT
BRANCH   1   2
ATOM      2  C   UNL A   1      32.110  25.902  26.348  1.00  0.00     0.116 C 
BRANCH   2   3
ATOM      3  N   UNL A   1      31.251  24.750  26.227  1.00  0.00    -0.351 N 
ATOM      4  C   UNL A   1      31.524  23.420  25.996  1.00  0.00     0.272 C 
ATOM      5  O   UNL A   1      30.551  22.659  26.033  1.00  0.00    -0.267 OA
ATOM      6  H   UNL A   1      30.292  24.952  26.326  1.00  0.00     0.163 HD
BRANCH   4   7
ATOM      7  C   UNL A   1      32.855  22.833  25.627  1.00  0.00     0.159 A 
ATOM      8  C   UNL A   1      33.287  22.384  24.387  1.00  0.00     0.159 A 
ATOM      9  N   UNL A   1      34.595  22.026  24.135  1.00  0.00    -0.247 NA
ATOM     10  C   UNL A   1      35.447  22.113  25.174  1.00  0.00     0.132 A 
ATOM     11  N   UNL A   1      33.748  22.868  26.675  1.00  0.00    -0.247 NA
ATOM     12  C   UNL A   1      35.028  22.511  26.425  1.00  0.00     0.132 A 
BRANCH   8  13
ATOM     13  C   UNL A   1      32.421  22.243  23.215  1.00  0.00     0.276 C 
ATOM     14  N   UNL A   1      31.975  23.349  22.503  1.00  0.00    -0.320 N 
ATOM     15  H   UNL A   1      31.307  23.122  21.816  1.00  0.00     0.170 HD
ATOM     16  O   UNL A   1      32.086  21.114  22.860  1.00  0.00    -0.267 OA
BRANCH  14  17
ATOM     17  C   UNL A   1      32.276  24.733  22.554  1.00  0.00     0.045 A 
ATOM     18  C   UNL A   1      31.398  27.007  22.333  1.00  0.00     0.120 A 
ATOM     19  C   UNL A   1      32.661  27.523  22.616  1.00  0.00     0.046 A 
ATOM     20  C   UNL A   1      31.208  25.617  22.313  1.00  0.00     0.072 A 
ATOM     21  C   UNL A   1      33.729  26.664  22.835  1.00  0.00     0.006 A 
ATOM     22  C   UNL A   1      33.539  25.281  22.785  1.00  0.00     0.026 A 
BRANCH  18  23
ATOM     23  O   UNL A   1      30.446  27.960  22.105  1.00  0.00    -0.497 OA
ATOM     24  C   UNL A   1      30.564  29.182  22.821  1.00  0.00     0.278 C 
ENDBRANCH  18  23
ENDBRANCH  14  17
ENDBRANCH   8  13
ENDBRANCH   4   7
ENDBRANCH   2   3
ENDBRANCH   1   2
BRANCH   1  25
ATOM     25  C   UNL A   1      32.349  28.478  26.058  1.00  0.00     0.023 C 
BRANCH  25  26
ATOM     26  C   UNL A   1      33.329  28.710  27.207  1.00  0.00     0.116 C 
BRANCH  26  27
ATOM     27  N   UNL A   1      33.400  30.092  27.660  1.00  0.00    -0.352 N 
ATOM     28  C   UNL A   1      34.428  30.799  28.240  1.00  0.00     0.251 C 
ATOM     29  H   UNL A   1      32.571  30.608  27.530  1.00  0.00     0.163 HD
ATOM     30  O   UNL A   1      34.228  31.952  28.618  1.00  0.00    -0.269 OA
BRANCH  28  31
ATOM     31  C   UNL A   1      35.753  30.173  28.456  1.00  0.00     0.039 A 
ATOM     32  C   UNL A   1      36.672  30.158  27.403  1.00  0.00     0.014 A 
ATOM     33  C   UNL A   1      36.104  29.617  29.688  1.00  0.00     0.014 A 
ATOM     34  C   UNL A   1      37.974  29.696  27.619  1.00  0.00     0.010 A 
ATOM     35  C   UNL A   1      37.425  29.240  29.928  1.00  0.00     0.010 A 
ATOM     36  C   UNL A   1      38.380  29.291  28.902  1.00  0.00    -0.014 A 
BRANCH  36  37
ATOM     37  C   UNL A   1      39.799  28.956  29.201  1.00  0.00     0.031 A 
ATOM     38  C   UNL A   1      40.716  29.986  29.806  1.00  0.00     0.074 A 
ATOM     39  C   UNL A   1      40.290  27.751  28.845  1.00  0.00     0.049 A 
ATOM     40  N   UNL A   1      42.001  29.909  30.043  1.00  0.00    -0.248 NA
ATOM     41  C   UNL A   1      40.117  31.282  30.163  1.00  0.00     0.031 C 
ATOM     42  C   UNL A   1      39.526  26.677  28.203  1.00  0.00     0.029 A 
ATOM     43  N   UNL A   1      41.555  27.228  28.959  1.00  0.00    -0.354 N 
ATOM     44  C   UNL A   1      42.368  31.151  30.550  1.00  0.00     0.074 A 
ATOM     45  C   UNL A   1      41.179  31.976  30.544  1.00  0.00     0.031 C 
ATOM     46  C   UNL A   1      40.327  25.618  28.011  1.00  0.00     0.029 A 
ATOM     47  C   UNL A   1      41.672  25.947  28.472  1.00  0.00     0.049 A 
ATOM     48  H   UNL A   1      42.308  27.725  29.355  1.00  0.00     0.167 HD
ATOM     49  C   UNL A   1      43.579  31.563  30.996  1.00  0.00     0.031 A 
ATOM     50  C   UNL A   1      42.740  25.129  28.396  1.00  0.00     0.031 A 
ATOM     51  C   UNL A   1      44.757  30.738  31.024  1.00  0.00     0.049 A 
ATOM     52  C   UNL A   1      44.070  25.604  28.911  1.00  0.00     0.074 A 
ATOM     53  C   UNL A   1      46.014  31.047  31.515  1.00  0.00     0.029 A 
ATOM     54  N   UNL A   1      44.823  29.438  30.546  1.00  0.00    -0.354 N 
ATOM     55  N   UNL A   1      44.382  26.763  29.439  1.00  0.00    -0.248 NA
ATOM     56  C   UNL A   1      45.191  24.656  28.826  1.00  0.00     0.031 C 
ATOM     57  C   UNL A   1      46.851  29.946  31.300  1.00  0.00     0.029 A 
ATOM     58  C   UNL A   1      46.103  28.936  30.717  1.00  0.00     0.049 A 
ATOM     59  H   UNL A   1      44.073  28.945  30.144  1.00  0.00     0.167 HD
ATOM     60  C   UNL A   1      45.728  26.676  29.774  1.00  0.00     0.074 A 
ATOM     61  C   UNL A   1      46.168  25.347  29.401  1.00  0.00     0.031 C 
ATOM     62  C   UNL A   1      46.527  27.612  30.343  1.00  0.00     0.031 A 
BRANCH  49  63
ATOM     63  C   UNL A   1      43.686  32.981  31.494  1.00  0.00    -0.014 A 
ATOM     64  C   UNL A   1      43.443  33.293  32.845  1.00  0.00     0.010 A 
ATOM     65  C   UNL A   1      44.056  34.010  30.610  1.00  0.00     0.010 A 
ATOM     66  C   UNL A   1      43.519  34.614  33.290  1.00  0.00     0.020 A 
ATOM     67  C   UNL A   1      44.161  35.330  31.058  1.00  0.00     0.020 A 
ATOM     68  C   UNL A   1      43.871  35.626  32.392  1.00  0.00     0.054 A 
BRANCH  68  69
ATOM     69  S   UNL A   1      43.971  37.333  32.999  1.00  0.00     0.124 S 
ATOM     70  O   UNL A   1      45.285  37.348  33.637  1.00  0.00    -0.237 OA
ATOM     71  O   UNL A   1      43.861  38.118  31.771  1.00  0.00    -0.237 OA
ATOM     72  O   UNL A   1      42.834  37.444  33.910  1.00  0.00    -0.744 OA
ENDBRANCH  68  69
ENDBRANCH  49  63
BRANCH  50  73
ATOM     73  C   UNL A   1      42.589  23.761  27.831  1.00  0.00    -0.014 A 
ATOM     74  C   UNL A   1      42.242  22.684  28.665  1.00  0.00     0.010 A 
ATOM     75  C   UNL A   1      42.777  23.528  26.456  1.00  0.00     0.010 A 
ATOM     76  C   UNL A   1      42.101  21.397  28.140  1.00  0.00     0.020 A 
ATOM     77  C   UNL A   1      42.613  22.246  25.924  1.00  0.00     0.020 A 
ATOM     78  C   UNL A   1      42.286  21.185  26.771  1.00  0.00     0.054 A 
BRANCH  78  79
ATOM     79  S   UNL A   1      42.044  19.517  26.101  1.00  0.00     0.124 S 
ATOM     80  O   UNL A   1      42.892  19.539  24.914  1.00  0.00    -0.237 OA
ATOM     81  O   UNL A   1      42.508  18.665  27.194  1.00  0.00    -0.237 OA
ATOM     82  O   UNL A   1      40.606  19.458  25.846  1.00  0.00    -0.744 OA
ENDBRANCH  78  79
ENDBRANCH  50  73
BRANCH  62  83
ATOM     83  C   UNL A   1      47.952  27.223  30.629  1.00  0.00    -0.014 A 
ATOM     84  C   UNL A   1      48.280  26.441  31.750  1.00  0.00     0.010 A 
ATOM     85  C   UNL A   1      48.968  27.602  29.733  1.00  0.00     0.010 A 
ATOM     86  C   UNL A   1      49.607  26.066  31.984  1.00  0.00     0.020 A 
ATOM     87  C   UNL A   1      50.290  27.209  29.951  1.00  0.00     0.020 A 
ATOM     88  C   UNL A   1      50.603  26.455  31.083  1.00  0.00     0.054 A 
BRANCH  88  89
ATOM     89  S   UNL A   1      52.310  25.917  31.380  1.00  0.00     0.124 S 
ATOM     90  O   UNL A   1      52.115  24.578  31.932  1.00  0.00    -0.237 OA
ATOM     91  O   UNL A   1      52.902  25.966  30.046  1.00  0.00    -0.237 OA
ATOM     92  O   UNL A   1      52.827  26.910  32.321  1.00  0.00    -0.744 OA
ENDBRANCH  88  89
ENDBRANCH  62  83
ENDBRANCH  36  37
ENDBRANCH  28  31
ENDBRANCH  26  27
ENDBRANCH  25  26
ENDBRANCH   1  25
TORSDOF 17
ENDMDL
MODEL 3
REMARK VINA RESULT:     -10.8      2.666      9.029
REMARK SMILES COc1cccc(NC(=O)c2nccnc2C(=O)NCCCCNC(=O)c2ccc(-c3c4nc(c(-c5ccc(S(=O)(=O)[O-])cc5)c5ccc([nH]5)c(-c5ccc(S(=O)(=O)[O-])cc5)c5nc(c(-c6ccc(S(=O)(=O)[O-])cc6)c6ccc3[nH]6)C=C5)C=C4)cc2)c1
REMARK SMILES IDX 21 1 20 2 19 3 17 4 18 5 16 7 11 8 12 9 13 10 15 11 14 12
REMARK SMILES IDX 9 13 8 14 10 16 7 17 3 18 4 19 87 20 5 21 6 22 2 23 1 24
REMARK SMILES IDX 22 25 23 26 24 27 25 28 26 30 27 31 28 32 86 33 29 34 85 35
REMARK SMILES IDX 30 36 31 37 32 38 79 39 33 40 84 41 78 42 80 43 34 44 83 45
REMARK SMILES IDX 77 46 76 47 35 49 65 50 46 51 64 52 47 53 50 54 63 55 81 56
REMARK SMILES IDX 48 57 49 58 62 60 82 61 51 62 36 63 37 64 45 65 38 66 44 67
REMARK SMILES IDX 39 68 40 69 41 70 42 71 43 72 66 73 67 74 75 75 68 76 74 77
REMARK SMILES IDX 69 78 70 79 71 80 72 81 73 82 52 83 53 84 61 85 54 86 60 87
REMARK SMILES IDX 55 88 56 89 57 90 58 91 59 92
REMARK H PARENT 19 6 8 15 24 29 80 48 50 59
REMARK Flexibility Score: inf
ROOT
ATOM      1  C   UNL A   1      35.182  23.679  23.353  1.00  0.00     0.023 C 
ENDROOT
BRANCH   1   2
ATOM      2  C   UNL A   1      33.720  23.286  23.172  1.00  0.00     0.116 C 
BRANCH   2   3
ATOM      3  N   UNL A   1      32.908  24.218  22.430  1.00  0.00    -0.351 N 
ATOM      4  C   UNL A   1      32.465  25.488  22.724  1.00  0.00     0.272 C 
ATOM      5  O   UNL A   1      31.844  26.062  21.823  1.00  0.00    -0.267 OA
ATOM      6  H   UNL A   1      32.615  23.884  21.551  1.00  0.00     0.163 HD
BRANCH   4   7
ATOM      7  C   UNL A   1      32.590  26.194  24.043  1.00  0.00     0.159 A 
ATOM      8  C   UNL A   1      31.784  26.076  25.166  1.00  0.00     0.159 A 
ATOM      9  N   UNL A   1      32.104  26.646  26.380  1.00  0.00    -0.247 NA
ATOM     10  C   UNL A   1      33.246  27.358  26.421  1.00  0.00     0.132 A 
ATOM     11  N   UNL A   1      33.729  26.966  24.114  1.00  0.00    -0.247 NA
ATOM     12  C   UNL A   1      34.036  27.528  25.305  1.00  0.00     0.132 A 
BRANCH   8  13
ATOM     13  C   UNL A   1      30.521  25.336  25.198  1.00  0.00     0.276 C 
ATOM     14  N   UNL A   1      30.486  23.964  25.405  1.00  0.00    -0.320 N 
ATOM     15  H   UNL A   1      29.588  23.578  25.283  1.00  0.00     0.170 HD
ATOM     16  O   UNL A   1      29.470  25.956  25.038  1.00  0.00    -0.267 OA
BRANCH  14  17
ATOM     17  C   UNL A   1      31.465  23.000  25.753  1.00  0.00     0.045 A 
ATOM     18  C   UNL A   1      32.274  20.717  25.406  1.00  0.00     0.120 A 
ATOM     19  C   UNL A   1      33.316  20.949  26.301  1.00  0.00     0.046 A 
ATOM     20  C   UNL A   1      31.361  21.744  25.128  1.00  0.00     0.072 A 
ATOM     21  C   UNL A   1      33.422  22.176  26.941  1.00  0.00     0.006 A 
ATOM     22  C   UNL A   1      32.491  23.185  26.682  1.00  0.00     0.026 A 
BRANCH  18  23
ATOM     23  O   UNL A   1      32.269  19.458  24.873  1.00  0.00    -0.497 OA
ATOM     24  C   UNL A   1      32.802  18.412  25.672  1.00  0.00     0.278 C 
ENDBRANCH  18  23
ENDBRANCH  14  17
ENDBRANCH   8  13
ENDBRANCH   4   7
ENDBRANCH   2   3
ENDBRANCH   1   2
BRANCH   1  25
ATOM     25  C   UNL A   1      36.037  22.781  24.247  1.00  0.00     0.023 C 
BRANCH  25  26
ATOM     26  C   UNL A   1      37.052  23.465  25.161  1.00  0.00     0.116 C 
BRANCH  26  27
ATOM     27  N   UNL A   1      38.226  22.657  25.458  1.00  0.00    -0.352 N 
ATOM     28  C   UNL A   1      39.377  22.959  26.149  1.00  0.00     0.251 C 
ATOM     29  H   UNL A   1      38.191  21.739  25.105  1.00  0.00     0.163 HD
ATOM     30  O   UNL A   1      40.281  22.128  26.206  1.00  0.00    -0.269 OA
BRANCH  28  31
ATOM     31  C   UNL A   1      39.557  24.286  26.782  1.00  0.00     0.039 A 
ATOM     32  C   UNL A   1      39.049  24.496  28.067  1.00  0.00     0.014 A 
ATOM     33  C   UNL A   1      40.235  25.319  26.130  1.00  0.00     0.014 A 
ATOM     34  C   UNL A   1      39.321  25.691  28.739  1.00  0.00     0.010 A 
ATOM     35  C   UNL A   1      40.582  26.472  26.832  1.00  0.00     0.010 A 
ATOM     36  C   UNL A   1      40.144  26.666  28.150  1.00  0.00    -0.014 A 
BRANCH  36  37
ATOM     37  C   UNL A   1      40.589  27.869  28.904  1.00  0.00     0.031 A 
ATOM     38  C   UNL A   1      41.934  27.892  29.581  1.00  0.00     0.074 A 
ATOM     39  C   UNL A   1      39.746  28.911  29.057  1.00  0.00     0.049 A 
ATOM     40  N   UNL A   1      42.449  28.809  30.361  1.00  0.00    -0.248 NA
ATOM     41  C   UNL A   1      42.800  26.720  29.380  1.00  0.00     0.031 C 
ATOM     42  C   UNL A   1      38.393  29.000  28.499  1.00  0.00     0.029 A 
ATOM     43  N   UNL A   1      39.895  30.093  29.741  1.00  0.00    -0.354 N 
ATOM     44  C   UNL A   1      43.684  28.312  30.764  1.00  0.00     0.074 A 
ATOM     45  C   UNL A   1      43.820  26.996  30.178  1.00  0.00     0.031 C 
ATOM     46  C   UNL A   1      37.852  30.181  28.836  1.00  0.00     0.029 A 
ATOM     47  C   UNL A   1      38.796  30.918  29.669  1.00  0.00     0.049 A 
ATOM     48  H   UNL A   1      40.714  30.328  30.235  1.00  0.00     0.167 HD
ATOM     49  C   UNL A   1      44.627  28.903  31.537  1.00  0.00     0.031 A 
ATOM     50  C   UNL A   1      38.567  32.127  30.217  1.00  0.00     0.031 A 
ATOM     51  C   UNL A   1      44.504  30.220  32.102  1.00  0.00     0.049 A 
ATOM     52  C   UNL A   1      39.635  32.769  31.059  1.00  0.00     0.074 A 
ATOM     53  C   UNL A   1      45.432  30.928  32.847  1.00  0.00     0.029 A 
ATOM     54  N   UNL A   1      43.386  31.031  31.982  1.00  0.00    -0.354 N 
ATOM     55  N   UNL A   1      40.819  32.306  31.380  1.00  0.00    -0.248 NA
ATOM     56  C   UNL A   1      39.337  34.101  31.606  1.00  0.00     0.031 C 
ATOM     57  C   UNL A   1      44.859  32.153  33.209  1.00  0.00     0.029 A 
ATOM     58  C   UNL A   1      43.593  32.226  32.650  1.00  0.00     0.049 A 
ATOM     59  H   UNL A   1      42.565  30.792  31.495  1.00  0.00     0.167 HD
ATOM     60  C   UNL A   1      41.418  33.300  32.145  1.00  0.00     0.074 A 
ATOM     61  C   UNL A   1      40.472  34.394  32.228  1.00  0.00     0.031 C 
ATOM     62  C   UNL A   1      42.644  33.306  32.724  1.00  0.00     0.031 A 
BRANCH  49  63
ATOM     63  C   UNL A   1      45.883  28.120  31.814  1.00  0.00    -0.014 A 
ATOM     64  C   UNL A   1      45.976  27.276  32.937  1.00  0.00     0.010 A 
ATOM     65  C   UNL A   1      46.975  28.207  30.933  1.00  0.00     0.010 A 
ATOM     66  C   UNL A   1      47.154  26.574  33.200  1.00  0.00     0.020 A 
ATOM     67  C   UNL A   1      48.147  27.485  31.177  1.00  0.00     0.020 A 
ATOM     68  C   UNL A   1      48.236  26.689  32.321  1.00  0.00     0.054 A 
BRANCH  68  69
ATOM     69  S   UNL A   1      49.752  25.760  32.681  1.00  0.00     0.124 S 
ATOM     70  O   UNL A   1      50.705  26.835  32.953  1.00  0.00    -0.237 OA
ATOM     71  O   UNL A   1      49.370  24.954  33.838  1.00  0.00    -0.237 OA
ATOM     72  O   UNL A   1      49.996  25.006  31.454  1.00  0.00    -0.744 OA
ENDBRANCH  68  69
ENDBRANCH  49  63
BRANCH  50  73
ATOM     73  C   UNL A   1      37.278  32.826  29.963  1.00  0.00    -0.014 A 
ATOM     74  C   UNL A   1      36.252  32.790  30.923  1.00  0.00     0.010 A 
ATOM     75  C   UNL A   1      37.073  33.542  28.769  1.00  0.00     0.010 A 
ATOM     76  C   UNL A   1      35.039  33.442  30.689  1.00  0.00     0.020 A 
ATOM     77  C   UNL A   1      35.870  34.215  28.542  1.00  0.00     0.020 A 
ATOM     78  C   UNL A   1      34.855  34.153  29.500  1.00  0.00     0.054 A 
BRANCH  78  79
ATOM     79  S   UNL A   1      33.293  35.039  29.240  1.00  0.00     0.124 S 
ATOM     80  O   UNL A   1      33.754  36.329  28.738  1.00  0.00    -0.237 OA
ATOM     81  O   UNL A   1      32.606  34.191  28.268  1.00  0.00    -0.237 OA
ATOM     82  O   UNL A   1      32.689  35.061  30.570  1.00  0.00    -0.744 OA
ENDBRANCH  78  79
ENDBRANCH  50  73
BRANCH  62  83
ATOM     83  C   UNL A   1      43.050  34.548  33.471  1.00  0.00    -0.014 A 
ATOM     84  C   UNL A   1      42.871  34.650  34.861  1.00  0.00     0.010 A 
ATOM     85  C   UNL A   1      43.669  35.603  32.777  1.00  0.00     0.010 A 
ATOM     86  C   UNL A   1      43.281  35.801  35.541  1.00  0.00     0.020 A 
ATOM     87  C   UNL A   1      44.102  36.744  33.458  1.00  0.00     0.020 A 
ATOM     88  C   UNL A   1      43.892  36.841  34.835  1.00  0.00     0.054 A 
BRANCH  88  89
ATOM     89  S   UNL A   1      44.459  38.303  35.745  1.00  0.00     0.124 S 
ATOM     90  O   UNL A   1      43.926  39.394  34.932  1.00  0.00    -0.237 OA
ATOM     91  O   UNL A   1      43.833  38.132  37.054  1.00  0.00    -0.237 OA
ATOM     92  O   UNL A   1      45.915  38.173  35.737  1.00  0.00    -0.744 OA
ENDBRANCH  88  89
ENDBRANCH  62  83
ENDBRANCH  36  37
ENDBRANCH  28  31
ENDBRANCH  26  27
ENDBRANCH  25  26
ENDBRANCH   1  25
TORSDOF 17
ENDMDL
