MODEL 1
REMARK VINA RESULT:     -11.1      0.000      0.000
REMARK SMILES COc1ncccc1Cn1ccc(C(=O)NCCCCNC(=O)c2ccc(-c3c4nc(c(-c5ccc(S(=O)(=O)[O-])cc5)c5ccc([nH]5)c(-c5ccc(S(=O)(=O)[O-])cc5)c5nc(c(-c6ccc(S(=O)(=O)[O-])cc6)c6ccc3[nH]6)C=C5)C=C4)cc2)n1
REMARK SMILES IDX 18 1 17 2 16 3 14 4 15 5 13 7 10 8 11 9 84 10 12 11 9 12
REMARK SMILES IDX 8 13 3 14 4 15 5 16 7 17 6 18 2 19 1 20 19 21 20 22 21 23
REMARK SMILES IDX 22 24 23 26 24 27 25 28 83 29 26 30 82 31 27 32 28 33 29 34
REMARK SMILES IDX 76 35 30 36 81 37 75 38 77 39 31 40 80 41 74 42 73 43 32 45
REMARK SMILES IDX 62 46 43 47 61 48 44 49 47 50 60 51 78 52 45 53 46 54 59 56
REMARK SMILES IDX 79 57 48 58 33 59 34 60 42 61 35 62 41 63 36 64 37 65 38 66
REMARK SMILES IDX 39 67 40 68 63 69 64 70 72 71 65 72 71 73 66 74 67 75 68 76
REMARK SMILES IDX 69 77 70 78 49 79 50 80 58 81 51 82 57 83 52 84 53 85 54 86
REMARK SMILES IDX 55 87 56 88
REMARK H PARENT 16 6 21 25 77 44 47 55
REMARK Flexibility Score: inf
ROOT
ATOM      1  C   UNL A   1      41.555  19.222  26.066  1.00  0.00     0.023 C 
ENDROOT
BRANCH   1   2
ATOM      2  C   UNL A   1      43.068  19.386  26.199  1.00  0.00     0.116 C 
BRANCH   2   3
ATOM      3  N   UNL A   1      43.749  18.803  25.061  1.00  0.00    -0.351 N 
ATOM      4  C   UNL A   1      44.537  19.408  24.110  1.00  0.00     0.271 C 
ATOM      5  O   UNL A   1      44.989  18.710  23.202  1.00  0.00    -0.267 OA
ATOM      6  H   UNL A   1      43.630  17.832  24.953  1.00  0.00     0.163 HD
BRANCH   4   7
ATOM      7  C   UNL A   1      44.929  20.814  24.277  1.00  0.00     0.150 A 
ATOM      8  N   UNL A   1      44.847  22.913  24.650  1.00  0.00    -0.267 N 
ATOM      9  C   UNL A   1      46.130  22.548  24.941  1.00  0.00     0.110 A 
ATOM     10  N   UNL A   1      44.088  21.871  24.242  1.00  0.00    -0.167 NA
ATOM     11  C   UNL A   1      46.249  21.231  24.583  1.00  0.00     0.056 A 
BRANCH   8  12
ATOM     12  C   UNL A   1      44.236  24.213  24.924  1.00  0.00     0.185 C 
BRANCH  12  13
ATOM     13  C   UNL A   1      44.172  24.539  26.389  1.00  0.00     0.036 A 
ATOM     14  C   UNL A   1      45.043  25.444  26.993  1.00  0.00     0.218 A 
ATOM     15  N   UNL A   1      45.032  25.746  28.312  1.00  0.00    -0.222 NA
ATOM     16  C   UNL A   1      44.112  25.114  29.073  1.00  0.00     0.115 A 
ATOM     17  C   UNL A   1      43.239  23.902  27.219  1.00  0.00     0.013 A 
ATOM     18  C   UNL A   1      43.216  24.180  28.582  1.00  0.00     0.021 A 
BRANCH  14  19
ATOM     19  O   UNL A   1      46.145  25.886  26.307  1.00  0.00    -0.481 OA
ATOM     20  C   UNL A   1      46.786  26.966  26.972  1.00  0.00     0.280 C 
ENDBRANCH  14  19
ENDBRANCH  12  13
ENDBRANCH   8  12
ENDBRANCH   4   7
ENDBRANCH   2   3
ENDBRANCH   1   2
BRANCH   1  21
ATOM     21  C   UNL A   1      40.729  20.248  26.859  1.00  0.00     0.023 C 
BRANCH  21  22
ATOM     22  C   UNL A   1      40.795  21.672  26.318  1.00  0.00     0.116 C 
BRANCH  22  23
ATOM     23  N   UNL A   1      39.536  22.100  25.716  1.00  0.00    -0.352 N 
ATOM     24  C   UNL A   1      38.761  23.198  26.048  1.00  0.00     0.251 C 
ATOM     25  H   UNL A   1      39.195  21.538  24.984  1.00  0.00     0.163 HD
ATOM     26  O   UNL A   1      37.572  23.222  25.781  1.00  0.00    -0.269 OA
BRANCH  24  27
ATOM     27  C   UNL A   1      39.408  24.343  26.721  1.00  0.00     0.039 A 
ATOM     28  C   UNL A   1      40.100  25.314  25.996  1.00  0.00     0.014 A 
ATOM     29  C   UNL A   1      39.296  24.437  28.107  1.00  0.00     0.014 A 
ATOM     30  C   UNL A   1      40.603  26.424  26.674  1.00  0.00     0.010 A 
ATOM     31  C   UNL A   1      39.672  25.590  28.753  1.00  0.00     0.010 A 
ATOM     32  C   UNL A   1      40.362  26.570  28.051  1.00  0.00    -0.014 A 
BRANCH  32  33
ATOM     33  C   UNL A   1      40.721  27.803  28.744  1.00  0.00     0.031 A 
ATOM     34  C   UNL A   1      41.988  28.425  28.280  1.00  0.00     0.074 A 
ATOM     35  C   UNL A   1      39.907  28.456  29.601  1.00  0.00     0.049 A 
ATOM     36  N   UNL A   1      43.123  28.424  28.895  1.00  0.00    -0.248 NA
ATOM     37  C   UNL A   1      42.051  28.979  26.918  1.00  0.00     0.031 C 
ATOM     38  C   UNL A   1      38.509  28.166  29.943  1.00  0.00     0.029 A 
ATOM     39  N   UNL A   1      40.145  29.607  30.287  1.00  0.00    -0.354 N 
ATOM     40  C   UNL A   1      43.990  29.174  28.109  1.00  0.00     0.074 A 
ATOM     41  C   UNL A   1      43.338  29.330  26.833  1.00  0.00     0.031 C 
ATOM     42  C   UNL A   1      37.965  29.232  30.574  1.00  0.00     0.029 A 
ATOM     43  C   UNL A   1      39.015  30.196  30.844  1.00  0.00     0.049 A 
ATOM     44  H   UNL A   1      41.046  29.994  30.381  1.00  0.00     0.167 HD
ATOM     45  C   UNL A   1      45.070  29.805  28.650  1.00  0.00     0.031 A 
ATOM     46  C   UNL A   1      38.949  31.396  31.475  1.00  0.00     0.031 A 
ATOM     47  C   UNL A   1      45.302  29.385  30.008  1.00  0.00     0.049 A 
ATOM     48  C   UNL A   1      40.322  31.713  31.936  1.00  0.00     0.074 A 
ATOM     49  C   UNL A   1      45.591  28.183  30.623  1.00  0.00     0.029 A 
ATOM     50  N   UNL A   1      44.830  30.218  30.997  1.00  0.00    -0.354 N 
ATOM     51  N   UNL A   1      40.948  31.017  32.844  1.00  0.00    -0.248 NA
ATOM     52  C   UNL A   1      41.172  32.513  31.071  1.00  0.00     0.031 C 
ATOM     53  C   UNL A   1      44.836  28.202  31.832  1.00  0.00     0.029 A 
ATOM     54  C   UNL A   1      44.196  29.439  31.930  1.00  0.00     0.049 A 
ATOM     55  H   UNL A   1      44.931  31.197  31.029  1.00  0.00     0.167 HD
ATOM     56  C   UNL A   1      42.256  30.936  32.390  1.00  0.00     0.074 A 
ATOM     57  C   UNL A   1      42.356  31.960  31.350  1.00  0.00     0.031 C 
ATOM     58  C   UNL A   1      43.049  29.869  32.705  1.00  0.00     0.031 A 
BRANCH  45  59
ATOM     59  C   UNL A   1      45.671  31.080  28.114  1.00  0.00    -0.014 A 
ATOM     60  C   UNL A   1      44.892  32.255  28.134  1.00  0.00     0.010 A 
ATOM     61  C   UNL A   1      46.854  31.108  27.348  1.00  0.00     0.010 A 
ATOM     62  C   UNL A   1      45.246  33.378  27.376  1.00  0.00     0.020 A 
ATOM     63  C   UNL A   1      47.239  32.237  26.622  1.00  0.00     0.020 A 
ATOM     64  C   UNL A   1      46.416  33.355  26.616  1.00  0.00     0.054 A 
BRANCH  64  65
ATOM     65  S   UNL A   1      46.820  34.780  25.577  1.00  0.00     0.124 S 
ATOM     66  O   UNL A   1      46.701  35.886  26.522  1.00  0.00    -0.237 OA
ATOM     67  O   UNL A   1      48.176  34.465  25.135  1.00  0.00    -0.237 OA
ATOM     68  O   UNL A   1      45.802  34.738  24.529  1.00  0.00    -0.744 OA
ENDBRANCH  64  65
ENDBRANCH  45  59
BRANCH  46  69
ATOM     69  C   UNL A   1      37.864  32.409  31.438  1.00  0.00    -0.014 A 
ATOM     70  C   UNL A   1      36.712  32.209  30.652  1.00  0.00     0.010 A 
ATOM     71  C   UNL A   1      37.821  33.428  32.411  1.00  0.00     0.010 A 
ATOM     72  C   UNL A   1      35.538  32.946  30.884  1.00  0.00     0.020 A 
ATOM     73  C   UNL A   1      36.655  34.171  32.644  1.00  0.00     0.020 A 
ATOM     74  C   UNL A   1      35.509  33.907  31.897  1.00  0.00     0.054 A 
BRANCH  74  75
ATOM     75  S   UNL A   1      33.935  34.715  32.322  1.00  0.00     0.124 S 
ATOM     76  O   UNL A   1      33.351  34.968  31.010  1.00  0.00    -0.237 OA
ATOM     77  O   UNL A   1      33.264  33.699  33.128  1.00  0.00    -0.237 OA
ATOM     78  O   UNL A   1      34.351  35.909  33.058  1.00  0.00    -0.744 OA
ENDBRANCH  74  75
ENDBRANCH  46  69
BRANCH  58  79
ATOM     79  C   UNL A   1      42.601  28.935  33.807  1.00  0.00    -0.014 A 
ATOM     80  C   UNL A   1      41.777  27.809  33.611  1.00  0.00     0.010 A 
ATOM     81  C   UNL A   1      43.170  29.133  35.078  1.00  0.00     0.010 A 
ATOM     82  C   UNL A   1      41.514  26.921  34.668  1.00  0.00     0.020 A 
ATOM     83  C   UNL A   1      42.928  28.245  36.127  1.00  0.00     0.020 A 
ATOM     84  C   UNL A   1      42.092  27.147  35.921  1.00  0.00     0.054 A 
BRANCH  84  85
ATOM     85  S   UNL A   1      41.786  25.980  37.277  1.00  0.00     0.124 S 
ATOM     86  O   UNL A   1      42.793  26.367  38.262  1.00  0.00    -0.237 OA
ATOM     87  O   UNL A   1      40.402  26.267  37.648  1.00  0.00    -0.237 OA
ATOM     88  O   UNL A   1      41.994  24.669  36.664  1.00  0.00    -0.744 OA
ENDBRANCH  84  85
ENDBRANCH  58  79
ENDBRANCH  32  33
ENDBRANCH  24  27
ENDBRANCH  22  23
ENDBRANCH  21  22
ENDBRANCH   1  21
TORSDOF 17
ENDMDL
MODEL 2
REMARK VINA RESULT:     -10.7      3.159     12.280
REMARK SMILES COc1ncccc1Cn1ccc(C(=O)NCCCCNC(=O)c2ccc(-c3c4nc(c(-c5ccc(S(=O)(=O)[O-])cc5)c5ccc([nH]5)c(-c5ccc(S(=O)(=O)[O-])cc5)c5nc(c(-c6ccc(S(=O)(=O)[O-])cc6)c6ccc3[nH]6)C=C5)C=C4)cc2)n1
REMARK SMILES IDX 18 1 17 2 16 3 14 4 15 5 13 7 10 8 11 9 84 10 12 11 9 12
REMARK SMILES IDX 8 13 3 14 4 15 5 16 7 17 6 18 2 19 1 20 19 21 20 22 21 23
REMARK SMILES IDX 22 24 23 26 24 27 25 28 83 29 26 30 82 31 27 32 28 33 29 34
REMARK SMILES IDX 76 35 30 36 81 37 75 38 77 39 31 40 80 41 74 42 73 43 32 45
REMARK SMILES IDX 62 46 43 47 61 48 44 49 47 50 60 51 78 52 45 53 46 54 59 56
REMARK SMILES IDX 79 57 48 58 33 59 34 60 42 61 35 62 41 63 36 64 37 65 38 66
REMARK SMILES IDX 39 67 40 68 63 69 64 70 72 71 65 72 71 73 66 74 67 75 68 76
REMARK SMILES IDX 69 77 70 78 49 79 50 80 58 81 51 82 57 83 52 84 53 85 54 86
REMARK SMILES IDX 55 87 56 88
REMARK H PARENT 16 6 21 25 77 44 47 55
REMARK Flexibility Score: inf
ROOT
ATOM      1  C   UNL A   1      34.277  35.924  28.601  1.00  0.00     0.023 C 
ENDROOT
BRANCH   1   2
ATOM      2  C   UNL A   1      33.092  35.809  29.559  1.00  0.00     0.116 C 
BRANCH   2   3
ATOM      3  N   UNL A   1      33.077  36.918  30.492  1.00  0.00    -0.351 N 
ATOM      4  C   UNL A   1      33.433  36.947  31.820  1.00  0.00     0.271 C 
ATOM      5  O   UNL A   1      33.303  38.007  32.432  1.00  0.00    -0.267 OA
ATOM      6  H   UNL A   1      32.766  37.774  30.121  1.00  0.00     0.163 HD
BRANCH   4   7
ATOM      7  C   UNL A   1      34.081  35.776  32.426  1.00  0.00     0.150 A 
ATOM      8  N   UNL A   1      35.430  34.550  33.535  1.00  0.00    -0.267 N 
ATOM      9  C   UNL A   1      34.257  33.851  33.500  1.00  0.00     0.110 A 
ATOM     10  N   UNL A   1      35.350  35.734  32.887  1.00  0.00    -0.167 NA
ATOM     11  C   UNL A   1      33.412  34.552  32.680  1.00  0.00     0.056 A 
BRANCH   8  12
ATOM     12  C   UNL A   1      36.607  34.221  34.337  1.00  0.00     0.185 C 
BRANCH  12  13
ATOM     13  C   UNL A   1      37.871  34.144  33.528  1.00  0.00     0.036 A 
ATOM     14  C   UNL A   1      39.068  34.718  33.953  1.00  0.00     0.218 A 
ATOM     15  N   UNL A   1      40.220  34.690  33.243  1.00  0.00    -0.222 NA
ATOM     16  C   UNL A   1      40.181  34.065  32.046  1.00  0.00     0.115 A 
ATOM     17  C   UNL A   1      37.877  33.513  32.277  1.00  0.00     0.013 A 
ATOM     18  C   UNL A   1      39.041  33.484  31.517  1.00  0.00     0.021 A 
BRANCH  14  19
ATOM     19  O   UNL A   1      39.067  35.581  35.019  1.00  0.00    -0.481 OA
ATOM     20  C   UNL A   1      40.383  35.870  35.470  1.00  0.00     0.280 C 
ENDBRANCH  14  19
ENDBRANCH  12  13
ENDBRANCH   8  12
ENDBRANCH   4   7
ENDBRANCH   2   3
ENDBRANCH   1   2
BRANCH   1  21
ATOM     21  C   UNL A   1      35.338  34.823  28.763  1.00  0.00     0.023 C 
BRANCH  21  22
ATOM     22  C   UNL A   1      34.856  33.580  29.502  1.00  0.00     0.116 C 
BRANCH  22  23
ATOM     23  N   UNL A   1      34.148  32.650  28.628  1.00  0.00    -0.352 N 
ATOM     24  C   UNL A   1      34.664  31.572  27.931  1.00  0.00     0.251 C 
ATOM     25  H   UNL A   1      33.183  32.809  28.522  1.00  0.00     0.163 HD
ATOM     26  O   UNL A   1      34.093  31.140  26.945  1.00  0.00    -0.269 OA
BRANCH  24  27
ATOM     27  C   UNL A   1      35.913  30.949  28.414  1.00  0.00     0.039 A 
ATOM     28  C   UNL A   1      35.960  29.602  28.777  1.00  0.00     0.014 A 
ATOM     29  C   UNL A   1      37.056  31.743  28.486  1.00  0.00     0.014 A 
ATOM     30  C   UNL A   1      37.189  29.045  29.128  1.00  0.00     0.010 A 
ATOM     31  C   UNL A   1      38.285  31.167  28.701  1.00  0.00     0.010 A 
ATOM     32  C   UNL A   1      38.355  29.828  29.063  1.00  0.00    -0.014 A 
BRANCH  32  33
ATOM     33  C   UNL A   1      39.669  29.224  29.253  1.00  0.00     0.031 A 
ATOM     34  C   UNL A   1      40.067  29.043  30.673  1.00  0.00     0.074 A 
ATOM     35  C   UNL A   1      40.409  28.687  28.258  1.00  0.00     0.049 A 
ATOM     36  N   UNL A   1      40.927  29.742  31.333  1.00  0.00    -0.248 NA
ATOM     37  C   UNL A   1      39.324  28.079  31.501  1.00  0.00     0.031 C 
ATOM     38  C   UNL A   1      40.049  28.494  26.848  1.00  0.00     0.029 A 
ATOM     39  N   UNL A   1      41.633  28.099  28.333  1.00  0.00    -0.354 N 
ATOM     40  C   UNL A   1      41.006  29.168  32.596  1.00  0.00     0.074 A 
ATOM     41  C   UNL A   1      39.877  28.278  32.701  1.00  0.00     0.031 C 
ATOM     42  C   UNL A   1      40.923  27.638  26.270  1.00  0.00     0.029 A 
ATOM     43  C   UNL A   1      41.998  27.371  27.206  1.00  0.00     0.049 A 
ATOM     44  H   UNL A   1      42.215  28.181  29.123  1.00  0.00     0.167 HD
ATOM     45  C   UNL A   1      42.126  29.294  33.363  1.00  0.00     0.031 A 
ATOM     46  C   UNL A   1      43.104  26.597  27.059  1.00  0.00     0.031 A 
ATOM     47  C   UNL A   1      43.036  30.265  32.812  1.00  0.00     0.049 A 
ATOM     48  C   UNL A   1      44.093  27.072  28.056  1.00  0.00     0.074 A 
ATOM     49  C   UNL A   1      42.973  31.616  32.533  1.00  0.00     0.029 A 
ATOM     50  N   UNL A   1      44.088  29.770  32.075  1.00  0.00    -0.354 N 
ATOM     51  N   UNL A   1      44.640  28.255  28.011  1.00  0.00    -0.248 NA
ATOM     52  C   UNL A   1      44.132  26.418  29.353  1.00  0.00     0.031 C 
ATOM     53  C   UNL A   1      43.668  31.765  31.297  1.00  0.00     0.029 A 
ATOM     54  C   UNL A   1      44.185  30.520  30.932  1.00  0.00     0.049 A 
ATOM     55  H   UNL A   1      44.667  29.014  32.325  1.00  0.00     0.167 HD
ATOM     56  C   UNL A   1      44.685  28.675  29.332  1.00  0.00     0.074 A 
ATOM     57  C   UNL A   1      44.454  27.464  30.119  1.00  0.00     0.031 C 
ATOM     58  C   UNL A   1      44.631  30.001  29.654  1.00  0.00     0.031 A 
BRANCH  45  59
ATOM     59  C   UNL A   1      42.589  28.275  34.373  1.00  0.00    -0.014 A 
ATOM     60  C   UNL A   1      42.326  28.510  35.739  1.00  0.00     0.010 A 
ATOM     61  C   UNL A   1      43.503  27.248  34.064  1.00  0.00     0.010 A 
ATOM     62  C   UNL A   1      42.991  27.796  36.743  1.00  0.00     0.020 A 
ATOM     63  C   UNL A   1      44.140  26.501  35.057  1.00  0.00     0.020 A 
ATOM     64  C   UNL A   1      43.903  26.801  36.392  1.00  0.00     0.054 A 
BRANCH  64  65
ATOM     65  S   UNL A   1      44.816  25.943  37.697  1.00  0.00     0.124 S 
ATOM     66  O   UNL A   1      44.294  24.584  37.587  1.00  0.00    -0.237 OA
ATOM     67  O   UNL A   1      46.202  26.126  37.274  1.00  0.00    -0.237 OA
ATOM     68  O   UNL A   1      44.438  26.664  38.910  1.00  0.00    -0.744 OA
ENDBRANCH  64  65
ENDBRANCH  45  59
BRANCH  46  69
ATOM     69  C   UNL A   1      43.248  25.305  26.342  1.00  0.00    -0.014 A 
ATOM     70  C   UNL A   1      44.204  25.146  25.318  1.00  0.00     0.010 A 
ATOM     71  C   UNL A   1      42.659  24.139  26.871  1.00  0.00     0.010 A 
ATOM     72  C   UNL A   1      44.610  23.869  24.896  1.00  0.00     0.020 A 
ATOM     73  C   UNL A   1      43.055  22.861  26.451  1.00  0.00     0.020 A 
ATOM     74  C   UNL A   1      44.050  22.732  25.484  1.00  0.00     0.054 A 
BRANCH  74  75
ATOM     75  S   UNL A   1      44.720  21.090  25.076  1.00  0.00     0.124 S 
ATOM     76  O   UNL A   1      46.079  21.170  25.600  1.00  0.00    -0.237 OA
ATOM     77  O   UNL A   1      43.818  20.192  25.791  1.00  0.00    -0.237 OA
ATOM     78  O   UNL A   1      44.619  21.031  23.618  1.00  0.00    -0.744 OA
ENDBRANCH  74  75
ENDBRANCH  46  69
BRANCH  58  79
ATOM     79  C   UNL A   1      44.840  31.022  28.557  1.00  0.00    -0.014 A 
ATOM     80  C   UNL A   1      43.846  31.423  27.642  1.00  0.00     0.010 A 
ATOM     81  C   UNL A   1      46.066  31.710  28.556  1.00  0.00     0.010 A 
ATOM     82  C   UNL A   1      44.087  32.470  26.737  1.00  0.00     0.020 A 
ATOM     83  C   UNL A   1      46.305  32.764  27.671  1.00  0.00     0.020 A 
ATOM     84  C   UNL A   1      45.318  33.133  26.758  1.00  0.00     0.054 A 
BRANCH  84  85
ATOM     85  S   UNL A   1      45.618  34.512  25.616  1.00  0.00     0.124 S 
ATOM     86  O   UNL A   1      44.775  34.167  24.474  1.00  0.00    -0.237 OA
ATOM     87  O   UNL A   1      45.185  35.675  26.389  1.00  0.00    -0.237 OA
ATOM     88  O   UNL A   1      47.056  34.450  25.362  1.00  0.00    -0.744 OA
ENDBRANCH  84  85
ENDBRANCH  58  79
ENDBRANCH  32  33
ENDBRANCH  24  27
ENDBRANCH  22  23
ENDBRANCH  21  22
ENDBRANCH   1  21
TORSDOF 17
ENDMDL
MODEL 3
REMARK VINA RESULT:     -10.4      4.131     11.105
REMARK SMILES COc1ncccc1Cn1ccc(C(=O)NCCCCNC(=O)c2ccc(-c3c4nc(c(-c5ccc(S(=O)(=O)[O-])cc5)c5ccc([nH]5)c(-c5ccc(S(=O)(=O)[O-])cc5)c5nc(c(-c6ccc(S(=O)(=O)[O-])cc6)c6ccc3[nH]6)C=C5)C=C4)cc2)n1
REMARK SMILES IDX 18 1 17 2 16 3 14 4 15 5 13 7 10 8 11 9 84 10 12 11 9 12
REMARK SMILES IDX 8 13 3 14 4 15 5 16 7 17 6 18 2 19 1 20 19 21 20 22 21 23
REMARK SMILES IDX 22 24 23 26 24 27 25 28 83 29 26 30 82 31 27 32 28 33 29 34
REMARK SMILES IDX 76 35 30 36 81 37 75 38 77 39 31 40 80 41 74 42 73 43 32 45
REMARK SMILES IDX 62 46 43 47 61 48 44 49 47 50 60 51 78 52 45 53 46 54 59 56
REMARK SMILES IDX 79 57 48 58 33 59 34 60 42 61 35 62 41 63 36 64 37 65 38 66
REMARK SMILES IDX 39 67 40 68 63 69 64 70 72 71 65 72 71 73 66 74 67 75 68 76
REMARK SMILES IDX 69 77 70 78 49 79 50 80 58 81 51 82 57 83 52 84 53 85 54 86
REMARK SMILES IDX 55 87 56 88
REMARK H PARENT 16 6 21 25 77 44 47 55
REMARK Flexibility Score: inf
ROOT
ATOM      1  C   UNL A   1      32.741  27.599  26.322  1.00  0.00     0.023 C 
ENDROOT
BRANCH   1   2
ATOM      2  C   UNL A   1      31.371  27.050  25.928  1.00  0.00     0.116 C 
BRANCH   2   3
ATOM      3  N   UNL A   1      30.897  27.680  24.712  1.00  0.00    -0.351 N 
ATOM      4  C   UNL A   1      30.879  27.194  23.425  1.00  0.00     0.271 C 
ATOM      5  O   UNL A   1      30.457  27.929  22.533  1.00  0.00    -0.267 OA
ATOM      6  H   UNL A   1      30.537  28.589  24.823  1.00  0.00     0.163 HD
BRANCH   4   7
ATOM      7  C   UNL A   1      31.222  25.787  23.174  1.00  0.00     0.150 A 
ATOM      8  N   UNL A   1      32.336  24.001  22.828  1.00  0.00    -0.267 N 
ATOM      9  C   UNL A   1      31.161  23.587  23.389  1.00  0.00     0.110 A 
ATOM     10  N   UNL A   1      32.402  25.344  22.687  1.00  0.00    -0.167 NA
ATOM     11  C   UNL A   1      30.371  24.701  23.498  1.00  0.00     0.056 A 
BRANCH   8  12
ATOM     12  C   UNL A   1      33.514  23.171  22.581  1.00  0.00     0.185 C 
BRANCH  12  13
ATOM     13  C   UNL A   1      34.351  22.952  23.809  1.00  0.00     0.036 A 
ATOM     14  C   UNL A   1      34.393  21.729  24.478  1.00  0.00     0.218 A 
ATOM     15  N   UNL A   1      35.115  21.499  25.598  1.00  0.00    -0.222 NA
ATOM     16  C   UNL A   1      35.830  22.537  26.085  1.00  0.00     0.115 A 
ATOM     17  C   UNL A   1      35.103  24.001  24.354  1.00  0.00     0.013 A 
ATOM     18  C   UNL A   1      35.841  23.799  25.516  1.00  0.00     0.021 A 
BRANCH  14  19
ATOM     19  O   UNL A   1      33.479  20.754  24.167  1.00  0.00    -0.481 OA
ATOM     20  C   UNL A   1      32.474  20.632  25.165  1.00  0.00     0.280 C 
ENDBRANCH  14  19
ENDBRANCH  12  13
ENDBRANCH   8  12
ENDBRANCH   4   7
ENDBRANCH   2   3
ENDBRANCH   1   2
BRANCH   1  21
ATOM     21  C   UNL A   1      32.698  28.926  27.098  1.00  0.00     0.023 C 
BRANCH  21  22
ATOM     22  C   UNL A   1      33.841  29.884  26.782  1.00  0.00     0.116 C 
BRANCH  22  23
ATOM     23  N   UNL A   1      33.740  31.138  27.522  1.00  0.00    -0.352 N 
ATOM     24  C   UNL A   1      34.610  31.639  28.475  1.00  0.00     0.251 C 
ATOM     25  H   UNL A   1      32.956  31.697  27.319  1.00  0.00     0.163 HD
ATOM     26  O   UNL A   1      34.227  32.452  29.298  1.00  0.00    -0.269 OA
BRANCH  24  27
ATOM     27  C   UNL A   1      36.013  31.176  28.466  1.00  0.00     0.039 A 
ATOM     28  C   UNL A   1      37.050  31.996  28.911  1.00  0.00     0.014 A 
ATOM     29  C   UNL A   1      36.274  29.885  28.010  1.00  0.00     0.014 A 
ATOM     30  C   UNL A   1      38.340  31.471  28.974  1.00  0.00     0.010 A 
ATOM     31  C   UNL A   1      37.515  29.326  28.197  1.00  0.00     0.010 A 
ATOM     32  C   UNL A   1      38.562  30.123  28.640  1.00  0.00    -0.014 A 
BRANCH  32  33
ATOM     33  C   UNL A   1      39.864  29.504  28.867  1.00  0.00     0.031 A 
ATOM     34  C   UNL A   1      40.216  29.316  30.298  1.00  0.00     0.074 A 
ATOM     35  C   UNL A   1      40.626  28.960  27.894  1.00  0.00     0.049 A 
ATOM     36  N   UNL A   1      41.064  30.005  30.985  1.00  0.00    -0.248 NA
ATOM     37  C   UNL A   1      39.438  28.359  31.102  1.00  0.00     0.031 C 
ATOM     38  C   UNL A   1      40.307  28.774  26.473  1.00  0.00     0.029 A 
ATOM     39  N   UNL A   1      41.841  28.358  28.004  1.00  0.00    -0.354 N 
ATOM     40  C   UNL A   1      41.099  29.427  32.249  1.00  0.00     0.074 A 
ATOM     41  C   UNL A   1      39.958  28.549  32.318  1.00  0.00     0.031 C 
ATOM     42  C   UNL A   1      41.187  27.908  25.919  1.00  0.00     0.029 A 
ATOM     43  C   UNL A   1      42.232  27.628  26.887  1.00  0.00     0.049 A 
ATOM     44  H   UNL A   1      42.400  28.432  28.811  1.00  0.00     0.167 HD
ATOM     45  C   UNL A   1      42.197  29.540  33.048  1.00  0.00     0.031 A 
ATOM     46  C   UNL A   1      43.333  26.843  26.771  1.00  0.00     0.031 A 
ATOM     47  C   UNL A   1      43.134  30.501  32.526  1.00  0.00     0.049 A 
ATOM     48  C   UNL A   1      44.297  27.304  27.798  1.00  0.00     0.074 A 
ATOM     49  C   UNL A   1      43.094  31.853  32.249  1.00  0.00     0.029 A 
ATOM     50  N   UNL A   1      44.202  29.996  31.821  1.00  0.00    -0.354 N 
ATOM     51  N   UNL A   1      44.858  28.481  27.771  1.00  0.00    -0.248 NA
ATOM     52  C   UNL A   1      44.290  26.647  29.094  1.00  0.00     0.031 C 
ATOM     53  C   UNL A   1      43.828  31.996  31.034  1.00  0.00     0.029 A 
ATOM     54  C   UNL A   1      44.342  30.747  30.683  1.00  0.00     0.049 A 
ATOM     55  H   UNL A   1      44.765  29.233  32.086  1.00  0.00     0.167 HD
ATOM     56  C   UNL A   1      44.868  28.898  29.094  1.00  0.00     0.074 A 
ATOM     57  C   UNL A   1      44.600  27.689  29.872  1.00  0.00     0.031 C 
ATOM     58  C   UNL A   1      44.819  30.225  29.417  1.00  0.00     0.031 A 
BRANCH  45  59
ATOM     59  C   UNL A   1      42.619  28.514  34.070  1.00  0.00    -0.014 A 
ATOM     60  C   UNL A   1      43.211  27.316  33.620  1.00  0.00     0.010 A 
ATOM     61  C   UNL A   1      42.209  28.560  35.418  1.00  0.00     0.010 A 
ATOM     62  C   UNL A   1      43.329  26.201  34.458  1.00  0.00     0.020 A 
ATOM     63  C   UNL A   1      42.361  27.467  36.275  1.00  0.00     0.020 A 
ATOM     64  C   UNL A   1      42.893  26.283  35.781  1.00  0.00     0.054 A 
BRANCH  64  65
ATOM     65  S   UNL A   1      42.974  24.812  36.830  1.00  0.00     0.124 S 
ATOM     66  O   UNL A   1      43.685  25.316  38.001  1.00  0.00    -0.237 OA
ATOM     67  O   UNL A   1      41.563  24.497  37.030  1.00  0.00    -0.237 OA
ATOM     68  O   UNL A   1      43.713  23.851  36.013  1.00  0.00    -0.744 OA
ENDBRANCH  64  65
ENDBRANCH  45  59
BRANCH  46  69
ATOM     69  C   UNL A   1      43.483  25.550  26.056  1.00  0.00    -0.014 A 
ATOM     70  C   UNL A   1      44.621  25.286  25.267  1.00  0.00     0.010 A 
ATOM     71  C   UNL A   1      42.658  24.459  26.396  1.00  0.00     0.010 A 
ATOM     72  C   UNL A   1      44.960  23.973  24.898  1.00  0.00     0.020 A 
ATOM     73  C   UNL A   1      42.987  23.147  26.027  1.00  0.00     0.020 A 
ATOM     74  C   UNL A   1      44.153  22.907  25.302  1.00  0.00     0.054 A 
BRANCH  74  75
ATOM     75  S   UNL A   1      44.701  21.200  24.993  1.00  0.00     0.124 S 
ATOM     76  O   UNL A   1      46.065  21.213  25.510  1.00  0.00    -0.237 OA
ATOM     77  O   UNL A   1      43.741  20.413  25.761  1.00  0.00    -0.237 OA
ATOM     78  O   UNL A   1      44.588  21.061  23.541  1.00  0.00    -0.744 OA
ENDBRANCH  74  75
ENDBRANCH  46  69
BRANCH  58  79
ATOM     79  C   UNL A   1      45.073  31.245  28.329  1.00  0.00    -0.014 A 
ATOM     80  C   UNL A   1      44.103  31.680  27.404  1.00  0.00     0.010 A 
ATOM     81  C   UNL A   1      46.318  31.897  28.348  1.00  0.00     0.010 A 
ATOM     82  C   UNL A   1      44.386  32.724  26.508  1.00  0.00     0.020 A 
ATOM     83  C   UNL A   1      46.599  32.948  27.473  1.00  0.00     0.020 A 
ATOM     84  C   UNL A   1      45.635  33.350  26.548  1.00  0.00     0.054 A 
BRANCH  84  85
ATOM     85  S   UNL A   1      45.990  34.727  25.419  1.00  0.00     0.124 S 
ATOM     86  O   UNL A   1      45.117  34.438  24.284  1.00  0.00    -0.237 OA
ATOM     87  O   UNL A   1      45.626  35.900  26.210  1.00  0.00    -0.237 OA
ATOM     88  O   UNL A   1      47.421  34.595  25.146  1.00  0.00    -0.744 OA
ENDBRANCH  84  85
ENDBRANCH  58  79
ENDBRANCH  32  33
ENDBRANCH  24  27
ENDBRANCH  22  23
ENDBRANCH  21  22
ENDBRANCH   1  21
TORSDOF 17
ENDMDL
