MODEL 1
REMARK VINA RESULT:     -11.9      0.000      0.000
REMARK SMILES CS(=O)(=O)c1ccc(/C=C(/C(=O)NCCCCNC(=O)c2ccc(-c3c4nc(c(-c5ccc(S(=O)(=O)[O-])cc5)c5ccc([nH]5)c(-c5ccc(S(=O)(=O)[O-])cc5)c5nc(c(-c6ccc(S(=O)(=O)[O-])cc6)c6ccc3[nH]6)C=C5)C=C4)cc2)c2ccc(F)cc2)cc1
REMARK SMILES IDX 16 1 15 2 14 3 13 4 11 5 12 6 10 8 9 9 8 10 5 11 6 12 89 13
REMARK SMILES IDX 7 14 88 15 2 16 1 17 3 18 4 19 81 20 82 21 87 22 83 23 86 24
REMARK SMILES IDX 84 25 85 26 17 27 18 28 19 29 20 31 21 32 22 33 80 34 23 35
REMARK SMILES IDX 79 36 24 37 25 38 26 39 73 40 27 41 78 42 72 43 74 44 28 45
REMARK SMILES IDX 77 46 71 47 70 48 29 50 59 51 40 52 58 53 41 54 44 55 57 56
REMARK SMILES IDX 75 57 42 58 43 59 56 61 76 62 45 63 30 64 31 65 39 66 32 67
REMARK SMILES IDX 38 68 33 69 34 70 35 71 36 72 37 73 60 74 61 75 69 76 62 77
REMARK SMILES IDX 68 78 63 79 64 80 65 81 66 82 67 83 46 84 47 85 55 86 48 87
REMARK SMILES IDX 54 88 49 89 50 90 51 91 52 92 53 93
REMARK H PARENT 13 7 18 30 74 49 44 60
REMARK Flexibility Score: inf
ROOT
ATOM      1  C   UNL A   1      35.480  23.087  25.726  1.00  0.00     0.023 C 
ENDROOT
BRANCH   1   2
ATOM      2  C   UNL A   1      34.701  22.430  24.576  1.00  0.00     0.023 C 
BRANCH   2   3
ATOM      3  C   UNL A   1      33.272  22.949  24.402  1.00  0.00     0.116 C 
BRANCH   3   4
ATOM      4  N   UNL A   1      32.590  22.989  25.681  1.00  0.00    -0.352 N 
ATOM      5  C   UNL A   1      31.855  23.927  26.331  1.00  0.00     0.251 C 
ATOM      6  O   UNL A   1      31.450  23.612  27.454  1.00  0.00    -0.269 OA
ATOM      7  H   UNL A   1      32.681  22.151  26.189  1.00  0.00     0.163 HD
BRANCH   5   8
ATOM      8  C   UNL A   1      31.450  25.258  25.730  1.00  0.00     0.047 C 
ATOM      9  C   UNL A   1      30.663  25.355  24.633  1.00  0.00     0.022 C 
BRANCH   9  10
ATOM     10  C   UNL A   1      30.088  26.553  23.980  1.00  0.00    -0.025 A 
ATOM     11  C   UNL A   1      28.847  28.825  22.890  1.00  0.00     0.067 A 
ATOM     12  C   UNL A   1      30.232  28.682  22.807  1.00  0.00     0.021 A 
ATOM     13  C   UNL A   1      28.065  27.818  23.453  1.00  0.00     0.021 A 
ATOM     14  C   UNL A   1      30.843  27.539  23.334  1.00  0.00     0.009 A 
ATOM     15  C   UNL A   1      28.689  26.691  24.001  1.00  0.00     0.009 A 
BRANCH  11  16
ATOM     16  S   UNL A   1      28.071  30.279  22.227  1.00  0.00     0.175 S 
ATOM     17  C   UNL A   1      29.299  31.539  22.456  1.00  0.00     0.163 C 
ATOM     18  O   UNL A   1      26.938  30.600  23.067  1.00  0.00    -0.224 OA
ATOM     19  O   UNL A   1      27.904  30.073  20.798  1.00  0.00    -0.224 OA
ENDBRANCH  11  16
ENDBRANCH   9  10
BRANCH   8  20
ATOM     20  C   UNL A   1      32.103  26.465  26.298  1.00  0.00    -0.013 A 
ATOM     21  C   UNL A   1      33.446  26.724  25.958  1.00  0.00     0.012 A 
ATOM     22  C   UNL A   1      31.411  27.390  27.093  1.00  0.00     0.012 A 
ATOM     23  C   UNL A   1      34.075  27.896  26.375  1.00  0.00     0.040 A 
ATOM     24  C   UNL A   1      32.041  28.571  27.500  1.00  0.00     0.040 A 
ATOM     25  C   UNL A   1      33.362  28.814  27.133  1.00  0.00     0.123 A 
ATOM     26  F   UNL A   1      33.951  29.958  27.505  1.00  0.00    -0.207 F 
ENDBRANCH   8  20
ENDBRANCH   5   8
ENDBRANCH   3   4
ENDBRANCH   2   3
ENDBRANCH   1   2
BRANCH   1  27
ATOM     27  C   UNL A   1      36.833  23.685  25.343  1.00  0.00     0.116 C 
BRANCH  27  28
ATOM     28  N   UNL A   1      37.936  22.753  25.516  1.00  0.00    -0.352 N 
ATOM     29  C   UNL A   1      39.154  22.958  26.117  1.00  0.00     0.251 C 
ATOM     30  H   UNL A   1      37.789  21.850  25.154  1.00  0.00     0.163 HD
ATOM     31  O   UNL A   1      40.010  22.078  26.073  1.00  0.00    -0.269 OA
BRANCH  29  32
ATOM     32  C   UNL A   1      39.444  24.249  26.778  1.00  0.00     0.039 A 
ATOM     33  C   UNL A   1      38.980  24.451  28.079  1.00  0.00     0.014 A 
ATOM     34  C   UNL A   1      40.176  25.245  26.127  1.00  0.00     0.014 A 
ATOM     35  C   UNL A   1      39.310  25.628  28.754  1.00  0.00     0.010 A 
ATOM     36  C   UNL A   1      40.554  26.392  26.822  1.00  0.00     0.010 A 
ATOM     37  C   UNL A   1      40.130  26.592  28.145  1.00  0.00    -0.014 A 
BRANCH  37  38
ATOM     38  C   UNL A   1      40.580  27.792  28.894  1.00  0.00     0.031 A 
ATOM     39  C   UNL A   1      41.939  27.829  29.538  1.00  0.00     0.074 A 
ATOM     40  C   UNL A   1      39.735  28.832  29.039  1.00  0.00     0.049 A 
ATOM     41  N   UNL A   1      42.489  28.783  30.244  1.00  0.00    -0.248 NA
ATOM     42  C   UNL A   1      42.779  26.630  29.390  1.00  0.00     0.031 C 
ATOM     43  C   UNL A   1      38.371  28.896  28.507  1.00  0.00     0.029 A 
ATOM     44  N   UNL A   1      39.897  30.034  29.681  1.00  0.00    -0.354 N 
ATOM     45  C   UNL A   1      43.732  28.300  30.634  1.00  0.00     0.074 A 
ATOM     46  C   UNL A   1      43.836  26.949  30.127  1.00  0.00     0.031 C 
ATOM     47  C   UNL A   1      37.832  30.086  28.819  1.00  0.00     0.029 A 
ATOM     48  C   UNL A   1      38.796  30.854  29.599  1.00  0.00     0.049 A 
ATOM     49  H   UNL A   1      40.722  30.286  30.155  1.00  0.00     0.167 HD
ATOM     50  C   UNL A   1      44.706  28.929  31.336  1.00  0.00     0.031 A 
ATOM     51  C   UNL A   1      38.584  32.089  30.094  1.00  0.00     0.031 A 
ATOM     52  C   UNL A   1      44.602  30.275  31.834  1.00  0.00     0.049 A 
ATOM     53  C   UNL A   1      39.684  32.769  30.862  1.00  0.00     0.074 A 
ATOM     54  C   UNL A   1      45.556  31.020  32.505  1.00  0.00     0.029 A 
ATOM     55  N   UNL A   1      43.477  31.078  31.720  1.00  0.00    -0.354 N 
ATOM     56  N   UNL A   1      40.880  32.320  31.158  1.00  0.00    -0.248 NA
ATOM     57  C   UNL A   1      39.409  34.128  31.347  1.00  0.00     0.031 C 
ATOM     58  C   UNL A   1      44.992  32.258  32.836  1.00  0.00     0.029 A 
ATOM     59  C   UNL A   1      43.705  32.303  32.325  1.00  0.00     0.049 A 
ATOM     60  H   UNL A   1      42.640  30.817  31.273  1.00  0.00     0.167 HD
ATOM     61  C   UNL A   1      41.509  33.350  31.848  1.00  0.00     0.074 A 
ATOM     62  C   UNL A   1      40.567  34.451  31.906  1.00  0.00     0.031 C 
ATOM     63  C   UNL A   1      42.754  33.383  32.386  1.00  0.00     0.031 A 
BRANCH  50  64
ATOM     64  C   UNL A   1      45.971  28.160  31.607  1.00  0.00    -0.014 A 
ATOM     65  C   UNL A   1      46.100  27.359  32.757  1.00  0.00     0.010 A 
ATOM     66  C   UNL A   1      47.034  28.210  30.686  1.00  0.00     0.010 A 
ATOM     67  C   UNL A   1      47.283  26.656  33.002  1.00  0.00     0.020 A 
ATOM     68  C   UNL A   1      48.208  27.486  30.915  1.00  0.00     0.020 A 
ATOM     69  C   UNL A   1      48.333  26.729  32.080  1.00  0.00     0.054 A 
BRANCH  69  70
ATOM     70  S   UNL A   1      49.850  25.794  32.416  1.00  0.00     0.124 S 
ATOM     71  O   UNL A   1      50.800  26.862  32.719  1.00  0.00    -0.237 OA
ATOM     72  O   UNL A   1      49.468  24.954  33.549  1.00  0.00    -0.237 OA
ATOM     73  O   UNL A   1      50.097  25.076  31.169  1.00  0.00    -0.744 OA
ENDBRANCH  69  70
ENDBRANCH  50  64
BRANCH  51  74
ATOM     74  C   UNL A   1      37.283  32.771  29.857  1.00  0.00    -0.014 A 
ATOM     75  C   UNL A   1      36.248  32.678  30.803  1.00  0.00     0.010 A 
ATOM     76  C   UNL A   1      37.080  33.530  28.690  1.00  0.00     0.010 A 
ATOM     77  C   UNL A   1      35.026  33.319  30.579  1.00  0.00     0.020 A 
ATOM     78  C   UNL A   1      35.869  34.193  28.476  1.00  0.00     0.020 A 
ATOM     79  C   UNL A   1      34.844  34.073  29.417  1.00  0.00     0.054 A 
BRANCH  79  80
ATOM     80  S   UNL A   1      33.270  34.943  29.174  1.00  0.00     0.124 S 
ATOM     81  O   UNL A   1      33.717  36.247  28.694  1.00  0.00    -0.237 OA
ATOM     82  O   UNL A   1      32.593  34.103  28.189  1.00  0.00    -0.237 OA
ATOM     83  O   UNL A   1      32.669  34.937  30.505  1.00  0.00    -0.744 OA
ENDBRANCH  79  80
ENDBRANCH  51  74
BRANCH  63  84
ATOM     84  C   UNL A   1      43.173  34.659  33.065  1.00  0.00    -0.014 A 
ATOM     85  C   UNL A   1      43.027  34.826  34.454  1.00  0.00     0.010 A 
ATOM     86  C   UNL A   1      43.746  35.696  32.305  1.00  0.00     0.010 A 
ATOM     87  C   UNL A   1      43.408  36.023  35.065  1.00  0.00     0.020 A 
ATOM     88  C   UNL A   1      44.152  36.884  32.916  1.00  0.00     0.020 A 
ATOM     89  C   UNL A   1      43.962  37.048  34.291  1.00  0.00     0.054 A 
BRANCH  89  90
ATOM     90  S   UNL A   1      44.468  38.586  35.109  1.00  0.00     0.124 S 
ATOM     91  O   UNL A   1      43.748  39.591  34.332  1.00  0.00    -0.237 OA
ATOM     92  O   UNL A   1      43.998  38.393  36.478  1.00  0.00    -0.237 OA
ATOM     93  O   UNL A   1      45.921  38.599  34.951  1.00  0.00    -0.744 OA
ENDBRANCH  89  90
ENDBRANCH  63  84
ENDBRANCH  37  38
ENDBRANCH  29  32
ENDBRANCH  27  28
ENDBRANCH   1  27
TORSDOF 17
ENDMDL
MODEL 2
REMARK VINA RESULT:     -11.2      0.745      8.086
REMARK SMILES CS(=O)(=O)c1ccc(/C=C(/C(=O)NCCCCNC(=O)c2ccc(-c3c4nc(c(-c5ccc(S(=O)(=O)[O-])cc5)c5ccc([nH]5)c(-c5ccc(S(=O)(=O)[O-])cc5)c5nc(c(-c6ccc(S(=O)(=O)[O-])cc6)c6ccc3[nH]6)C=C5)C=C4)cc2)c2ccc(F)cc2)cc1
REMARK SMILES IDX 16 1 15 2 14 3 13 4 11 5 12 6 10 8 9 9 8 10 5 11 6 12 89 13
REMARK SMILES IDX 7 14 88 15 2 16 1 17 3 18 4 19 81 20 82 21 87 22 83 23 86 24
REMARK SMILES IDX 84 25 85 26 17 27 18 28 19 29 20 31 21 32 22 33 80 34 23 35
REMARK SMILES IDX 79 36 24 37 25 38 26 39 73 40 27 41 78 42 72 43 74 44 28 45
REMARK SMILES IDX 77 46 71 47 70 48 29 50 59 51 40 52 58 53 41 54 44 55 57 56
REMARK SMILES IDX 75 57 42 58 43 59 56 61 76 62 45 63 30 64 31 65 39 66 32 67
REMARK SMILES IDX 38 68 33 69 34 70 35 71 36 72 37 73 60 74 61 75 69 76 62 77
REMARK SMILES IDX 68 78 63 79 64 80 65 81 66 82 67 83 46 84 47 85 55 86 48 87
REMARK SMILES IDX 54 88 49 89 50 90 51 91 52 92 53 93
REMARK H PARENT 13 7 18 30 74 49 44 60
REMARK Flexibility Score: inf
ROOT
ATOM      1  C   UNL A   1      35.345  23.351  25.030  1.00  0.00     0.023 C 
ENDROOT
BRANCH   1   2
ATOM      2  C   UNL A   1      34.951  23.234  23.550  1.00  0.00     0.023 C 
BRANCH   2   3
ATOM      3  C   UNL A   1      33.467  23.485  23.269  1.00  0.00     0.116 C 
BRANCH   3   4
ATOM      4  N   UNL A   1      32.678  23.226  24.457  1.00  0.00    -0.352 N 
ATOM      5  C   UNL A   1      31.878  23.989  25.245  1.00  0.00     0.251 C 
ATOM      6  O   UNL A   1      31.382  23.420  26.222  1.00  0.00    -0.269 OA
ATOM      7  H   UNL A   1      32.734  22.290  24.758  1.00  0.00     0.163 HD
BRANCH   5   8
ATOM      8  C   UNL A   1      31.511  25.429  24.944  1.00  0.00     0.047 C 
ATOM      9  C   UNL A   1      30.756  25.783  23.879  1.00  0.00     0.022 C 
BRANCH   9  10
ATOM     10  C   UNL A   1      30.218  27.107  23.494  1.00  0.00    -0.025 A 
ATOM     11  C   UNL A   1      29.050  29.594  22.913  1.00  0.00     0.067 A 
ATOM     12  C   UNL A   1      30.427  29.424  22.774  1.00  0.00     0.021 A 
ATOM     13  C   UNL A   1      28.237  28.522  23.276  1.00  0.00     0.021 A 
ATOM     14  C   UNL A   1      31.001  28.177  23.045  1.00  0.00     0.009 A 
ATOM     15  C   UNL A   1      28.825  27.287  23.571  1.00  0.00     0.009 A 
BRANCH  11  16
ATOM     16  S   UNL A   1      28.320  31.179  22.574  1.00  0.00     0.175 S 
ATOM     17  C   UNL A   1      27.876  31.067  20.860  1.00  0.00     0.163 C 
ATOM     18  O   UNL A   1      29.355  32.181  22.705  1.00  0.00    -0.224 OA
ATOM     19  O   UNL A   1      27.093  31.270  23.348  1.00  0.00    -0.224 OA
ENDBRANCH  11  16
ENDBRANCH   9  10
BRANCH   8  20
ATOM     20  C   UNL A   1      32.167  26.466  25.780  1.00  0.00    -0.013 A 
ATOM     21  C   UNL A   1      33.511  26.795  25.510  1.00  0.00     0.012 A 
ATOM     22  C   UNL A   1      31.478  27.179  26.772  1.00  0.00     0.012 A 
ATOM     23  C   UNL A   1      34.142  27.833  26.192  1.00  0.00     0.040 A 
ATOM     24  C   UNL A   1      32.111  28.229  27.446  1.00  0.00     0.040 A 
ATOM     25  C   UNL A   1      33.432  28.549  27.145  1.00  0.00     0.123 A 
ATOM     26  F   UNL A   1      34.024  29.571  27.776  1.00  0.00    -0.207 F 
ENDBRANCH   8  20
ENDBRANCH   5   8
ENDBRANCH   3   4
ENDBRANCH   2   3
ENDBRANCH   1   2
BRANCH   1  27
ATOM     27  C   UNL A   1      36.720  23.962  25.296  1.00  0.00     0.116 C 
BRANCH  27  28
ATOM     28  N   UNL A   1      37.760  22.963  25.485  1.00  0.00    -0.352 N 
ATOM     29  C   UNL A   1      38.969  23.084  26.124  1.00  0.00     0.251 C 
ATOM     30  H   UNL A   1      37.570  22.076  25.103  1.00  0.00     0.163 HD
ATOM     31  O   UNL A   1      39.772  22.156  26.090  1.00  0.00    -0.269 OA
BRANCH  29  32
ATOM     32  C   UNL A   1      39.316  24.345  26.815  1.00  0.00     0.039 A 
ATOM     33  C   UNL A   1      38.894  24.521  28.135  1.00  0.00     0.014 A 
ATOM     34  C   UNL A   1      40.060  25.339  26.175  1.00  0.00     0.014 A 
ATOM     35  C   UNL A   1      39.277  25.666  28.835  1.00  0.00     0.010 A 
ATOM     36  C   UNL A   1      40.490  26.452  26.894  1.00  0.00     0.010 A 
ATOM     37  C   UNL A   1      40.109  26.624  28.233  1.00  0.00    -0.014 A 
BRANCH  37  38
ATOM     38  C   UNL A   1      40.615  27.786  29.005  1.00  0.00     0.031 A 
ATOM     39  C   UNL A   1      39.755  29.003  29.210  1.00  0.00     0.074 A 
ATOM     40  C   UNL A   1      41.879  27.765  29.474  1.00  0.00     0.049 A 
ATOM     41  N   UNL A   1      40.039  30.114  29.839  1.00  0.00    -0.248 NA
ATOM     42  C   UNL A   1      38.411  28.978  28.611  1.00  0.00     0.031 C 
ATOM     43  C   UNL A   1      42.830  26.666  29.295  1.00  0.00     0.029 A 
ATOM     44  N   UNL A   1      42.581  28.696  30.196  1.00  0.00    -0.354 N 
ATOM     45  C   UNL A   1      38.918  30.924  29.705  1.00  0.00     0.074 A 
ATOM     46  C   UNL A   1      37.967  30.195  28.894  1.00  0.00     0.031 C 
ATOM     47  C   UNL A   1      43.981  26.973  29.915  1.00  0.00     0.029 A 
ATOM     48  C   UNL A   1      43.861  28.302  30.507  1.00  0.00     0.049 A 
ATOM     49  H   UNL A   1      42.205  29.565  30.467  1.00  0.00     0.167 HD
ATOM     50  C   UNL A   1      38.693  32.155  30.225  1.00  0.00     0.031 A 
ATOM     51  C   UNL A   1      44.833  28.936  31.192  1.00  0.00     0.031 A 
ATOM     52  C   UNL A   1      39.638  32.876  31.036  1.00  0.00     0.049 A 
ATOM     53  C   UNL A   1      44.554  30.298  31.766  1.00  0.00     0.074 A 
ATOM     54  C   UNL A   1      39.480  34.103  31.657  1.00  0.00     0.029 A 
ATOM     55  N   UNL A   1      40.918  32.437  31.340  1.00  0.00    -0.354 N 
ATOM     56  N   UNL A   1      43.460  31.016  31.687  1.00  0.00    -0.248 NA
ATOM     57  C   UNL A   1      45.638  30.925  32.533  1.00  0.00     0.031 C 
ATOM     58  C   UNL A   1      40.682  34.427  32.298  1.00  0.00     0.029 A 
ATOM     59  C   UNL A   1      41.570  33.377  32.120  1.00  0.00     0.049 A 
ATOM     60  H   UNL A   1      41.307  31.583  31.044  1.00  0.00     0.167 HD
ATOM     61  C   UNL A   1      43.717  32.174  32.413  1.00  0.00     0.074 A 
ATOM     62  C   UNL A   1      45.062  32.048  32.939  1.00  0.00     0.031 C 
ATOM     63  C   UNL A   1      42.912  33.245  32.626  1.00  0.00     0.031 A 
BRANCH  50  64
ATOM     64  C   UNL A   1      37.367  32.803  29.924  1.00  0.00    -0.014 A 
ATOM     65  C   UNL A   1      36.326  32.794  30.871  1.00  0.00     0.010 A 
ATOM     66  C   UNL A   1      37.168  33.457  28.696  1.00  0.00     0.010 A 
ATOM     67  C   UNL A   1      35.096  33.391  30.577  1.00  0.00     0.020 A 
ATOM     68  C   UNL A   1      35.949  34.079  28.409  1.00  0.00     0.020 A 
ATOM     69  C   UNL A   1      34.914  34.026  29.345  1.00  0.00     0.054 A 
BRANCH  69  70
ATOM     70  S   UNL A   1      33.315  34.806  28.997  1.00  0.00     0.124 S 
ATOM     71  O   UNL A   1      33.722  36.133  28.538  1.00  0.00    -0.237 OA
ATOM     72  O   UNL A   1      32.747  33.935  27.971  1.00  0.00    -0.237 OA
ATOM     73  O   UNL A   1      32.627  34.777  30.285  1.00  0.00    -0.744 OA
ENDBRANCH  69  70
ENDBRANCH  50  64
BRANCH  51  74
ATOM     74  C   UNL A   1      46.151  28.276  31.393  1.00  0.00    -0.014 A 
ATOM     75  C   UNL A   1      46.388  27.492  32.536  1.00  0.00     0.010 A 
ATOM     76  C   UNL A   1      47.170  28.414  30.433  1.00  0.00     0.010 A 
ATOM     77  C   UNL A   1      47.626  26.873  32.724  1.00  0.00     0.020 A 
ATOM     78  C   UNL A   1      48.400  27.774  30.606  1.00  0.00     0.020 A 
ATOM     79  C   UNL A   1      48.625  27.017  31.757  1.00  0.00     0.054 A 
BRANCH  79  80
ATOM     80  S   UNL A   1      50.205  26.157  31.995  1.00  0.00     0.124 S 
ATOM     81  O   UNL A   1      49.767  24.831  32.419  1.00  0.00    -0.237 OA
ATOM     82  O   UNL A   1      50.809  26.231  30.667  1.00  0.00    -0.237 OA
ATOM     83  O   UNL A   1      50.875  26.954  33.020  1.00  0.00    -0.744 OA
ENDBRANCH  79  80
ENDBRANCH  51  74
BRANCH  63  84
ATOM     84  C   UNL A   1      43.462  34.355  33.480  1.00  0.00    -0.014 A 
ATOM     85  C   UNL A   1      44.149  35.441  32.909  1.00  0.00     0.010 A 
ATOM     86  C   UNL A   1      43.263  34.323  34.873  1.00  0.00     0.010 A 
ATOM     87  C   UNL A   1      44.665  36.455  33.720  1.00  0.00     0.020 A 
ATOM     88  C   UNL A   1      43.754  35.348  35.684  1.00  0.00     0.020 A 
ATOM     89  C   UNL A   1      44.470  36.399  35.104  1.00  0.00     0.054 A 
BRANCH  89  90
ATOM     90  S   UNL A   1      45.131  37.737  36.136  1.00  0.00     0.124 S 
ATOM     91  O   UNL A   1      46.229  37.069  36.829  1.00  0.00    -0.237 OA
ATOM     92  O   UNL A   1      45.526  38.739  35.149  1.00  0.00    -0.237 OA
ATOM     93  O   UNL A   1      43.998  38.113  36.979  1.00  0.00    -0.744 OA
ENDBRANCH  89  90
ENDBRANCH  63  84
ENDBRANCH  37  38
ENDBRANCH  29  32
ENDBRANCH  27  28
ENDBRANCH   1  27
TORSDOF 17
ENDMDL
MODEL 3
REMARK VINA RESULT:     -11.1      2.263      2.701
REMARK SMILES CS(=O)(=O)c1ccc(/C=C(/C(=O)NCCCCNC(=O)c2ccc(-c3c4nc(c(-c5ccc(S(=O)(=O)[O-])cc5)c5ccc([nH]5)c(-c5ccc(S(=O)(=O)[O-])cc5)c5nc(c(-c6ccc(S(=O)(=O)[O-])cc6)c6ccc3[nH]6)C=C5)C=C4)cc2)c2ccc(F)cc2)cc1
REMARK SMILES IDX 16 1 15 2 14 3 13 4 11 5 12 6 10 8 9 9 8 10 5 11 6 12 89 13
REMARK SMILES IDX 7 14 88 15 2 16 1 17 3 18 4 19 81 20 82 21 87 22 83 23 86 24
REMARK SMILES IDX 84 25 85 26 17 27 18 28 19 29 20 31 21 32 22 33 80 34 23 35
REMARK SMILES IDX 79 36 24 37 25 38 26 39 73 40 27 41 78 42 72 43 74 44 28 45
REMARK SMILES IDX 77 46 71 47 70 48 29 50 59 51 40 52 58 53 41 54 44 55 57 56
REMARK SMILES IDX 75 57 42 58 43 59 56 61 76 62 45 63 30 64 31 65 39 66 32 67
REMARK SMILES IDX 38 68 33 69 34 70 35 71 36 72 37 73 60 74 61 75 69 76 62 77
REMARK SMILES IDX 68 78 63 79 64 80 65 81 66 82 67 83 46 84 47 85 55 86 48 87
REMARK SMILES IDX 54 88 49 89 50 90 51 91 52 92 53 93
REMARK H PARENT 13 7 18 30 74 49 44 60
REMARK Flexibility Score: inf
ROOT
ATOM      1  C   UNL A   1      35.387  22.984  25.163  1.00  0.00     0.023 C 
ENDROOT
BRANCH   1   2
ATOM      2  C   UNL A   1      35.164  23.711  23.828  1.00  0.00     0.023 C 
BRANCH   2   3
ATOM      3  C   UNL A   1      33.694  23.962  23.482  1.00  0.00     0.116 C 
BRANCH   3   4
ATOM      4  N   UNL A   1      32.848  23.648  24.617  1.00  0.00    -0.352 N 
ATOM      5  C   UNL A   1      31.946  24.353  25.347  1.00  0.00     0.251 C 
ATOM      6  O   UNL A   1      31.428  23.750  26.292  1.00  0.00    -0.269 OA
ATOM      7  H   UNL A   1      32.951  22.719  24.926  1.00  0.00     0.163 HD
BRANCH   5   8
ATOM      8  C   UNL A   1      31.499  25.763  25.016  1.00  0.00     0.047 C 
ATOM      9  C   UNL A   1      30.713  26.049  23.952  1.00  0.00     0.022 C 
BRANCH   9  10
ATOM     10  C   UNL A   1      30.101  27.333  23.541  1.00  0.00    -0.025 A 
ATOM     11  C   UNL A   1      28.781  29.727  22.898  1.00  0.00     0.067 A 
ATOM     12  C   UNL A   1      30.175  29.673  22.875  1.00  0.00     0.021 A 
ATOM     13  C   UNL A   1      28.034  28.583  23.174  1.00  0.00     0.021 A 
ATOM     14  C   UNL A   1      30.826  28.473  23.177  1.00  0.00     0.009 A 
ATOM     15  C   UNL A   1      28.696  27.394  23.501  1.00  0.00     0.009 A 
BRANCH  11  16
ATOM     16  S   UNL A   1      27.952  31.252  22.521  1.00  0.00     0.175 S 
ATOM     17  C   UNL A   1      29.202  32.479  22.809  1.00  0.00     0.163 C 
ATOM     18  O   UNL A   1      26.903  31.442  23.499  1.00  0.00    -0.224 OA
ATOM     19  O   UNL A   1      27.652  31.248  21.098  1.00  0.00    -0.224 OA
ENDBRANCH  11  16
ENDBRANCH   9  10
BRANCH   8  20
ATOM     20  C   UNL A   1      32.108  26.855  25.817  1.00  0.00    -0.013 A 
ATOM     21  C   UNL A   1      33.418  27.268  25.502  1.00  0.00     0.012 A 
ATOM     22  C   UNL A   1      31.402  27.535  26.820  1.00  0.00     0.012 A 
ATOM     23  C   UNL A   1      33.998  28.357  26.150  1.00  0.00     0.040 A 
ATOM     24  C   UNL A   1      31.982  28.635  27.460  1.00  0.00     0.040 A 
ATOM     25  C   UNL A   1      33.269  29.038  27.115  1.00  0.00     0.123 A 
ATOM     26  F   UNL A   1      33.809  30.107  27.713  1.00  0.00    -0.207 F 
ENDBRANCH   8  20
ENDBRANCH   5   8
ENDBRANCH   3   4
ENDBRANCH   2   3
ENDBRANCH   1   2
BRANCH   1  27
ATOM     27  C   UNL A   1      36.556  23.498  26.002  1.00  0.00     0.116 C 
BRANCH  27  28
ATOM     28  N   UNL A   1      37.626  22.524  26.145  1.00  0.00    -0.352 N 
ATOM     29  C   UNL A   1      38.938  22.726  26.497  1.00  0.00     0.251 C 
ATOM     30  H   UNL A   1      37.375  21.589  25.966  1.00  0.00     0.163 HD
ATOM     31  O   UNL A   1      39.729  21.788  26.461  1.00  0.00    -0.269 OA
BRANCH  29  32
ATOM     32  C   UNL A   1      39.400  24.078  26.878  1.00  0.00     0.039 A 
ATOM     33  C   UNL A   1      39.325  24.456  28.220  1.00  0.00     0.014 A 
ATOM     34  C   UNL A   1      39.914  24.962  25.925  1.00  0.00     0.014 A 
ATOM     35  C   UNL A   1      39.830  25.695  28.618  1.00  0.00     0.010 A 
ATOM     36  C   UNL A   1      40.470  26.172  26.333  1.00  0.00     0.010 A 
ATOM     37  C   UNL A   1      40.440  26.548  27.684  1.00  0.00    -0.014 A 
BRANCH  37  38
ATOM     38  C   UNL A   1      41.081  27.816  28.115  1.00  0.00     0.031 A 
ATOM     39  C   UNL A   1      42.572  27.993  28.018  1.00  0.00     0.074 A 
ATOM     40  C   UNL A   1      40.318  28.790  28.649  1.00  0.00     0.049 A 
ATOM     41  N   UNL A   1      43.302  29.022  28.364  1.00  0.00    -0.248 NA
ATOM     42  C   UNL A   1      43.344  26.860  27.485  1.00  0.00     0.031 C 
ATOM     43  C   UNL A   1      38.869  28.719  28.846  1.00  0.00     0.029 A 
ATOM     44  N   UNL A   1      40.656  30.032  29.126  1.00  0.00    -0.354 N 
ATOM     45  C   UNL A   1      44.618  28.659  28.102  1.00  0.00     0.074 A 
ATOM     46  C   UNL A   1      44.590  27.298  27.614  1.00  0.00     0.031 C 
ATOM     47  C   UNL A   1      38.438  29.875  29.376  1.00  0.00     0.029 A 
ATOM     48  C   UNL A   1      39.582  30.756  29.586  1.00  0.00     0.049 A 
ATOM     49  H   UNL A   1      41.580  30.372  29.139  1.00  0.00     0.167 HD
ATOM     50  C   UNL A   1      45.745  29.398  28.240  1.00  0.00     0.031 A 
ATOM     51  C   UNL A   1      39.521  31.993  30.118  1.00  0.00     0.031 A 
ATOM     52  C   UNL A   1      45.770  30.754  28.720  1.00  0.00     0.049 A 
ATOM     53  C   UNL A   1      40.786  32.795  30.251  1.00  0.00     0.074 A 
ATOM     54  C   UNL A   1      46.855  31.606  28.840  1.00  0.00     0.029 A 
ATOM     55  N   UNL A   1      44.660  31.458  29.164  1.00  0.00    -0.354 N 
ATOM     56  N   UNL A   1      42.012  32.459  29.930  1.00  0.00    -0.248 NA
ATOM     57  C   UNL A   1      40.653  34.150  30.804  1.00  0.00     0.031 C 
ATOM     58  C   UNL A   1      46.407  32.809  29.399  1.00  0.00     0.029 A 
ATOM     59  C   UNL A   1      45.036  32.725  29.577  1.00  0.00     0.049 A 
ATOM     60  H   UNL A   1      43.740  31.109  29.181  1.00  0.00     0.167 HD
ATOM     61  C   UNL A   1      42.796  33.569  30.224  1.00  0.00     0.074 A 
ATOM     62  C   UNL A   1      41.901  34.592  30.728  1.00  0.00     0.031 C 
ATOM     63  C   UNL A   1      44.136  33.728  30.089  1.00  0.00     0.031 A 
BRANCH  50  64
ATOM     64  C   UNL A   1      47.050  28.748  27.865  1.00  0.00    -0.014 A 
ATOM     65  C   UNL A   1      47.544  28.820  26.549  1.00  0.00     0.010 A 
ATOM     66  C   UNL A   1      47.811  28.085  28.845  1.00  0.00     0.010 A 
ATOM     67  C   UNL A   1      48.753  28.204  26.211  1.00  0.00     0.020 A 
ATOM     68  C   UNL A   1      49.034  27.491  28.517  1.00  0.00     0.020 A 
ATOM     69  C   UNL A   1      49.488  27.539  27.198  1.00  0.00     0.054 A 
BRANCH  69  70
ATOM     70  S   UNL A   1      51.061  26.764  26.735  1.00  0.00     0.124 S 
ATOM     71  O   UNL A   1      51.663  26.504  28.041  1.00  0.00    -0.237 OA
ATOM     72  O   UNL A   1      50.632  25.579  25.996  1.00  0.00    -0.237 OA
ATOM     73  O   UNL A   1      51.729  27.786  25.934  1.00  0.00    -0.744 OA
ENDBRANCH  69  70
ENDBRANCH  50  64
BRANCH  51  74
ATOM     74  C   UNL A   1      38.210  32.555  30.540  1.00  0.00    -0.014 A 
ATOM     75  C   UNL A   1      37.757  32.392  31.861  1.00  0.00     0.010 A 
ATOM     76  C   UNL A   1      37.416  33.272  29.626  1.00  0.00     0.010 A 
ATOM     77  C   UNL A   1      36.526  32.921  32.256  1.00  0.00     0.020 A 
ATOM     78  C   UNL A   1      36.196  33.824  30.026  1.00  0.00     0.020 A 
ATOM     79  C   UNL A   1      35.753  33.635  31.336  1.00  0.00     0.054 A 
BRANCH  79  80
ATOM     80  S   UNL A   1      34.184  34.361  31.887  1.00  0.00     0.124 S 
ATOM     81  O   UNL A   1      33.472  34.536  30.624  1.00  0.00    -0.237 OA
ATOM     82  O   UNL A   1      33.652  33.332  32.777  1.00  0.00    -0.237 OA
ATOM     83  O   UNL A   1      34.595  35.595  32.551  1.00  0.00    -0.744 OA
ENDBRANCH  79  80
ENDBRANCH  51  74
BRANCH  63  84
ATOM     84  C   UNL A   1      44.709  35.065  30.474  1.00  0.00    -0.014 A 
ATOM     85  C   UNL A   1      45.200  35.300  31.771  1.00  0.00     0.010 A 
ATOM     86  C   UNL A   1      44.783  36.092  29.515  1.00  0.00     0.010 A 
ATOM     87  C   UNL A   1      45.715  36.553  32.114  1.00  0.00     0.020 A 
ATOM     88  C   UNL A   1      45.321  37.338  29.847  1.00  0.00     0.020 A 
ATOM     89  C   UNL A   1      45.766  37.566  31.152  1.00  0.00     0.054 A 
BRANCH  89  90
ATOM     90  S   UNL A   1      46.457  39.178  31.614  1.00  0.00     0.124 S 
ATOM     91  O   UNL A   1      45.255  39.998  31.737  1.00  0.00    -0.237 OA
ATOM     92  O   UNL A   1      47.149  38.885  32.866  1.00  0.00    -0.237 OA
ATOM     93  O   UNL A   1      47.329  39.515  30.490  1.00  0.00    -0.744 OA
ENDBRANCH  89  90
ENDBRANCH  63  84
ENDBRANCH  37  38
ENDBRANCH  29  32
ENDBRANCH  27  28
ENDBRANCH   1  27
TORSDOF 17
ENDMDL
