MODEL 1
REMARK VINA RESULT:     -10.4      0.000      0.000
REMARK SMILES C[NH2+][C@]1(C(=O)NCCCCNC(=O)c2ccc(-c3c4nc(c(-c5ccc(S(=O)(=O)[O-])cc5)c5ccc([nH]5)c(-c5ccc(S(=O)(=O)[O-])cc5)c5nc(c(-c6ccc(S(=O)(=O)[O-])cc6)c6ccc3[nH]6)C=C5)C=C4)cc2)CC[C@@H](OCCCc2ccccc2)C1
REMARK SMILES IDX 7 1 6 2 4 3 5 4 3 6 74 7 87 8 75 9 76 10 2 11 1 12 77 15
REMARK SMILES IDX 78 16 79 17 80 18 81 19 82 20 86 21 83 22 85 23 84 24 8 25
REMARK SMILES IDX 9 26 10 27 11 28 12 29 13 31 14 32 15 33 73 34 16 35 72 36
REMARK SMILES IDX 17 37 18 38 19 39 66 40 20 41 71 42 65 43 67 44 21 45 70 46
REMARK SMILES IDX 64 47 63 48 22 50 52 51 33 52 51 53 34 54 37 55 50 56 68 57
REMARK SMILES IDX 35 58 36 59 49 61 69 62 38 63 23 64 24 65 32 66 25 67 31 68
REMARK SMILES IDX 26 69 27 70 28 71 29 72 30 73 53 74 54 75 62 76 55 77 61 78
REMARK SMILES IDX 56 79 57 80 58 81 59 82 60 83 39 84 40 85 48 86 41 87 47 88
REMARK SMILES IDX 42 89 43 90 44 91 45 92 46 93
REMARK H PARENT 6 5 2 13 2 14 11 30 67 49 37 60
REMARK Flexibility Score: inf
ROOT
ATOM      1  C   UNL A   1      34.098  22.895  22.803  1.00  0.00     0.116 C 
ENDROOT
BRANCH   1   2
ATOM      2  N   UNL A   1      32.740  23.819  22.688  1.00  0.00    -0.351 N 
ATOM      3  C   UNL A   1      31.537  24.936  23.759  1.00  0.00     0.281 C 
ATOM      4  O   UNL A   1      30.406  25.435  23.407  1.00  0.00    -0.268 OA
ATOM      5  H   UNL A   1      32.421  23.805  21.758  1.00  0.00     0.163 HD
BRANCH   3   6
ATOM      6  C   UNL A   1      31.664  25.487  25.551  1.00  0.00     0.177 C 
ATOM      7  C   UNL A   1      33.171  25.753  25.920  1.00  0.00     0.082 C 
ATOM      8  C   UNL A   1      30.904  26.592  26.398  1.00  0.00     0.111 C 
ATOM      9  C   UNL A   1      33.273  27.062  26.712  1.00  0.00     0.039 C 
ATOM     10  C   UNL A   1      31.901  27.708  26.735  1.00  0.00     0.125 C 
BRANCH   6  11
ATOM     11  N   UNL A   1      31.426  24.198  26.356  1.00  0.00    -0.336 N 
ATOM     12  C   UNL A   1      32.594  23.553  26.922  1.00  0.00     0.331 C 
ATOM     13  H   UNL A   1      30.797  24.428  27.126  1.00  0.00     0.346 HD
ATOM     14  H   UNL A   1      31.053  23.529  25.683  1.00  0.00     0.346 HD
ENDBRANCH   6  11
BRANCH  10  15
ATOM     15  O   UNL A   1      31.870  29.043  26.262  1.00  0.00    -0.378 OA
BRANCH  15  16
ATOM     16  C   UNL A   1      32.301  29.547  25.021  1.00  0.00     0.161 C 
BRANCH  16  17
ATOM     17  C   UNL A   1      31.709  28.967  23.746  1.00  0.00     0.033 C 
BRANCH  17  18
ATOM     18  C   UNL A   1      30.206  28.919  23.573  1.00  0.00     0.038 C 
BRANCH  18  19
ATOM     19  C   UNL A   1      29.453  30.132  23.096  1.00  0.00    -0.048 A 
ATOM     20  C   UNL A   1      29.443  31.819  23.879  1.00  0.00     0.004 A 
ATOM     21  C   UNL A   1      28.680  29.928  21.448  1.00  0.00     0.004 A 
ATOM     22  C   UNL A   1      28.631  33.216  23.029  1.00  0.00     0.000 A 
ATOM     23  C   UNL A   1      27.931  31.338  20.584  1.00  0.00     0.000 A 
ATOM     24  C   UNL A   1      27.888  32.973  21.399  1.00  0.00     0.000 A 
ENDBRANCH  18  19
ENDBRANCH  17  18
ENDBRANCH  16  17
ENDBRANCH  15  16
ENDBRANCH  10  15
ENDBRANCH   3   6
ENDBRANCH   1   2
BRANCH   1  25
ATOM     25  C   UNL A   1      35.215  23.650  23.518  1.00  0.00     0.023 C 
BRANCH  25  26
ATOM     26  C   UNL A   1      35.790  22.879  24.691  1.00  0.00     0.023 C 
BRANCH  26  27
ATOM     27  C   UNL A   1      36.943  23.603  25.375  1.00  0.00     0.116 C 
BRANCH  27  28
ATOM     28  N   UNL A   1      38.077  22.711  25.644  1.00  0.00    -0.352 N 
ATOM     29  C   UNL A   1      39.283  23.025  26.212  1.00  0.00     0.251 C 
ATOM     30  H   UNL A   1      37.955  21.770  25.383  1.00  0.00     0.163 HD
ATOM     31  O   UNL A   1      40.229  22.249  26.187  1.00  0.00    -0.269 OA
BRANCH  29  32
ATOM     32  C   UNL A   1      39.381  24.345  26.842  1.00  0.00     0.039 A 
ATOM     33  C   UNL A   1      38.954  24.509  28.156  1.00  0.00     0.014 A 
ATOM     34  C   UNL A   1      40.091  25.341  26.166  1.00  0.00     0.014 A 
ATOM     35  C   UNL A   1      39.301  25.679  28.825  1.00  0.00     0.010 A 
ATOM     36  C   UNL A   1      40.544  26.436  26.877  1.00  0.00     0.010 A 
ATOM     37  C   UNL A   1      40.132  26.627  28.203  1.00  0.00    -0.014 A 
BRANCH  37  38
ATOM     38  C   UNL A   1      40.559  27.854  28.911  1.00  0.00     0.031 A 
ATOM     39  C   UNL A   1      41.934  27.906  29.519  1.00  0.00     0.074 A 
ATOM     40  C   UNL A   1      39.703  28.884  29.045  1.00  0.00     0.049 A 
ATOM     41  N   UNL A   1      42.493  28.870  30.199  1.00  0.00    -0.248 NA
ATOM     42  C   UNL A   1      42.779  26.707  29.373  1.00  0.00     0.031 C 
ATOM     43  C   UNL A   1      38.327  28.920  28.540  1.00  0.00     0.029 A 
ATOM     44  N   UNL A   1      39.866  30.107  29.642  1.00  0.00    -0.354 N 
ATOM     45  C   UNL A   1      43.743  28.387  30.571  1.00  0.00     0.074 A 
ATOM     46  C   UNL A   1      43.830  27.022  30.111  1.00  0.00     0.031 C 
ATOM     47  C   UNL A   1      37.792  30.123  28.805  1.00  0.00     0.029 A 
ATOM     48  C   UNL A   1      38.762  30.922  29.543  1.00  0.00     0.049 A 
ATOM     49  H   UNL A   1      40.695  30.377  30.099  1.00  0.00     0.167 HD
ATOM     50  C   UNL A   1      44.741  29.035  31.211  1.00  0.00     0.031 A 
ATOM     51  C   UNL A   1      38.559  32.173  30.001  1.00  0.00     0.031 A 
ATOM     52  C   UNL A   1      44.645  30.398  31.655  1.00  0.00     0.049 A 
ATOM     53  C   UNL A   1      39.677  32.865  30.732  1.00  0.00     0.074 A 
ATOM     54  C   UNL A   1      45.615  31.171  32.266  1.00  0.00     0.029 A 
ATOM     55  N   UNL A   1      43.510  31.187  31.542  1.00  0.00    -0.354 N 
ATOM     56  N   UNL A   1      40.882  32.421  31.006  1.00  0.00    -0.248 NA
ATOM     57  C   UNL A   1      39.415  34.230  31.203  1.00  0.00     0.031 C 
ATOM     58  C   UNL A   1      45.042  32.403  32.592  1.00  0.00     0.029 A 
ATOM     59  C   UNL A   1      43.743  32.429  32.106  1.00  0.00     0.049 A 
ATOM     60  H   UNL A   1      42.665  30.906  31.124  1.00  0.00     0.167 HD
ATOM     61  C   UNL A   1      41.531  33.465  31.655  1.00  0.00     0.074 A 
ATOM     62  C   UNL A   1      40.592  34.567  31.713  1.00  0.00     0.031 C 
ATOM     63  C   UNL A   1      42.791  33.511  32.155  1.00  0.00     0.031 A 
BRANCH  50  64
ATOM     64  C   UNL A   1      46.013  28.272  31.473  1.00  0.00    -0.014 A 
ATOM     65  C   UNL A   1      46.168  27.481  32.628  1.00  0.00     0.010 A 
ATOM     66  C   UNL A   1      47.059  28.322  30.534  1.00  0.00     0.010 A 
ATOM     67  C   UNL A   1      47.357  26.786  32.856  1.00  0.00     0.020 A 
ATOM     68  C   UNL A   1      48.236  27.598  30.741  1.00  0.00     0.020 A 
ATOM     69  C   UNL A   1      48.383  26.846  31.908  1.00  0.00     0.054 A 
BRANCH  69  70
ATOM     70  S   UNL A   1      49.900  25.902  32.212  1.00  0.00     0.124 S 
ATOM     71  O   UNL A   1      50.903  26.960  32.289  1.00  0.00    -0.237 OA
ATOM     72  O   UNL A   1      49.604  25.224  33.472  1.00  0.00    -0.237 OA
ATOM     73  O   UNL A   1      50.005  25.027  31.047  1.00  0.00    -0.744 OA
ENDBRANCH  69  70
ENDBRANCH  50  64
BRANCH  51  74
ATOM     74  C   UNL A   1      37.250  32.848  29.773  1.00  0.00    -0.014 A 
ATOM     75  C   UNL A   1      36.972  33.487  28.552  1.00  0.00     0.010 A 
ATOM     76  C   UNL A   1      36.268  32.850  30.780  1.00  0.00     0.010 A 
ATOM     77  C   UNL A   1      35.747  34.131  28.350  1.00  0.00     0.020 A 
ATOM     78  C   UNL A   1      35.028  33.461  30.570  1.00  0.00     0.020 A 
ATOM     79  C   UNL A   1      34.782  34.109  29.359  1.00  0.00     0.054 A 
BRANCH  79  80
ATOM     80  S   UNL A   1      33.182  34.910  29.055  1.00  0.00     0.124 S 
ATOM     81  O   UNL A   1      32.600  34.047  28.033  1.00  0.00    -0.237 OA
ATOM     82  O   UNL A   1      32.549  34.852  30.371  1.00  0.00    -0.237 OA
ATOM     83  O   UNL A   1      33.550  36.252  28.608  1.00  0.00    -0.744 OA
ENDBRANCH  79  80
ENDBRANCH  51  74
BRANCH  63  84
ATOM     84  C   UNL A   1      43.246  34.807  32.774  1.00  0.00    -0.014 A 
ATOM     85  C   UNL A   1      43.935  35.777  32.024  1.00  0.00     0.010 A 
ATOM     86  C   UNL A   1      42.921  35.080  34.115  1.00  0.00     0.010 A 
ATOM     87  C   UNL A   1      44.323  36.980  32.618  1.00  0.00     0.020 A 
ATOM     88  C   UNL A   1      43.272  36.297  34.701  1.00  0.00     0.020 A 
ATOM     89  C   UNL A   1      43.986  37.235  33.951  1.00  0.00     0.054 A 
BRANCH  89  90
ATOM     90  S   UNL A   1      44.462  38.823  34.683  1.00  0.00     0.124 S 
ATOM     91  O   UNL A   1      45.800  39.022  34.131  1.00  0.00    -0.237 OA
ATOM     92  O   UNL A   1      43.433  39.727  34.177  1.00  0.00    -0.237 OA
ATOM     93  O   UNL A   1      44.414  38.573  36.122  1.00  0.00    -0.744 OA
ENDBRANCH  89  90
ENDBRANCH  63  84
ENDBRANCH  37  38
ENDBRANCH  29  32
ENDBRANCH  27  28
ENDBRANCH  26  27
ENDBRANCH  25  26
ENDBRANCH   1  25
TORSDOF 20
ENDMDL
MODEL 2
REMARK VINA RESULT:     -10.2      1.756      4.139
REMARK SMILES C[NH2+][C@]1(C(=O)NCCCCNC(=O)c2ccc(-c3c4nc(c(-c5ccc(S(=O)(=O)[O-])cc5)c5ccc([nH]5)c(-c5ccc(S(=O)(=O)[O-])cc5)c5nc(c(-c6ccc(S(=O)(=O)[O-])cc6)c6ccc3[nH]6)C=C5)C=C4)cc2)CC[C@@H](OCCCc2ccccc2)C1
REMARK SMILES IDX 7 1 6 2 4 3 5 4 3 6 74 7 87 8 75 9 76 10 2 11 1 12 77 15
REMARK SMILES IDX 78 16 79 17 80 18 81 19 82 20 86 21 83 22 85 23 84 24 8 25
REMARK SMILES IDX 9 26 10 27 11 28 12 29 13 31 14 32 15 33 73 34 16 35 72 36
REMARK SMILES IDX 17 37 18 38 19 39 66 40 20 41 71 42 65 43 67 44 21 45 70 46
REMARK SMILES IDX 64 47 63 48 22 50 52 51 33 52 51 53 34 54 37 55 50 56 68 57
REMARK SMILES IDX 35 58 36 59 49 61 69 62 38 63 23 64 24 65 32 66 25 67 31 68
REMARK SMILES IDX 26 69 27 70 28 71 29 72 30 73 53 74 54 75 62 76 55 77 61 78
REMARK SMILES IDX 56 79 57 80 58 81 59 82 60 83 39 84 40 85 48 86 41 87 47 88
REMARK SMILES IDX 42 89 43 90 44 91 45 92 46 93
REMARK H PARENT 6 5 2 13 2 14 11 30 67 49 37 60
REMARK Flexibility Score: inf
ROOT
ATOM      1  C   UNL A   1      34.371  23.009  22.707  1.00  0.00     0.116 C 
ENDROOT
BRANCH   1   2
ATOM      2  N   UNL A   1      33.350  24.144  22.089  1.00  0.00    -0.351 N 
ATOM      3  C   UNL A   1      32.127  25.578  22.628  1.00  0.00     0.281 C 
ATOM      4  O   UNL A   1      31.304  26.229  21.886  1.00  0.00    -0.268 OA
ATOM      5  H   UNL A   1      33.356  24.080  21.108  1.00  0.00     0.163 HD
BRANCH   3   6
ATOM      6  C   UNL A   1      31.777  26.302  24.326  1.00  0.00     0.177 C 
ATOM      7  C   UNL A   1      30.227  26.299  24.597  1.00  0.00     0.082 C 
ATOM      8  C   UNL A   1      32.377  26.017  25.766  1.00  0.00     0.111 C 
ATOM      9  C   UNL A   1      29.965  25.802  26.023  1.00  0.00     0.039 C 
ATOM     10  C   UNL A   1      31.287  25.354  26.617  1.00  0.00     0.125 C 
BRANCH   6  11
ATOM     11  N   UNL A   1      32.002  27.813  24.142  1.00  0.00    -0.336 N 
ATOM     12  C   UNL A   1      31.977  28.630  25.337  1.00  0.00     0.331 C 
ATOM     13  H   UNL A   1      32.915  27.937  23.702  1.00  0.00     0.346 HD
ATOM     14  H   UNL A   1      31.211  28.133  23.584  1.00  0.00     0.346 HD
ENDBRANCH   6  11
BRANCH  10  15
ATOM     15  O   UNL A   1      31.290  24.028  27.116  1.00  0.00    -0.378 OA
BRANCH  15  16
ATOM     16  C   UNL A   1      30.987  22.833  26.438  1.00  0.00     0.161 C 
BRANCH  16  17
ATOM     17  C   UNL A   1      32.128  21.952  25.953  1.00  0.00     0.033 C 
BRANCH  17  18
ATOM     18  C   UNL A   1      32.146  21.476  24.516  1.00  0.00     0.038 C 
BRANCH  18  19
ATOM     19  C   UNL A   1      32.903  20.232  24.134  1.00  0.00    -0.048 A 
ATOM     20  C   UNL A   1      34.453  19.581  24.929  1.00  0.00     0.004 A 
ATOM     21  C   UNL A   1      32.033  19.176  22.917  1.00  0.00     0.004 A 
ATOM     22  C   UNL A   1      35.104  17.942  24.455  1.00  0.00     0.000 A 
ATOM     23  C   UNL A   1      32.655  17.521  22.501  1.00  0.00     0.000 A 
ATOM     24  C   UNL A   1      34.208  16.927  23.257  1.00  0.00     0.000 A 
ENDBRANCH  18  19
ENDBRANCH  17  18
ENDBRANCH  16  17
ENDBRANCH  15  16
ENDBRANCH  10  15
ENDBRANCH   3   6
ENDBRANCH   1   2
BRANCH   1  25
ATOM     25  C   UNL A   1      35.528  23.663  23.457  1.00  0.00     0.023 C 
BRANCH  25  26
ATOM     26  C   UNL A   1      35.951  22.880  24.685  1.00  0.00     0.023 C 
BRANCH  26  27
ATOM     27  C   UNL A   1      37.036  23.578  25.495  1.00  0.00     0.116 C 
BRANCH  27  28
ATOM     28  N   UNL A   1      38.205  22.720  25.714  1.00  0.00    -0.352 N 
ATOM     29  C   UNL A   1      39.426  23.068  26.230  1.00  0.00     0.251 C 
ATOM     30  H   UNL A   1      38.099  21.775  25.459  1.00  0.00     0.163 HD
ATOM     31  O   UNL A   1      40.391  22.319  26.163  1.00  0.00    -0.269 OA
BRANCH  29  32
ATOM     32  C   UNL A   1      39.514  24.392  26.855  1.00  0.00     0.039 A 
ATOM     33  C   UNL A   1      39.079  24.558  28.166  1.00  0.00     0.014 A 
ATOM     34  C   UNL A   1      40.222  25.388  26.178  1.00  0.00     0.014 A 
ATOM     35  C   UNL A   1      39.416  25.733  28.831  1.00  0.00     0.010 A 
ATOM     36  C   UNL A   1      40.666  26.488  26.887  1.00  0.00     0.010 A 
ATOM     37  C   UNL A   1      40.246  26.683  28.210  1.00  0.00    -0.014 A 
BRANCH  37  38
ATOM     38  C   UNL A   1      40.663  27.914  28.915  1.00  0.00     0.031 A 
ATOM     39  C   UNL A   1      42.035  27.978  29.526  1.00  0.00     0.074 A 
ATOM     40  C   UNL A   1      39.799  28.940  29.043  1.00  0.00     0.049 A 
ATOM     41  N   UNL A   1      42.587  28.948  30.205  1.00  0.00    -0.248 NA
ATOM     42  C   UNL A   1      42.889  26.784  29.386  1.00  0.00     0.031 C 
ATOM     43  C   UNL A   1      38.424  28.964  28.535  1.00  0.00     0.029 A 
ATOM     44  N   UNL A   1      39.952  30.166  29.637  1.00  0.00    -0.354 N 
ATOM     45  C   UNL A   1      43.838  28.474  30.582  1.00  0.00     0.074 A 
ATOM     46  C   UNL A   1      43.936  27.108  30.126  1.00  0.00     0.031 C 
ATOM     47  C   UNL A   1      37.880  30.164  28.795  1.00  0.00     0.029 A 
ATOM     48  C   UNL A   1      38.844  30.973  29.533  1.00  0.00     0.049 A 
ATOM     49  H   UNL A   1      40.778  30.442  30.096  1.00  0.00     0.167 HD
ATOM     50  C   UNL A   1      44.831  29.131  31.222  1.00  0.00     0.031 A 
ATOM     51  C   UNL A   1      38.630  32.223  29.987  1.00  0.00     0.031 A 
ATOM     52  C   UNL A   1      44.724  30.494  31.662  1.00  0.00     0.049 A 
ATOM     53  C   UNL A   1      39.742  32.925  30.718  1.00  0.00     0.074 A 
ATOM     54  C   UNL A   1      45.687  31.276  32.273  1.00  0.00     0.029 A 
ATOM     55  N   UNL A   1      43.584  31.276  31.543  1.00  0.00    -0.354 N 
ATOM     56  N   UNL A   1      40.949  32.490  30.996  1.00  0.00    -0.248 NA
ATOM     57  C   UNL A   1      39.469  34.290  31.185  1.00  0.00     0.031 C 
ATOM     58  C   UNL A   1      45.105  32.505  32.593  1.00  0.00     0.029 A 
ATOM     59  C   UNL A   1      43.808  32.521  32.104  1.00  0.00     0.049 A 
ATOM     60  H   UNL A   1      42.742  30.988  31.124  1.00  0.00     0.167 HD
ATOM     61  C   UNL A   1      41.590  33.540  31.644  1.00  0.00     0.074 A 
ATOM     62  C   UNL A   1      40.643  34.636  31.696  1.00  0.00     0.031 C 
ATOM     63  C   UNL A   1      42.848  33.597  32.147  1.00  0.00     0.031 A 
BRANCH  50  64
ATOM     64  C   UNL A   1      46.107  28.378  31.490  1.00  0.00    -0.014 A 
ATOM     65  C   UNL A   1      46.293  27.651  32.682  1.00  0.00     0.010 A 
ATOM     66  C   UNL A   1      47.125  28.370  30.520  1.00  0.00     0.010 A 
ATOM     67  C   UNL A   1      47.486  26.964  32.914  1.00  0.00     0.020 A 
ATOM     68  C   UNL A   1      48.306  27.653  30.733  1.00  0.00     0.020 A 
ATOM     69  C   UNL A   1      48.484  26.967  31.936  1.00  0.00     0.054 A 
BRANCH  69  70
ATOM     70  S   UNL A   1      50.006  26.033  32.248  1.00  0.00     0.124 S 
ATOM     71  O   UNL A   1      51.034  27.027  31.956  1.00  0.00    -0.237 OA
ATOM     72  O   UNL A   1      49.868  25.666  33.655  1.00  0.00    -0.237 OA
ATOM     73  O   UNL A   1      49.930  24.919  31.305  1.00  0.00    -0.744 OA
ENDBRANCH  69  70
ENDBRANCH  50  64
BRANCH  51  74
ATOM     74  C   UNL A   1      37.318  32.889  29.753  1.00  0.00    -0.014 A 
ATOM     75  C   UNL A   1      36.930  33.285  28.461  1.00  0.00     0.010 A 
ATOM     76  C   UNL A   1      36.441  33.125  30.828  1.00  0.00     0.010 A 
ATOM     77  C   UNL A   1      35.703  33.922  28.252  1.00  0.00     0.020 A 
ATOM     78  C   UNL A   1      35.198  33.730  30.619  1.00  0.00     0.020 A 
ATOM     79  C   UNL A   1      34.844  34.136  29.332  1.00  0.00     0.054 A 
BRANCH  79  80
ATOM     80  S   UNL A   1      33.236  34.920  29.027  1.00  0.00     0.124 S 
ATOM     81  O   UNL A   1      32.672  34.064  27.988  1.00  0.00    -0.237 OA
ATOM     82  O   UNL A   1      32.594  34.835  30.337  1.00  0.00    -0.237 OA
ATOM     83  O   UNL A   1      33.590  36.273  28.602  1.00  0.00    -0.744 OA
ENDBRANCH  79  80
ENDBRANCH  51  74
BRANCH  63  84
ATOM     84  C   UNL A   1      43.293  34.898  32.763  1.00  0.00    -0.014 A 
ATOM     85  C   UNL A   1      43.904  35.904  31.994  1.00  0.00     0.010 A 
ATOM     86  C   UNL A   1      43.035  35.137  34.125  1.00  0.00     0.010 A 
ATOM     87  C   UNL A   1      44.284  37.110  32.586  1.00  0.00     0.020 A 
ATOM     88  C   UNL A   1      43.377  36.356  34.712  1.00  0.00     0.020 A 
ATOM     89  C   UNL A   1      44.014  37.331  33.941  1.00  0.00     0.054 A 
BRANCH  89  90
ATOM     90  S   UNL A   1      44.477  38.922  34.673  1.00  0.00     0.124 S 
ATOM     91  O   UNL A   1      45.713  39.237  33.962  1.00  0.00    -0.237 OA
ATOM     92  O   UNL A   1      43.332  39.767  34.346  1.00  0.00    -0.237 OA
ATOM     93  O   UNL A   1      44.637  38.620  36.094  1.00  0.00    -0.744 OA
ENDBRANCH  89  90
ENDBRANCH  63  84
ENDBRANCH  37  38
ENDBRANCH  29  32
ENDBRANCH  27  28
ENDBRANCH  26  27
ENDBRANCH  25  26
ENDBRANCH   1  25
TORSDOF 20
ENDMDL
MODEL 3
REMARK VINA RESULT:      -9.8      3.757      5.332
REMARK SMILES C[NH2+][C@]1(C(=O)NCCCCNC(=O)c2ccc(-c3c4nc(c(-c5ccc(S(=O)(=O)[O-])cc5)c5ccc([nH]5)c(-c5ccc(S(=O)(=O)[O-])cc5)c5nc(c(-c6ccc(S(=O)(=O)[O-])cc6)c6ccc3[nH]6)C=C5)C=C4)cc2)CC[C@@H](OCCCc2ccccc2)C1
REMARK SMILES IDX 7 1 6 2 4 3 5 4 3 6 74 7 87 8 75 9 76 10 2 11 1 12 77 15
REMARK SMILES IDX 78 16 79 17 80 18 81 19 82 20 86 21 83 22 85 23 84 24 8 25
REMARK SMILES IDX 9 26 10 27 11 28 12 29 13 31 14 32 15 33 73 34 16 35 72 36
REMARK SMILES IDX 17 37 18 38 19 39 66 40 20 41 71 42 65 43 67 44 21 45 70 46
REMARK SMILES IDX 64 47 63 48 22 50 52 51 33 52 51 53 34 54 37 55 50 56 68 57
REMARK SMILES IDX 35 58 36 59 49 61 69 62 38 63 23 64 24 65 32 66 25 67 31 68
REMARK SMILES IDX 26 69 27 70 28 71 29 72 30 73 53 74 54 75 62 76 55 77 61 78
REMARK SMILES IDX 56 79 57 80 58 81 59 82 60 83 39 84 40 85 48 86 41 87 47 88
REMARK SMILES IDX 42 89 43 90 44 91 45 92 46 93
REMARK H PARENT 6 5 2 13 2 14 11 30 67 49 37 60
REMARK Flexibility Score: inf
ROOT
ATOM      1  C   UNL A   1      36.341  23.314  26.232  1.00  0.00     0.116 C 
ENDROOT
BRANCH   1   2
ATOM      2  N   UNL A   1      35.239  22.210  25.706  1.00  0.00    -0.351 N 
ATOM      3  C   UNL A   1      33.308  21.914  25.535  1.00  0.00     0.281 C 
ATOM      4  O   UNL A   1      32.705  20.828  25.205  1.00  0.00    -0.268 OA
ATOM      5  H   UNL A   1      35.715  21.424  25.353  1.00  0.00     0.163 HD
BRANCH   3   6
ATOM      6  C   UNL A   1      31.868  23.070  25.877  1.00  0.00     0.177 C 
ATOM      7  C   UNL A   1      32.401  24.416  26.495  1.00  0.00     0.082 C 
ATOM      8  C   UNL A   1      30.643  23.560  24.997  1.00  0.00     0.111 C 
ATOM      9  C   UNL A   1      31.694  25.597  25.820  1.00  0.00     0.039 C 
ATOM     10  C   UNL A   1      30.834  25.052  24.695  1.00  0.00     0.125 C 
BRANCH   6  11
ATOM     11  N   UNL A   1      31.191  22.468  27.120  1.00  0.00    -0.336 N 
ATOM     12  C   UNL A   1      29.749  22.581  27.202  1.00  0.00     0.331 C 
ATOM     13  H   UNL A   1      31.424  21.475  27.147  1.00  0.00     0.346 HD
ATOM     14  H   UNL A   1      31.546  23.012  27.906  1.00  0.00     0.346 HD
ENDBRANCH   6  11
BRANCH  10  15
ATOM     15  O   UNL A   1      31.082  25.635  23.428  1.00  0.00    -0.378 OA
BRANCH  15  16
ATOM     16  C   UNL A   1      31.975  25.215  22.425  1.00  0.00     0.161 C 
BRANCH  16  17
ATOM     17  C   UNL A   1      32.815  26.257  21.704  1.00  0.00     0.033 C 
BRANCH  17  18
ATOM     18  C   UNL A   1      33.747  27.147  22.497  1.00  0.00     0.038 C 
BRANCH  18  19
ATOM     19  C   UNL A   1      33.205  28.064  23.561  1.00  0.00    -0.048 A 
ATOM     20  C   UNL A   1      31.608  29.014  23.507  1.00  0.00     0.004 A 
ATOM     21  C   UNL A   1      34.139  28.011  25.135  1.00  0.00     0.004 A 
ATOM     22  C   UNL A   1      31.026  29.910  24.988  1.00  0.00     0.000 A 
ATOM     23  C   UNL A   1      33.519  28.853  26.620  1.00  0.00     0.000 A 
ATOM     24  C   UNL A   1      31.974  29.824  26.526  1.00  0.00     0.000 A 
ENDBRANCH  18  19
ENDBRANCH  17  18
ENDBRANCH  16  17
ENDBRANCH  15  16
ENDBRANCH  10  15
ENDBRANCH   3   6
ENDBRANCH   1   2
BRANCH   1  25
ATOM     25  C   UNL A   1      37.599  23.286  25.369  1.00  0.00     0.023 C 
BRANCH  25  26
ATOM     26  C   UNL A   1      38.261  21.921  25.337  1.00  0.00     0.023 C 
BRANCH  26  27
ATOM     27  C   UNL A   1      39.309  21.738  26.426  1.00  0.00     0.116 C 
BRANCH  27  28
ATOM     28  N   UNL A   1      40.049  20.480  26.280  1.00  0.00    -0.352 N 
ATOM     29  C   UNL A   1      41.400  20.305  26.130  1.00  0.00     0.251 C 
ATOM     30  H   UNL A   1      39.507  19.657  26.291  1.00  0.00     0.163 HD
ATOM     31  O   UNL A   1      41.878  19.228  25.800  1.00  0.00    -0.269 OA
BRANCH  29  32
ATOM     32  C   UNL A   1      42.239  21.482  26.377  1.00  0.00     0.039 A 
ATOM     33  C   UNL A   1      42.326  22.474  25.404  1.00  0.00     0.014 A 
ATOM     34  C   UNL A   1      42.753  21.660  27.663  1.00  0.00     0.014 A 
ATOM     35  C   UNL A   1      42.894  23.695  25.753  1.00  0.00     0.010 A 
ATOM     36  C   UNL A   1      43.191  22.917  28.038  1.00  0.00     0.010 A 
ATOM     37  C   UNL A   1      43.289  23.936  27.081  1.00  0.00    -0.014 A 
BRANCH  37  38
ATOM     38  C   UNL A   1      43.845  25.245  27.490  1.00  0.00     0.031 A 
ATOM     39  C   UNL A   1      45.308  25.517  27.272  1.00  0.00     0.074 A 
ATOM     40  C   UNL A   1      43.053  26.152  28.092  1.00  0.00     0.049 A 
ATOM     41  N   UNL A   1      45.998  26.583  27.579  1.00  0.00    -0.248 NA
ATOM     42  C   UNL A   1      46.108  24.441  26.661  1.00  0.00     0.031 C 
ATOM     43  C   UNL A   1      41.631  25.971  28.400  1.00  0.00     0.029 A 
ATOM     44  N   UNL A   1      43.331  27.415  28.548  1.00  0.00    -0.354 N 
ATOM     45  C   UNL A   1      47.308  26.297  27.212  1.00  0.00     0.074 A 
ATOM     46  C   UNL A   1      47.333  24.935  26.734  1.00  0.00     0.031 C 
ATOM     47  C   UNL A   1      41.153  27.101  28.947  1.00  0.00     0.029 A 
ATOM     48  C   UNL A   1      42.240  28.064  29.078  1.00  0.00     0.049 A 
ATOM     49  H   UNL A   1      44.227  27.820  28.500  1.00  0.00     0.167 HD
ATOM     50  C   UNL A   1      48.388  27.108  27.239  1.00  0.00     0.031 A 
ATOM     51  C   UNL A   1      42.134  29.295  29.613  1.00  0.00     0.031 A 
ATOM     52  C   UNL A   1      48.348  28.465  27.709  1.00  0.00     0.049 A 
ATOM     53  C   UNL A   1      43.356  30.172  29.656  1.00  0.00     0.074 A 
ATOM     54  C   UNL A   1      49.371  29.396  27.732  1.00  0.00     0.029 A 
ATOM     55  N   UNL A   1      47.227  29.084  28.243  1.00  0.00    -0.354 N 
ATOM     56  N   UNL A   1      44.570  29.913  29.230  1.00  0.00    -0.248 NA
ATOM     57  C   UNL A   1      43.191  31.510  30.236  1.00  0.00     0.031 C 
ATOM     58  C   UNL A   1      48.889  30.551  28.351  1.00  0.00     0.029 A 
ATOM     59  C   UNL A   1      47.543  30.373  28.634  1.00  0.00     0.049 A 
ATOM     60  H   UNL A   1      46.340  28.668  28.332  1.00  0.00     0.167 HD
ATOM     61  C   UNL A   1      45.308  31.069  29.464  1.00  0.00     0.074 A 
ATOM     62  C   UNL A   1      44.396  32.032  30.049  1.00  0.00     0.031 C 
ATOM     63  C   UNL A   1      46.619  31.314  29.217  1.00  0.00     0.031 A 
BRANCH  50  64
ATOM     64  C   UNL A   1      49.699  26.543  26.759  1.00  0.00    -0.014 A 
ATOM     65  C   UNL A   1      50.020  26.497  25.390  1.00  0.00     0.010 A 
ATOM     66  C   UNL A   1      50.639  26.078  27.697  1.00  0.00     0.010 A 
ATOM     67  C   UNL A   1      51.238  25.964  24.965  1.00  0.00     0.020 A 
ATOM     68  C   UNL A   1      51.874  25.577  27.277  1.00  0.00     0.020 A 
ATOM     69  C   UNL A   1      52.160  25.510  25.913  1.00  0.00     0.054 A 
BRANCH  69  70
ATOM     70  S   UNL A   1      53.749  24.859  25.333  1.00  0.00     0.124 S 
ATOM     71  O   UNL A   1      53.407  23.478  25.004  1.00  0.00    -0.237 OA
ATOM     72  O   UNL A   1      54.047  25.722  24.193  1.00  0.00    -0.237 OA
ATOM     73  O   UNL A   1      54.633  25.024  26.485  1.00  0.00    -0.744 OA
ENDBRANCH  69  70
ENDBRANCH  50  64
BRANCH  51  74
ATOM     74  C   UNL A   1      40.823  29.771  30.139  1.00  0.00    -0.014 A 
ATOM     75  C   UNL A   1      40.530  29.702  31.512  1.00  0.00     0.010 A 
ATOM     76  C   UNL A   1      39.860  30.307  29.264  1.00  0.00     0.010 A 
ATOM     77  C   UNL A   1      39.292  30.138  31.996  1.00  0.00     0.020 A 
ATOM     78  C   UNL A   1      38.636  30.778  29.748  1.00  0.00     0.020 A 
ATOM     79  C   UNL A   1      38.356  30.677  31.111  1.00  0.00     0.054 A 
BRANCH  79  80
ATOM     80  S   UNL A   1      36.777  31.281  31.770  1.00  0.00     0.124 S 
ATOM     81  O   UNL A   1      36.494  32.412  30.892  1.00  0.00    -0.237 OA
ATOM     82  O   UNL A   1      35.906  30.119  31.610  1.00  0.00    -0.237 OA
ATOM     83  O   UNL A   1      37.094  31.626  33.155  1.00  0.00    -0.744 OA
ENDBRANCH  79  80
ENDBRANCH  51  74
BRANCH  63  84
ATOM     84  C   UNL A   1      47.140  32.690  29.537  1.00  0.00    -0.014 A 
ATOM     85  C   UNL A   1      47.084  33.734  28.597  1.00  0.00     0.010 A 
ATOM     86  C   UNL A   1      47.639  32.954  30.826  1.00  0.00     0.010 A 
ATOM     87  C   UNL A   1      47.554  35.008  28.930  1.00  0.00     0.020 A 
ATOM     88  C   UNL A   1      48.072  34.234  31.176  1.00  0.00     0.020 A 
ATOM     89  C   UNL A   1      48.041  35.250  30.219  1.00  0.00     0.054 A 
BRANCH  89  90
ATOM     90  S   UNL A   1      48.601  36.922  30.638  1.00  0.00     0.124 S 
ATOM     91  O   UNL A   1      49.386  37.284  29.460  1.00  0.00    -0.237 OA
ATOM     92  O   UNL A   1      47.343  37.647  30.801  1.00  0.00    -0.237 OA
ATOM     93  O   UNL A   1      49.371  36.735  31.865  1.00  0.00    -0.744 OA
ENDBRANCH  89  90
ENDBRANCH  63  84
ENDBRANCH  37  38
ENDBRANCH  29  32
ENDBRANCH  27  28
ENDBRANCH  26  27
ENDBRANCH  25  26
ENDBRANCH   1  25
TORSDOF 20
ENDMDL
