MODEL 1
REMARK VINA RESULT:     -12.1      0.000      0.000
REMARK SMILES CC1(C)S[C@H](c2ccc(-c3ccccc3)o2)[NH2+][C@H]1C(=O)NCCCCNC(=O)c1ccc(-c2c3nc(c(-c4ccc(S(=O)(=O)[O-])cc4)c4ccc([nH]4)c(-c4ccc(S(=O)(=O)[O-])cc4)c4nc(c(-c5ccc(S(=O)(=O)[O-])cc5)c5ccc2[nH]5)C=C4)C=C3)cc1
REMARK SMILES IDX 24 1 23 2 22 3 21 4 19 5 20 6 18 8 1 9 2 10 3 11 4 12 5 13
REMARK SMILES IDX 17 14 6 17 7 18 16 19 8 20 9 21 10 22 11 23 15 24 12 25
REMARK SMILES IDX 14 26 13 27 25 28 26 29 27 30 28 32 29 33 30 34 88 35 31 36
REMARK SMILES IDX 87 37 32 38 33 39 34 40 81 41 35 42 86 43 80 44 82 45 36 46
REMARK SMILES IDX 85 47 79 48 78 49 37 51 67 52 48 53 66 54 49 55 52 56 65 57
REMARK SMILES IDX 83 58 50 59 51 60 64 62 84 63 53 64 38 65 39 66 47 67 40 68
REMARK SMILES IDX 46 69 41 70 42 71 43 72 44 73 45 74 68 75 69 76 77 77 70 78
REMARK SMILES IDX 76 79 71 80 72 81 73 82 74 83 75 84 54 85 55 86 63 87 56 88
REMARK SMILES IDX 62 89 57 90 58 91 59 92 60 93 61 94
REMARK H PARENT 21 7 17 15 17 16 26 31 82 50 52 61
REMARK Flexibility Score: inf
ROOT
ATOM      1  C   UNL A   1      39.188  22.826  26.730  1.00  0.00     0.023 C 
ENDROOT
BRANCH   1   2
ATOM      2  C   UNL A   1      38.007  23.714  26.369  1.00  0.00     0.023 C 
BRANCH   2   3
ATOM      3  C   UNL A   1      36.910  23.043  25.541  1.00  0.00     0.116 C 
BRANCH   3   4
ATOM      4  N   UNL A   1      36.015  22.244  26.360  1.00  0.00    -0.351 N 
ATOM      5  C   UNL A   1      34.670  22.264  26.581  1.00  0.00     0.279 C 
ATOM      6  O   UNL A   1      34.254  21.488  27.451  1.00  0.00    -0.268 OA
ATOM      7  H   UNL A   1      36.479  21.539  26.865  1.00  0.00     0.163 HD
BRANCH   5   8
ATOM      8  C   UNL A   1      33.676  23.208  25.865  1.00  0.00     0.289 C 
ATOM      9  C   UNL A   1      32.428  21.156  24.779  1.00  0.00     0.030 C 
ATOM     10  C   UNL A   1      32.944  22.585  24.656  1.00  0.00     0.078 C 
ATOM     11  C   UNL A   1      33.800  22.684  23.389  1.00  0.00     0.030 C 
ATOM     12  S   UNL A   1      31.466  23.629  24.466  1.00  0.00    -0.078 SA
ATOM     13  C   UNL A   1      31.651  24.463  26.065  1.00  0.00     0.311 C 
ATOM     14  N   UNL A   1      32.774  23.902  26.809  1.00  0.00    -0.317 N 
ATOM     15  H   UNL A   1      32.427  23.238  27.502  1.00  0.00     0.348 HD
ATOM     16  H   UNL A   1      33.280  24.648  27.284  1.00  0.00     0.348 HD
BRANCH  13  17
ATOM     17  C   UNL A   1      31.702  25.940  25.838  1.00  0.00     0.172 A 
ATOM     18  C   UNL A   1      30.985  26.736  24.963  1.00  0.00     0.054 A 
ATOM     19  O   UNL A   1      32.602  26.708  26.528  1.00  0.00    -0.454 OA
ATOM     20  C   UNL A   1      31.456  28.054  25.135  1.00  0.00     0.051 A 
ATOM     21  C   UNL A   1      32.432  27.997  26.108  1.00  0.00     0.134 A 
BRANCH  21  22
ATOM     22  C   UNL A   1      33.257  29.019  26.732  1.00  0.00     0.017 A 
ATOM     23  C   UNL A   1      34.625  28.821  26.950  1.00  0.00     0.012 A 
ATOM     24  C   UNL A   1      32.690  30.255  27.077  1.00  0.00     0.012 A 
ATOM     25  C   UNL A   1      35.413  29.847  27.481  1.00  0.00     0.001 A 
ATOM     26  C   UNL A   1      33.473  31.275  27.620  1.00  0.00     0.001 A 
ATOM     27  C   UNL A   1      34.837  31.073  27.814  1.00  0.00     0.000 A 
ENDBRANCH  21  22
ENDBRANCH  13  17
ENDBRANCH   5   8
ENDBRANCH   3   4
ENDBRANCH   2   3
ENDBRANCH   1   2
BRANCH   1  28
ATOM     28  C   UNL A   1      40.446  23.580  27.127  1.00  0.00     0.116 C 
BRANCH  28  29
ATOM     29  N   UNL A   1      41.043  24.312  26.018  1.00  0.00    -0.352 N 
ATOM     30  C   UNL A   1      41.396  25.640  25.952  1.00  0.00     0.251 C 
ATOM     31  H   UNL A   1      41.220  23.785  25.205  1.00  0.00     0.163 HD
ATOM     32  O   UNL A   1      41.758  26.133  24.893  1.00  0.00    -0.269 OA
BRANCH  30  33
ATOM     33  C   UNL A   1      41.301  26.461  27.176  1.00  0.00     0.039 A 
ATOM     34  C   UNL A   1      42.206  27.506  27.370  1.00  0.00     0.014 A 
ATOM     35  C   UNL A   1      40.275  26.228  28.095  1.00  0.00     0.014 A 
ATOM     36  C   UNL A   1      42.041  28.359  28.463  1.00  0.00     0.010 A 
ATOM     37  C   UNL A   1      40.052  27.137  29.118  1.00  0.00     0.010 A 
ATOM     38  C   UNL A   1      40.944  28.199  29.325  1.00  0.00    -0.014 A 
BRANCH  38  39
ATOM     39  C   UNL A   1      40.726  29.096  30.486  1.00  0.00     0.031 A 
ATOM     40  C   UNL A   1      41.575  28.924  31.718  1.00  0.00     0.074 A 
ATOM     41  C   UNL A   1      39.729  30.002  30.463  1.00  0.00     0.049 A 
ATOM     42  N   UNL A   1      41.485  29.529  32.873  1.00  0.00    -0.248 NA
ATOM     43  C   UNL A   1      42.636  27.904  31.656  1.00  0.00     0.031 C 
ATOM     44  C   UNL A   1      38.807  30.228  29.346  1.00  0.00     0.029 A 
ATOM     45  N   UNL A   1      39.321  30.902  31.415  1.00  0.00    -0.354 N 
ATOM     46  C   UNL A   1      42.452  28.940  33.681  1.00  0.00     0.074 A 
ATOM     47  C   UNL A   1      43.075  27.892  32.905  1.00  0.00     0.031 C 
ATOM     48  C   UNL A   1      37.963  31.223  29.666  1.00  0.00     0.029 A 
ATOM     49  C   UNL A   1      38.260  31.681  31.019  1.00  0.00     0.049 A 
ATOM     50  H   UNL A   1      39.749  30.982  32.298  1.00  0.00     0.167 HD
ATOM     51  C   UNL A   1      42.810  29.260  34.946  1.00  0.00     0.031 A 
ATOM     52  C   UNL A   1      37.603  32.657  31.675  1.00  0.00     0.031 A 
ATOM     53  C   UNL A   1      42.214  30.331  35.698  1.00  0.00     0.049 A 
ATOM     54  C   UNL A   1      38.048  33.026  33.065  1.00  0.00     0.074 A 
ATOM     55  C   UNL A   1      42.542  30.781  36.964  1.00  0.00     0.029 A 
ATOM     56  N   UNL A   1      41.175  31.128  35.243  1.00  0.00    -0.354 N 
ATOM     57  N   UNL A   1      39.000  32.494  33.794  1.00  0.00    -0.248 NA
ATOM     58  C   UNL A   1      37.343  34.142  33.711  1.00  0.00     0.031 C 
ATOM     59  C   UNL A   1      41.678  31.834  37.287  1.00  0.00     0.029 A 
ATOM     60  C   UNL A   1      40.846  32.068  36.202  1.00  0.00     0.049 A 
ATOM     61  H   UNL A   1      40.737  31.039  34.365  1.00  0.00     0.167 HD
ATOM     62  C   UNL A   1      39.029  33.230  34.972  1.00  0.00     0.074 A 
ATOM     63  C   UNL A   1      38.007  34.251  34.853  1.00  0.00     0.031 C 
ATOM     64  C   UNL A   1      39.830  33.079  36.057  1.00  0.00     0.031 A 
BRANCH  51  65
ATOM     65  C   UNL A   1      43.902  28.444  35.583  1.00  0.00    -0.014 A 
ATOM     66  C   UNL A   1      43.603  27.294  36.338  1.00  0.00     0.010 A 
ATOM     67  C   UNL A   1      45.246  28.825  35.422  1.00  0.00     0.010 A 
ATOM     68  C   UNL A   1      44.623  26.571  36.963  1.00  0.00     0.020 A 
ATOM     69  C   UNL A   1      46.272  28.086  36.020  1.00  0.00     0.020 A 
ATOM     70  C   UNL A   1      45.950  26.976  36.804  1.00  0.00     0.054 A 
BRANCH  70  71
ATOM     71  S   UNL A   1      47.256  26.014  37.617  1.00  0.00     0.124 S 
ATOM     72  O   UNL A   1      48.395  26.925  37.533  1.00  0.00    -0.237 OA
ATOM     73  O   UNL A   1      46.715  25.808  38.958  1.00  0.00    -0.237 OA
ATOM     74  O   UNL A   1      47.358  24.809  36.798  1.00  0.00    -0.744 OA
ENDBRANCH  70  71
ENDBRANCH  51  65
BRANCH  52  75
ATOM     75  C   UNL A   1      36.486  33.382  31.010  1.00  0.00    -0.014 A 
ATOM     76  C   UNL A   1      36.689  34.015  29.772  1.00  0.00     0.010 A 
ATOM     77  C   UNL A   1      35.211  33.429  31.601  1.00  0.00     0.010 A 
ATOM     78  C   UNL A   1      35.644  34.702  29.146  1.00  0.00     0.020 A 
ATOM     79  C   UNL A   1      34.157  34.094  30.967  1.00  0.00     0.020 A 
ATOM     80  C   UNL A   1      34.383  34.736  29.748  1.00  0.00     0.054 A 
BRANCH  80  81
ATOM     81  S   UNL A   1      33.029  35.589  28.893  1.00  0.00     0.124 S 
ATOM     82  O   UNL A   1      32.413  34.503  28.139  1.00  0.00    -0.237 OA
ATOM     83  O   UNL A   1      32.239  36.119  30.002  1.00  0.00    -0.237 OA
ATOM     84  O   UNL A   1      33.717  36.599  28.091  1.00  0.00    -0.744 OA
ENDBRANCH  80  81
ENDBRANCH  52  75
BRANCH  64  85
ATOM     85  C   UNL A   1      39.668  34.069  37.177  1.00  0.00    -0.014 A 
ATOM     86  C   UNL A   1      38.959  33.741  38.345  1.00  0.00     0.010 A 
ATOM     87  C   UNL A   1      40.281  35.331  37.073  1.00  0.00     0.010 A 
ATOM     88  C   UNL A   1      38.835  34.674  39.377  1.00  0.00     0.020 A 
ATOM     89  C   UNL A   1      40.182  36.255  38.115  1.00  0.00     0.020 A 
ATOM     90  C   UNL A   1      39.445  35.926  39.254  1.00  0.00     0.054 A 
BRANCH  90  91
ATOM     91  S   UNL A   1      39.300  37.109  40.621  1.00  0.00     0.124 S 
ATOM     92  O   UNL A   1      38.793  36.264  41.699  1.00  0.00    -0.237 OA
ATOM     93  O   UNL A   1      40.673  37.580  40.786  1.00  0.00    -0.237 OA
ATOM     94  O   UNL A   1      38.362  38.108  40.116  1.00  0.00    -0.744 OA
ENDBRANCH  90  91
ENDBRANCH  64  85
ENDBRANCH  38  39
ENDBRANCH  30  33
ENDBRANCH  28  29
ENDBRANCH   1  28
TORSDOF 16
ENDMDL
MODEL 2
REMARK VINA RESULT:     -12.0      6.083     12.028
REMARK SMILES CC1(C)S[C@H](c2ccc(-c3ccccc3)o2)[NH2+][C@H]1C(=O)NCCCCNC(=O)c1ccc(-c2c3nc(c(-c4ccc(S(=O)(=O)[O-])cc4)c4ccc([nH]4)c(-c4ccc(S(=O)(=O)[O-])cc4)c4nc(c(-c5ccc(S(=O)(=O)[O-])cc5)c5ccc2[nH]5)C=C4)C=C3)cc1
REMARK SMILES IDX 24 1 23 2 22 3 21 4 19 5 20 6 18 8 1 9 2 10 3 11 4 12 5 13
REMARK SMILES IDX 17 14 6 17 7 18 16 19 8 20 9 21 10 22 11 23 15 24 12 25
REMARK SMILES IDX 14 26 13 27 25 28 26 29 27 30 28 32 29 33 30 34 88 35 31 36
REMARK SMILES IDX 87 37 32 38 33 39 34 40 81 41 35 42 86 43 80 44 82 45 36 46
REMARK SMILES IDX 85 47 79 48 78 49 37 51 67 52 48 53 66 54 49 55 52 56 65 57
REMARK SMILES IDX 83 58 50 59 51 60 64 62 84 63 53 64 38 65 39 66 47 67 40 68
REMARK SMILES IDX 46 69 41 70 42 71 43 72 44 73 45 74 68 75 69 76 77 77 70 78
REMARK SMILES IDX 76 79 71 80 72 81 73 82 74 83 75 84 54 85 55 86 63 87 56 88
REMARK SMILES IDX 62 89 57 90 58 91 59 92 60 93 61 94
REMARK H PARENT 21 7 17 15 17 16 26 31 82 50 52 61
REMARK Flexibility Score: inf
ROOT
ATOM      1  C   UNL A   1      34.956  31.139  27.653  1.00  0.00     0.023 C 
ENDROOT
BRANCH   1   2
ATOM      2  C   UNL A   1      34.991  29.652  27.331  1.00  0.00     0.023 C 
BRANCH   2   3
ATOM      3  C   UNL A   1      33.705  29.080  26.731  1.00  0.00     0.116 C 
BRANCH   3   4
ATOM      4  N   UNL A   1      33.562  29.409  25.323  1.00  0.00    -0.351 N 
ATOM      5  C   UNL A   1      33.320  28.672  24.203  1.00  0.00     0.279 C 
ATOM      6  O   UNL A   1      33.377  29.285  23.130  1.00  0.00    -0.268 OA
ATOM      7  H   UNL A   1      33.663  30.370  25.139  1.00  0.00     0.163 HD
BRANCH   5   8
ATOM      8  C   UNL A   1      33.040  27.151  24.197  1.00  0.00     0.289 C 
ATOM      9  C   UNL A   1      30.533  27.563  23.496  1.00  0.00     0.030 C 
ATOM     10  C   UNL A   1      31.549  26.764  24.304  1.00  0.00     0.078 C 
ATOM     11  C   UNL A   1      31.094  26.743  25.769  1.00  0.00     0.030 C 
ATOM     12  S   UNL A   1      31.494  25.073  23.635  1.00  0.00    -0.078 SA
ATOM     13  C   UNL A   1      33.165  25.124  22.934  1.00  0.00     0.311 C 
ATOM     14  N   UNL A   1      33.755  26.447  23.110  1.00  0.00    -0.317 N 
ATOM     15  H   UNL A   1      33.669  26.979  22.243  1.00  0.00     0.348 HD
ATOM     16  H   UNL A   1      34.742  26.356  23.350  1.00  0.00     0.348 HD
BRANCH  13  17
ATOM     17  C   UNL A   1      33.958  23.985  23.489  1.00  0.00     0.172 A 
ATOM     18  C   UNL A   1      33.680  22.631  23.519  1.00  0.00     0.054 A 
ATOM     19  O   UNL A   1      35.144  24.226  24.131  1.00  0.00    -0.454 OA
ATOM     20  C   UNL A   1      34.750  22.011  24.195  1.00  0.00     0.051 A 
ATOM     21  C   UNL A   1      35.630  23.016  24.541  1.00  0.00     0.134 A 
BRANCH  21  22
ATOM     22  C   UNL A   1      36.915  23.005  25.221  1.00  0.00     0.017 A 
ATOM     23  C   UNL A   1      37.360  24.107  25.960  1.00  0.00     0.012 A 
ATOM     24  C   UNL A   1      37.710  21.849  25.185  1.00  0.00     0.012 A 
ATOM     25  C   UNL A   1      38.565  24.044  26.667  1.00  0.00     0.001 A 
ATOM     26  C   UNL A   1      38.919  21.791  25.880  1.00  0.00     0.001 A 
ATOM     27  C   UNL A   1      39.342  22.886  26.628  1.00  0.00     0.000 A 
ENDBRANCH  21  22
ENDBRANCH  13  17
ENDBRANCH   5   8
ENDBRANCH   3   4
ENDBRANCH   2   3
ENDBRANCH   1   2
BRANCH   1  28
ATOM     28  C   UNL A   1      35.985  31.586  28.678  1.00  0.00     0.116 C 
BRANCH  28  29
ATOM     29  N   UNL A   1      35.737  31.042  30.006  1.00  0.00    -0.352 N 
ATOM     30  C   UNL A   1      36.564  30.271  30.790  1.00  0.00     0.251 C 
ATOM     31  H   UNL A   1      34.859  31.257  30.398  1.00  0.00     0.163 HD
ATOM     32  O   UNL A   1      36.149  29.776  31.828  1.00  0.00    -0.269 OA
BRANCH  30  33
ATOM     33  C   UNL A   1      37.949  30.030  30.338  1.00  0.00     0.039 A 
ATOM     34  C   UNL A   1      38.933  29.729  31.281  1.00  0.00     0.014 A 
ATOM     35  C   UNL A   1      38.251  30.047  28.974  1.00  0.00     0.014 A 
ATOM     36  C   UNL A   1      40.213  29.380  30.846  1.00  0.00     0.010 A 
ATOM     37  C   UNL A   1      39.491  29.600  28.542  1.00  0.00     0.010 A 
ATOM     38  C   UNL A   1      40.490  29.282  29.473  1.00  0.00    -0.014 A 
BRANCH  38  39
ATOM     39  C   UNL A   1      41.833  28.898  28.973  1.00  0.00     0.031 A 
ATOM     40  C   UNL A   1      42.917  29.941  28.900  1.00  0.00     0.074 A 
ATOM     41  C   UNL A   1      42.054  27.649  28.518  1.00  0.00     0.049 A 
ATOM     42  N   UNL A   1      44.122  29.845  28.405  1.00  0.00    -0.248 NA
ATOM     43  C   UNL A   1      42.584  31.282  29.413  1.00  0.00     0.031 C 
ATOM     44  C   UNL A   1      41.067  26.565  28.489  1.00  0.00     0.029 A 
ATOM     45  N   UNL A   1      43.184  27.082  27.986  1.00  0.00    -0.354 N 
ATOM     46  C   UNL A   1      44.676  31.116  28.516  1.00  0.00     0.074 A 
ATOM     47  C   UNL A   1      43.656  31.978  29.069  1.00  0.00     0.031 C 
ATOM     48  C   UNL A   1      41.646  25.457  27.996  1.00  0.00     0.029 A 
ATOM     49  C   UNL A   1      43.029  25.760  27.642  1.00  0.00     0.049 A 
ATOM     50  H   UNL A   1      44.027  27.576  27.862  1.00  0.00     0.167 HD
ATOM     51  C   UNL A   1      45.929  31.526  28.211  1.00  0.00     0.031 A 
ATOM     52  C   UNL A   1      43.906  24.891  27.104  1.00  0.00     0.031 A 
ATOM     53  C   UNL A   1      46.952  30.654  27.700  1.00  0.00     0.049 A 
ATOM     54  C   UNL A   1      45.307  25.356  26.815  1.00  0.00     0.074 A 
ATOM     55  C   UNL A   1      48.272  30.950  27.415  1.00  0.00     0.029 A 
ATOM     56  N   UNL A   1      46.768  29.311  27.412  1.00  0.00    -0.354 N 
ATOM     57  N   UNL A   1      45.828  26.549  26.976  1.00  0.00    -0.248 NA
ATOM     58  C   UNL A   1      46.243  24.352  26.292  1.00  0.00     0.031 C 
ATOM     59  C   UNL A   1      48.880  29.788  26.924  1.00  0.00     0.029 A 
ATOM     60  C   UNL A   1      47.949  28.761  26.949  1.00  0.00     0.049 A 
ATOM     61  H   UNL A   1      45.920  28.820  27.521  1.00  0.00     0.167 HD
ATOM     62  C   UNL A   1      47.162  26.432  26.603  1.00  0.00     0.074 A 
ATOM     63  C   UNL A   1      47.368  25.050  26.220  1.00  0.00     0.031 C 
ATOM     64  C   UNL A   1      48.132  27.380  26.582  1.00  0.00     0.031 A 
BRANCH  51  65
ATOM     65  C   UNL A   1      46.256  32.978  28.436  1.00  0.00    -0.014 A 
ATOM     66  C   UNL A   1      46.782  33.422  29.663  1.00  0.00     0.010 A 
ATOM     67  C   UNL A   1      46.040  33.911  27.406  1.00  0.00     0.010 A 
ATOM     68  C   UNL A   1      47.038  34.779  29.875  1.00  0.00     0.020 A 
ATOM     69  C   UNL A   1      46.324  35.267  27.604  1.00  0.00     0.020 A 
ATOM     70  C   UNL A   1      46.801  35.694  28.845  1.00  0.00     0.054 A 
BRANCH  70  71
ATOM     71  S   UNL A   1      47.151  37.448  29.142  1.00  0.00     0.124 S 
ATOM     72  O   UNL A   1      46.460  37.681  30.408  1.00  0.00    -0.237 OA
ATOM     73  O   UNL A   1      48.610  37.478  29.211  1.00  0.00    -0.237 OA
ATOM     74  O   UNL A   1      46.572  38.119  27.982  1.00  0.00    -0.744 OA
ENDBRANCH  70  71
ENDBRANCH  51  65
BRANCH  52  75
ATOM     75  C   UNL A   1      43.497  23.483  26.845  1.00  0.00    -0.014 A 
ATOM     76  C   UNL A   1      43.092  22.655  27.907  1.00  0.00     0.010 A 
ATOM     77  C   UNL A   1      43.494  22.967  25.537  1.00  0.00     0.010 A 
ATOM     78  C   UNL A   1      42.713  21.330  27.669  1.00  0.00     0.020 A 
ATOM     79  C   UNL A   1      43.092  21.651  25.292  1.00  0.00     0.020 A 
ATOM     80  C   UNL A   1      42.714  20.837  26.362  1.00  0.00     0.054 A 
BRANCH  80  81
ATOM     81  S   UNL A   1      42.170  19.131  26.071  1.00  0.00     0.124 S 
ATOM     82  O   UNL A   1      42.910  18.777  24.864  1.00  0.00    -0.237 OA
ATOM     83  O   UNL A   1      42.590  18.451  27.294  1.00  0.00    -0.237 OA
ATOM     84  O   UNL A   1      40.723  19.259  25.905  1.00  0.00    -0.744 OA
ENDBRANCH  80  81
ENDBRANCH  52  75
BRANCH  64  85
ATOM     85  C   UNL A   1      49.513  26.944  26.178  1.00  0.00    -0.014 A 
ATOM     86  C   UNL A   1      50.422  26.429  27.118  1.00  0.00     0.010 A 
ATOM     87  C   UNL A   1      49.885  27.007  24.822  1.00  0.00     0.010 A 
ATOM     88  C   UNL A   1      51.694  26.018  26.715  1.00  0.00     0.020 A 
ATOM     89  C   UNL A   1      51.146  26.571  24.412  1.00  0.00     0.020 A 
ATOM     90  C   UNL A   1      52.049  26.095  25.364  1.00  0.00     0.054 A 
BRANCH  90  91
ATOM     91  S   UNL A   1      53.694  25.522  24.858  1.00  0.00     0.124 S 
ATOM     92  O   UNL A   1      53.738  25.930  23.457  1.00  0.00    -0.237 OA
ATOM     93  O   UNL A   1      54.581  26.260  25.755  1.00  0.00    -0.237 OA
ATOM     94  O   UNL A   1      53.644  24.081  25.088  1.00  0.00    -0.744 OA
ENDBRANCH  90  91
ENDBRANCH  64  85
ENDBRANCH  38  39
ENDBRANCH  30  33
ENDBRANCH  28  29
ENDBRANCH   1  28
TORSDOF 16
ENDMDL
MODEL 3
REMARK VINA RESULT:     -11.7      6.162     11.574
REMARK SMILES CC1(C)S[C@H](c2ccc(-c3ccccc3)o2)[NH2+][C@H]1C(=O)NCCCCNC(=O)c1ccc(-c2c3nc(c(-c4ccc(S(=O)(=O)[O-])cc4)c4ccc([nH]4)c(-c4ccc(S(=O)(=O)[O-])cc4)c4nc(c(-c5ccc(S(=O)(=O)[O-])cc5)c5ccc2[nH]5)C=C4)C=C3)cc1
REMARK SMILES IDX 24 1 23 2 22 3 21 4 19 5 20 6 18 8 1 9 2 10 3 11 4 12 5 13
REMARK SMILES IDX 17 14 6 17 7 18 16 19 8 20 9 21 10 22 11 23 15 24 12 25
REMARK SMILES IDX 14 26 13 27 25 28 26 29 27 30 28 32 29 33 30 34 88 35 31 36
REMARK SMILES IDX 87 37 32 38 33 39 34 40 81 41 35 42 86 43 80 44 82 45 36 46
REMARK SMILES IDX 85 47 79 48 78 49 37 51 67 52 48 53 66 54 49 55 52 56 65 57
REMARK SMILES IDX 83 58 50 59 51 60 64 62 84 63 53 64 38 65 39 66 47 67 40 68
REMARK SMILES IDX 46 69 41 70 42 71 43 72 44 73 45 74 68 75 69 76 77 77 70 78
REMARK SMILES IDX 76 79 71 80 72 81 73 82 74 83 75 84 54 85 55 86 63 87 56 88
REMARK SMILES IDX 62 89 57 90 58 91 59 92 60 93 61 94
REMARK H PARENT 21 7 17 15 17 16 26 31 82 50 52 61
REMARK Flexibility Score: inf
ROOT
ATOM      1  C   UNL A   1      34.987  31.237  27.703  1.00  0.00     0.023 C 
ENDROOT
BRANCH   1   2
ATOM      2  C   UNL A   1      35.092  29.791  27.243  1.00  0.00     0.023 C 
BRANCH   2   3
ATOM      3  C   UNL A   1      33.800  29.181  26.696  1.00  0.00     0.116 C 
BRANCH   3   4
ATOM      4  N   UNL A   1      33.622  29.452  25.280  1.00  0.00    -0.351 N 
ATOM      5  C   UNL A   1      33.353  28.669  24.197  1.00  0.00     0.279 C 
ATOM      6  O   UNL A   1      33.383  29.238  23.099  1.00  0.00    -0.268 OA
ATOM      7  H   UNL A   1      33.717  30.404  25.054  1.00  0.00     0.163 HD
BRANCH   5   8
ATOM      8  C   UNL A   1      33.075  27.149  24.260  1.00  0.00     0.289 C 
ATOM      9  C   UNL A   1      30.534  27.537  23.677  1.00  0.00     0.030 C 
ATOM     10  C   UNL A   1      31.591  26.768  24.460  1.00  0.00     0.078 C 
ATOM     11  C   UNL A   1      31.214  26.800  25.945  1.00  0.00     0.030 C 
ATOM     12  S   UNL A   1      31.504  25.054  23.855  1.00  0.00    -0.078 SA
ATOM     13  C   UNL A   1      33.136  25.078  23.066  1.00  0.00     0.311 C 
ATOM     14  N   UNL A   1      33.733  26.406  23.164  1.00  0.00    -0.317 N 
ATOM     15  H   UNL A   1      33.601  26.906  22.284  1.00  0.00     0.348 HD
ATOM     16  H   UNL A   1      34.731  26.322  23.355  1.00  0.00     0.348 HD
BRANCH  13  17
ATOM     17  C   UNL A   1      33.958  23.959  23.621  1.00  0.00     0.172 A 
ATOM     18  C   UNL A   1      33.736  22.594  23.610  1.00  0.00     0.054 A 
ATOM     19  O   UNL A   1      35.113  24.232  24.306  1.00  0.00    -0.454 OA
ATOM     20  C   UNL A   1      34.809  22.002  24.306  1.00  0.00     0.051 A 
ATOM     21  C   UNL A   1      35.635  23.034  24.702  1.00  0.00     0.134 A 
BRANCH  21  22
ATOM     22  C   UNL A   1      36.898  23.058  25.422  1.00  0.00     0.017 A 
ATOM     23  C   UNL A   1      37.768  21.962  25.409  1.00  0.00     0.012 A 
ATOM     24  C   UNL A   1      37.287  24.221  26.104  1.00  0.00     0.012 A 
ATOM     25  C   UNL A   1      39.011  22.037  26.045  1.00  0.00     0.001 A 
ATOM     26  C   UNL A   1      38.522  24.292  26.751  1.00  0.00     0.001 A 
ATOM     27  C   UNL A   1      39.387  23.201  26.714  1.00  0.00     0.000 A 
ENDBRANCH  21  22
ENDBRANCH  13  17
ENDBRANCH   5   8
ENDBRANCH   3   4
ENDBRANCH   2   3
ENDBRANCH   1   2
BRANCH   1  28
ATOM     28  C   UNL A   1      35.985  31.631  28.779  1.00  0.00     0.116 C 
BRANCH  28  29
ATOM     29  N   UNL A   1      35.775  30.922  30.035  1.00  0.00    -0.352 N 
ATOM     30  C   UNL A   1      36.641  30.096  30.714  1.00  0.00     0.251 C 
ATOM     31  H   UNL A   1      34.895  31.054  30.456  1.00  0.00     0.163 HD
ATOM     32  O   UNL A   1      36.258  29.464  31.688  1.00  0.00    -0.269 OA
BRANCH  30  33
ATOM     33  C   UNL A   1      38.028  29.966  30.225  1.00  0.00     0.039 A 
ATOM     34  C   UNL A   1      39.074  29.898  31.148  1.00  0.00     0.014 A 
ATOM     35  C   UNL A   1      38.279  29.854  28.856  1.00  0.00     0.014 A 
ATOM     36  C   UNL A   1      40.371  29.651  30.693  1.00  0.00     0.010 A 
ATOM     37  C   UNL A   1      39.548  29.506  28.418  1.00  0.00     0.010 A 
ATOM     38  C   UNL A   1      40.610  29.422  29.329  1.00  0.00    -0.014 A 
BRANCH  38  39
ATOM     39  C   UNL A   1      41.971  29.140  28.812  1.00  0.00     0.031 A 
ATOM     40  C   UNL A   1      42.296  27.759  28.307  1.00  0.00     0.074 A 
ATOM     41  C   UNL A   1      42.926  30.090  28.867  1.00  0.00     0.049 A 
ATOM     42  N   UNL A   1      43.442  27.273  27.909  1.00  0.00    -0.248 NA
ATOM     43  C   UNL A   1      41.192  26.782  28.290  1.00  0.00     0.031 C 
ATOM     44  C   UNL A   1      42.746  31.450  29.383  1.00  0.00     0.029 A 
ATOM     45  N   UNL A   1      44.243  30.051  28.488  1.00  0.00    -0.354 N 
ATOM     46  C   UNL A   1      43.205  25.932  27.628  1.00  0.00     0.074 A 
ATOM     47  C   UNL A   1      41.823  25.666  27.957  1.00  0.00     0.031 C 
ATOM     48  C   UNL A   1      43.902  32.124  29.258  1.00  0.00     0.029 A 
ATOM     49  C   UNL A   1      44.911  31.237  28.688  1.00  0.00     0.049 A 
ATOM     50  H   UNL A   1      44.671  29.250  28.108  1.00  0.00     0.167 HD
ATOM     51  C   UNL A   1      44.052  25.010  27.115  1.00  0.00     0.031 A 
ATOM     52  C   UNL A   1      46.191  31.569  28.436  1.00  0.00     0.031 A 
ATOM     53  C   UNL A   1      45.413  25.292  26.751  1.00  0.00     0.049 A 
ATOM     54  C   UNL A   1      47.103  30.541  27.825  1.00  0.00     0.074 A 
ATOM     55  C   UNL A   1      46.341  24.448  26.167  1.00  0.00     0.029 A 
ATOM     56  N   UNL A   1      46.036  26.518  26.924  1.00  0.00    -0.354 N 
ATOM     57  N   UNL A   1      46.846  29.291  27.516  1.00  0.00    -0.248 NA
ATOM     58  C   UNL A   1      48.471  30.973  27.508  1.00  0.00     0.031 C 
ATOM     59  C   UNL A   1      47.537  25.159  26.015  1.00  0.00     0.029 A 
ATOM     60  C   UNL A   1      47.337  26.456  26.461  1.00  0.00     0.049 A 
ATOM     61  H   UNL A   1      45.614  27.316  27.319  1.00  0.00     0.167 HD
ATOM     62  C   UNL A   1      48.011  28.798  26.941  1.00  0.00     0.074 A 
ATOM     63  C   UNL A   1      48.968  29.886  26.934  1.00  0.00     0.031 C 
ATOM     64  C   UNL A   1      48.268  27.556  26.457  1.00  0.00     0.031 A 
BRANCH  51  65
ATOM     65  C   UNL A   1      43.517  23.617  26.913  1.00  0.00    -0.014 A 
ATOM     66  C   UNL A   1      43.270  22.768  28.008  1.00  0.00     0.010 A 
ATOM     67  C   UNL A   1      43.253  23.150  25.613  1.00  0.00     0.010 A 
ATOM     68  C   UNL A   1      42.818  21.462  27.805  1.00  0.00     0.020 A 
ATOM     69  C   UNL A   1      42.771  21.854  25.408  1.00  0.00     0.020 A 
ATOM     70  C   UNL A   1      42.578  21.012  26.505  1.00  0.00     0.054 A 
BRANCH  70  71
ATOM     71  S   UNL A   1      41.981  19.315  26.269  1.00  0.00     0.124 S 
ATOM     72  O   UNL A   1      40.539  19.518  26.149  1.00  0.00    -0.237 OA
ATOM     73  O   UNL A   1      42.660  18.903  25.043  1.00  0.00    -0.237 OA
ATOM     74  O   UNL A   1      42.416  18.624  27.480  1.00  0.00    -0.744 OA
ENDBRANCH  70  71
ENDBRANCH  51  65
BRANCH  52  75
ATOM     75  C   UNL A   1      46.674  32.948  28.722  1.00  0.00    -0.014 A 
ATOM     76  C   UNL A   1      46.597  33.945  27.734  1.00  0.00     0.010 A 
ATOM     77  C   UNL A   1      47.196  33.276  29.986  1.00  0.00     0.010 A 
ATOM     78  C   UNL A   1      47.055  35.240  27.995  1.00  0.00     0.020 A 
ATOM     79  C   UNL A   1      47.631  34.577  30.260  1.00  0.00     0.020 A 
ATOM     80  C   UNL A   1      47.569  35.548  29.258  1.00  0.00     0.054 A 
BRANCH  80  81
ATOM     81  S   UNL A   1      48.109  37.248  29.592  1.00  0.00     0.124 S 
ATOM     82  O   UNL A   1      48.551  37.159  30.980  1.00  0.00    -0.237 OA
ATOM     83  O   UNL A   1      49.164  37.445  28.601  1.00  0.00    -0.237 OA
ATOM     84  O   UNL A   1      46.900  38.039  29.367  1.00  0.00    -0.744 OA
ENDBRANCH  80  81
ENDBRANCH  52  75
BRANCH  64  85
ATOM     85  C   UNL A   1      49.617  27.324  25.836  1.00  0.00    -0.014 A 
ATOM     86  C   UNL A   1      50.718  26.917  26.610  1.00  0.00     0.010 A 
ATOM     87  C   UNL A   1      49.769  27.469  24.445  1.00  0.00     0.010 A 
ATOM     88  C   UNL A   1      51.957  26.694  26.007  1.00  0.00     0.020 A 
ATOM     89  C   UNL A   1      51.000  27.220  23.836  1.00  0.00     0.020 A 
ATOM     90  C   UNL A   1      52.091  26.850  24.623  1.00  0.00     0.054 A 
BRANCH  90  91
ATOM     91  S   UNL A   1      53.701  26.521  23.857  1.00  0.00     0.124 S 
ATOM     92  O   UNL A   1      54.523  27.596  24.406  1.00  0.00    -0.237 OA
ATOM     93  O   UNL A   1      54.019  25.179  24.340  1.00  0.00    -0.237 OA
ATOM     94  O   UNL A   1      53.428  26.612  22.425  1.00  0.00    -0.744 OA
ENDBRANCH  90  91
ENDBRANCH  64  85
ENDBRANCH  38  39
ENDBRANCH  30  33
ENDBRANCH  28  29
ENDBRANCH   1  28
TORSDOF 16
ENDMDL
