MODEL 1
REMARK VINA RESULT:     -11.5      0.000      0.000
REMARK SMILES O=C(NCCCCNC(=O)[C@H](CO)NC(=O)[C@H](Cc1c[nH]c2ccccc12)NC(=O)[C@H](Cc1ccc(O)cc1)NC(=O)c1ccc(F)cc1)c1ccc(-c2c3nc(c(-c4ccc(S(=O)(=O)[O-])cc4)c4ccc([nH]4)c(-c4ccc(S(=O)(=O)[O-])cc4)c4nc(c(-c5ccc(S(=O)(=O)[O-])cc5)c5ccc2[nH]5)C=C4)C=C3)cc1
REMARK SMILES IDX 8 1 9 2 10 3 7 5 6 6 5 7 4 8 3 9 1 10 2 11 50 13 51 14
REMARK SMILES IDX 109 15 52 16 108 17 53 18 54 19 55 20 102 21 56 22 107 23
REMARK SMILES IDX 101 24 103 25 57 26 106 27 100 28 99 29 58 31 88 32 69 33
REMARK SMILES IDX 87 34 70 35 73 36 86 37 104 38 71 39 72 40 85 42 105 43
REMARK SMILES IDX 74 44 59 45 60 46 68 47 61 48 67 49 62 50 63 51 64 52 65 53
REMARK SMILES IDX 66 54 89 55 90 56 98 57 91 58 97 59 92 60 93 61 94 62 95 63
REMARK SMILES IDX 96 64 75 65 76 66 84 67 77 68 83 69 78 70 79 71 80 72 81 73
REMARK SMILES IDX 82 74 11 75 14 76 15 77 16 79 17 80 28 81 29 82 30 84 31 85
REMARK SMILES IDX 40 86 41 87 42 89 43 90 44 91 49 92 45 93 48 94 46 95 47 96
REMARK SMILES IDX 32 97 33 98 34 99 39 100 35 101 38 102 36 103 37 104 18 106
REMARK SMILES IDX 19 107 20 108 27 109 21 110 22 111 26 112 23 114 25 115
REMARK SMILES IDX 24 116 12 117 13 118
REMARK H PARENT 8 4 3 12 103 30 73 41 14 78 28 83 40 88 37 105 21 113 13 119
REMARK Flexibility Score: inf
ROOT
ATOM      1  N   UNL A   1      29.994  31.338  24.445  1.00  0.00    -0.354 N 
ATOM      2  C   UNL A   1      29.225  30.678  23.537  1.00  0.00     0.244 C 
ATOM      3  O   UNL A   1      28.044  31.024  23.436  1.00  0.00    -0.273 OA
ATOM      4  H   UNL A   1      29.856  32.311  24.503  1.00  0.00     0.163 HD
ENDROOT
BRANCH   1   5
ATOM      5  C   UNL A   1      30.992  30.781  25.334  1.00  0.00     0.116 C 
BRANCH   5   6
ATOM      6  C   UNL A   1      31.127  31.545  26.645  1.00  0.00     0.023 C 
BRANCH   6   7
ATOM      7  C   UNL A   1      31.799  32.912  26.547  1.00  0.00     0.023 C 
BRANCH   7   8
ATOM      8  C   UNL A   1      32.821  33.228  27.632  1.00  0.00     0.116 C 
BRANCH   8   9
ATOM      9  N   UNL A   1      32.803  34.620  28.054  1.00  0.00    -0.352 N 
ATOM     10  O   UNL A   1      33.349  36.427  29.281  1.00  0.00    -0.269 OA
ATOM     11  C   UNL A   1      33.581  35.267  28.986  1.00  0.00     0.251 C 
ATOM     12  H   UNL A   1      32.133  35.184  27.604  1.00  0.00     0.163 HD
BRANCH  11  13
ATOM     13  C   UNL A   1      34.676  34.528  29.650  1.00  0.00     0.039 A 
ATOM     14  C   UNL A   1      34.450  33.848  30.849  1.00  0.00     0.014 A 
ATOM     15  C   UNL A   1      35.947  34.541  29.073  1.00  0.00     0.014 A 
ATOM     16  C   UNL A   1      35.525  33.321  31.550  1.00  0.00     0.010 A 
ATOM     17  C   UNL A   1      37.013  33.929  29.737  1.00  0.00     0.010 A 
ATOM     18  C   UNL A   1      36.817  33.346  30.997  1.00  0.00    -0.014 A 
BRANCH  18  19
ATOM     19  C   UNL A   1      37.931  32.699  31.733  1.00  0.00     0.031 A 
ATOM     20  C   UNL A   1      38.352  33.183  33.093  1.00  0.00     0.074 A 
ATOM     21  C   UNL A   1      38.542  31.640  31.168  1.00  0.00     0.049 A 
ATOM     22  N   UNL A   1      39.291  32.712  33.876  1.00  0.00    -0.248 NA
ATOM     23  C   UNL A   1      37.640  34.346  33.646  1.00  0.00     0.031 C 
ATOM     24  C   UNL A   1      38.217  31.086  29.850  1.00  0.00     0.029 A 
ATOM     25  N   UNL A   1      39.540  30.825  31.633  1.00  0.00    -0.354 N 
ATOM     26  C   UNL A   1      39.299  33.532  34.999  1.00  0.00     0.074 A 
ATOM     27  C   UNL A   1      38.284  34.542  34.789  1.00  0.00     0.031 C 
ATOM     28  C   UNL A   1      38.960  29.991  29.638  1.00  0.00     0.029 A 
ATOM     29  C   UNL A   1      39.859  29.804  30.770  1.00  0.00     0.049 A 
ATOM     30  H   UNL A   1      39.985  30.958  32.501  1.00  0.00     0.167 HD
ATOM     31  C   UNL A   1      40.082  33.447  36.102  1.00  0.00     0.031 A 
ATOM     32  C   UNL A   1      40.784  28.832  30.867  1.00  0.00     0.031 A 
ATOM     33  C   UNL A   1      41.088  32.436  36.303  1.00  0.00     0.049 A 
ATOM     34  C   UNL A   1      41.650  28.774  32.089  1.00  0.00     0.074 A 
ATOM     35  C   UNL A   1      41.914  32.248  37.398  1.00  0.00     0.029 A 
ATOM     36  N   UNL A   1      41.410  31.445  35.387  1.00  0.00    -0.354 N 
ATOM     37  N   UNL A   1      41.627  29.547  33.148  1.00  0.00    -0.248 NA
ATOM     38  C   UNL A   1      42.667  27.716  32.127  1.00  0.00     0.031 C 
ATOM     39  C   UNL A   1      42.766  31.171  37.125  1.00  0.00     0.029 A 
ATOM     40  C   UNL A   1      42.437  30.657  35.880  1.00  0.00     0.049 A 
ATOM     41  H   UNL A   1      40.972  31.320  34.514  1.00  0.00     0.167 HD
ATOM     42  C   UNL A   1      42.625  29.065  33.984  1.00  0.00     0.074 A 
ATOM     43  C   UNL A   1      43.214  27.920  33.318  1.00  0.00     0.031 C 
ATOM     44  C   UNL A   1      43.021  29.533  35.194  1.00  0.00     0.031 A 
BRANCH  31  45
ATOM     45  C   UNL A   1      39.903  34.499  37.166  1.00  0.00    -0.014 A 
ATOM     46  C   UNL A   1      40.571  35.734  37.094  1.00  0.00     0.010 A 
ATOM     47  C   UNL A   1      39.024  34.261  38.238  1.00  0.00     0.010 A 
ATOM     48  C   UNL A   1      40.394  36.695  38.094  1.00  0.00     0.020 A 
ATOM     49  C   UNL A   1      38.825  35.228  39.228  1.00  0.00     0.020 A 
ATOM     50  C   UNL A   1      39.527  36.433  39.159  1.00  0.00     0.054 A 
BRANCH  50  51
ATOM     51  S   UNL A   1      39.307  37.699  40.440  1.00  0.00     0.124 S 
ATOM     52  O   UNL A   1      40.596  38.386  40.407  1.00  0.00    -0.237 OA
ATOM     53  O   UNL A   1      38.172  38.471  39.939  1.00  0.00    -0.237 OA
ATOM     54  O   UNL A   1      39.043  36.926  41.651  1.00  0.00    -0.744 OA
ENDBRANCH  50  51
ENDBRANCH  31  45
BRANCH  32  55
ATOM     55  C   UNL A   1      40.932  27.853  29.758  1.00  0.00    -0.014 A 
ATOM     56  C   UNL A   1      40.010  26.804  29.604  1.00  0.00     0.010 A 
ATOM     57  C   UNL A   1      41.966  28.005  28.816  1.00  0.00     0.010 A 
ATOM     58  C   UNL A   1      40.121  25.922  28.525  1.00  0.00     0.020 A 
ATOM     59  C   UNL A   1      42.064  27.142  27.722  1.00  0.00     0.020 A 
ATOM     60  C   UNL A   1      41.144  26.099  27.588  1.00  0.00     0.054 A 
BRANCH  60  61
ATOM     61  S   UNL A   1      41.223  24.993  26.152  1.00  0.00     0.124 S 
ATOM     62  O   UNL A   1      41.356  25.939  25.049  1.00  0.00    -0.237 OA
ATOM     63  O   UNL A   1      42.405  24.184  26.440  1.00  0.00    -0.237 OA
ATOM     64  O   UNL A   1      39.955  24.270  26.211  1.00  0.00    -0.744 OA
ENDBRANCH  60  61
ENDBRANCH  32  55
BRANCH  44  65
ATOM     65  C   UNL A   1      44.139  28.794  35.876  1.00  0.00    -0.014 A 
ATOM     66  C   UNL A   1      43.875  27.694  36.711  1.00  0.00     0.010 A 
ATOM     67  C   UNL A   1      45.471  29.186  35.653  1.00  0.00     0.010 A 
ATOM     68  C   UNL A   1      44.925  27.019  37.338  1.00  0.00     0.020 A 
ATOM     69  C   UNL A   1      46.524  28.499  36.260  1.00  0.00     0.020 A 
ATOM     70  C   UNL A   1      46.243  27.428  37.111  1.00  0.00     0.054 A 
BRANCH  70  71
ATOM     71  S   UNL A   1      47.592  26.515  37.909  1.00  0.00     0.124 S 
ATOM     72  O   UNL A   1      47.082  25.146  37.894  1.00  0.00    -0.237 OA
ATOM     73  O   UNL A   1      48.725  26.773  37.024  1.00  0.00    -0.237 OA
ATOM     74  O   UNL A   1      47.689  27.130  39.231  1.00  0.00    -0.744 OA
ENDBRANCH  70  71
ENDBRANCH  44  65
ENDBRANCH  18  19
ENDBRANCH  11  13
ENDBRANCH   8   9
ENDBRANCH   7   8
ENDBRANCH   6   7
ENDBRANCH   5   6
ENDBRANCH   1   5
BRANCH   2  75
ATOM     75  C   UNL A   1      29.748  29.478  22.718  1.00  0.00     0.197 C 
BRANCH  75  76
ATOM     76  N   UNL A   1      31.213  29.335  22.709  1.00  0.00    -0.340 N 
ATOM     77  C   UNL A   1      32.011  28.249  22.489  1.00  0.00     0.243 C 
ATOM     78  H   UNL A   1      31.703  30.170  22.891  1.00  0.00     0.164 HD
ATOM     79  O   UNL A   1      33.173  28.488  22.156  1.00  0.00    -0.273 OA
BRANCH  77  80
ATOM     80  C   UNL A   1      31.454  26.812  22.574  1.00  0.00     0.175 C 
BRANCH  80  81
ATOM     81  N   UNL A   1      31.751  26.096  21.329  1.00  0.00    -0.342 N 
ATOM     82  C   UNL A   1      32.639  25.128  20.980  1.00  0.00     0.243 C 
ATOM     83  H   UNL A   1      31.181  26.382  20.578  1.00  0.00     0.164 HD
ATOM     84  O   UNL A   1      32.874  25.003  19.773  1.00  0.00    -0.273 OA
BRANCH  82  85
ATOM     85  C   UNL A   1      33.202  24.085  21.974  1.00  0.00     0.176 C 
BRANCH  85  86
ATOM     86  N   UNL A   1      32.648  22.738  21.751  1.00  0.00    -0.340 N 
ATOM     87  C   UNL A   1      32.262  21.738  22.592  1.00  0.00     0.251 C 
ATOM     88  H   UNL A   1      32.531  22.516  20.799  1.00  0.00     0.164 HD
ATOM     89  O   UNL A   1      31.760  20.726  22.108  1.00  0.00    -0.269 OA
BRANCH  87  90
ATOM     90  C   UNL A   1      32.573  21.784  24.028  1.00  0.00     0.040 A 
ATOM     91  C   UNL A   1      33.522  20.953  24.629  1.00  0.00     0.017 A 
ATOM     92  C   UNL A   1      31.860  22.719  24.795  1.00  0.00     0.017 A 
ATOM     93  C   UNL A   1      33.698  21.007  26.013  1.00  0.00     0.040 A 
ATOM     94  C   UNL A   1      32.048  22.775  26.173  1.00  0.00     0.040 A 
ATOM     95  C   UNL A   1      32.954  21.909  26.771  1.00  0.00     0.123 A 
ATOM     96  F   UNL A   1      33.116  21.944  28.100  1.00  0.00    -0.207 F 
ENDBRANCH  87  90
ENDBRANCH  85  86
BRANCH  85  97
ATOM     97  C   UNL A   1      34.741  24.029  21.978  1.00  0.00     0.070 C 
BRANCH  97  98
ATOM     98  C   UNL A   1      35.440  23.684  23.271  1.00  0.00    -0.045 A 
ATOM     99  C   UNL A   1      36.430  22.695  23.320  1.00  0.00     0.007 A 
ATOM    100  C   UNL A   1      35.137  24.385  24.451  1.00  0.00     0.007 A 
ATOM    101  C   UNL A   1      37.104  22.421  24.517  1.00  0.00     0.046 A 
ATOM    102  C   UNL A   1      35.797  24.105  25.646  1.00  0.00     0.046 A 
ATOM    103  C   UNL A   1      36.780  23.130  25.669  1.00  0.00     0.115 A 
BRANCH 103 104
ATOM    104  O   UNL A   1      37.411  22.906  26.855  1.00  0.00    -0.508 OA
ATOM    105  H   UNL A   1      38.348  22.899  26.892  1.00  0.00     0.293 HD
ENDBRANCH 103 104
ENDBRANCH  97  98
ENDBRANCH  85  97
ENDBRANCH  82  85
ENDBRANCH  80  81
BRANCH  80 106
ATOM    106  C   UNL A   1      31.998  26.038  23.800  1.00  0.00     0.072 C 
BRANCH 106 107
ATOM    107  C   UNL A   1      31.816  26.692  25.143  1.00  0.00    -0.020 A 
ATOM    108  C   UNL A   1      30.716  26.603  25.975  1.00  0.00     0.087 A 
ATOM    109  C   UNL A   1      32.753  27.559  25.804  1.00  0.00     0.003 A 
ATOM    110  N   UNL A   1      30.994  27.270  27.138  1.00  0.00    -0.361 N 
ATOM    111  C   UNL A   1      32.219  27.886  27.050  1.00  0.00     0.046 A 
ATOM    112  C   UNL A   1      34.016  28.088  25.461  1.00  0.00     0.010 A 
ATOM    113  H   UNL A   1      30.402  27.304  27.923  1.00  0.00     0.166 HD
ATOM    114  C   UNL A   1      32.887  28.695  27.977  1.00  0.00     0.026 A 
ATOM    115  C   UNL A   1      34.690  28.915  26.368  1.00  0.00     0.001 A 
ATOM    116  C   UNL A   1      34.134  29.206  27.610  1.00  0.00     0.002 A 
ENDBRANCH 106 107
ENDBRANCH  80 106
ENDBRANCH  77  80
ENDBRANCH  75  76
BRANCH  75 117
ATOM    117  C   UNL A   1      29.004  28.196  23.105  1.00  0.00     0.191 C 
BRANCH 117 118
ATOM    118  O   UNL A   1      27.627  28.224  22.749  1.00  0.00    -0.394 OA
ATOM    119  H   UNL A   1      27.176  28.919  23.253  1.00  0.00     0.210 HD
ENDBRANCH 117 118
ENDBRANCH  75 117
ENDBRANCH   2  75
TORSDOF 27
ENDMDL
MODEL 2
REMARK VINA RESULT:     -11.3      0.468      7.316
REMARK SMILES O=C(NCCCCNC(=O)[C@H](CO)NC(=O)[C@H](Cc1c[nH]c2ccccc12)NC(=O)[C@H](Cc1ccc(O)cc1)NC(=O)c1ccc(F)cc1)c1ccc(-c2c3nc(c(-c4ccc(S(=O)(=O)[O-])cc4)c4ccc([nH]4)c(-c4ccc(S(=O)(=O)[O-])cc4)c4nc(c(-c5ccc(S(=O)(=O)[O-])cc5)c5ccc2[nH]5)C=C4)C=C3)cc1
REMARK SMILES IDX 8 1 9 2 10 3 7 5 6 6 5 7 4 8 3 9 1 10 2 11 50 13 51 14
REMARK SMILES IDX 109 15 52 16 108 17 53 18 54 19 55 20 102 21 56 22 107 23
REMARK SMILES IDX 101 24 103 25 57 26 106 27 100 28 99 29 58 31 88 32 69 33
REMARK SMILES IDX 87 34 70 35 73 36 86 37 104 38 71 39 72 40 85 42 105 43
REMARK SMILES IDX 74 44 59 45 60 46 68 47 61 48 67 49 62 50 63 51 64 52 65 53
REMARK SMILES IDX 66 54 89 55 90 56 98 57 91 58 97 59 92 60 93 61 94 62 95 63
REMARK SMILES IDX 96 64 75 65 76 66 84 67 77 68 83 69 78 70 79 71 80 72 81 73
REMARK SMILES IDX 82 74 11 75 14 76 15 77 16 79 17 80 28 81 29 82 30 84 31 85
REMARK SMILES IDX 40 86 41 87 42 89 43 90 44 91 49 92 45 93 48 94 46 95 47 96
REMARK SMILES IDX 32 97 33 98 34 99 39 100 35 101 38 102 36 103 37 104 18 106
REMARK SMILES IDX 19 107 20 108 27 109 21 110 22 111 26 112 23 114 25 115
REMARK SMILES IDX 24 116 12 117 13 118
REMARK H PARENT 8 4 3 12 103 30 73 41 14 78 28 83 40 88 37 105 21 113 13 119
REMARK Flexibility Score: inf
ROOT
ATOM      1  N   UNL A   1      29.918  31.224  24.264  1.00  0.00    -0.354 N 
ATOM      2  C   UNL A   1      29.196  30.524  23.347  1.00  0.00     0.244 C 
ATOM      3  O   UNL A   1      28.040  30.902  23.127  1.00  0.00    -0.273 OA
ATOM      4  H   UNL A   1      29.814  32.203  24.241  1.00  0.00     0.163 HD
ENDROOT
BRANCH   1   5
ATOM      5  C   UNL A   1      30.820  30.701  25.268  1.00  0.00     0.116 C 
BRANCH   5   6
ATOM      6  C   UNL A   1      31.063  31.664  26.423  1.00  0.00     0.023 C 
BRANCH   6   7
ATOM      7  C   UNL A   1      32.469  32.252  26.509  1.00  0.00     0.023 C 
BRANCH   7   8
ATOM      8  C   UNL A   1      32.900  32.742  27.885  1.00  0.00     0.116 C 
BRANCH   8   9
ATOM      9  N   UNL A   1      32.829  34.187  28.031  1.00  0.00    -0.352 N 
ATOM     10  O   UNL A   1      33.289  36.214  28.898  1.00  0.00    -0.269 OA
ATOM     11  C   UNL A   1      33.564  35.027  28.836  1.00  0.00     0.251 C 
ATOM     12  H   UNL A   1      32.154  34.632  27.468  1.00  0.00     0.163 HD
BRANCH  11  13
ATOM     13  C   UNL A   1      34.663  34.468  29.651  1.00  0.00     0.039 A 
ATOM     14  C   UNL A   1      35.981  34.507  29.190  1.00  0.00     0.014 A 
ATOM     15  C   UNL A   1      34.360  33.875  30.878  1.00  0.00     0.014 A 
ATOM     16  C   UNL A   1      36.967  33.814  29.878  1.00  0.00     0.010 A 
ATOM     17  C   UNL A   1      35.373  33.257  31.615  1.00  0.00     0.010 A 
ATOM     18  C   UNL A   1      36.677  33.190  31.104  1.00  0.00    -0.014 A 
BRANCH  18  19
ATOM     19  C   UNL A   1      37.771  32.530  31.855  1.00  0.00     0.031 A 
ATOM     20  C   UNL A   1      38.473  31.318  31.308  1.00  0.00     0.074 A 
ATOM     21  C   UNL A   1      38.150  33.061  33.034  1.00  0.00     0.049 A 
ATOM     22  N   UNL A   1      39.463  30.639  31.831  1.00  0.00    -0.248 NA
ATOM     23  C   UNL A   1      38.005  30.793  30.016  1.00  0.00     0.031 C 
ATOM     24  C   UNL A   1      37.536  34.235  33.664  1.00  0.00     0.029 A 
ATOM     25  N   UNL A   1      39.150  32.706  33.901  1.00  0.00    -0.354 N 
ATOM     26  C   UNL A   1      39.720  29.596  30.948  1.00  0.00     0.074 A 
ATOM     27  C   UNL A   1      38.770  29.720  29.863  1.00  0.00     0.031 C 
ATOM     28  C   UNL A   1      38.208  34.536  34.783  1.00  0.00     0.029 A 
ATOM     29  C   UNL A   1      39.253  33.541  34.987  1.00  0.00     0.049 A 
ATOM     30  H   UNL A   1      39.737  31.929  33.758  1.00  0.00     0.167 HD
ATOM     31  C   UNL A   1      40.662  28.626  31.037  1.00  0.00     0.031 A 
ATOM     32  C   UNL A   1      40.086  33.504  36.043  1.00  0.00     0.031 A 
ATOM     33  C   UNL A   1      41.606  28.511  32.120  1.00  0.00     0.049 A 
ATOM     34  C   UNL A   1      41.106  32.409  36.126  1.00  0.00     0.074 A 
ATOM     35  C   UNL A   1      42.617  27.581  32.286  1.00  0.00     0.029 A 
ATOM     36  N   UNL A   1      41.651  29.352  33.222  1.00  0.00    -0.354 N 
ATOM     37  N   UNL A   1      41.344  31.445  35.269  1.00  0.00    -0.248 NA
ATOM     38  C   UNL A   1      41.964  32.394  37.317  1.00  0.00     0.031 C 
ATOM     39  C   UNL A   1      43.245  27.832  33.513  1.00  0.00     0.029 A 
ATOM     40  C   UNL A   1      42.657  28.949  34.086  1.00  0.00     0.049 A 
ATOM     41  H   UNL A   1      41.057  30.122  33.370  1.00  0.00     0.167 HD
ATOM     42  C   UNL A   1      42.387  30.708  35.816  1.00  0.00     0.074 A 
ATOM     43  C   UNL A   1      42.747  31.354  37.064  1.00  0.00     0.031 C 
ATOM     44  C   UNL A   1      42.989  29.594  35.330  1.00  0.00     0.031 A 
BRANCH  31  45
ATOM     45  C   UNL A   1      40.699  27.588  29.946  1.00  0.00    -0.014 A 
ATOM     46  C   UNL A   1      39.594  26.756  29.689  1.00  0.00     0.010 A 
ATOM     47  C   UNL A   1      41.845  27.467  29.138  1.00  0.00     0.010 A 
ATOM     48  C   UNL A   1      39.650  25.796  28.673  1.00  0.00     0.020 A 
ATOM     49  C   UNL A   1      41.896  26.525  28.107  1.00  0.00     0.020 A 
ATOM     50  C   UNL A   1      40.804  25.683  27.893  1.00  0.00     0.054 A 
BRANCH  50  51
ATOM     51  S   UNL A   1      40.849  24.436  26.575  1.00  0.00     0.124 S 
ATOM     52  O   UNL A   1      40.459  23.225  27.294  1.00  0.00    -0.237 OA
ATOM     53  O   UNL A   1      39.866  24.941  25.619  1.00  0.00    -0.237 OA
ATOM     54  O   UNL A   1      42.234  24.468  26.113  1.00  0.00    -0.744 OA
ENDBRANCH  50  51
ENDBRANCH  31  45
BRANCH  32  55
ATOM     55  C   UNL A   1      39.965  34.539  37.104  1.00  0.00    -0.014 A 
ATOM     56  C   UNL A   1      40.656  35.757  36.995  1.00  0.00     0.010 A 
ATOM     57  C   UNL A   1      39.107  34.329  38.200  1.00  0.00     0.010 A 
ATOM     58  C   UNL A   1      40.491  36.749  37.966  1.00  0.00     0.020 A 
ATOM     59  C   UNL A   1      38.920  35.328  39.158  1.00  0.00     0.020 A 
ATOM     60  C   UNL A   1      39.620  36.531  39.038  1.00  0.00     0.054 A 
BRANCH  60  61
ATOM     61  S   UNL A   1      39.360  37.861  40.245  1.00  0.00     0.124 S 
ATOM     62  O   UNL A   1      40.657  38.529  40.242  1.00  0.00    -0.237 OA
ATOM     63  O   UNL A   1      38.256  38.614  39.653  1.00  0.00    -0.237 OA
ATOM     64  O   UNL A   1      39.025  37.144  41.473  1.00  0.00    -0.744 OA
ENDBRANCH  60  61
ENDBRANCH  32  55
BRANCH  44  65
ATOM     65  C   UNL A   1      44.107  29.014  36.150  1.00  0.00    -0.014 A 
ATOM     66  C   UNL A   1      45.430  29.460  35.987  1.00  0.00     0.010 A 
ATOM     67  C   UNL A   1      43.825  28.032  37.117  1.00  0.00     0.010 A 
ATOM     68  C   UNL A   1      46.459  28.909  36.755  1.00  0.00     0.020 A 
ATOM     69  C   UNL A   1      44.848  27.497  37.903  1.00  0.00     0.020 A 
ATOM     70  C   UNL A   1      46.161  27.928  37.707  1.00  0.00     0.054 A 
BRANCH  70  71
ATOM     71  S   UNL A   1      47.507  27.252  38.717  1.00  0.00     0.124 S 
ATOM     72  O   UNL A   1      46.775  26.581  39.788  1.00  0.00    -0.237 OA
ATOM     73  O   UNL A   1      48.201  26.370  37.782  1.00  0.00    -0.237 OA
ATOM     74  O   UNL A   1      48.261  28.436  39.123  1.00  0.00    -0.744 OA
ENDBRANCH  70  71
ENDBRANCH  44  65
ENDBRANCH  18  19
ENDBRANCH  11  13
ENDBRANCH   8   9
ENDBRANCH   7   8
ENDBRANCH   6   7
ENDBRANCH   5   6
ENDBRANCH   1   5
BRANCH   2  75
ATOM     75  C   UNL A   1      29.733  29.249  22.661  1.00  0.00     0.197 C 
BRANCH  75  76
ATOM     76  N   UNL A   1      31.197  29.108  22.692  1.00  0.00    -0.340 N 
ATOM     77  C   UNL A   1      32.004  28.031  22.457  1.00  0.00     0.243 C 
ATOM     78  H   UNL A   1      31.680  29.935  22.922  1.00  0.00     0.164 HD
ATOM     79  O   UNL A   1      33.175  28.284  22.170  1.00  0.00    -0.273 OA
BRANCH  77  80
ATOM     80  C   UNL A   1      31.447  26.592  22.468  1.00  0.00     0.175 C 
BRANCH  80  81
ATOM     81  N   UNL A   1      31.846  25.902  21.237  1.00  0.00    -0.342 N 
ATOM     82  C   UNL A   1      32.753  24.932  20.945  1.00  0.00     0.243 C 
ATOM     83  H   UNL A   1      31.347  26.210  20.446  1.00  0.00     0.164 HD
ATOM     84  O   UNL A   1      33.093  24.832  19.761  1.00  0.00    -0.273 OA
BRANCH  82  85
ATOM     85  C   UNL A   1      33.217  23.860  21.959  1.00  0.00     0.176 C 
BRANCH  85  86
ATOM     86  N   UNL A   1      32.526  22.572  21.773  1.00  0.00    -0.340 N 
ATOM     87  C   UNL A   1      32.158  21.580  22.632  1.00  0.00     0.251 C 
ATOM     88  H   UNL A   1      32.279  22.393  20.838  1.00  0.00     0.164 HD
ATOM     89  O   UNL A   1      31.516  20.630  22.189  1.00  0.00    -0.269 OA
BRANCH  87  90
ATOM     90  C   UNL A   1      32.640  21.552  24.021  1.00  0.00     0.040 A 
ATOM     91  C   UNL A   1      33.706  20.753  24.440  1.00  0.00     0.017 A 
ATOM     92  C   UNL A   1      31.969  22.380  24.934  1.00  0.00     0.017 A 
ATOM     93  C   UNL A   1      34.047  20.726  25.794  1.00  0.00     0.040 A 
ATOM     94  C   UNL A   1      32.321  22.357  26.281  1.00  0.00     0.040 A 
ATOM     95  C   UNL A   1      33.346  21.520  26.700  1.00  0.00     0.123 A 
ATOM     96  F   UNL A   1      33.669  21.477  28.000  1.00  0.00    -0.207 F 
ENDBRANCH  87  90
ENDBRANCH  85  86
BRANCH  85  97
ATOM     97  C   UNL A   1      34.742  23.648  21.953  1.00  0.00     0.070 C 
BRANCH  97  98
ATOM     98  C   UNL A   1      35.458  23.565  23.280  1.00  0.00    -0.045 A 
ATOM     99  C   UNL A   1      36.605  22.780  23.439  1.00  0.00     0.007 A 
ATOM    100  C   UNL A   1      35.005  24.316  24.379  1.00  0.00     0.007 A 
ATOM    101  C   UNL A   1      37.286  22.753  24.663  1.00  0.00     0.046 A 
ATOM    102  C   UNL A   1      35.672  24.281  25.601  1.00  0.00     0.046 A 
ATOM    103  C   UNL A   1      36.811  23.504  25.733  1.00  0.00     0.115 A 
BRANCH 103 104
ATOM    104  O   UNL A   1      37.441  23.518  26.941  1.00  0.00    -0.508 OA
ATOM    105  H   UNL A   1      37.552  24.327  27.401  1.00  0.00     0.293 HD
ENDBRANCH 103 104
ENDBRANCH  97  98
ENDBRANCH  85  97
ENDBRANCH  82  85
ENDBRANCH  80  81
BRANCH  80 106
ATOM    106  C   UNL A   1      31.892  25.795  23.718  1.00  0.00     0.072 C 
BRANCH 106 107
ATOM    107  C   UNL A   1      31.667  26.455  25.052  1.00  0.00    -0.020 A 
ATOM    108  C   UNL A   1      30.548  26.352  25.858  1.00  0.00     0.087 A 
ATOM    109  C   UNL A   1      32.573  27.341  25.730  1.00  0.00     0.003 A 
ATOM    110  N   UNL A   1      30.786  27.032  27.022  1.00  0.00    -0.361 N 
ATOM    111  C   UNL A   1      32.002  27.667  26.960  1.00  0.00     0.046 A 
ATOM    112  C   UNL A   1      33.835  27.889  25.414  1.00  0.00     0.010 A 
ATOM    113  H   UNL A   1      30.174  27.061  27.792  1.00  0.00     0.166 HD
ATOM    114  C   UNL A   1      32.634  28.494  27.898  1.00  0.00     0.026 A 
ATOM    115  C   UNL A   1      34.472  28.733  26.332  1.00  0.00     0.001 A 
ATOM    116  C   UNL A   1      33.882  29.023  27.558  1.00  0.00     0.002 A 
ENDBRANCH 106 107
ENDBRANCH  80 106
ENDBRANCH  77  80
ENDBRANCH  75  76
BRANCH  75 117
ATOM    117  C   UNL A   1      28.980  28.012  23.159  1.00  0.00     0.191 C 
BRANCH 117 118
ATOM    118  O   UNL A   1      27.578  28.084  22.928  1.00  0.00    -0.394 OA
ATOM    119  H   UNL A   1      27.414  28.434  22.038  1.00  0.00     0.210 HD
ENDBRANCH 117 118
ENDBRANCH  75 117
ENDBRANCH   2  75
TORSDOF 27
ENDMDL
MODEL 3
REMARK VINA RESULT:     -10.3      4.623      5.447
REMARK SMILES O=C(NCCCCNC(=O)[C@H](CO)NC(=O)[C@H](Cc1c[nH]c2ccccc12)NC(=O)[C@H](Cc1ccc(O)cc1)NC(=O)c1ccc(F)cc1)c1ccc(-c2c3nc(c(-c4ccc(S(=O)(=O)[O-])cc4)c4ccc([nH]4)c(-c4ccc(S(=O)(=O)[O-])cc4)c4nc(c(-c5ccc(S(=O)(=O)[O-])cc5)c5ccc2[nH]5)C=C4)C=C3)cc1
REMARK SMILES IDX 8 1 9 2 10 3 7 5 6 6 5 7 4 8 3 9 1 10 2 11 50 13 51 14
REMARK SMILES IDX 109 15 52 16 108 17 53 18 54 19 55 20 102 21 56 22 107 23
REMARK SMILES IDX 101 24 103 25 57 26 106 27 100 28 99 29 58 31 88 32 69 33
REMARK SMILES IDX 87 34 70 35 73 36 86 37 104 38 71 39 72 40 85 42 105 43
REMARK SMILES IDX 74 44 59 45 60 46 68 47 61 48 67 49 62 50 63 51 64 52 65 53
REMARK SMILES IDX 66 54 89 55 90 56 98 57 91 58 97 59 92 60 93 61 94 62 95 63
REMARK SMILES IDX 96 64 75 65 76 66 84 67 77 68 83 69 78 70 79 71 80 72 81 73
REMARK SMILES IDX 82 74 11 75 14 76 15 77 16 79 17 80 28 81 29 82 30 84 31 85
REMARK SMILES IDX 40 86 41 87 42 89 43 90 44 91 49 92 45 93 48 94 46 95 47 96
REMARK SMILES IDX 32 97 33 98 34 99 39 100 35 101 38 102 36 103 37 104 18 106
REMARK SMILES IDX 19 107 20 108 27 109 21 110 22 111 26 112 23 114 25 115
REMARK SMILES IDX 24 116 12 117 13 118
REMARK H PARENT 8 4 3 12 103 30 73 41 14 78 28 83 40 88 37 105 21 113 13 119
REMARK Flexibility Score: inf
ROOT
ATOM      1  N   UNL A   1      30.367  31.384  24.757  1.00  0.00    -0.354 N 
ATOM      2  C   UNL A   1      29.520  30.772  23.886  1.00  0.00     0.244 C 
ATOM      3  O   UNL A   1      28.337  31.128  23.902  1.00  0.00    -0.273 OA
ATOM      4  H   UNL A   1      30.243  32.354  24.874  1.00  0.00     0.163 HD
ENDROOT
BRANCH   1   5
ATOM      5  C   UNL A   1      31.431  30.780  25.533  1.00  0.00     0.116 C 
BRANCH   5   6
ATOM      6  C   UNL A   1      31.659  31.458  26.877  1.00  0.00     0.023 C 
BRANCH   6   7
ATOM      7  C   UNL A   1      32.892  32.354  26.966  1.00  0.00     0.023 C 
BRANCH   7   8
ATOM      8  C   UNL A   1      33.954  31.921  27.968  1.00  0.00     0.116 C 
BRANCH   8   9
ATOM      9  N   UNL A   1      33.664  32.339  29.331  1.00  0.00    -0.352 N 
ATOM     10  O   UNL A   1      34.049  32.703  31.520  1.00  0.00    -0.269 OA
ATOM     11  C   UNL A   1      34.500  32.426  30.421  1.00  0.00     0.251 C 
ATOM     12  H   UNL A   1      32.730  32.601  29.499  1.00  0.00     0.163 HD
BRANCH  11  13
ATOM     13  C   UNL A   1      35.940  32.142  30.251  1.00  0.00     0.039 A 
ATOM     14  C   UNL A   1      36.630  32.612  29.131  1.00  0.00     0.014 A 
ATOM     15  C   UNL A   1      36.597  31.375  31.215  1.00  0.00     0.014 A 
ATOM     16  C   UNL A   1      37.928  32.180  28.895  1.00  0.00     0.010 A 
ATOM     17  C   UNL A   1      37.933  31.018  31.021  1.00  0.00     0.010 A 
ATOM     18  C   UNL A   1      38.598  31.387  29.843  1.00  0.00    -0.014 A 
BRANCH  18  19
ATOM     19  C   UNL A   1      40.012  31.013  29.601  1.00  0.00     0.031 A 
ATOM     20  C   UNL A   1      41.129  31.994  29.824  1.00  0.00     0.074 A 
ATOM     21  C   UNL A   1      40.282  29.753  29.204  1.00  0.00     0.049 A 
ATOM     22  N   UNL A   1      42.418  31.815  29.680  1.00  0.00    -0.248 NA
ATOM     23  C   UNL A   1      40.758  33.351  30.256  1.00  0.00     0.031 C 
ATOM     24  C   UNL A   1      39.275  28.717  28.952  1.00  0.00     0.029 A 
ATOM     25  N   UNL A   1      41.474  29.121  28.966  1.00  0.00    -0.354 N 
ATOM     26  C   UNL A   1      43.010  33.037  29.978  1.00  0.00     0.074 A 
ATOM     27  C   UNL A   1      41.938  33.957  30.295  1.00  0.00     0.031 C 
ATOM     28  C   UNL A   1      39.894  27.566  28.653  1.00  0.00     0.029 A 
ATOM     29  C   UNL A   1      41.332  27.798  28.624  1.00  0.00     0.049 A 
ATOM     30  H   UNL A   1      42.346  29.572  29.035  1.00  0.00     0.167 HD
ATOM     31  C   UNL A   1      44.326  33.359  29.987  1.00  0.00     0.031 A 
ATOM     32  C   UNL A   1      42.255  26.873  28.304  1.00  0.00     0.031 A 
ATOM     33  C   UNL A   1      45.387  32.436  29.673  1.00  0.00     0.049 A 
ATOM     34  C   UNL A   1      43.702  27.262  28.303  1.00  0.00     0.074 A 
ATOM     35  C   UNL A   1      46.753  32.658  29.682  1.00  0.00     0.029 A 
ATOM     36  N   UNL A   1      45.200  31.116  29.290  1.00  0.00    -0.354 N 
ATOM     37  N   UNL A   1      44.241  28.418  28.608  1.00  0.00    -0.248 NA
ATOM     38  C   UNL A   1      44.665  26.225  27.911  1.00  0.00     0.031 C 
ATOM     39  C   UNL A   1      47.390  31.485  29.259  1.00  0.00     0.029 A 
ATOM     40  C   UNL A   1      46.424  30.517  29.037  1.00  0.00     0.049 A 
ATOM     41  H   UNL A   1      44.327  30.669  29.211  1.00  0.00     0.167 HD
ATOM     42  C   UNL A   1      45.610  28.246  28.450  1.00  0.00     0.074 A 
ATOM     43  C   UNL A   1      45.816  26.869  28.046  1.00  0.00     0.031 C 
ATOM     44  C   UNL A   1      46.606  29.151  28.620  1.00  0.00     0.031 A 
BRANCH  31  45
ATOM     45  C   UNL A   1      44.694  34.783  30.317  1.00  0.00    -0.014 A 
ATOM     46  C   UNL A   1      44.880  35.743  29.307  1.00  0.00     0.010 A 
ATOM     47  C   UNL A   1      44.818  35.175  31.663  1.00  0.00     0.010 A 
ATOM     48  C   UNL A   1      45.224  37.059  29.635  1.00  0.00     0.020 A 
ATOM     49  C   UNL A   1      45.138  36.494  31.996  1.00  0.00     0.020 A 
ATOM     50  C   UNL A   1      45.357  37.424  30.978  1.00  0.00     0.054 A 
BRANCH  50  51
ATOM     51  S   UNL A   1      45.795  39.139  31.378  1.00  0.00     0.124 S 
ATOM     52  O   UNL A   1      44.517  39.825  31.199  1.00  0.00    -0.237 OA
ATOM     53  O   UNL A   1      46.265  39.039  32.758  1.00  0.00    -0.237 OA
ATOM     54  O   UNL A   1      46.825  39.473  30.398  1.00  0.00    -0.744 OA
ENDBRANCH  50  51
ENDBRANCH  31  45
BRANCH  32  55
ATOM     55  C   UNL A   1      41.816  25.497  27.949  1.00  0.00    -0.014 A 
ATOM     56  C   UNL A   1      41.112  25.258  26.757  1.00  0.00     0.010 A 
ATOM     57  C   UNL A   1      42.157  24.412  28.778  1.00  0.00     0.010 A 
ATOM     58  C   UNL A   1      40.754  23.955  26.400  1.00  0.00     0.020 A 
ATOM     59  C   UNL A   1      41.824  23.106  28.411  1.00  0.00     0.020 A 
ATOM     60  C   UNL A   1      41.118  22.886  27.227  1.00  0.00     0.054 A 
BRANCH  60  61
ATOM     61  S   UNL A   1      40.714  21.196  26.706  1.00  0.00     0.124 S 
ATOM     62  O   UNL A   1      41.774  20.914  25.745  1.00  0.00    -0.237 OA
ATOM     63  O   UNL A   1      40.783  20.452  27.963  1.00  0.00    -0.237 OA
ATOM     64  O   UNL A   1      39.372  21.325  26.142  1.00  0.00    -0.744 OA
ENDBRANCH  60  61
ENDBRANCH  32  55
BRANCH  44  65
ATOM     65  C   UNL A   1      48.010  28.668  28.378  1.00  0.00    -0.014 A 
ATOM     66  C   UNL A   1      48.591  28.747  27.100  1.00  0.00     0.010 A 
ATOM     67  C   UNL A   1      48.765  28.158  29.448  1.00  0.00     0.010 A 
ATOM     68  C   UNL A   1      49.896  28.292  26.891  1.00  0.00     0.020 A 
ATOM     69  C   UNL A   1      50.078  27.725  29.247  1.00  0.00     0.020 A 
ATOM     70  C   UNL A   1      50.630  27.781  27.966  1.00  0.00     0.054 A 
BRANCH  70  71
ATOM     71  S   UNL A   1      52.333  27.228  27.678  1.00  0.00     0.124 S 
ATOM     72  O   UNL A   1      52.939  27.417  28.994  1.00  0.00    -0.237 OA
ATOM     73  O   UNL A   1      52.156  25.840  27.261  1.00  0.00    -0.237 OA
ATOM     74  O   UNL A   1      52.815  28.130  26.634  1.00  0.00    -0.744 OA
ENDBRANCH  70  71
ENDBRANCH  44  65
ENDBRANCH  18  19
ENDBRANCH  11  13
ENDBRANCH   8   9
ENDBRANCH   7   8
ENDBRANCH   6   7
ENDBRANCH   5   6
ENDBRANCH   1   5
BRANCH   2  75
ATOM     75  C   UNL A   1      29.963  29.611  22.970  1.00  0.00     0.197 C 
BRANCH  75  76
ATOM     76  N   UNL A   1      31.409  29.338  22.984  1.00  0.00    -0.340 N 
ATOM     77  C   UNL A   1      32.115  28.207  22.687  1.00  0.00     0.243 C 
ATOM     78  H   UNL A   1      31.964  30.105  23.253  1.00  0.00     0.164 HD
ATOM     79  O   UNL A   1      33.303  28.369  22.406  1.00  0.00    -0.273 OA
BRANCH  77  80
ATOM     80  C   UNL A   1      31.431  26.824  22.628  1.00  0.00     0.175 C 
BRANCH  80  81
ATOM     81  N   UNL A   1      31.761  26.168  21.359  1.00  0.00    -0.342 N 
ATOM     82  C   UNL A   1      32.641  25.198  20.994  1.00  0.00     0.243 C 
ATOM     83  H   UNL A   1      31.227  26.505  20.604  1.00  0.00     0.164 HD
ATOM     84  O   UNL A   1      32.921  25.131  19.791  1.00  0.00    -0.273 OA
BRANCH  82  85
ATOM     85  C   UNL A   1      33.143  24.093  21.952  1.00  0.00     0.176 C 
BRANCH  85  86
ATOM     86  N   UNL A   1      32.522  22.785  21.677  1.00  0.00    -0.340 N 
ATOM     87  C   UNL A   1      32.148  21.745  22.474  1.00  0.00     0.251 C 
ATOM     88  H   UNL A   1      32.339  22.632  20.722  1.00  0.00     0.164 HD
ATOM     89  O   UNL A   1      31.576  20.788  21.959  1.00  0.00    -0.269 OA
BRANCH  87  90
ATOM     90  C   UNL A   1      32.548  21.683  23.888  1.00  0.00     0.040 A 
ATOM     91  C   UNL A   1      31.943  22.452  24.885  1.00  0.00     0.017 A 
ATOM     92  C   UNL A   1      33.592  20.800  24.206  1.00  0.00     0.017 A 
ATOM     93  C   UNL A   1      32.439  22.392  26.189  1.00  0.00     0.040 A 
ATOM     94  C   UNL A   1      34.074  20.736  25.510  1.00  0.00     0.040 A 
ATOM     95  C   UNL A   1      33.503  21.543  26.486  1.00  0.00     0.123 A 
ATOM     96  F   UNL A   1      33.984  21.501  27.735  1.00  0.00    -0.207 F 
ENDBRANCH  87  90
ENDBRANCH  85  86
BRANCH  85  97
ATOM     97  C   UNL A   1      34.677  23.958  21.962  1.00  0.00     0.070 C 
BRANCH  97  98
ATOM     98  C   UNL A   1      35.368  23.758  23.289  1.00  0.00    -0.045 A 
ATOM     99  C   UNL A   1      36.463  22.894  23.415  1.00  0.00     0.007 A 
ATOM    100  C   UNL A   1      34.948  24.475  24.423  1.00  0.00     0.007 A 
ATOM    101  C   UNL A   1      37.125  22.758  24.642  1.00  0.00     0.046 A 
ATOM    102  C   UNL A   1      35.596  24.331  25.648  1.00  0.00     0.046 A 
ATOM    103  C   UNL A   1      36.683  23.478  25.747  1.00  0.00     0.115 A 
BRANCH 103 104
ATOM    104  O   UNL A   1      37.297  23.386  26.961  1.00  0.00    -0.508 OA
ATOM    105  H   UNL A   1      37.912  22.698  27.123  1.00  0.00     0.293 HD
ENDBRANCH 103 104
ENDBRANCH  97  98
ENDBRANCH  85  97
ENDBRANCH  82  85
ENDBRANCH  80  81
BRANCH  80 106
ATOM    106  C   UNL A   1      31.809  25.926  23.831  1.00  0.00     0.072 C 
BRANCH 106 107
ATOM    107  C   UNL A   1      31.725  26.557  25.195  1.00  0.00    -0.020 A 
ATOM    108  C   UNL A   1      30.666  26.492  26.082  1.00  0.00     0.087 A 
ATOM    109  C   UNL A   1      32.730  27.370  25.823  1.00  0.00     0.003 A 
ATOM    110  N   UNL A   1      31.031  27.122  27.241  1.00  0.00    -0.361 N 
ATOM    111  C   UNL A   1      32.274  27.690  27.102  1.00  0.00     0.046 A 
ATOM    112  C   UNL A   1      33.993  27.857  25.424  1.00  0.00     0.010 A 
ATOM    113  H   UNL A   1      30.483  27.161  28.058  1.00  0.00     0.166 HD
ATOM    114  C   UNL A   1      33.023  28.451  28.009  1.00  0.00     0.026 A 
ATOM    115  C   UNL A   1      34.747  28.635  26.311  1.00  0.00     0.001 A 
ATOM    116  C   UNL A   1      34.269  28.920  27.587  1.00  0.00     0.002 A 
ENDBRANCH 106 107
ENDBRANCH  80 106
ENDBRANCH  77  80
ENDBRANCH  75  76
BRANCH  75 117
ATOM    117  C   UNL A   1      29.096  28.372  23.214  1.00  0.00     0.191 C 
BRANCH 117 118
ATOM    118  O   UNL A   1      27.732  28.570  22.861  1.00  0.00    -0.394 OA
ATOM    119  H   UNL A   1      27.617  29.462  22.499  1.00  0.00     0.210 HD
ENDBRANCH 117 118
ENDBRANCH  75 117
ENDBRANCH   2  75
TORSDOF 27
ENDMDL
