MODEL 1
REMARK VINA RESULT:     -11.9      0.000      0.000
REMARK SMILES Cc1oc2c(c1C(=O)NCCCC(=O)NCCCCNC(=O)c1ccc(-c3c4nc(c(-c5ccc(S(=O)(=O)[O-])cc5)c5ccc([nH]5)c(-c5ccc(S(=O)(=O)[O-])cc5)c5nc(c(-c6ccc(S(=O)(=O)[O-])cc6)c6ccc3[nH]6)C=C5)C=C4)cc1)CCCC2
REMARK SMILES IDX 17 1 16 2 15 3 13 4 14 5 12 7 11 8 10 9 9 10 7 11 8 12 6 14
REMARK SMILES IDX 1 15 2 16 3 17 4 18 5 19 86 20 83 21 85 22 84 23 18 24 19 25
REMARK SMILES IDX 20 26 21 27 22 29 23 30 24 31 82 32 25 33 81 34 26 35 27 36
REMARK SMILES IDX 28 37 75 38 29 39 80 40 74 41 76 42 30 43 79 44 73 45 72 46
REMARK SMILES IDX 31 48 61 49 42 50 60 51 43 52 46 53 59 54 77 55 44 56 45 57
REMARK SMILES IDX 58 59 78 60 47 61 32 62 33 63 41 64 34 65 40 66 35 67 36 68
REMARK SMILES IDX 37 69 38 70 39 71 62 72 63 73 71 74 64 75 70 76 65 77 66 78
REMARK SMILES IDX 67 79 68 80 69 81 48 82 49 83 57 84 50 85 56 86 51 87 52 88
REMARK SMILES IDX 53 89 54 90 55 91
REMARK H PARENT 15 6 9 13 20 28 76 47 46 58
REMARK Flexibility Score: inf
ROOT
ATOM      1  C   UNL A   1      35.479  22.480  24.124  1.00  0.00     0.023 C 
ENDROOT
BRANCH   1   2
ATOM      2  C   UNL A   1      34.681  22.050  25.360  1.00  0.00     0.116 C 
BRANCH   2   3
ATOM      3  N   UNL A   1      33.256  22.058  25.075  1.00  0.00    -0.356 N 
ATOM      4  C   UNL A   1      32.267  22.857  25.561  1.00  0.00     0.220 C 
ATOM      5  O   UNL A   1      31.096  22.521  25.369  1.00  0.00    -0.275 OA
ATOM      6  H   UNL A   1      32.959  21.379  24.428  1.00  0.00     0.163 HD
BRANCH   4   7
ATOM      7  C   UNL A   1      32.589  24.137  26.309  1.00  0.00     0.102 C 
BRANCH   7   8
ATOM      8  C   UNL A   1      33.026  25.300  25.413  1.00  0.00     0.031 C 
BRANCH   8   9
ATOM      9  C   UNL A   1      32.495  25.287  23.982  1.00  0.00     0.116 C 
BRANCH   9  10
ATOM     10  N   UNL A   1      33.198  26.147  23.063  1.00  0.00    -0.352 N 
ATOM     11  C   UNL A   1      33.254  27.512  22.943  1.00  0.00     0.255 C 
ATOM     12  O   UNL A   1      34.008  27.926  22.058  1.00  0.00    -0.269 OA
ATOM     13  H   UNL A   1      33.740  25.664  22.399  1.00  0.00     0.163 HD
BRANCH  11  14
ATOM     14  C   UNL A   1      32.435  28.443  23.720  1.00  0.00     0.084 A 
ATOM     15  C   UNL A   1      30.026  28.800  22.598  1.00  0.00     0.088 C 
ATOM     16  C   UNL A   1      31.154  28.975  23.534  1.00  0.00     0.114 A 
ATOM     17  O   UNL A   1      30.849  29.867  24.526  1.00  0.00    -0.465 OA
ATOM     18  C   UNL A   1      31.872  29.858  25.390  1.00  0.00     0.108 A 
ATOM     19  C   UNL A   1      32.845  28.974  25.002  1.00  0.00     0.007 A 
ATOM     20  C   UNL A   1      31.824  30.703  26.599  1.00  0.00     0.076 C 
ATOM     21  C   UNL A   1      34.064  28.747  25.836  1.00  0.00     0.040 C 
ATOM     22  C   UNL A   1      33.232  30.753  27.219  1.00  0.00     0.008 C 
ATOM     23  C   UNL A   1      33.897  29.362  27.248  1.00  0.00     0.005 C 
ENDBRANCH  11  14
ENDBRANCH   9  10
ENDBRANCH   8   9
ENDBRANCH   7   8
ENDBRANCH   4   7
ENDBRANCH   2   3
ENDBRANCH   1   2
BRANCH   1  24
ATOM     24  C   UNL A   1      36.961  22.800  24.334  1.00  0.00     0.023 C 
BRANCH  24  25
ATOM     25  C   UNL A   1      37.352  23.091  25.774  1.00  0.00     0.116 C 
BRANCH  25  26
ATOM     26  N   UNL A   1      38.291  22.116  26.329  1.00  0.00    -0.352 N 
ATOM     27  C   UNL A   1      39.607  22.339  26.710  1.00  0.00     0.251 C 
ATOM     28  H   UNL A   1      37.951  21.199  26.446  1.00  0.00     0.163 HD
ATOM     29  O   UNL A   1      40.417  21.436  26.773  1.00  0.00    -0.269 OA
BRANCH  27  30
ATOM     30  C   UNL A   1      39.983  23.727  27.038  1.00  0.00     0.039 A 
ATOM     31  C   UNL A   1      39.144  24.805  26.745  1.00  0.00     0.014 A 
ATOM     32  C   UNL A   1      41.156  23.898  27.767  1.00  0.00     0.014 A 
ATOM     33  C   UNL A   1      39.446  26.051  27.293  1.00  0.00     0.010 A 
ATOM     34  C   UNL A   1      41.358  25.079  28.430  1.00  0.00     0.010 A 
ATOM     35  C   UNL A   1      40.538  26.175  28.164  1.00  0.00    -0.014 A 
BRANCH  35  36
ATOM     36  C   UNL A   1      40.800  27.421  28.879  1.00  0.00     0.031 A 
ATOM     37  C   UNL A   1      41.823  28.327  28.284  1.00  0.00     0.074 A 
ATOM     38  C   UNL A   1      40.012  27.850  29.887  1.00  0.00     0.049 A 
ATOM     39  N   UNL A   1      42.977  28.630  28.776  1.00  0.00    -0.248 NA
ATOM     40  C   UNL A   1      41.586  28.892  26.946  1.00  0.00     0.031 C 
ATOM     41  C   UNL A   1      38.778  27.242  30.404  1.00  0.00     0.029 A 
ATOM     42  N   UNL A   1      40.074  29.021  30.572  1.00  0.00    -0.354 N 
ATOM     43  C   UNL A   1      43.541  29.573  27.919  1.00  0.00     0.074 A 
ATOM     44  C   UNL A   1      42.716  29.575  26.737  1.00  0.00     0.031 C 
ATOM     45  C   UNL A   1      38.082  28.164  31.103  1.00  0.00     0.029 A 
ATOM     46  C   UNL A   1      38.902  29.352  31.240  1.00  0.00     0.049 A 
ATOM     47  H   UNL A   1      40.879  29.586  30.593  1.00  0.00     0.167 HD
ATOM     48  C   UNL A   1      44.523  30.424  28.333  1.00  0.00     0.031 A 
ATOM     49  C   UNL A   1      38.612  30.538  31.828  1.00  0.00     0.031 A 
ATOM     50  C   UNL A   1      45.019  30.067  29.638  1.00  0.00     0.049 A 
ATOM     51  C   UNL A   1      39.909  31.203  32.113  1.00  0.00     0.074 A 
ATOM     52  C   UNL A   1      45.626  28.950  30.175  1.00  0.00     0.029 A 
ATOM     53  N   UNL A   1      44.537  30.789  30.707  1.00  0.00    -0.354 N 
ATOM     54  N   UNL A   1      40.779  30.725  32.960  1.00  0.00    -0.248 NA
ATOM     55  C   UNL A   1      40.449  32.128  31.128  1.00  0.00     0.031 C 
ATOM     56  C   UNL A   1      45.039  28.806  31.467  1.00  0.00     0.029 A 
ATOM     57  C   UNL A   1      44.174  29.885  31.673  1.00  0.00     0.049 A 
ATOM     58  H   UNL A   1      44.464  31.769  30.767  1.00  0.00     0.167 HD
ATOM     59  C   UNL A   1      42.011  30.916  32.350  1.00  0.00     0.074 A 
ATOM     60  C   UNL A   1      41.755  31.884  31.283  1.00  0.00     0.031 C 
ATOM     61  C   UNL A   1      43.054  30.062  32.575  1.00  0.00     0.031 A 
BRANCH  48  62
ATOM     62  C   UNL A   1      44.801  31.787  27.747  1.00  0.00    -0.014 A 
ATOM     63  C   UNL A   1      46.070  32.035  27.179  1.00  0.00     0.010 A 
ATOM     64  C   UNL A   1      43.974  32.903  27.977  1.00  0.00     0.010 A 
ATOM     65  C   UNL A   1      46.516  33.339  26.929  1.00  0.00     0.020 A 
ATOM     66  C   UNL A   1      44.393  34.205  27.690  1.00  0.00     0.020 A 
ATOM     67  C   UNL A   1      45.678  34.418  27.204  1.00  0.00     0.054 A 
BRANCH  67  68
ATOM     68  S   UNL A   1      46.307  36.102  26.992  1.00  0.00     0.124 S 
ATOM     69  O   UNL A   1      45.071  36.874  26.897  1.00  0.00    -0.237 OA
ATOM     70  O   UNL A   1      47.084  36.299  28.213  1.00  0.00    -0.237 OA
ATOM     71  O   UNL A   1      47.093  36.021  25.765  1.00  0.00    -0.744 OA
ENDBRANCH  67  68
ENDBRANCH  48  62
BRANCH  49  72
ATOM     72  C   UNL A   1      37.301  31.235  31.844  1.00  0.00    -0.014 A 
ATOM     73  C   UNL A   1      36.701  31.614  33.059  1.00  0.00     0.010 A 
ATOM     74  C   UNL A   1      36.771  31.782  30.656  1.00  0.00     0.010 A 
ATOM     75  C   UNL A   1      35.674  32.573  33.088  1.00  0.00     0.020 A 
ATOM     76  C   UNL A   1      35.740  32.727  30.676  1.00  0.00     0.020 A 
ATOM     77  C   UNL A   1      35.220  33.145  31.897  1.00  0.00     0.054 A 
BRANCH  77  78
ATOM     78  S   UNL A   1      34.065  34.547  31.957  1.00  0.00     0.124 S 
ATOM     79  O   UNL A   1      34.923  35.637  32.409  1.00  0.00    -0.237 OA
ATOM     80  O   UNL A   1      33.603  34.636  30.575  1.00  0.00    -0.237 OA
ATOM     81  O   UNL A   1      33.051  34.114  32.918  1.00  0.00    -0.744 OA
ENDBRANCH  77  78
ENDBRANCH  49  72
BRANCH  61  82
ATOM     82  C   UNL A   1      42.935  29.048  33.693  1.00  0.00    -0.014 A 
ATOM     83  C   UNL A   1      43.443  29.252  34.991  1.00  0.00     0.010 A 
ATOM     84  C   UNL A   1      42.130  27.917  33.464  1.00  0.00     0.010 A 
ATOM     85  C   UNL A   1      43.185  28.333  36.020  1.00  0.00     0.020 A 
ATOM     86  C   UNL A   1      41.851  27.008  34.489  1.00  0.00     0.020 A 
ATOM     87  C   UNL A   1      42.390  27.214  35.759  1.00  0.00     0.054 A 
BRANCH  87  88
ATOM     88  S   UNL A   1      42.026  26.046  37.100  1.00  0.00     0.124 S 
ATOM     89  O   UNL A   1      42.291  24.754  36.475  1.00  0.00    -0.237 OA
ATOM     90  O   UNL A   1      42.967  26.445  38.145  1.00  0.00    -0.237 OA
ATOM     91  O   UNL A   1      40.621  26.304  37.414  1.00  0.00    -0.744 OA
ENDBRANCH  87  88
ENDBRANCH  61  82
ENDBRANCH  35  36
ENDBRANCH  27  30
ENDBRANCH  25  26
ENDBRANCH  24  25
ENDBRANCH   1  24
TORSDOF 18
ENDMDL
MODEL 2
REMARK VINA RESULT:     -11.8      1.703      2.752
REMARK SMILES Cc1oc2c(c1C(=O)NCCCC(=O)NCCCCNC(=O)c1ccc(-c3c4nc(c(-c5ccc(S(=O)(=O)[O-])cc5)c5ccc([nH]5)c(-c5ccc(S(=O)(=O)[O-])cc5)c5nc(c(-c6ccc(S(=O)(=O)[O-])cc6)c6ccc3[nH]6)C=C5)C=C4)cc1)CCCC2
REMARK SMILES IDX 17 1 16 2 15 3 13 4 14 5 12 7 11 8 10 9 9 10 7 11 8 12 6 14
REMARK SMILES IDX 1 15 2 16 3 17 4 18 5 19 86 20 83 21 85 22 84 23 18 24 19 25
REMARK SMILES IDX 20 26 21 27 22 29 23 30 24 31 82 32 25 33 81 34 26 35 27 36
REMARK SMILES IDX 28 37 75 38 29 39 80 40 74 41 76 42 30 43 79 44 73 45 72 46
REMARK SMILES IDX 31 48 61 49 42 50 60 51 43 52 46 53 59 54 77 55 44 56 45 57
REMARK SMILES IDX 58 59 78 60 47 61 32 62 33 63 41 64 34 65 40 66 35 67 36 68
REMARK SMILES IDX 37 69 38 70 39 71 62 72 63 73 71 74 64 75 70 76 65 77 66 78
REMARK SMILES IDX 67 79 68 80 69 81 48 82 49 83 57 84 50 85 56 86 51 87 52 88
REMARK SMILES IDX 53 89 54 90 55 91
REMARK H PARENT 15 6 9 13 20 28 76 47 46 58
REMARK Flexibility Score: inf
ROOT
ATOM      1  C   UNL A   1      38.849  21.713  26.121  1.00  0.00     0.023 C 
ENDROOT
BRANCH   1   2
ATOM      2  C   UNL A   1      37.448  21.427  25.567  1.00  0.00     0.116 C 
BRANCH   2   3
ATOM      3  N   UNL A   1      37.309  21.975  24.229  1.00  0.00    -0.356 N 
ATOM      4  C   UNL A   1      36.632  23.073  23.794  1.00  0.00     0.220 C 
ATOM      5  O   UNL A   1      36.446  23.204  22.582  1.00  0.00    -0.275 OA
ATOM      6  H   UNL A   1      37.778  21.472  23.524  1.00  0.00     0.163 HD
BRANCH   4   7
ATOM      7  C   UNL A   1      36.128  24.120  24.769  1.00  0.00     0.102 C 
BRANCH   7   8
ATOM      8  C   UNL A   1      34.606  24.279  24.796  1.00  0.00     0.031 C 
BRANCH   8   9
ATOM      9  C   UNL A   1      33.803  23.034  25.162  1.00  0.00     0.116 C 
BRANCH   9  10
ATOM     10  N   UNL A   1      32.853  23.215  26.233  1.00  0.00    -0.352 N 
ATOM     11  C   UNL A   1      31.796  24.073  26.387  1.00  0.00     0.255 C 
ATOM     12  O   UNL A   1      31.151  23.922  27.428  1.00  0.00    -0.269 OA
ATOM     13  H   UNL A   1      32.990  22.607  26.994  1.00  0.00     0.163 HD
BRANCH  11  14
ATOM     14  C   UNL A   1      31.472  25.159  25.460  1.00  0.00     0.084 A 
ATOM     15  C   UNL A   1      30.404  24.222  23.186  1.00  0.00     0.088 C 
ATOM     16  C   UNL A   1      30.951  25.186  24.162  1.00  0.00     0.114 A 
ATOM     17  O   UNL A   1      30.886  26.469  23.690  1.00  0.00    -0.465 OA
ATOM     18  C   UNL A   1      31.278  27.274  24.686  1.00  0.00     0.108 A 
ATOM     19  C   UNL A   1      31.590  26.557  25.812  1.00  0.00     0.007 A 
ATOM     20  C   UNL A   1      31.285  28.737  24.493  1.00  0.00     0.076 C 
ATOM     21  C   UNL A   1      32.002  27.240  27.076  1.00  0.00     0.040 C 
ATOM     22  C   UNL A   1      32.077  29.380  25.645  1.00  0.00     0.008 C 
ATOM     23  C   UNL A   1      31.711  28.761  27.010  1.00  0.00     0.005 C 
ENDBRANCH  11  14
ENDBRANCH   9  10
ENDBRANCH   8   9
ENDBRANCH   7   8
ENDBRANCH   4   7
ENDBRANCH   2   3
ENDBRANCH   1   2
BRANCH   1  24
ATOM     24  C   UNL A   1      39.909  20.627  25.915  1.00  0.00     0.023 C 
BRANCH  24  25
ATOM     25  C   UNL A   1      41.225  20.876  26.634  1.00  0.00     0.116 C 
BRANCH  25  26
ATOM     26  N   UNL A   1      42.313  21.262  25.735  1.00  0.00    -0.352 N 
ATOM     27  C   UNL A   1      42.740  22.548  25.438  1.00  0.00     0.251 C 
ATOM     28  H   UNL A   1      42.796  20.527  25.292  1.00  0.00     0.163 HD
ATOM     29  O   UNL A   1      43.348  22.800  24.417  1.00  0.00    -0.269 OA
BRANCH  27  30
ATOM     30  C   UNL A   1      42.426  23.603  26.420  1.00  0.00     0.039 A 
ATOM     31  C   UNL A   1      43.069  23.670  27.658  1.00  0.00     0.014 A 
ATOM     32  C   UNL A   1      41.549  24.599  26.004  1.00  0.00     0.014 A 
ATOM     33  C   UNL A   1      42.904  24.816  28.433  1.00  0.00     0.010 A 
ATOM     34  C   UNL A   1      41.518  25.785  26.690  1.00  0.00     0.010 A 
ATOM     35  C   UNL A   1      42.152  25.888  27.928  1.00  0.00    -0.014 A 
BRANCH  35  36
ATOM     36  C   UNL A   1      42.079  27.163  28.635  1.00  0.00     0.031 A 
ATOM     37  C   UNL A   1      43.178  28.135  28.370  1.00  0.00     0.074 A 
ATOM     38  C   UNL A   1      40.975  27.547  29.309  1.00  0.00     0.049 A 
ATOM     39  N   UNL A   1      44.081  28.535  29.201  1.00  0.00    -0.248 NA
ATOM     40  C   UNL A   1      43.358  28.656  27.006  1.00  0.00     0.031 C 
ATOM     41  C   UNL A   1      39.683  26.855  29.418  1.00  0.00     0.029 A 
ATOM     42  N   UNL A   1      40.728  28.731  29.926  1.00  0.00    -0.354 N 
ATOM     43  C   UNL A   1      44.831  29.503  28.537  1.00  0.00     0.074 A 
ATOM     44  C   UNL A   1      44.444  29.421  27.150  1.00  0.00     0.031 C 
ATOM     45  C   UNL A   1      38.735  27.732  29.811  1.00  0.00     0.029 A 
ATOM     46  C   UNL A   1      39.381  28.982  30.159  1.00  0.00     0.049 A 
ATOM     47  H   UNL A   1      41.441  29.357  30.187  1.00  0.00     0.167 HD
ATOM     48  C   UNL A   1      45.562  30.436  29.214  1.00  0.00     0.031 A 
ATOM     49  C   UNL A   1      38.834  30.152  30.568  1.00  0.00     0.031 A 
ATOM     50  C   UNL A   1      45.621  30.142  30.623  1.00  0.00     0.049 A 
ATOM     51  C   UNL A   1      39.916  30.921  31.234  1.00  0.00     0.074 A 
ATOM     52  C   UNL A   1      46.091  29.085  31.377  1.00  0.00     0.029 A 
ATOM     53  N   UNL A   1      44.765  30.843  31.443  1.00  0.00    -0.354 N 
ATOM     54  N   UNL A   1      40.488  30.527  32.339  1.00  0.00    -0.248 NA
ATOM     55  C   UNL A   1      40.688  31.867  30.443  1.00  0.00     0.031 C 
ATOM     56  C   UNL A   1      45.121  28.919  32.409  1.00  0.00     0.029 A 
ATOM     57  C   UNL A   1      44.166  29.931  32.274  1.00  0.00     0.049 A 
ATOM     58  H   UNL A   1      44.611  31.815  31.434  1.00  0.00     0.167 HD
ATOM     59  C   UNL A   1      41.837  30.802  32.159  1.00  0.00     0.074 A 
ATOM     60  C   UNL A   1      41.883  31.729  31.028  1.00  0.00     0.031 C 
ATOM     61  C   UNL A   1      42.802  30.036  32.751  1.00  0.00     0.031 A 
BRANCH  48  62
ATOM     62  C   UNL A   1      45.925  31.806  28.695  1.00  0.00    -0.014 A 
ATOM     63  C   UNL A   1      44.890  32.659  28.253  1.00  0.00     0.010 A 
ATOM     64  C   UNL A   1      47.243  32.178  28.370  1.00  0.00     0.010 A 
ATOM     65  C   UNL A   1      45.158  33.782  27.461  1.00  0.00     0.020 A 
ATOM     66  C   UNL A   1      47.524  33.322  27.617  1.00  0.00     0.020 A 
ATOM     67  C   UNL A   1      46.476  34.095  27.133  1.00  0.00     0.054 A 
BRANCH  67  68
ATOM     68  S   UNL A   1      46.804  35.476  26.010  1.00  0.00     0.124 S 
ATOM     69  O   UNL A   1      45.949  36.522  26.563  1.00  0.00    -0.237 OA
ATOM     70  O   UNL A   1      48.241  35.678  26.177  1.00  0.00    -0.237 OA
ATOM     71  O   UNL A   1      46.400  34.959  24.706  1.00  0.00    -0.744 OA
ENDBRANCH  67  68
ENDBRANCH  48  62
BRANCH  49  72
ATOM     72  C   UNL A   1      37.548  30.745  30.123  1.00  0.00    -0.014 A 
ATOM     73  C   UNL A   1      36.570  31.131  31.059  1.00  0.00     0.010 A 
ATOM     74  C   UNL A   1      37.393  31.195  28.795  1.00  0.00     0.010 A 
ATOM     75  C   UNL A   1      35.532  32.007  30.699  1.00  0.00     0.020 A 
ATOM     76  C   UNL A   1      36.355  32.058  28.425  1.00  0.00     0.020 A 
ATOM     77  C   UNL A   1      35.449  32.488  29.390  1.00  0.00     0.054 A 
BRANCH  77  78
ATOM     78  S   UNL A   1      34.254  33.797  28.989  1.00  0.00     0.124 S 
ATOM     79  O   UNL A   1      35.115  34.855  28.467  1.00  0.00    -0.237 OA
ATOM     80  O   UNL A   1      33.387  33.146  28.011  1.00  0.00    -0.237 OA
ATOM     81  O   UNL A   1      33.621  34.089  30.274  1.00  0.00    -0.744 OA
ENDBRANCH  77  78
ENDBRANCH  49  72
BRANCH  61  82
ATOM     82  C   UNL A   1      42.388  29.036  33.810  1.00  0.00    -0.014 A 
ATOM     83  C   UNL A   1      41.931  27.736  33.521  1.00  0.00     0.010 A 
ATOM     84  C   UNL A   1      42.631  29.373  35.154  1.00  0.00     0.010 A 
ATOM     85  C   UNL A   1      41.689  26.811  34.549  1.00  0.00     0.020 A 
ATOM     86  C   UNL A   1      42.413  28.451  36.181  1.00  0.00     0.020 A 
ATOM     87  C   UNL A   1      41.931  27.178  35.875  1.00  0.00     0.054 A 
BRANCH  87  88
ATOM     88  S   UNL A   1      41.653  25.969  37.200  1.00  0.00     0.124 S 
ATOM     89  O   UNL A   1      40.286  26.265  37.618  1.00  0.00    -0.237 OA
ATOM     90  O   UNL A   1      41.840  24.690  36.519  1.00  0.00    -0.237 OA
ATOM     91  O   UNL A   1      42.684  26.291  38.187  1.00  0.00    -0.744 OA
ENDBRANCH  87  88
ENDBRANCH  61  82
ENDBRANCH  35  36
ENDBRANCH  27  30
ENDBRANCH  25  26
ENDBRANCH  24  25
ENDBRANCH   1  24
TORSDOF 18
ENDMDL
MODEL 3
REMARK VINA RESULT:     -11.8      1.458      3.143
REMARK SMILES Cc1oc2c(c1C(=O)NCCCC(=O)NCCCCNC(=O)c1ccc(-c3c4nc(c(-c5ccc(S(=O)(=O)[O-])cc5)c5ccc([nH]5)c(-c5ccc(S(=O)(=O)[O-])cc5)c5nc(c(-c6ccc(S(=O)(=O)[O-])cc6)c6ccc3[nH]6)C=C5)C=C4)cc1)CCCC2
REMARK SMILES IDX 17 1 16 2 15 3 13 4 14 5 12 7 11 8 10 9 9 10 7 11 8 12 6 14
REMARK SMILES IDX 1 15 2 16 3 17 4 18 5 19 86 20 83 21 85 22 84 23 18 24 19 25
REMARK SMILES IDX 20 26 21 27 22 29 23 30 24 31 82 32 25 33 81 34 26 35 27 36
REMARK SMILES IDX 28 37 75 38 29 39 80 40 74 41 76 42 30 43 79 44 73 45 72 46
REMARK SMILES IDX 31 48 61 49 42 50 60 51 43 52 46 53 59 54 77 55 44 56 45 57
REMARK SMILES IDX 58 59 78 60 47 61 32 62 33 63 41 64 34 65 40 66 35 67 36 68
REMARK SMILES IDX 37 69 38 70 39 71 62 72 63 73 71 74 64 75 70 76 65 77 66 78
REMARK SMILES IDX 67 79 68 80 69 81 48 82 49 83 57 84 50 85 56 86 51 87 52 88
REMARK SMILES IDX 53 89 54 90 55 91
REMARK H PARENT 15 6 9 13 20 28 76 47 46 58
REMARK Flexibility Score: inf
ROOT
ATOM      1  C   UNL A   1      35.940  23.199  23.432  1.00  0.00     0.023 C 
ENDROOT
BRANCH   1   2
ATOM      2  C   UNL A   1      34.650  23.680  24.106  1.00  0.00     0.116 C 
BRANCH   2   3
ATOM      3  N   UNL A   1      34.049  24.760  23.343  1.00  0.00    -0.356 N 
ATOM      4  C   UNL A   1      33.712  26.024  23.722  1.00  0.00     0.220 C 
ATOM      5  O   UNL A   1      32.986  26.685  22.976  1.00  0.00    -0.275 OA
ATOM      6  H   UNL A   1      33.855  24.545  22.402  1.00  0.00     0.163 HD
BRANCH   4   7
ATOM      7  C   UNL A   1      34.224  26.614  25.022  1.00  0.00     0.102 C 
BRANCH   7   8
ATOM      8  C   UNL A   1      33.340  26.326  26.239  1.00  0.00     0.031 C 
BRANCH   8   9
ATOM      9  C   UNL A   1      31.833  26.368  26.004  1.00  0.00     0.116 C 
BRANCH   9  10
ATOM     10  N   UNL A   1      31.075  25.380  26.732  1.00  0.00    -0.352 N 
ATOM     11  C   UNL A   1      30.767  24.073  26.457  1.00  0.00     0.255 C 
ATOM     12  O   UNL A   1      30.128  23.492  27.338  1.00  0.00    -0.269 OA
ATOM     13  H   UNL A   1      30.713  25.705  27.588  1.00  0.00     0.163 HD
BRANCH  11  14
ATOM     14  C   UNL A   1      31.071  23.402  25.191  1.00  0.00     0.084 A 
ATOM     15  C   UNL A   1      30.190  24.820  23.093  1.00  0.00     0.088 C 
ATOM     16  C   UNL A   1      30.790  23.706  23.855  1.00  0.00     0.114 A 
ATOM     17  O   UNL A   1      31.243  22.718  23.025  1.00  0.00    -0.465 OA
ATOM     18  C   UNL A   1      31.882  21.824  23.791  1.00  0.00     0.108 A 
ATOM     19  C   UNL A   1      31.874  22.202  25.109  1.00  0.00     0.007 A 
ATOM     20  C   UNL A   1      32.518  20.644  23.174  1.00  0.00     0.076 C 
ATOM     21  C   UNL A   1      32.572  21.390  26.152  1.00  0.00     0.040 C 
ATOM     22  C   UNL A   1      32.874  19.642  24.286  1.00  0.00     0.008 C 
ATOM     23  C   UNL A   1      33.509  20.339  25.507  1.00  0.00     0.005 C 
ENDBRANCH  11  14
ENDBRANCH   9  10
ENDBRANCH   8   9
ENDBRANCH   7   8
ENDBRANCH   4   7
ENDBRANCH   2   3
ENDBRANCH   1   2
BRANCH   1  24
ATOM     24  C   UNL A   1      36.828  22.246  24.237  1.00  0.00     0.023 C 
BRANCH  24  25
ATOM     25  C   UNL A   1      37.756  22.928  25.230  1.00  0.00     0.116 C 
BRANCH  25  26
ATOM     26  N   UNL A   1      38.411  21.994  26.147  1.00  0.00    -0.352 N 
ATOM     27  C   UNL A   1      39.569  22.211  26.880  1.00  0.00     0.251 C 
ATOM     28  H   UNL A   1      37.982  21.114  26.256  1.00  0.00     0.163 HD
ATOM     29  O   UNL A   1      40.252  21.290  27.284  1.00  0.00    -0.269 OA
BRANCH  27  30
ATOM     30  C   UNL A   1      39.938  23.612  27.152  1.00  0.00     0.039 A 
ATOM     31  C   UNL A   1      39.020  24.655  27.006  1.00  0.00     0.014 A 
ATOM     32  C   UNL A   1      41.206  23.831  27.680  1.00  0.00     0.014 A 
ATOM     33  C   UNL A   1      39.357  25.913  27.505  1.00  0.00     0.010 A 
ATOM     34  C   UNL A   1      41.466  25.020  28.310  1.00  0.00     0.010 A 
ATOM     35  C   UNL A   1      40.571  26.082  28.188  1.00  0.00    -0.014 A 
BRANCH  35  36
ATOM     36  C   UNL A   1      40.895  27.337  28.859  1.00  0.00     0.031 A 
ATOM     37  C   UNL A   1      41.976  28.160  28.244  1.00  0.00     0.074 A 
ATOM     38  C   UNL A   1      40.121  27.849  29.838  1.00  0.00     0.049 A 
ATOM     39  N   UNL A   1      43.139  28.415  28.741  1.00  0.00    -0.248 NA
ATOM     40  C   UNL A   1      41.787  28.685  26.882  1.00  0.00     0.031 C 
ATOM     41  C   UNL A   1      38.848  27.333  30.360  1.00  0.00     0.029 A 
ATOM     42  N   UNL A   1      40.242  29.040  30.479  1.00  0.00    -0.354 N 
ATOM     43  C   UNL A   1      43.766  29.290  27.857  1.00  0.00     0.074 A 
ATOM     44  C   UNL A   1      42.957  29.294  26.663  1.00  0.00     0.031 C 
ATOM     45  C   UNL A   1      38.198  28.319  31.014  1.00  0.00     0.029 A 
ATOM     46  C   UNL A   1      39.083  29.463  31.118  1.00  0.00     0.049 A 
ATOM     47  H   UNL A   1      41.078  29.559  30.490  1.00  0.00     0.167 HD
ATOM     48  C   UNL A   1      44.791  30.100  28.252  1.00  0.00     0.031 A 
ATOM     49  C   UNL A   1      38.855  30.686  31.656  1.00  0.00     0.031 A 
ATOM     50  C   UNL A   1      45.250  29.766  29.576  1.00  0.00     0.049 A 
ATOM     51  C   UNL A   1      40.185  31.286  31.933  1.00  0.00     0.074 A 
ATOM     52  C   UNL A   1      45.785  28.637  30.164  1.00  0.00     0.029 A 
ATOM     53  N   UNL A   1      44.797  30.554  30.610  1.00  0.00    -0.354 N 
ATOM     54  N   UNL A   1      41.015  30.792  32.810  1.00  0.00    -0.248 NA
ATOM     55  C   UNL A   1      40.789  32.140  30.922  1.00  0.00     0.031 C 
ATOM     56  C   UNL A   1      45.176  28.577  31.452  1.00  0.00     0.029 A 
ATOM     57  C   UNL A   1      44.372  29.710  31.605  1.00  0.00     0.049 A 
ATOM     58  H   UNL A   1      44.781  31.539  30.632  1.00  0.00     0.167 HD
ATOM     59  C   UNL A   1      42.264  30.888  32.211  1.00  0.00     0.074 A 
ATOM     60  C   UNL A   1      42.077  31.828  31.105  1.00  0.00     0.031 C 
ATOM     61  C   UNL A   1      43.253  29.986  32.483  1.00  0.00     0.031 A 
BRANCH  48  62
ATOM     62  C   UNL A   1      45.154  31.421  27.619  1.00  0.00    -0.014 A 
ATOM     63  C   UNL A   1      46.431  31.563  27.032  1.00  0.00     0.010 A 
ATOM     64  C   UNL A   1      44.406  32.597  27.818  1.00  0.00     0.010 A 
ATOM     65  C   UNL A   1      46.960  32.825  26.735  1.00  0.00     0.020 A 
ATOM     66  C   UNL A   1      44.909  33.858  27.484  1.00  0.00     0.020 A 
ATOM     67  C   UNL A   1      46.200  33.967  26.981  1.00  0.00     0.054 A 
BRANCH  67  68
ATOM     68  S   UNL A   1      46.938  35.597  26.708  1.00  0.00     0.124 S 
ATOM     69  O   UNL A   1      47.864  35.327  25.612  1.00  0.00    -0.237 OA
ATOM     70  O   UNL A   1      45.775  36.413  26.369  1.00  0.00    -0.237 OA
ATOM     71  O   UNL A   1      47.560  35.910  27.992  1.00  0.00    -0.744 OA
ENDBRANCH  67  68
ENDBRANCH  48  62
BRANCH  49  72
ATOM     72  C   UNL A   1      37.586  31.456  31.627  1.00  0.00    -0.014 A 
ATOM     73  C   UNL A   1      36.659  31.358  32.681  1.00  0.00     0.010 A 
ATOM     74  C   UNL A   1      37.412  32.506  30.700  1.00  0.00     0.010 A 
ATOM     75  C   UNL A   1      35.655  32.326  32.852  1.00  0.00     0.020 A 
ATOM     76  C   UNL A   1      36.407  33.467  30.856  1.00  0.00     0.020 A 
ATOM     77  C   UNL A   1      35.554  33.392  31.953  1.00  0.00     0.054 A 
BRANCH  77  78
ATOM     78  S   UNL A   1      34.414  34.761  32.309  1.00  0.00     0.124 S 
ATOM     79  O   UNL A   1      35.240  35.651  33.120  1.00  0.00    -0.237 OA
ATOM     80  O   UNL A   1      34.079  35.249  30.975  1.00  0.00    -0.237 OA
ATOM     81  O   UNL A   1      33.313  34.114  33.021  1.00  0.00    -0.744 OA
ENDBRANCH  77  78
ENDBRANCH  49  72
BRANCH  61  82
ATOM     82  C   UNL A   1      43.062  29.025  33.637  1.00  0.00    -0.014 A 
ATOM     83  C   UNL A   1      43.589  29.237  34.926  1.00  0.00     0.010 A 
ATOM     84  C   UNL A   1      42.175  27.949  33.450  1.00  0.00     0.010 A 
ATOM     85  C   UNL A   1      43.266  28.377  35.988  1.00  0.00     0.020 A 
ATOM     86  C   UNL A   1      41.833  27.101  34.506  1.00  0.00     0.020 A 
ATOM     87  C   UNL A   1      42.390  27.312  35.768  1.00  0.00     0.054 A 
BRANCH  87  88
ATOM     88  S   UNL A   1      41.944  26.223  37.151  1.00  0.00     0.124 S 
ATOM     89  O   UNL A   1      41.930  24.905  36.524  1.00  0.00    -0.237 OA
ATOM     90  O   UNL A   1      43.023  26.453  38.108  1.00  0.00    -0.237 OA
ATOM     91  O   UNL A   1      40.635  26.719  37.576  1.00  0.00    -0.744 OA
ENDBRANCH  87  88
ENDBRANCH  61  82
ENDBRANCH  35  36
ENDBRANCH  27  30
ENDBRANCH  25  26
ENDBRANCH  24  25
ENDBRANCH   1  24
TORSDOF 18
ENDMDL
