MODEL 1
REMARK VINA RESULT:     -10.9      0.000      0.000
REMARK SMILES O=C(NCCCCNC(=O)c1cc(-c2ccoc2)n[nH]1)c1ccc(-c2c3nc(c(-c4ccc(S(=O)(=O)[O-])cc4)c4ccc([nH]4)c(-c4ccc(S(=O)(=O)[O-])cc4)c4nc(c(-c5ccc(S(=O)(=O)[O-])cc5)c5ccc2[nH]5)C=C4)C=C3)cc1
REMARK SMILES IDX 4 1 3 2 1 3 2 4 21 6 22 7 80 8 23 9 79 10 24 11 25 12 26 13
REMARK SMILES IDX 73 14 27 15 78 16 72 17 74 18 28 19 77 20 71 21 70 22 29 24
REMARK SMILES IDX 59 25 40 26 58 27 41 28 44 29 57 30 75 31 42 32 43 33 56 35
REMARK SMILES IDX 76 36 45 37 30 38 31 39 39 40 32 41 38 42 33 43 34 44 35 45
REMARK SMILES IDX 36 46 37 47 60 48 61 49 69 50 62 51 68 52 63 53 64 54 65 55
REMARK SMILES IDX 66 56 67 57 46 58 47 59 55 60 48 61 54 62 49 63 50 64 51 65
REMARK SMILES IDX 52 66 53 67 5 68 6 69 7 70 8 71 9 72 10 74 11 75 12 76 20 77
REMARK SMILES IDX 13 78 19 79 14 81 15 82 18 83 16 84 17 85
REMARK H PARENT 3 5 74 23 44 34 8 73 20 80
REMARK Flexibility Score: inf
ROOT
ATOM      1  C   UNL A   1      40.887  21.795  26.301  1.00  0.00     0.116 C 
ENDROOT
BRANCH   1   2
ATOM      2  N   UNL A   1      39.541  22.048  25.807  1.00  0.00    -0.352 N 
ATOM      3  O   UNL A   1      37.561  23.126  25.670  1.00  0.00    -0.269 OA
ATOM      4  C   UNL A   1      38.728  23.134  26.046  1.00  0.00     0.251 C 
ATOM      5  H   UNL A   1      39.162  21.351  25.226  1.00  0.00     0.163 HD
BRANCH   4   6
ATOM      6  C   UNL A   1      39.273  24.292  26.785  1.00  0.00     0.039 A 
ATOM      7  C   UNL A   1      38.968  24.466  28.136  1.00  0.00     0.014 A 
ATOM      8  C   UNL A   1      40.065  25.227  26.115  1.00  0.00     0.014 A 
ATOM      9  C   UNL A   1      39.314  25.650  28.771  1.00  0.00     0.010 A 
ATOM     10  C   UNL A   1      40.507  26.370  26.790  1.00  0.00     0.010 A 
ATOM     11  C   UNL A   1      40.113  26.603  28.117  1.00  0.00    -0.014 A 
BRANCH  11  12
ATOM     12  C   UNL A   1      40.600  27.778  28.883  1.00  0.00     0.031 A 
ATOM     13  C   UNL A   1      41.979  27.815  29.482  1.00  0.00     0.074 A 
ATOM     14  C   UNL A   1      39.774  28.837  29.011  1.00  0.00     0.049 A 
ATOM     15  N   UNL A   1      42.549  28.777  30.163  1.00  0.00    -0.248 NA
ATOM     16  C   UNL A   1      42.829  26.627  29.302  1.00  0.00     0.031 C 
ATOM     17  C   UNL A   1      38.409  28.909  28.475  1.00  0.00     0.029 A 
ATOM     18  N   UNL A   1      39.957  30.057  29.608  1.00  0.00    -0.354 N 
ATOM     19  C   UNL A   1      43.809  28.308  30.511  1.00  0.00     0.074 A 
ATOM     20  C   UNL A   1      43.919  26.966  29.981  1.00  0.00     0.031 C 
ATOM     21  C   UNL A   1      37.901  30.124  28.724  1.00  0.00     0.029 A 
ATOM     22  C   UNL A   1      38.865  30.887  29.505  1.00  0.00     0.049 A 
ATOM     23  H   UNL A   1      40.789  30.314  30.065  1.00  0.00     0.167 HD
ATOM     24  C   UNL A   1      44.784  28.942  31.208  1.00  0.00     0.031 A 
ATOM     25  C   UNL A   1      38.644  32.115  30.008  1.00  0.00     0.031 A 
ATOM     26  C   UNL A   1      44.662  30.280  31.732  1.00  0.00     0.049 A 
ATOM     27  C   UNL A   1      39.727  32.770  30.813  1.00  0.00     0.074 A 
ATOM     28  C   UNL A   1      45.609  31.023  32.417  1.00  0.00     0.029 A 
ATOM     29  N   UNL A   1      43.528  31.073  31.639  1.00  0.00    -0.354 N 
ATOM     30  N   UNL A   1      40.931  32.327  31.088  1.00  0.00    -0.248 NA
ATOM     31  C   UNL A   1      39.425  34.091  31.377  1.00  0.00     0.031 C 
ATOM     32  C   UNL A   1      45.026  32.234  32.797  1.00  0.00     0.029 A 
ATOM     33  C   UNL A   1      43.740  32.280  32.285  1.00  0.00     0.049 A 
ATOM     34  H   UNL A   1      42.694  30.816  31.181  1.00  0.00     0.167 HD
ATOM     35  C   UNL A   1      41.538  33.327  31.837  1.00  0.00     0.074 A 
ATOM     36  C   UNL A   1      40.578  34.407  31.949  1.00  0.00     0.031 C 
ATOM     37  C   UNL A   1      42.776  33.347  32.388  1.00  0.00     0.031 A 
BRANCH  24  38
ATOM     38  C   UNL A   1      46.068  28.200  31.482  1.00  0.00    -0.014 A 
ATOM     39  C   UNL A   1      46.187  27.321  32.573  1.00  0.00     0.010 A 
ATOM     40  C   UNL A   1      47.136  28.304  30.570  1.00  0.00     0.010 A 
ATOM     41  C   UNL A   1      47.354  26.574  32.756  1.00  0.00     0.020 A 
ATOM     42  C   UNL A   1      48.295  27.539  30.734  1.00  0.00     0.020 A 
ATOM     43  C   UNL A   1      48.399  26.683  31.832  1.00  0.00     0.054 A 
BRANCH  43  44
ATOM     44  S   UNL A   1      49.876  25.654  32.063  1.00  0.00     0.124 S 
ATOM     45  O   UNL A   1      49.452  24.754  33.132  1.00  0.00    -0.237 OA
ATOM     46  O   UNL A   1      50.043  25.035  30.751  1.00  0.00    -0.237 OA
ATOM     47  O   UNL A   1      50.914  26.613  32.435  1.00  0.00    -0.744 OA
ENDBRANCH  43  44
ENDBRANCH  24  38
BRANCH  25  48
ATOM     48  C   UNL A   1      37.329  32.780  29.801  1.00  0.00    -0.014 A 
ATOM     49  C   UNL A   1      37.051  33.476  28.612  1.00  0.00     0.010 A 
ATOM     50  C   UNL A   1      36.345  32.725  30.807  1.00  0.00     0.010 A 
ATOM     51  C   UNL A   1      35.830  34.137  28.450  1.00  0.00     0.020 A 
ATOM     52  C   UNL A   1      35.109  33.350  30.632  1.00  0.00     0.020 A 
ATOM     53  C   UNL A   1      34.868  34.070  29.462  1.00  0.00     0.054 A 
BRANCH  53  54
ATOM     54  S   UNL A   1      33.286  34.923  29.224  1.00  0.00     0.124 S 
ATOM     55  O   UNL A   1      33.718  36.233  28.749  1.00  0.00    -0.237 OA
ATOM     56  O   UNL A   1      32.620  34.080  28.235  1.00  0.00    -0.237 OA
ATOM     57  O   UNL A   1      32.684  34.905  30.555  1.00  0.00    -0.744 OA
ENDBRANCH  53  54
ENDBRANCH  25  48
BRANCH  37  58
ATOM     58  C   UNL A   1      43.179  34.595  33.128  1.00  0.00    -0.014 A 
ATOM     59  C   UNL A   1      42.992  34.714  34.517  1.00  0.00     0.010 A 
ATOM     60  C   UNL A   1      43.789  35.650  32.425  1.00  0.00     0.010 A 
ATOM     61  C   UNL A   1      43.373  35.883  35.182  1.00  0.00     0.020 A 
ATOM     62  C   UNL A   1      44.202  36.805  33.092  1.00  0.00     0.020 A 
ATOM     63  C   UNL A   1      43.978  36.919  34.465  1.00  0.00     0.054 A 
BRANCH  63  64
ATOM     64  S   UNL A   1      44.500  38.409  35.359  1.00  0.00     0.124 S 
ATOM     65  O   UNL A   1      44.061  38.115  36.722  1.00  0.00    -0.237 OA
ATOM     66  O   UNL A   1      45.945  38.415  35.153  1.00  0.00    -0.237 OA
ATOM     67  O   UNL A   1      43.774  39.487  34.691  1.00  0.00    -0.744 OA
ENDBRANCH  63  64
ENDBRANCH  37  58
ENDBRANCH  11  12
ENDBRANCH   4   6
ENDBRANCH   1   2
BRANCH   1  68
ATOM     68  C   UNL A   1      40.935  20.717  27.372  1.00  0.00     0.023 C 
BRANCH  68  69
ATOM     69  C   UNL A   1      42.154  19.803  27.301  1.00  0.00     0.023 C 
BRANCH  69  70
ATOM     70  C   UNL A   1      42.476  19.280  25.903  1.00  0.00     0.116 C 
BRANCH  70  71
ATOM     71  N   UNL A   1      43.796  18.667  25.838  1.00  0.00    -0.351 N 
ATOM     72  C   UNL A   1      44.915  19.130  25.196  1.00  0.00     0.269 C 
ATOM     73  H   UNL A   1      43.897  17.812  26.315  1.00  0.00     0.163 HD
ATOM     74  O   UNL A   1      45.855  18.365  24.989  1.00  0.00    -0.268 OA
BRANCH  72  75
ATOM     75  C   UNL A   1      44.917  20.489  24.750  1.00  0.00     0.123 A 
ATOM     76  C   UNL A   1      45.158  21.672  25.422  1.00  0.00     0.064 A 
ATOM     77  N   UNL A   1      44.656  20.857  23.460  1.00  0.00    -0.272 N 
ATOM     78  C   UNL A   1      44.814  22.680  24.505  1.00  0.00     0.096 A 
ATOM     79  N   UNL A   1      44.485  22.186  23.307  1.00  0.00    -0.175 NA
ATOM     80  H   UNL A   1      44.598  20.215  22.716  1.00  0.00     0.190 HD
BRANCH  78  81
ATOM     81  C   UNL A   1      44.721  24.084  24.861  1.00  0.00     0.040 A 
ATOM     82  C   UNL A   1      45.812  24.950  25.111  1.00  0.00     0.052 A 
ATOM     83  C   UNL A   1      43.578  24.816  25.080  1.00  0.00     0.205 A 
ATOM     84  C   UNL A   1      45.256  26.157  25.471  1.00  0.00     0.195 A 
ATOM     85  O   UNL A   1      43.898  26.082  25.460  1.00  0.00    -0.472 OA
ENDBRANCH  78  81
ENDBRANCH  72  75
ENDBRANCH  70  71
ENDBRANCH  69  70
ENDBRANCH  68  69
ENDBRANCH   1  68
TORSDOF 15
ENDMDL
MODEL 2
REMARK VINA RESULT:     -10.8      0.535      8.499
REMARK SMILES O=C(NCCCCNC(=O)c1cc(-c2ccoc2)n[nH]1)c1ccc(-c2c3nc(c(-c4ccc(S(=O)(=O)[O-])cc4)c4ccc([nH]4)c(-c4ccc(S(=O)(=O)[O-])cc4)c4nc(c(-c5ccc(S(=O)(=O)[O-])cc5)c5ccc2[nH]5)C=C4)C=C3)cc1
REMARK SMILES IDX 4 1 3 2 1 3 2 4 21 6 22 7 80 8 23 9 79 10 24 11 25 12 26 13
REMARK SMILES IDX 73 14 27 15 78 16 72 17 74 18 28 19 77 20 71 21 70 22 29 24
REMARK SMILES IDX 59 25 40 26 58 27 41 28 44 29 57 30 75 31 42 32 43 33 56 35
REMARK SMILES IDX 76 36 45 37 30 38 31 39 39 40 32 41 38 42 33 43 34 44 35 45
REMARK SMILES IDX 36 46 37 47 60 48 61 49 69 50 62 51 68 52 63 53 64 54 65 55
REMARK SMILES IDX 66 56 67 57 46 58 47 59 55 60 48 61 54 62 49 63 50 64 51 65
REMARK SMILES IDX 52 66 53 67 5 68 6 69 7 70 8 71 9 72 10 74 11 75 12 76 20 77
REMARK SMILES IDX 13 78 19 79 14 81 15 82 18 83 16 84 17 85
REMARK H PARENT 3 5 74 23 44 34 8 73 20 80
REMARK Flexibility Score: inf
ROOT
ATOM      1  C   UNL A   1      41.150  21.842  26.229  1.00  0.00     0.116 C 
ENDROOT
BRANCH   1   2
ATOM      2  N   UNL A   1      39.753  21.991  25.849  1.00  0.00    -0.352 N 
ATOM      3  O   UNL A   1      37.694  22.919  25.872  1.00  0.00    -0.269 OA
ATOM      4  C   UNL A   1      38.885  23.016  26.149  1.00  0.00     0.251 C 
ATOM      5  H   UNL A   1      39.379  21.261  25.305  1.00  0.00     0.163 HD
BRANCH   4   6
ATOM      6  C   UNL A   1      39.403  24.220  26.833  1.00  0.00     0.039 A 
ATOM      7  C   UNL A   1      39.177  24.398  28.200  1.00  0.00     0.014 A 
ATOM      8  C   UNL A   1      40.087  25.190  26.098  1.00  0.00     0.014 A 
ATOM      9  C   UNL A   1      39.489  25.614  28.793  1.00  0.00     0.010 A 
ATOM     10  C   UNL A   1      40.498  26.370  26.726  1.00  0.00     0.010 A 
ATOM     11  C   UNL A   1      40.179  26.603  28.074  1.00  0.00    -0.014 A 
BRANCH  11  12
ATOM     12  C   UNL A   1      40.640  27.820  28.789  1.00  0.00     0.031 A 
ATOM     13  C   UNL A   1      39.728  28.992  29.024  1.00  0.00     0.074 A 
ATOM     14  C   UNL A   1      41.907  27.840  29.251  1.00  0.00     0.049 A 
ATOM     15  N   UNL A   1      39.985  30.115  29.645  1.00  0.00    -0.248 NA
ATOM     16  C   UNL A   1      38.357  28.902  28.495  1.00  0.00     0.031 C 
ATOM     17  C   UNL A   1      42.885  26.759  29.076  1.00  0.00     0.029 A 
ATOM     18  N   UNL A   1      42.589  28.783  29.975  1.00  0.00    -0.354 N 
ATOM     19  C   UNL A   1      38.823  30.873  29.566  1.00  0.00     0.074 A 
ATOM     20  C   UNL A   1      37.861  30.090  28.821  1.00  0.00     0.031 C 
ATOM     21  C   UNL A   1      44.017  27.079  29.716  1.00  0.00     0.029 A 
ATOM     22  C   UNL A   1      43.880  28.416  30.276  1.00  0.00     0.049 A 
ATOM     23  H   UNL A   1      42.192  29.640  30.253  1.00  0.00     0.167 HD
ATOM     24  C   UNL A   1      38.585  32.109  30.071  1.00  0.00     0.031 A 
ATOM     25  C   UNL A   1      44.861  29.089  30.905  1.00  0.00     0.031 A 
ATOM     26  C   UNL A   1      39.552  32.879  30.812  1.00  0.00     0.049 A 
ATOM     27  C   UNL A   1      44.576  30.472  31.412  1.00  0.00     0.074 A 
ATOM     28  C   UNL A   1      39.391  34.123  31.398  1.00  0.00     0.029 A 
ATOM     29  N   UNL A   1      40.859  32.489  31.063  1.00  0.00    -0.354 N 
ATOM     30  N   UNL A   1      43.454  31.150  31.369  1.00  0.00    -0.248 NA
ATOM     31  C   UNL A   1      45.688  31.183  32.054  1.00  0.00     0.031 C 
ATOM     32  C   UNL A   1      40.617  34.515  31.942  1.00  0.00     0.029 A 
ATOM     33  C   UNL A   1      41.524  33.483  31.763  1.00  0.00     0.049 A 
ATOM     34  H   UNL A   1      41.256  31.631  30.785  1.00  0.00     0.167 HD
ATOM     35  C   UNL A   1      43.720  32.359  31.999  1.00  0.00     0.074 A 
ATOM     36  C   UNL A   1      45.101  32.307  32.438  1.00  0.00     0.031 C 
ATOM     37  C   UNL A   1      42.898  33.418  32.193  1.00  0.00     0.031 A 
BRANCH  24  38
ATOM     38  C   UNL A   1      37.235  32.735  29.823  1.00  0.00    -0.014 A 
ATOM     39  C   UNL A   1      36.197  32.634  30.767  1.00  0.00     0.010 A 
ATOM     40  C   UNL A   1      37.039  33.526  28.675  1.00  0.00     0.010 A 
ATOM     41  C   UNL A   1      34.985  33.298  30.559  1.00  0.00     0.020 A 
ATOM     42  C   UNL A   1      35.837  34.214  28.476  1.00  0.00     0.020 A 
ATOM     43  C   UNL A   1      34.814  34.088  29.418  1.00  0.00     0.054 A 
BRANCH  43  44
ATOM     44  S   UNL A   1      33.251  34.987  29.207  1.00  0.00     0.124 S 
ATOM     45  O   UNL A   1      32.705  34.962  30.561  1.00  0.00    -0.237 OA
ATOM     46  O   UNL A   1      33.697  36.295  28.735  1.00  0.00    -0.237 OA
ATOM     47  O   UNL A   1      32.519  34.188  28.227  1.00  0.00    -0.744 OA
ENDBRANCH  43  44
ENDBRANCH  24  38
BRANCH  25  48
ATOM     48  C   UNL A   1      46.210  28.479  31.047  1.00  0.00    -0.014 A 
ATOM     49  C   UNL A   1      46.536  27.699  32.169  1.00  0.00     0.010 A 
ATOM     50  C   UNL A   1      47.187  28.688  30.053  1.00  0.00     0.010 A 
ATOM     51  C   UNL A   1      47.822  27.171  32.314  1.00  0.00     0.020 A 
ATOM     52  C   UNL A   1      48.460  28.129  30.174  1.00  0.00     0.020 A 
ATOM     53  C   UNL A   1      48.776  27.392  31.316  1.00  0.00     0.054 A 
BRANCH  53  54
ATOM     54  S   UNL A   1      50.434  26.686  31.517  1.00  0.00     0.124 S 
ATOM     55  O   UNL A   1      50.829  27.212  32.820  1.00  0.00    -0.237 OA
ATOM     56  O   UNL A   1      50.173  25.250  31.467  1.00  0.00    -0.237 OA
ATOM     57  O   UNL A   1      51.173  27.218  30.376  1.00  0.00    -0.744 OA
ENDBRANCH  53  54
ENDBRANCH  25  48
BRANCH  37  58
ATOM     58  C   UNL A   1      43.459  34.595  32.948  1.00  0.00    -0.014 A 
ATOM     59  C   UNL A   1      43.425  34.647  34.352  1.00  0.00     0.010 A 
ATOM     60  C   UNL A   1      44.064  35.648  32.236  1.00  0.00     0.010 A 
ATOM     61  C   UNL A   1      43.951  35.750  35.030  1.00  0.00     0.020 A 
ATOM     62  C   UNL A   1      44.621  36.735  32.912  1.00  0.00     0.020 A 
ATOM     63  C   UNL A   1      44.548  36.786  34.305  1.00  0.00     0.054 A 
BRANCH  63  64
ATOM     64  S   UNL A   1      45.259  38.187  35.212  1.00  0.00     0.124 S 
ATOM     65  O   UNL A   1      46.403  37.569  35.877  1.00  0.00    -0.237 OA
ATOM     66  O   UNL A   1      45.586  39.126  34.142  1.00  0.00    -0.237 OA
ATOM     67  O   UNL A   1      44.178  38.611  36.099  1.00  0.00    -0.744 OA
ENDBRANCH  63  64
ENDBRANCH  37  58
ENDBRANCH  11  12
ENDBRANCH   4   6
ENDBRANCH   1   2
BRANCH   1  68
ATOM     68  C   UNL A   1      41.336  21.062  27.522  1.00  0.00     0.023 C 
BRANCH  68  69
ATOM     69  C   UNL A   1      41.929  19.668  27.344  1.00  0.00     0.023 C 
BRANCH  69  70
ATOM     70  C   UNL A   1      42.327  19.324  25.911  1.00  0.00     0.116 C 
BRANCH  70  71
ATOM     71  N   UNL A   1      43.612  18.640  25.849  1.00  0.00    -0.351 N 
ATOM     72  C   UNL A   1      44.758  19.043  25.213  1.00  0.00     0.269 C 
ATOM     73  H   UNL A   1      43.663  17.779  26.323  1.00  0.00     0.163 HD
ATOM     74  O   UNL A   1      45.655  18.228  25.006  1.00  0.00    -0.268 OA
BRANCH  72  75
ATOM     75  C   UNL A   1      44.836  20.402  24.773  1.00  0.00     0.123 A 
ATOM     76  C   UNL A   1      45.108  21.570  25.456  1.00  0.00     0.064 A 
ATOM     77  N   UNL A   1      44.636  20.784  23.476  1.00  0.00    -0.272 N 
ATOM     78  C   UNL A   1      44.841  22.596  24.533  1.00  0.00     0.096 A 
ATOM     79  N   UNL A   1      44.530  22.121  23.322  1.00  0.00    -0.175 NA
ATOM     80  H   UNL A   1      44.573  20.148  22.728  1.00  0.00     0.190 HD
BRANCH  78  81
ATOM     81  C   UNL A   1      44.800  24.002  24.891  1.00  0.00     0.040 A 
ATOM     82  C   UNL A   1      43.630  24.769  25.105  1.00  0.00     0.052 A 
ATOM     83  C   UNL A   1      45.865  24.859  25.030  1.00  0.00     0.205 A 
ATOM     84  C   UNL A   1      44.065  26.051  25.359  1.00  0.00     0.195 A 
ATOM     85  O   UNL A   1      45.423  26.115  25.308  1.00  0.00    -0.472 OA
ENDBRANCH  78  81
ENDBRANCH  72  75
ENDBRANCH  70  71
ENDBRANCH  69  70
ENDBRANCH  68  69
ENDBRANCH   1  68
TORSDOF 15
ENDMDL
MODEL 3
REMARK VINA RESULT:     -10.8      3.147     11.227
REMARK SMILES O=C(NCCCCNC(=O)c1cc(-c2ccoc2)n[nH]1)c1ccc(-c2c3nc(c(-c4ccc(S(=O)(=O)[O-])cc4)c4ccc([nH]4)c(-c4ccc(S(=O)(=O)[O-])cc4)c4nc(c(-c5ccc(S(=O)(=O)[O-])cc5)c5ccc2[nH]5)C=C4)C=C3)cc1
REMARK SMILES IDX 4 1 3 2 1 3 2 4 21 6 22 7 80 8 23 9 79 10 24 11 25 12 26 13
REMARK SMILES IDX 73 14 27 15 78 16 72 17 74 18 28 19 77 20 71 21 70 22 29 24
REMARK SMILES IDX 59 25 40 26 58 27 41 28 44 29 57 30 75 31 42 32 43 33 56 35
REMARK SMILES IDX 76 36 45 37 30 38 31 39 39 40 32 41 38 42 33 43 34 44 35 45
REMARK SMILES IDX 36 46 37 47 60 48 61 49 69 50 62 51 68 52 63 53 64 54 65 55
REMARK SMILES IDX 66 56 67 57 46 58 47 59 55 60 48 61 54 62 49 63 50 64 51 65
REMARK SMILES IDX 52 66 53 67 5 68 6 69 7 70 8 71 9 72 10 74 11 75 12 76 20 77
REMARK SMILES IDX 13 78 19 79 14 81 15 82 18 83 16 84 17 85
REMARK H PARENT 3 5 74 23 44 34 8 73 20 80
REMARK Flexibility Score: inf
ROOT
ATOM      1  C   UNL A   1      34.871  32.846  28.110  1.00  0.00     0.116 C 
ENDROOT
BRANCH   1   2
ATOM      2  N   UNL A   1      33.998  31.700  27.902  1.00  0.00    -0.352 N 
ATOM      3  O   UNL A   1      33.492  29.534  27.509  1.00  0.00    -0.269 OA
ATOM      4  C   UNL A   1      34.332  30.365  27.835  1.00  0.00     0.251 C 
ATOM      5  H   UNL A   1      33.041  31.906  27.796  1.00  0.00     0.163 HD
BRANCH   4   6
ATOM      6  C   UNL A   1      35.720  29.956  28.132  1.00  0.00     0.039 A 
ATOM      7  C   UNL A   1      36.067  29.543  29.421  1.00  0.00     0.014 A 
ATOM      8  C   UNL A   1      36.688  30.018  27.127  1.00  0.00     0.014 A 
ATOM      9  C   UNL A   1      37.403  29.352  29.744  1.00  0.00     0.010 A 
ATOM     10  C   UNL A   1      38.020  29.717  27.431  1.00  0.00     0.010 A 
ATOM     11  C   UNL A   1      38.392  29.407  28.749  1.00  0.00    -0.014 A 
BRANCH  11  12
ATOM     12  C   UNL A   1      39.786  29.034  29.101  1.00  0.00     0.031 A 
ATOM     13  C   UNL A   1      40.368  27.701  28.720  1.00  0.00     0.074 A 
ATOM     14  C   UNL A   1      40.536  29.941  29.759  1.00  0.00     0.049 A 
ATOM     15  N   UNL A   1      41.573  27.241  28.945  1.00  0.00    -0.248 NA
ATOM     16  C   UNL A   1      39.494  26.759  28.000  1.00  0.00     0.031 C 
ATOM     17  C   UNL A   1      40.072  31.267  30.186  1.00  0.00     0.029 A 
ATOM     18  N   UNL A   1      41.843  29.904  30.169  1.00  0.00    -0.354 N 
ATOM     19  C   UNL A   1      41.599  25.955  28.418  1.00  0.00     0.074 A 
ATOM     20  C   UNL A   1      40.282  25.698  27.874  1.00  0.00     0.031 C 
ATOM     21  C   UNL A   1      41.090  31.931  30.749  1.00  0.00     0.029 A 
ATOM     22  C   UNL A   1      42.253  31.055  30.801  1.00  0.00     0.049 A 
ATOM     23  H   UNL A   1      42.432  29.129  30.025  1.00  0.00     0.167 HD
ATOM     24  C   UNL A   1      42.629  25.075  28.391  1.00  0.00     0.031 A 
ATOM     25  C   UNL A   1      43.423  31.367  31.387  1.00  0.00     0.031 A 
ATOM     26  C   UNL A   1      43.936  25.343  28.937  1.00  0.00     0.049 A 
ATOM     27  C   UNL A   1      44.527  30.351  31.379  1.00  0.00     0.074 A 
ATOM     28  C   UNL A   1      45.055  24.528  28.922  1.00  0.00     0.029 A 
ATOM     29  N   UNL A   1      44.300  26.505  29.601  1.00  0.00    -0.354 N 
ATOM     30  N   UNL A   1      44.546  29.160  30.830  1.00  0.00    -0.248 NA
ATOM     31  C   UNL A   1      45.770  30.720  32.067  1.00  0.00     0.031 C 
ATOM     32  C   UNL A   1      46.073  25.168  29.636  1.00  0.00     0.029 A 
ATOM     33  C   UNL A   1      45.614  26.414  30.031  1.00  0.00     0.049 A 
ATOM     34  H   UNL A   1      43.711  27.281  29.746  1.00  0.00     0.167 HD
ATOM     35  C   UNL A   1      45.810  28.647  31.088  1.00  0.00     0.074 A 
ATOM     36  C   UNL A   1      46.536  29.668  31.817  1.00  0.00     0.031 C 
ATOM     37  C   UNL A   1      46.324  27.437  30.756  1.00  0.00     0.031 A 
BRANCH  24  38
ATOM     38  C   UNL A   1      42.393  23.716  27.779  1.00  0.00    -0.014 A 
ATOM     39  C   UNL A   1      42.695  23.460  26.430  1.00  0.00     0.010 A 
ATOM     40  C   UNL A   1      41.963  22.653  28.596  1.00  0.00     0.010 A 
ATOM     41  C   UNL A   1      42.556  22.171  25.906  1.00  0.00     0.020 A 
ATOM     42  C   UNL A   1      41.847  21.357  28.083  1.00  0.00     0.020 A 
ATOM     43  C   UNL A   1      42.137  21.127  26.737  1.00  0.00     0.054 A 
BRANCH  43  44
ATOM     44  S   UNL A   1      42.025  19.454  26.042  1.00  0.00     0.124 S 
ATOM     45  O   UNL A   1      42.515  18.635  27.148  1.00  0.00    -0.237 OA
ATOM     46  O   UNL A   1      40.600  19.325  25.748  1.00  0.00    -0.237 OA
ATOM     47  O   UNL A   1      42.899  19.503  24.872  1.00  0.00    -0.744 OA
ENDBRANCH  43  44
ENDBRANCH  24  38
BRANCH  25  48
ATOM     48  C   UNL A   1      43.589  32.680  32.067  1.00  0.00    -0.014 A 
ATOM     49  C   UNL A   1      44.114  33.788  31.380  1.00  0.00     0.010 A 
ATOM     50  C   UNL A   1      43.228  32.823  33.421  1.00  0.00     0.010 A 
ATOM     51  C   UNL A   1      44.309  35.003  32.043  1.00  0.00     0.020 A 
ATOM     52  C   UNL A   1      43.385  34.046  34.076  1.00  0.00     0.020 A 
ATOM     53  C   UNL A   1      43.945  35.122  33.388  1.00  0.00     0.054 A 
BRANCH  53  54
ATOM     54  S   UNL A   1      44.194  36.712  34.225  1.00  0.00     0.124 S 
ATOM     55  O   UNL A   1      44.118  36.327  35.631  1.00  0.00    -0.237 OA
ATOM     56  O   UNL A   1      45.514  37.114  33.749  1.00  0.00    -0.237 OA
ATOM     57  O   UNL A   1      43.087  37.531  33.738  1.00  0.00    -0.744 OA
ENDBRANCH  53  54
ENDBRANCH  25  48
BRANCH  37  58
ATOM     58  C   UNL A   1      47.753  27.167  31.143  1.00  0.00    -0.014 A 
ATOM     59  C   UNL A   1      48.082  26.635  32.403  1.00  0.00     0.010 A 
ATOM     60  C   UNL A   1      48.781  27.416  30.215  1.00  0.00     0.010 A 
ATOM     61  C   UNL A   1      49.416  26.394  32.740  1.00  0.00     0.020 A 
ATOM     62  C   UNL A   1      50.112  27.144  30.536  1.00  0.00     0.020 A 
ATOM     63  C   UNL A   1      50.422  26.648  31.803  1.00  0.00     0.054 A 
BRANCH  63  64
ATOM     64  S   UNL A   1      52.142  26.288  32.253  1.00  0.00     0.124 S 
ATOM     65  O   UNL A   1      52.557  27.535  32.891  1.00  0.00    -0.237 OA
ATOM     66  O   UNL A   1      52.005  25.140  33.146  1.00  0.00    -0.237 OA
ATOM     67  O   UNL A   1      52.783  26.001  30.971  1.00  0.00    -0.744 OA
ENDBRANCH  63  64
ENDBRANCH  37  58
ENDBRANCH  11  12
ENDBRANCH   4   6
ENDBRANCH   1   2
BRANCH   1  68
ATOM     68  C   UNL A   1      34.509  33.652  29.348  1.00  0.00     0.023 C 
BRANCH  68  69
ATOM     69  C   UNL A   1      34.236  35.130  29.087  1.00  0.00     0.023 C 
BRANCH  69  70
ATOM     70  C   UNL A   1      32.854  35.608  29.525  1.00  0.00     0.116 C 
BRANCH  70  71
ATOM     71  N   UNL A   1      32.928  36.757  30.418  1.00  0.00    -0.351 N 
ATOM     72  C   UNL A   1      33.134  36.765  31.773  1.00  0.00     0.269 C 
ATOM     73  H   UNL A   1      32.816  37.638  29.994  1.00  0.00     0.163 HD
ATOM     74  O   UNL A   1      32.878  37.780  32.418  1.00  0.00    -0.268 OA
BRANCH  72  75
ATOM     75  C   UNL A   1      33.598  35.560  32.387  1.00  0.00     0.123 A 
ATOM     76  C   UNL A   1      34.870  35.131  32.714  1.00  0.00     0.064 A 
ATOM     77  N   UNL A   1      32.767  34.551  32.785  1.00  0.00    -0.272 N 
ATOM     78  C   UNL A   1      34.707  33.790  33.100  1.00  0.00     0.096 A 
ATOM     79  N   UNL A   1      33.422  33.421  33.127  1.00  0.00    -0.175 NA
ATOM     80  H   UNL A   1      31.788  34.639  32.820  1.00  0.00     0.190 HD
BRANCH  78  81
ATOM     81  C   UNL A   1      35.818  32.886  33.333  1.00  0.00     0.040 A 
ATOM     82  C   UNL A   1      36.135  31.744  32.560  1.00  0.00     0.052 A 
ATOM     83  C   UNL A   1      36.725  32.926  34.366  1.00  0.00     0.205 A 
ATOM     84  C   UNL A   1      37.218  31.161  33.178  1.00  0.00     0.195 A 
ATOM     85  O   UNL A   1      37.579  31.871  34.281  1.00  0.00    -0.472 OA
ENDBRANCH  78  81
ENDBRANCH  72  75
ENDBRANCH  70  71
ENDBRANCH  69  70
ENDBRANCH  68  69
ENDBRANCH   1  68
TORSDOF 15
ENDMDL
