MODEL 1
REMARK VINA RESULT:     -10.9      0.000      0.000
REMARK SMILES O=C(NCCCCNC(=O)C1(NC(=O)c2nc(C3CC3)n[nH]2)CCCCC1)c1ccc(-c2c3nc(c(-c4ccc(S(=O)(=O)[O-])cc4)c4ccc([nH]4)c(-c4ccc(S(=O)(=O)[O-])cc4)c4nc(c(-c5ccc(S(=O)(=O)[O-])cc5)c5ccc2[nH]5)C=C4)C=C3)cc1
REMARK SMILES IDX 5 1 4 2 3 3 1 4 2 5 28 7 29 8 87 9 30 10 86 11 31 12 32 13
REMARK SMILES IDX 33 14 80 15 34 16 85 17 79 18 81 19 35 20 84 21 78 22 77 23
REMARK SMILES IDX 36 25 66 26 47 27 65 28 48 29 51 30 64 31 82 32 49 33 50 34
REMARK SMILES IDX 63 36 83 37 52 38 37 39 38 40 46 41 39 42 45 43 40 44 41 45
REMARK SMILES IDX 42 46 43 47 44 48 67 49 68 50 76 51 69 52 75 53 70 54 71 55
REMARK SMILES IDX 72 56 73 57 74 58 53 59 54 60 62 61 55 62 61 63 56 64 57 65
REMARK SMILES IDX 58 66 59 67 60 68 6 69 7 70 8 71 9 72 10 74 11 75 23 76
REMARK SMILES IDX 27 77 24 78 26 79 25 80 12 81 13 82 14 84 15 85 16 86 22 87
REMARK SMILES IDX 17 88 21 89 18 91 19 92 20 93
REMARK H PARENT 3 6 81 24 51 35 8 73 12 83 22 90
REMARK Flexibility Score: inf
ROOT
ATOM      1  C   UNL A   1      32.899  27.162  26.114  1.00  0.00     0.023 C 
ENDROOT
BRANCH   1   2
ATOM      2  C   UNL A   1      34.018  28.031  26.682  1.00  0.00     0.116 C 
BRANCH   2   3
ATOM      3  N   UNL A   1      33.620  29.397  26.980  1.00  0.00    -0.352 N 
ATOM      4  O   UNL A   1      33.857  31.504  27.743  1.00  0.00    -0.269 OA
ATOM      5  C   UNL A   1      34.362  30.405  27.557  1.00  0.00     0.251 C 
ATOM      6  H   UNL A   1      32.696  29.634  26.737  1.00  0.00     0.163 HD
BRANCH   5   7
ATOM      7  C   UNL A   1      35.748  30.135  28.003  1.00  0.00     0.039 A 
ATOM      8  C   UNL A   1      36.830  30.233  27.126  1.00  0.00     0.014 A 
ATOM      9  C   UNL A   1      35.951  29.749  29.331  1.00  0.00     0.014 A 
ATOM     10  C   UNL A   1      38.101  29.832  27.546  1.00  0.00     0.010 A 
ATOM     11  C   UNL A   1      37.230  29.384  29.761  1.00  0.00     0.010 A 
ATOM     12  C   UNL A   1      38.309  29.386  28.861  1.00  0.00    -0.014 A 
BRANCH  12  13
ATOM     13  C   UNL A   1      39.649  28.921  29.307  1.00  0.00     0.031 A 
ATOM     14  C   UNL A   1      40.579  29.851  30.041  1.00  0.00     0.074 A 
ATOM     15  C   UNL A   1      40.053  27.671  29.015  1.00  0.00     0.049 A 
ATOM     16  N   UNL A   1      41.805  29.640  30.450  1.00  0.00    -0.248 NA
ATOM     17  C   UNL A   1      40.066  31.194  30.351  1.00  0.00     0.031 C 
ATOM     18  C   UNL A   1      39.255  26.674  28.300  1.00  0.00     0.029 A 
ATOM     19  N   UNL A   1      41.242  27.033  29.267  1.00  0.00    -0.354 N 
ATOM     20  C   UNL A   1      42.220  30.825  31.044  1.00  0.00     0.074 A 
ATOM     21  C   UNL A   1      41.119  31.759  30.926  1.00  0.00     0.031 C 
ATOM     22  C   UNL A   1      39.980  25.553  28.163  1.00  0.00     0.029 A 
ATOM     23  C   UNL A   1      41.304  25.765  28.743  1.00  0.00     0.049 A 
ATOM     24  H   UNL A   1      41.979  27.444  29.775  1.00  0.00     0.167 HD
ATOM     25  C   UNL A   1      43.406  31.112  31.634  1.00  0.00     0.031 A 
ATOM     26  C   UNL A   1      42.318  24.878  28.701  1.00  0.00     0.031 A 
ATOM     27  C   UNL A   1      44.504  30.187  31.745  1.00  0.00     0.049 A 
ATOM     28  C   UNL A   1      43.635  25.223  29.335  1.00  0.00     0.074 A 
ATOM     29  C   UNL A   1      45.725  30.372  32.373  1.00  0.00     0.029 A 
ATOM     30  N   UNL A   1      44.523  28.910  31.206  1.00  0.00    -0.354 N 
ATOM     31  N   UNL A   1      43.987  26.329  29.945  1.00  0.00    -0.248 NA
ATOM     32  C   UNL A   1      44.687  24.199  29.283  1.00  0.00     0.031 C 
ATOM     33  C   UNL A   1      46.500  29.225  32.169  1.00  0.00     0.029 A 
ATOM     34  C   UNL A   1      45.744  28.307  31.458  1.00  0.00     0.049 A 
ATOM     35  H   UNL A   1      43.778  28.493  30.716  1.00  0.00     0.167 HD
ATOM     36  C   UNL A   1      45.298  26.130  30.362  1.00  0.00     0.074 A 
ATOM     37  C   UNL A   1      45.673  24.793  29.945  1.00  0.00     0.031 C 
ATOM     38  C   UNL A   1      46.115  26.979  31.033  1.00  0.00     0.031 A 
BRANCH  25  39
ATOM     39  C   UNL A   1      43.591  32.506  32.174  1.00  0.00    -0.014 A 
ATOM     40  C   UNL A   1      44.017  33.561  31.347  1.00  0.00     0.010 A 
ATOM     41  C   UNL A   1      43.312  32.769  33.528  1.00  0.00     0.010 A 
ATOM     42  C   UNL A   1      44.216  34.839  31.875  1.00  0.00     0.020 A 
ATOM     43  C   UNL A   1      43.487  34.052  34.056  1.00  0.00     0.020 A 
ATOM     44  C   UNL A   1      43.962  35.074  33.231  1.00  0.00     0.054 A 
BRANCH  44  45
ATOM     45  S   UNL A   1      44.248  36.735  33.900  1.00  0.00     0.124 S 
ATOM     46  O   UNL A   1      43.562  36.661  35.187  1.00  0.00    -0.237 OA
ATOM     47  O   UNL A   1      45.705  36.809  33.970  1.00  0.00    -0.237 OA
ATOM     48  O   UNL A   1      43.630  37.617  32.913  1.00  0.00    -0.744 OA
ENDBRANCH  44  45
ENDBRANCH  25  39
BRANCH  26  49
ATOM     49  C   UNL A   1      42.108  23.582  28.006  1.00  0.00    -0.014 A 
ATOM     50  C   UNL A   1      42.475  23.422  26.661  1.00  0.00     0.010 A 
ATOM     51  C   UNL A   1      41.612  22.475  28.721  1.00  0.00     0.010 A 
ATOM     52  C   UNL A   1      42.362  22.173  26.043  1.00  0.00     0.020 A 
ATOM     53  C   UNL A   1      41.518  21.221  28.114  1.00  0.00     0.020 A 
ATOM     54  C   UNL A   1      41.893  21.078  26.778  1.00  0.00     0.054 A 
BRANCH  54  55
ATOM     55  S   UNL A   1      41.857  19.444  25.989  1.00  0.00     0.124 S 
ATOM     56  O   UNL A   1      42.764  19.631  24.861  1.00  0.00    -0.237 OA
ATOM     57  O   UNL A   1      42.342  18.567  27.053  1.00  0.00    -0.237 OA
ATOM     58  O   UNL A   1      40.449  19.265  25.640  1.00  0.00    -0.744 OA
ENDBRANCH  54  55
ENDBRANCH  26  49
BRANCH  38  59
ATOM     59  C   UNL A   1      47.494  26.492  31.382  1.00  0.00    -0.014 A 
ATOM     60  C   UNL A   1      47.739  25.801  32.582  1.00  0.00     0.010 A 
ATOM     61  C   UNL A   1      48.545  26.662  30.462  1.00  0.00     0.010 A 
ATOM     62  C   UNL A   1      49.013  25.300  32.862  1.00  0.00     0.020 A 
ATOM     63  C   UNL A   1      49.815  26.144  30.729  1.00  0.00     0.020 A 
ATOM     64  C   UNL A   1      50.043  25.472  31.932  1.00  0.00     0.054 A 
BRANCH  64  65
ATOM     65  S   UNL A   1      51.672  24.754  32.285  1.00  0.00     0.124 S 
ATOM     66  O   UNL A   1      51.424  23.328  32.091  1.00  0.00    -0.237 OA
ATOM     67  O   UNL A   1      52.527  25.385  31.283  1.00  0.00    -0.237 OA
ATOM     68  O   UNL A   1      51.938  25.159  33.664  1.00  0.00    -0.744 OA
ENDBRANCH  64  65
ENDBRANCH  38  59
ENDBRANCH  12  13
ENDBRANCH   5   7
ENDBRANCH   2   3
ENDBRANCH   1   2
BRANCH   1  69
ATOM     69  C   UNL A   1      33.197  26.399  24.819  1.00  0.00     0.023 C 
BRANCH  69  70
ATOM     70  C   UNL A   1      33.306  24.881  24.932  1.00  0.00     0.116 C 
BRANCH  70  71
ATOM     71  N   UNL A   1      33.846  24.240  23.748  1.00  0.00    -0.354 N 
ATOM     72  C   UNL A   1      34.773  23.234  23.620  1.00  0.00     0.245 C 
ATOM     73  H   UNL A   1      33.491  24.581  22.897  1.00  0.00     0.163 HD
ATOM     74  O   UNL A   1      35.074  22.916  22.464  1.00  0.00    -0.272 OA
BRANCH  72  75
ATOM     75  C   UNL A   1      35.600  22.707  24.849  1.00  0.00     0.119 C 
ATOM     76  C   UNL A   1      36.327  21.375  24.529  1.00  0.00     0.038 C 
ATOM     77  C   UNL A   1      36.691  23.809  25.042  1.00  0.00     0.038 C 
ATOM     78  C   UNL A   1      37.387  21.012  25.574  1.00  0.00     0.003 C 
ATOM     79  C   UNL A   1      37.799  23.452  26.032  1.00  0.00     0.003 C 
ATOM     80  C   UNL A   1      38.437  22.107  25.717  1.00  0.00     0.000 C 
BRANCH  75  81
ATOM     81  N   UNL A   1      34.830  22.555  26.105  1.00  0.00    -0.335 N 
ATOM     82  C   UNL A   1      33.937  21.582  26.501  1.00  0.00     0.289 C 
ATOM     83  H   UNL A   1      34.980  23.268  26.766  1.00  0.00     0.165 HD
ATOM     84  O   UNL A   1      33.567  21.619  27.675  1.00  0.00    -0.266 OA
BRANCH  82  85
ATOM     85  C   UNL A   1      33.322  20.703  25.537  1.00  0.00     0.214 A 
ATOM     86  N   UNL A   1      33.540  19.420  25.322  1.00  0.00    -0.207 NA
ATOM     87  N   UNL A   1      32.471  21.164  24.571  1.00  0.00    -0.255 N 
ATOM     88  C   UNL A   1      32.954  19.204  24.097  1.00  0.00     0.154 A 
ATOM     89  N   UNL A   1      32.339  20.271  23.578  1.00  0.00    -0.158 NA
ATOM     90  H   UNL A   1      32.016  22.036  24.600  1.00  0.00     0.192 HD
BRANCH  88  91
ATOM     91  C   UNL A   1      33.067  17.902  23.325  1.00  0.00     0.060 C 
ATOM     92  C   UNL A   1      34.340  17.093  23.396  1.00  0.00     0.012 C 
ATOM     93  C   UNL A   1      33.105  16.597  24.082  1.00  0.00     0.012 C 
ENDBRANCH  88  91
ENDBRANCH  82  85
ENDBRANCH  75  81
ENDBRANCH  72  75
ENDBRANCH  70  71
ENDBRANCH  69  70
ENDBRANCH   1  69
TORSDOF 17
ENDMDL
MODEL 2
REMARK VINA RESULT:     -10.9      2.774      9.444
REMARK SMILES O=C(NCCCCNC(=O)C1(NC(=O)c2nc(C3CC3)n[nH]2)CCCCC1)c1ccc(-c2c3nc(c(-c4ccc(S(=O)(=O)[O-])cc4)c4ccc([nH]4)c(-c4ccc(S(=O)(=O)[O-])cc4)c4nc(c(-c5ccc(S(=O)(=O)[O-])cc5)c5ccc2[nH]5)C=C4)C=C3)cc1
REMARK SMILES IDX 5 1 4 2 3 3 1 4 2 5 28 7 29 8 87 9 30 10 86 11 31 12 32 13
REMARK SMILES IDX 33 14 80 15 34 16 85 17 79 18 81 19 35 20 84 21 78 22 77 23
REMARK SMILES IDX 36 25 66 26 47 27 65 28 48 29 51 30 64 31 82 32 49 33 50 34
REMARK SMILES IDX 63 36 83 37 52 38 37 39 38 40 46 41 39 42 45 43 40 44 41 45
REMARK SMILES IDX 42 46 43 47 44 48 67 49 68 50 76 51 69 52 75 53 70 54 71 55
REMARK SMILES IDX 72 56 73 57 74 58 53 59 54 60 62 61 55 62 61 63 56 64 57 65
REMARK SMILES IDX 58 66 59 67 60 68 6 69 7 70 8 71 9 72 10 74 11 75 23 76
REMARK SMILES IDX 27 77 24 78 26 79 25 80 12 81 13 82 14 84 15 85 16 86 22 87
REMARK SMILES IDX 17 88 21 89 18 91 19 92 20 93
REMARK H PARENT 3 6 81 24 51 35 8 73 12 83 22 90
REMARK Flexibility Score: inf
ROOT
ATOM      1  C   UNL A   1      35.879  23.757  26.035  1.00  0.00     0.023 C 
ENDROOT
BRANCH   1   2
ATOM      2  C   UNL A   1      36.990  23.485  25.024  1.00  0.00     0.116 C 
BRANCH   2   3
ATOM      3  N   UNL A   1      37.969  22.504  25.463  1.00  0.00    -0.352 N 
ATOM      4  O   UNL A   1      39.795  21.738  26.539  1.00  0.00    -0.269 OA
ATOM      5  C   UNL A   1      39.066  22.685  26.278  1.00  0.00     0.251 C 
ATOM      6  H   UNL A   1      37.830  21.586  25.135  1.00  0.00     0.163 HD
BRANCH   5   7
ATOM      7  C   UNL A   1      39.390  24.039  26.784  1.00  0.00     0.039 A 
ATOM      8  C   UNL A   1      40.095  24.960  26.005  1.00  0.00     0.014 A 
ATOM      9  C   UNL A   1      38.996  24.372  28.083  1.00  0.00     0.014 A 
ATOM     10  C   UNL A   1      40.506  26.172  26.568  1.00  0.00     0.010 A 
ATOM     11  C   UNL A   1      39.375  25.599  28.632  1.00  0.00     0.010 A 
ATOM     12  C   UNL A   1      40.166  26.494  27.892  1.00  0.00    -0.014 A 
BRANCH  12  13
ATOM     13  C   UNL A   1      40.631  27.763  28.512  1.00  0.00     0.031 A 
ATOM     14  C   UNL A   1      42.016  27.873  29.092  1.00  0.00     0.074 A 
ATOM     15  C   UNL A   1      39.790  28.812  28.593  1.00  0.00     0.049 A 
ATOM     16  N   UNL A   1      42.569  28.877  29.725  1.00  0.00    -0.248 NA
ATOM     17  C   UNL A   1      42.891  26.699  28.947  1.00  0.00     0.031 C 
ATOM     18  C   UNL A   1      38.420  28.834  28.081  1.00  0.00     0.029 A 
ATOM     19  N   UNL A   1      39.961  30.053  29.153  1.00  0.00    -0.354 N 
ATOM     20  C   UNL A   1      43.845  28.453  30.075  1.00  0.00     0.074 A 
ATOM     21  C   UNL A   1      43.978  27.092  29.597  1.00  0.00     0.031 C 
ATOM     22  C   UNL A   1      37.871  30.027  28.359  1.00  0.00     0.029 A 
ATOM     23  C   UNL A   1      38.834  30.836  29.102  1.00  0.00     0.049 A 
ATOM     24  H   UNL A   1      40.810  30.353  29.553  1.00  0.00     0.167 HD
ATOM     25  C   UNL A   1      44.818  29.131  30.731  1.00  0.00     0.031 A 
ATOM     26  C   UNL A   1      38.584  32.055  29.618  1.00  0.00     0.031 A 
ATOM     27  C   UNL A   1      44.684  30.482  31.211  1.00  0.00     0.049 A 
ATOM     28  C   UNL A   1      39.664  32.782  30.366  1.00  0.00     0.074 A 
ATOM     29  C   UNL A   1      45.635  31.269  31.840  1.00  0.00     0.029 A 
ATOM     30  N   UNL A   1      43.527  31.242  31.132  1.00  0.00    -0.354 N 
ATOM     31  N   UNL A   1      40.886  32.387  30.634  1.00  0.00    -0.248 NA
ATOM     32  C   UNL A   1      39.337  34.121  30.875  1.00  0.00     0.031 C 
ATOM     33  C   UNL A   1      45.037  32.486  32.186  1.00  0.00     0.029 A 
ATOM     34  C   UNL A   1      43.729  32.476  31.728  1.00  0.00     0.049 A 
ATOM     35  H   UNL A   1      42.686  30.947  30.714  1.00  0.00     0.167 HD
ATOM     36  C   UNL A   1      41.478  33.433  31.331  1.00  0.00     0.074 A 
ATOM     37  C   UNL A   1      40.485  34.484  31.434  1.00  0.00     0.031 C 
ATOM     38  C   UNL A   1      42.734  33.515  31.836  1.00  0.00     0.031 A 
BRANCH  25  39
ATOM     39  C   UNL A   1      46.108  28.402  31.000  1.00  0.00    -0.014 A 
ATOM     40  C   UNL A   1      46.285  27.635  32.165  1.00  0.00     0.010 A 
ATOM     41  C   UNL A   1      47.154  28.470  30.061  1.00  0.00     0.010 A 
ATOM     42  C   UNL A   1      47.502  26.995  32.413  1.00  0.00     0.020 A 
ATOM     43  C   UNL A   1      48.365  27.812  30.294  1.00  0.00     0.020 A 
ATOM     44  C   UNL A   1      48.541  27.098  31.482  1.00  0.00     0.054 A 
BRANCH  44  45
ATOM     45  S   UNL A   1      50.119  26.278  31.835  1.00  0.00     0.124 S 
ATOM     46  O   UNL A   1      50.180  26.362  33.291  1.00  0.00    -0.237 OA
ATOM     47  O   UNL A   1      49.915  24.936  31.292  1.00  0.00    -0.237 OA
ATOM     48  O   UNL A   1      51.100  27.091  31.121  1.00  0.00    -0.744 OA
ENDBRANCH  44  45
ENDBRANCH  25  39
BRANCH  26  49
ATOM     49  C   UNL A   1      37.230  32.643  29.448  1.00  0.00    -0.014 A 
ATOM     50  C   UNL A   1      36.249  32.480  30.438  1.00  0.00     0.010 A 
ATOM     51  C   UNL A   1      36.948  33.439  28.322  1.00  0.00     0.010 A 
ATOM     52  C   UNL A   1      35.009  33.115  30.313  1.00  0.00     0.020 A 
ATOM     53  C   UNL A   1      35.719  34.093  28.204  1.00  0.00     0.020 A 
ATOM     54  C   UNL A   1      34.757  33.926  29.200  1.00  0.00     0.054 A 
BRANCH  54  55
ATOM     55  S   UNL A   1      33.184  34.826  29.112  1.00  0.00     0.124 S 
ATOM     56  O   UNL A   1      33.608  36.131  28.614  1.00  0.00    -0.237 OA
ATOM     57  O   UNL A   1      32.405  34.015  28.178  1.00  0.00    -0.237 OA
ATOM     58  O   UNL A   1      32.701  34.807  30.491  1.00  0.00    -0.744 OA
ENDBRANCH  54  55
ENDBRANCH  26  49
BRANCH  38  59
ATOM     59  C   UNL A   1      43.125  34.789  32.533  1.00  0.00    -0.014 A 
ATOM     60  C   UNL A   1      43.733  35.844  31.831  1.00  0.00     0.010 A 
ATOM     61  C   UNL A   1      42.812  34.961  33.893  1.00  0.00     0.010 A 
ATOM     62  C   UNL A   1      44.031  37.045  32.480  1.00  0.00     0.020 A 
ATOM     63  C   UNL A   1      43.091  36.168  34.541  1.00  0.00     0.020 A 
ATOM     64  C   UNL A   1      43.707  37.201  33.831  1.00  0.00     0.054 A 
BRANCH  64  65
ATOM     65  S   UNL A   1      44.042  38.792  34.636  1.00  0.00     0.124 S 
ATOM     66  O   UNL A   1      43.947  38.444  36.051  1.00  0.00    -0.237 OA
ATOM     67  O   UNL A   1      45.383  39.120  34.157  1.00  0.00    -0.237 OA
ATOM     68  O   UNL A   1      42.980  39.664  34.136  1.00  0.00    -0.744 OA
ENDBRANCH  64  65
ENDBRANCH  38  59
ENDBRANCH  12  13
ENDBRANCH   5   7
ENDBRANCH   2   3
ENDBRANCH   1   2
BRANCH   1  69
ATOM     69  C   UNL A   1      35.303  22.549  26.781  1.00  0.00     0.023 C 
BRANCH  69  70
ATOM     70  C   UNL A   1      33.935  22.051  26.319  1.00  0.00     0.116 C 
BRANCH  70  71
ATOM     71  N   UNL A   1      32.819  22.697  26.982  1.00  0.00    -0.354 N 
ATOM     72  C   UNL A   1      31.763  23.409  26.466  1.00  0.00     0.245 C 
ATOM     73  H   UNL A   1      32.817  22.612  27.962  1.00  0.00     0.163 HD
ATOM     74  O   UNL A   1      30.975  23.886  27.291  1.00  0.00    -0.272 OA
BRANCH  72  75
ATOM     75  C   UNL A   1      31.704  23.825  24.952  1.00  0.00     0.119 C 
ATOM     76  C   UNL A   1      32.943  24.659  24.533  1.00  0.00     0.038 C 
ATOM     77  C   UNL A   1      31.778  22.456  24.202  1.00  0.00     0.038 C 
ATOM     78  C   UNL A   1      33.077  24.798  23.012  1.00  0.00     0.003 C 
ATOM     79  C   UNL A   1      31.975  22.559  22.690  1.00  0.00     0.003 C 
ATOM     80  C   UNL A   1      33.161  23.440  22.327  1.00  0.00     0.000 C 
BRANCH  75  81
ATOM     81  N   UNL A   1      30.473  24.540  24.545  1.00  0.00    -0.335 N 
ATOM     82  C   UNL A   1      30.162  25.884  24.568  1.00  0.00     0.289 C 
ATOM     83  H   UNL A   1      29.756  23.959  24.203  1.00  0.00     0.165 HD
ATOM     84  O   UNL A   1      29.115  26.216  24.012  1.00  0.00    -0.266 OA
BRANCH  82  85
ATOM     85  C   UNL A   1      30.922  26.806  25.376  1.00  0.00     0.214 A 
ATOM     86  N   UNL A   1      31.793  27.721  24.999  1.00  0.00    -0.207 NA
ATOM     87  N   UNL A   1      30.924  26.746  26.742  1.00  0.00    -0.255 N 
ATOM     88  C   UNL A   1      32.438  28.041  26.169  1.00  0.00     0.154 A 
ATOM     89  N   UNL A   1      31.969  27.415  27.253  1.00  0.00    -0.158 NA
ATOM     90  H   UNL A   1      30.248  26.274  27.279  1.00  0.00     0.192 HD
BRANCH  88  91
ATOM     91  C   UNL A   1      33.653  28.949  26.244  1.00  0.00     0.060 C 
ATOM     92  C   UNL A   1      33.544  30.297  26.914  1.00  0.00     0.012 C 
ATOM     93  C   UNL A   1      34.307  29.196  27.580  1.00  0.00     0.012 C 
ENDBRANCH  88  91
ENDBRANCH  82  85
ENDBRANCH  75  81
ENDBRANCH  72  75
ENDBRANCH  70  71
ENDBRANCH  69  70
ENDBRANCH   1  69
TORSDOF 17
ENDMDL
MODEL 3
REMARK VINA RESULT:     -10.9      3.284      9.751
REMARK SMILES O=C(NCCCCNC(=O)C1(NC(=O)c2nc(C3CC3)n[nH]2)CCCCC1)c1ccc(-c2c3nc(c(-c4ccc(S(=O)(=O)[O-])cc4)c4ccc([nH]4)c(-c4ccc(S(=O)(=O)[O-])cc4)c4nc(c(-c5ccc(S(=O)(=O)[O-])cc5)c5ccc2[nH]5)C=C4)C=C3)cc1
REMARK SMILES IDX 5 1 4 2 3 3 1 4 2 5 28 7 29 8 87 9 30 10 86 11 31 12 32 13
REMARK SMILES IDX 33 14 80 15 34 16 85 17 79 18 81 19 35 20 84 21 78 22 77 23
REMARK SMILES IDX 36 25 66 26 47 27 65 28 48 29 51 30 64 31 82 32 49 33 50 34
REMARK SMILES IDX 63 36 83 37 52 38 37 39 38 40 46 41 39 42 45 43 40 44 41 45
REMARK SMILES IDX 42 46 43 47 44 48 67 49 68 50 76 51 69 52 75 53 70 54 71 55
REMARK SMILES IDX 72 56 73 57 74 58 53 59 54 60 62 61 55 62 61 63 56 64 57 65
REMARK SMILES IDX 58 66 59 67 60 68 6 69 7 70 8 71 9 72 10 74 11 75 23 76
REMARK SMILES IDX 27 77 24 78 26 79 25 80 12 81 13 82 14 84 15 85 16 86 22 87
REMARK SMILES IDX 17 88 21 89 18 91 19 92 20 93
REMARK H PARENT 3 6 81 24 51 35 8 73 12 83 22 90
REMARK Flexibility Score: inf
ROOT
ATOM      1  C   UNL A   1      34.925  23.954  25.057  1.00  0.00     0.023 C 
ENDROOT
BRANCH   1   2
ATOM      2  C   UNL A   1      36.273  24.208  25.726  1.00  0.00     0.116 C 
BRANCH   2   3
ATOM      3  N   UNL A   1      37.211  23.103  25.618  1.00  0.00    -0.352 N 
ATOM      4  O   UNL A   1      39.151  21.995  25.914  1.00  0.00    -0.269 OA
ATOM      5  C   UNL A   1      38.495  23.010  26.109  1.00  0.00     0.251 C 
ATOM      6  H   UNL A   1      36.885  22.313  25.127  1.00  0.00     0.163 HD
BRANCH   5   7
ATOM      7  C   UNL A   1      39.096  24.163  26.818  1.00  0.00     0.039 A 
ATOM      8  C   UNL A   1      38.842  24.401  28.171  1.00  0.00     0.014 A 
ATOM      9  C   UNL A   1      39.913  25.034  26.091  1.00  0.00     0.014 A 
ATOM     10  C   UNL A   1      39.310  25.576  28.767  1.00  0.00     0.010 A 
ATOM     11  C   UNL A   1      40.412  26.189  26.699  1.00  0.00     0.010 A 
ATOM     12  C   UNL A   1      40.082  26.489  28.031  1.00  0.00    -0.014 A 
BRANCH  12  13
ATOM     13  C   UNL A   1      40.553  27.759  28.646  1.00  0.00     0.031 A 
ATOM     14  C   UNL A   1      41.936  27.862  29.231  1.00  0.00     0.074 A 
ATOM     15  C   UNL A   1      39.720  28.814  28.718  1.00  0.00     0.049 A 
ATOM     16  N   UNL A   1      42.494  28.866  29.861  1.00  0.00    -0.248 NA
ATOM     17  C   UNL A   1      42.804  26.682  29.096  1.00  0.00     0.031 C 
ATOM     18  C   UNL A   1      38.352  28.842  28.200  1.00  0.00     0.029 A 
ATOM     19  N   UNL A   1      39.897  30.057  29.271  1.00  0.00    -0.354 N 
ATOM     20  C   UNL A   1      43.766  28.435  30.217  1.00  0.00     0.074 A 
ATOM     21  C   UNL A   1      43.892  27.070  29.749  1.00  0.00     0.031 C 
ATOM     22  C   UNL A   1      37.810  30.041  28.469  1.00  0.00     0.029 A 
ATOM     23  C   UNL A   1      38.775  30.848  29.211  1.00  0.00     0.049 A 
ATOM     24  H   UNL A   1      40.746  30.354  29.673  1.00  0.00     0.167 HD
ATOM     25  C   UNL A   1      44.741  29.111  30.873  1.00  0.00     0.031 A 
ATOM     26  C   UNL A   1      38.532  32.071  29.719  1.00  0.00     0.031 A 
ATOM     27  C   UNL A   1      44.615  30.465  31.346  1.00  0.00     0.049 A 
ATOM     28  C   UNL A   1      39.614  32.795  30.467  1.00  0.00     0.074 A 
ATOM     29  C   UNL A   1      45.569  31.249  31.974  1.00  0.00     0.029 A 
ATOM     30  N   UNL A   1      43.463  31.232  31.258  1.00  0.00    -0.354 N 
ATOM     31  N   UNL A   1      40.832  32.393  30.742  1.00  0.00    -0.248 NA
ATOM     32  C   UNL A   1      39.294  34.139  30.967  1.00  0.00     0.031 C 
ATOM     33  C   UNL A   1      44.978  32.472  32.311  1.00  0.00     0.029 A 
ATOM     34  C   UNL A   1      43.671  32.469  31.847  1.00  0.00     0.049 A 
ATOM     35  H   UNL A   1      42.622  30.941  30.838  1.00  0.00     0.167 HD
ATOM     36  C   UNL A   1      41.428  33.439  31.435  1.00  0.00     0.074 A 
ATOM     37  C   UNL A   1      40.443  34.497  31.528  1.00  0.00     0.031 C 
ATOM     38  C   UNL A   1      42.684  33.515  31.945  1.00  0.00     0.031 A 
BRANCH  25  39
ATOM     39  C   UNL A   1      46.025  28.374  31.153  1.00  0.00    -0.014 A 
ATOM     40  C   UNL A   1      47.138  28.496  30.302  1.00  0.00     0.010 A 
ATOM     41  C   UNL A   1      46.126  27.564  32.298  1.00  0.00     0.010 A 
ATOM     42  C   UNL A   1      48.308  27.777  30.560  1.00  0.00     0.020 A 
ATOM     43  C   UNL A   1      47.303  26.861  32.573  1.00  0.00     0.020 A 
ATOM     44  C   UNL A   1      48.379  26.953  31.688  1.00  0.00     0.054 A 
BRANCH  44  45
ATOM     45  S   UNL A   1      49.899  26.012  31.991  1.00  0.00     0.124 S 
ATOM     46  O   UNL A   1      50.928  27.022  31.756  1.00  0.00    -0.237 OA
ATOM     47  O   UNL A   1      49.745  25.586  33.380  1.00  0.00    -0.237 OA
ATOM     48  O   UNL A   1      49.845  24.937  31.004  1.00  0.00    -0.744 OA
ENDBRANCH  44  45
ENDBRANCH  25  39
BRANCH  26  49
ATOM     49  C   UNL A   1      37.183  32.667  29.540  1.00  0.00    -0.014 A 
ATOM     50  C   UNL A   1      36.251  32.659  30.590  1.00  0.00     0.010 A 
ATOM     51  C   UNL A   1      36.858  33.319  28.335  1.00  0.00     0.010 A 
ATOM     52  C   UNL A   1      35.019  33.305  30.443  1.00  0.00     0.020 A 
ATOM     53  C   UNL A   1      35.638  33.984  28.193  1.00  0.00     0.020 A 
ATOM     54  C   UNL A   1      34.726  33.972  29.248  1.00  0.00     0.054 A 
BRANCH  54  55
ATOM     55  S   UNL A   1      33.168  34.894  29.120  1.00  0.00     0.124 S 
ATOM     56  O   UNL A   1      32.674  34.850  30.492  1.00  0.00    -0.237 OA
ATOM     57  O   UNL A   1      33.613  36.205  28.649  1.00  0.00    -0.237 OA
ATOM     58  O   UNL A   1      32.395  34.124  28.148  1.00  0.00    -0.744 OA
ENDBRANCH  54  55
ENDBRANCH  26  49
BRANCH  38  59
ATOM     59  C   UNL A   1      43.081  34.790  32.636  1.00  0.00    -0.014 A 
ATOM     60  C   UNL A   1      42.876  34.962  34.017  1.00  0.00     0.010 A 
ATOM     61  C   UNL A   1      43.736  35.800  31.909  1.00  0.00     0.010 A 
ATOM     62  C   UNL A   1      43.309  36.127  34.655  1.00  0.00     0.020 A 
ATOM     63  C   UNL A   1      44.188  36.958  32.548  1.00  0.00     0.020 A 
ATOM     64  C   UNL A   1      43.964  37.118  33.918  1.00  0.00     0.054 A 
BRANCH  64  65
ATOM     65  S   UNL A   1      44.577  38.592  34.780  1.00  0.00     0.124 S 
ATOM     66  O   UNL A   1      45.901  38.762  34.188  1.00  0.00    -0.237 OA
ATOM     67  O   UNL A   1      43.592  39.609  34.421  1.00  0.00    -0.237 OA
ATOM     68  O   UNL A   1      44.570  38.198  36.188  1.00  0.00    -0.744 OA
ENDBRANCH  64  65
ENDBRANCH  38  59
ENDBRANCH  12  13
ENDBRANCH   5   7
ENDBRANCH   2   3
ENDBRANCH   1   2
BRANCH   1  69
ATOM     69  C   UNL A   1      34.763  24.431  23.610  1.00  0.00     0.023 C 
BRANCH  69  70
ATOM     70  C   UNL A   1      33.467  25.165  23.275  1.00  0.00     0.116 C 
BRANCH  70  71
ATOM     71  N   UNL A   1      33.668  26.476  22.687  1.00  0.00    -0.354 N 
ATOM     72  C   UNL A   1      33.524  27.730  23.229  1.00  0.00     0.245 C 
ATOM     73  H   UNL A   1      33.955  26.465  21.746  1.00  0.00     0.163 HD
ATOM     74  O   UNL A   1      33.728  28.679  22.462  1.00  0.00    -0.272 OA
BRANCH  72  75
ATOM     75  C   UNL A   1      32.879  27.953  24.644  1.00  0.00     0.119 C 
ATOM     76  C   UNL A   1      33.868  27.618  25.790  1.00  0.00     0.038 C 
ATOM     77  C   UNL A   1      32.617  29.494  24.678  1.00  0.00     0.038 C 
ATOM     78  C   UNL A   1      33.391  28.130  27.155  1.00  0.00     0.003 C 
ATOM     79  C   UNL A   1      32.201  30.047  26.040  1.00  0.00     0.003 C 
ATOM     80  C   UNL A   1      33.164  29.637  27.143  1.00  0.00     0.000 C 
BRANCH  75  81
ATOM     81  N   UNL A   1      31.603  27.236  24.872  1.00  0.00    -0.335 N 
ATOM     82  C   UNL A   1      30.385  27.341  24.234  1.00  0.00     0.289 C 
ATOM     83  H   UNL A   1      31.629  26.576  25.601  1.00  0.00     0.165 HD
ATOM     84  O   UNL A   1      29.536  26.498  24.526  1.00  0.00    -0.266 OA
BRANCH  82  85
ATOM     85  C   UNL A   1      30.066  28.495  23.430  1.00  0.00     0.214 A 
ATOM     86  N   UNL A   1      29.361  29.563  23.749  1.00  0.00    -0.207 NA
ATOM     87  N   UNL A   1      30.370  28.561  22.099  1.00  0.00    -0.255 N 
ATOM     88  C   UNL A   1      29.099  30.141  22.530  1.00  0.00     0.154 A 
ATOM     89  N   UNL A   1      29.654  29.517  21.487  1.00  0.00    -0.158 NA
ATOM     90  H   UNL A   1      31.028  27.983  21.649  1.00  0.00     0.192 HD
BRANCH  88  91
ATOM     91  C   UNL A   1      28.175  31.330  22.340  1.00  0.00     0.060 C 
ATOM     92  C   UNL A   1      28.708  32.733  22.513  1.00  0.00     0.012 C 
ATOM     93  C   UNL A   1      28.367  32.230  21.144  1.00  0.00     0.012 C 
ENDBRANCH  88  91
ENDBRANCH  82  85
ENDBRANCH  75  81
ENDBRANCH  72  75
ENDBRANCH  70  71
ENDBRANCH  69  70
ENDBRANCH   1  69
TORSDOF 17
ENDMDL
