MODEL 1
REMARK VINA RESULT:     -12.3      0.000      0.000
REMARK SMILES O=C(NCCCCNC(=O)c1ccc(-c2c3nc(c(-c4ccc(S(=O)(=O)[O-])cc4)c4ccc([nH]4)c(-c4ccc(S(=O)(=O)[O-])cc4)c4nc(c(-c5ccc(S(=O)(=O)[O-])cc5)c5ccc2[nH]5)C=C4)C=C3)cc1)C1=Cc2c(ccc(Cl)c2Oc2ccccc2)O[C@H]1C(F)(F)F
REMARK SMILES IDX 6 1 5 2 4 3 3 4 1 5 2 6 71 8 72 9 88 10 73 11 87 12 74 13
REMARK SMILES IDX 79 14 75 15 77 16 76 17 78 18 89 19 90 20 91 21 92 22 80 23
REMARK SMILES IDX 81 24 82 25 86 26 83 27 85 28 84 29 7 30 8 31 9 32 10 34
REMARK SMILES IDX 11 35 12 36 70 37 13 38 69 39 14 40 15 41 16 42 63 43 17 44
REMARK SMILES IDX 68 45 62 46 64 47 18 48 67 49 61 50 60 51 19 53 49 54 30 55
REMARK SMILES IDX 48 56 31 57 34 58 47 59 65 60 32 61 33 62 46 64 66 65 35 66
REMARK SMILES IDX 20 67 21 68 29 69 22 70 28 71 23 72 24 73 25 74 26 75 27 76
REMARK SMILES IDX 50 77 51 78 59 79 52 80 58 81 53 82 54 83 55 84 56 85 57 86
REMARK SMILES IDX 36 87 37 88 45 89 38 90 44 91 39 92 40 93 41 94 42 95 43 96
REMARK H PARENT 3 7 8 33 64 52 34 63
REMARK Flexibility Score: inf
ROOT
ATOM      1  C   UNL A   1      39.062  22.091  26.385  1.00  0.00     0.023 C 
ENDROOT
BRANCH   1   2
ATOM      2  C   UNL A   1      38.057  22.463  25.299  1.00  0.00     0.023 C 
BRANCH   2   3
ATOM      3  C   UNL A   1      36.815  21.579  25.236  1.00  0.00     0.116 C 
BRANCH   3   4
ATOM      4  N   UNL A   1      36.101  21.475  26.497  1.00  0.00    -0.352 N 
ATOM      5  O   UNL A   1      34.336  21.567  27.897  1.00  0.00    -0.270 OA
ATOM      6  C   UNL A   1      34.763  21.601  26.747  1.00  0.00     0.251 C 
ATOM      7  H   UNL A   1      36.661  21.288  27.285  1.00  0.00     0.163 HD
BRANCH   6   8
ATOM      8  C   UNL A   1      33.813  21.817  25.636  1.00  0.00     0.067 C 
ATOM      9  C   UNL A   1      33.738  23.012  25.041  1.00  0.00     0.029 C 
ATOM     10  C   UNL A   1      32.710  20.833  25.439  1.00  0.00     0.314 C 
ATOM     11  C   UNL A   1      32.452  23.686  25.347  1.00  0.00     0.061 A 
ATOM     12  O   UNL A   1      31.392  21.465  25.518  1.00  0.00    -0.475 OA
ATOM     13  C   UNL A   1      31.342  22.843  25.597  1.00  0.00     0.131 A 
ATOM     14  C   UNL A   1      32.358  25.080  25.574  1.00  0.00     0.156 A 
ATOM     15  C   UNL A   1      30.151  23.374  26.083  1.00  0.00     0.049 A 
ATOM     16  C   UNL A   1      31.159  25.582  26.110  1.00  0.00     0.084 A 
ATOM     17  C   UNL A   1      30.069  24.738  26.362  1.00  0.00     0.028 A 
ATOM     18  Cl  UNL A   1      30.997  27.247  26.550  1.00  0.00    -0.080 Cl
BRANCH  10  19
ATOM     19  C   UNL A   1      32.860  20.078  24.107  1.00  0.00     0.429 C 
ATOM     20  F   UNL A   1      34.077  19.507  23.960  1.00  0.00    -0.167 F 
ATOM     21  F   UNL A   1      31.944  19.085  24.003  1.00  0.00    -0.167 F 
ATOM     22  F   UNL A   1      32.684  20.897  23.040  1.00  0.00    -0.167 F 
ENDBRANCH  10  19
BRANCH  14  23
ATOM     23  O   UNL A   1      33.382  26.014  25.438  1.00  0.00    -0.455 OA
BRANCH  23  24
ATOM     24  C   UNL A   1      33.460  26.757  24.288  1.00  0.00     0.127 A 
ATOM     25  C   UNL A   1      33.851  28.095  24.388  1.00  0.00     0.047 A 
ATOM     26  C   UNL A   1      33.211  26.177  23.042  1.00  0.00     0.047 A 
ATOM     27  C   UNL A   1      34.123  28.818  23.227  1.00  0.00     0.004 A 
ATOM     28  C   UNL A   1      33.474  26.910  21.883  1.00  0.00     0.004 A 
ATOM     29  C   UNL A   1      33.952  28.220  21.978  1.00  0.00     0.000 A 
ENDBRANCH  23  24
ENDBRANCH  14  23
ENDBRANCH   6   8
ENDBRANCH   3   4
ENDBRANCH   2   3
ENDBRANCH   1   2
BRANCH   1  30
ATOM     30  C   UNL A   1      39.922  23.226  26.941  1.00  0.00     0.116 C 
BRANCH  30  31
ATOM     31  N   UNL A   1      40.524  24.085  25.929  1.00  0.00    -0.352 N 
ATOM     32  C   UNL A   1      41.071  25.345  26.069  1.00  0.00     0.251 C 
ATOM     33  H   UNL A   1      40.542  23.716  25.017  1.00  0.00     0.163 HD
ATOM     34  O   UNL A   1      41.501  25.940  25.091  1.00  0.00    -0.269 OA
BRANCH  32  35
ATOM     35  C   UNL A   1      41.071  25.996  27.401  1.00  0.00     0.039 A 
ATOM     36  C   UNL A   1      42.216  26.683  27.814  1.00  0.00     0.014 A 
ATOM     37  C   UNL A   1      39.923  26.003  28.198  1.00  0.00     0.014 A 
ATOM     38  C   UNL A   1      42.169  27.479  28.962  1.00  0.00     0.010 A 
ATOM     39  C   UNL A   1      39.857  26.853  29.302  1.00  0.00     0.010 A 
ATOM     40  C   UNL A   1      40.968  27.624  29.677  1.00  0.00    -0.014 A 
BRANCH  40  41
ATOM     41  C   UNL A   1      40.833  28.629  30.765  1.00  0.00     0.031 A 
ATOM     42  C   UNL A   1      41.680  28.540  32.003  1.00  0.00     0.074 A 
ATOM     43  C   UNL A   1      39.876  29.576  30.677  1.00  0.00     0.049 A 
ATOM     44  N   UNL A   1      41.643  29.284  33.080  1.00  0.00    -0.248 NA
ATOM     45  C   UNL A   1      42.679  27.462  32.049  1.00  0.00     0.031 C 
ATOM     46  C   UNL A   1      38.945  29.741  29.555  1.00  0.00     0.029 A 
ATOM     47  N   UNL A   1      39.516  30.573  31.550  1.00  0.00    -0.354 N 
ATOM     48  C   UNL A   1      42.599  28.753  33.939  1.00  0.00     0.074 A 
ATOM     49  C   UNL A   1      43.169  27.602  33.273  1.00  0.00     0.031 C 
ATOM     50  C   UNL A   1      38.142  30.790  29.797  1.00  0.00     0.029 A 
ATOM     51  C   UNL A   1      38.471  31.349  31.105  1.00  0.00     0.049 A 
ATOM     52  H   UNL A   1      39.964  30.718  32.415  1.00  0.00     0.167 HD
ATOM     53  C   UNL A   1      42.977  29.191  35.165  1.00  0.00     0.031 A 
ATOM     54  C   UNL A   1      37.842  32.393  31.680  1.00  0.00     0.031 A 
ATOM     55  C   UNL A   1      42.421  30.342  35.825  1.00  0.00     0.049 A 
ATOM     56  C   UNL A   1      38.290  32.871  33.033  1.00  0.00     0.074 A 
ATOM     57  C   UNL A   1      42.782  30.895  37.042  1.00  0.00     0.029 A 
ATOM     58  N   UNL A   1      41.387  31.118  35.326  1.00  0.00    -0.354 N 
ATOM     59  N   UNL A   1      39.240  32.393  33.800  1.00  0.00    -0.248 NA
ATOM     60  C   UNL A   1      37.590  34.035  33.592  1.00  0.00     0.031 C 
ATOM     61  C   UNL A   1      41.941  31.984  37.295  1.00  0.00     0.029 A 
ATOM     62  C   UNL A   1      41.086  32.136  36.215  1.00  0.00     0.049 A 
ATOM     63  H   UNL A   1      40.933  30.969  34.464  1.00  0.00     0.167 HD
ATOM     64  C   UNL A   1      39.268  33.213  34.922  1.00  0.00     0.074 A 
ATOM     65  C   UNL A   1      38.247  34.223  34.729  1.00  0.00     0.031 C 
ATOM     66  C   UNL A   1      40.070  33.136  36.012  1.00  0.00     0.031 A 
BRANCH  53  67
ATOM     67  C   UNL A   1      44.052  28.410  35.872  1.00  0.00    -0.014 A 
ATOM     68  C   UNL A   1      45.410  28.732  35.702  1.00  0.00     0.010 A 
ATOM     69  C   UNL A   1      43.700  27.355  36.732  1.00  0.00     0.010 A 
ATOM     70  C   UNL A   1      46.401  27.981  36.339  1.00  0.00     0.020 A 
ATOM     71  C   UNL A   1      44.687  26.616  37.392  1.00  0.00     0.020 A 
ATOM     72  C   UNL A   1      46.033  26.921  37.173  1.00  0.00     0.054 A 
BRANCH  72  73
ATOM     73  S   UNL A   1      47.337  25.962  37.991  1.00  0.00     0.124 S 
ATOM     74  O   UNL A   1      47.812  26.906  39.000  1.00  0.00    -0.237 OA
ATOM     75  O   UNL A   1      46.613  24.804  38.508  1.00  0.00    -0.237 OA
ATOM     76  O   UNL A   1      48.281  25.673  36.914  1.00  0.00    -0.744 OA
ENDBRANCH  72  73
ENDBRANCH  53  67
BRANCH  54  77
ATOM     77  C   UNL A   1      36.730  33.075  30.963  1.00  0.00    -0.014 A 
ATOM     78  C   UNL A   1      35.398  32.861  31.357  1.00  0.00     0.010 A 
ATOM     79  C   UNL A   1      36.999  33.954  29.900  1.00  0.00     0.010 A 
ATOM     80  C   UNL A   1      34.351  33.506  30.691  1.00  0.00     0.020 A 
ATOM     81  C   UNL A   1      35.957  34.618  29.247  1.00  0.00     0.020 A 
ATOM     82  C   UNL A   1      34.638  34.382  29.640  1.00  0.00     0.054 A 
BRANCH  82  83
ATOM     83  S   UNL A   1      33.271  35.259  28.831  1.00  0.00     0.124 S 
ATOM     84  O   UNL A   1      33.981  36.242  28.019  1.00  0.00    -0.237 OA
ATOM     85  O   UNL A   1      32.601  34.192  28.092  1.00  0.00    -0.237 OA
ATOM     86  O   UNL A   1      32.507  35.804  29.951  1.00  0.00    -0.744 OA
ENDBRANCH  82  83
ENDBRANCH  54  77
BRANCH  66  87
ATOM     87  C   UNL A   1      39.899  34.190  37.071  1.00  0.00    -0.014 A 
ATOM     88  C   UNL A   1      40.469  35.467  36.923  1.00  0.00     0.010 A 
ATOM     89  C   UNL A   1      39.111  33.915  38.204  1.00  0.00     0.010 A 
ATOM     90  C   UNL A   1      40.272  36.445  37.903  1.00  0.00     0.020 A 
ATOM     91  C   UNL A   1      38.896  34.896  39.174  1.00  0.00     0.020 A 
ATOM     92  C   UNL A   1      39.489  36.152  39.024  1.00  0.00     0.054 A 
BRANCH  92  93
ATOM     93  S   UNL A   1      39.205  37.450  40.259  1.00  0.00     0.124 S 
ATOM     94  O   UNL A   1      38.633  36.692  41.369  1.00  0.00    -0.237 OA
ATOM     95  O   UNL A   1      40.547  37.981  40.486  1.00  0.00    -0.237 OA
ATOM     96  O   UNL A   1      38.284  38.367  39.590  1.00  0.00    -0.744 OA
ENDBRANCH  92  93
ENDBRANCH  66  87
ENDBRANCH  40  41
ENDBRANCH  32  35
ENDBRANCH  30  31
ENDBRANCH   1  30
TORSDOF 17
ENDMDL
MODEL 2
REMARK VINA RESULT:     -12.2      6.480     11.798
REMARK SMILES O=C(NCCCCNC(=O)c1ccc(-c2c3nc(c(-c4ccc(S(=O)(=O)[O-])cc4)c4ccc([nH]4)c(-c4ccc(S(=O)(=O)[O-])cc4)c4nc(c(-c5ccc(S(=O)(=O)[O-])cc5)c5ccc2[nH]5)C=C4)C=C3)cc1)C1=Cc2c(ccc(Cl)c2Oc2ccccc2)O[C@H]1C(F)(F)F
REMARK SMILES IDX 6 1 5 2 4 3 3 4 1 5 2 6 71 8 72 9 88 10 73 11 87 12 74 13
REMARK SMILES IDX 79 14 75 15 77 16 76 17 78 18 89 19 90 20 91 21 92 22 80 23
REMARK SMILES IDX 81 24 82 25 86 26 83 27 85 28 84 29 7 30 8 31 9 32 10 34
REMARK SMILES IDX 11 35 12 36 70 37 13 38 69 39 14 40 15 41 16 42 63 43 17 44
REMARK SMILES IDX 68 45 62 46 64 47 18 48 67 49 61 50 60 51 19 53 49 54 30 55
REMARK SMILES IDX 48 56 31 57 34 58 47 59 65 60 32 61 33 62 46 64 66 65 35 66
REMARK SMILES IDX 20 67 21 68 29 69 22 70 28 71 23 72 24 73 25 74 26 75 27 76
REMARK SMILES IDX 50 77 51 78 59 79 52 80 58 81 53 82 54 83 55 84 56 85 57 86
REMARK SMILES IDX 36 87 37 88 45 89 38 90 44 91 39 92 40 93 41 94 42 95 43 96
REMARK H PARENT 3 7 8 33 64 52 34 63
REMARK Flexibility Score: inf
ROOT
ATOM      1  C   UNL A   1      34.340  29.525  27.178  1.00  0.00     0.023 C 
ENDROOT
BRANCH   1   2
ATOM      2  C   UNL A   1      32.857  29.855  27.319  1.00  0.00     0.023 C 
BRANCH   2   3
ATOM      3  C   UNL A   1      32.110  30.052  26.003  1.00  0.00     0.116 C 
BRANCH   3   4
ATOM      4  N   UNL A   1      32.971  30.068  24.833  1.00  0.00    -0.352 N 
ATOM      5  O   UNL A   1      33.869  29.317  22.906  1.00  0.00    -0.270 OA
ATOM      6  C   UNL A   1      33.012  29.201  23.776  1.00  0.00     0.251 C 
ATOM      7  H   UNL A   1      33.620  30.808  24.796  1.00  0.00     0.163 HD
BRANCH   6   8
ATOM      8  C   UNL A   1      32.045  28.089  23.686  1.00  0.00     0.067 C 
ATOM      9  C   UNL A   1      32.250  26.964  24.379  1.00  0.00     0.029 C 
ATOM     10  C   UNL A   1      31.064  28.086  22.562  1.00  0.00     0.314 C 
ATOM     11  C   UNL A   1      32.577  25.829  23.479  1.00  0.00     0.061 A 
ATOM     12  O   UNL A   1      31.181  26.882  21.738  1.00  0.00    -0.475 OA
ATOM     13  C   UNL A   1      32.026  25.881  22.175  1.00  0.00     0.131 A 
ATOM     14  C   UNL A   1      33.536  24.844  23.813  1.00  0.00     0.156 A 
ATOM     15  C   UNL A   1      32.433  24.971  21.204  1.00  0.00     0.049 A 
ATOM     16  C   UNL A   1      33.963  23.969  22.799  1.00  0.00     0.084 A 
ATOM     17  C   UNL A   1      33.418  24.032  21.510  1.00  0.00     0.028 A 
ATOM     18  Cl  UNL A   1      35.229  22.823  23.074  1.00  0.00    -0.080 Cl
BRANCH  10  19
ATOM     19  C   UNL A   1      29.621  28.243  23.073  1.00  0.00     0.429 C 
ATOM     20  F   UNL A   1      28.788  28.762  22.141  1.00  0.00    -0.167 F 
ATOM     21  F   UNL A   1      29.102  27.048  23.444  1.00  0.00    -0.167 F 
ATOM     22  F   UNL A   1      29.554  29.061  24.153  1.00  0.00    -0.167 F 
ENDBRANCH  10  19
BRANCH  14  23
ATOM     23  O   UNL A   1      34.207  24.718  25.026  1.00  0.00    -0.455 OA
BRANCH  23  24
ATOM     24  C   UNL A   1      33.755  23.810  25.949  1.00  0.00     0.127 A 
ATOM     25  C   UNL A   1      34.693  23.009  26.606  1.00  0.00     0.047 A 
ATOM     26  C   UNL A   1      32.398  23.727  26.267  1.00  0.00     0.047 A 
ATOM     27  C   UNL A   1      34.287  22.217  27.679  1.00  0.00     0.004 A 
ATOM     28  C   UNL A   1      31.995  22.923  27.336  1.00  0.00     0.004 A 
ATOM     29  C   UNL A   1      32.943  22.190  28.055  1.00  0.00     0.000 A 
ENDBRANCH  23  24
ENDBRANCH  14  23
ENDBRANCH   6   8
ENDBRANCH   3   4
ENDBRANCH   2   3
ENDBRANCH   1   2
BRANCH   1  30
ATOM     30  C   UNL A   1      35.328  30.596  27.644  1.00  0.00     0.116 C 
BRANCH  30  31
ATOM     31  N   UNL A   1      35.308  30.859  29.078  1.00  0.00    -0.352 N 
ATOM     32  C   UNL A   1      36.247  30.535  30.036  1.00  0.00     0.251 C 
ATOM     33  H   UNL A   1      34.512  31.334  29.409  1.00  0.00     0.163 HD
ATOM     34  O   UNL A   1      36.043  30.805  31.211  1.00  0.00    -0.269 OA
BRANCH  32  35
ATOM     35  C   UNL A   1      37.471  29.799  29.638  1.00  0.00     0.039 A 
ATOM     36  C   UNL A   1      37.921  29.905  28.319  1.00  0.00     0.014 A 
ATOM     37  C   UNL A   1      38.215  29.081  30.578  1.00  0.00     0.014 A 
ATOM     38  C   UNL A   1      39.178  29.399  27.975  1.00  0.00     0.010 A 
ATOM     39  C   UNL A   1      39.497  28.641  30.250  1.00  0.00     0.010 A 
ATOM     40  C   UNL A   1      40.005  28.824  28.954  1.00  0.00    -0.014 A 
BRANCH  40  41
ATOM     41  C   UNL A   1      41.423  28.480  28.663  1.00  0.00     0.031 A 
ATOM     42  C   UNL A   1      42.489  29.538  28.679  1.00  0.00     0.074 A 
ATOM     43  C   UNL A   1      41.736  27.221  28.292  1.00  0.00     0.049 A 
ATOM     44  N   UNL A   1      43.759  29.431  28.377  1.00  0.00    -0.248 NA
ATOM     45  C   UNL A   1      42.072  30.897  29.057  1.00  0.00     0.031 C 
ATOM     46  C   UNL A   1      40.787  26.108  28.180  1.00  0.00     0.029 A 
ATOM     47  N   UNL A   1      42.937  26.665  27.929  1.00  0.00    -0.354 N 
ATOM     48  C   UNL A   1      44.289  30.709  28.509  1.00  0.00     0.074 A 
ATOM     49  C   UNL A   1      43.194  31.581  28.880  1.00  0.00     0.031 C 
ATOM     50  C   UNL A   1      41.446  25.001  27.802  1.00  0.00     0.029 A 
ATOM     51  C   UNL A   1      42.855  25.329  27.607  1.00  0.00     0.049 A 
ATOM     52  H   UNL A   1      43.780  27.174  27.902  1.00  0.00     0.167 HD
ATOM     53  C   UNL A   1      45.571  31.119  28.351  1.00  0.00     0.031 A 
ATOM     54  C   UNL A   1      43.802  24.463  27.197  1.00  0.00     0.031 A 
ATOM     55  C   UNL A   1      46.664  30.253  27.995  1.00  0.00     0.049 A 
ATOM     56  C   UNL A   1      45.221  24.936  27.045  1.00  0.00     0.074 A 
ATOM     57  C   UNL A   1      48.006  30.568  27.869  1.00  0.00     0.029 A 
ATOM     58  N   UNL A   1      46.542  28.903  27.708  1.00  0.00    -0.354 N 
ATOM     59  N   UNL A   1      45.711  26.137  27.238  1.00  0.00    -0.248 NA
ATOM     60  C   UNL A   1      46.215  23.936  26.631  1.00  0.00     0.031 C 
ATOM     61  C   UNL A   1      48.690  29.415  27.470  1.00  0.00     0.029 A 
ATOM     62  C   UNL A   1      47.781  28.372  27.392  1.00  0.00     0.049 A 
ATOM     63  H   UNL A   1      45.699  28.394  27.729  1.00  0.00     0.167 HD
ATOM     64  C   UNL A   1      47.075  26.031  26.992  1.00  0.00     0.074 A 
ATOM     65  C   UNL A   1      47.334  24.648  26.647  1.00  0.00     0.031 C 
ATOM     66  C   UNL A   1      48.027  26.995  27.051  1.00  0.00     0.031 A 
BRANCH  53  67
ATOM     67  C   UNL A   1      45.856  32.582  28.564  1.00  0.00    -0.014 A 
ATOM     68  C   UNL A   1      46.164  33.079  29.843  1.00  0.00     0.010 A 
ATOM     69  C   UNL A   1      45.837  33.465  27.470  1.00  0.00     0.010 A 
ATOM     70  C   UNL A   1      46.397  34.443  30.034  1.00  0.00     0.020 A 
ATOM     71  C   UNL A   1      46.094  34.827  27.653  1.00  0.00     0.020 A 
ATOM     72  C   UNL A   1      46.351  35.311  28.939  1.00  0.00     0.054 A 
BRANCH  72  73
ATOM     73  S   UNL A   1      46.660  37.077  29.212  1.00  0.00     0.124 S 
ATOM     74  O   UNL A   1      45.383  37.667  28.815  1.00  0.00    -0.237 OA
ATOM     75  O   UNL A   1      46.961  37.137  30.639  1.00  0.00    -0.237 OA
ATOM     76  O   UNL A   1      47.784  37.372  28.327  1.00  0.00    -0.744 OA
ENDBRANCH  72  73
ENDBRANCH  53  67
BRANCH  54  77
ATOM     77  C   UNL A   1      43.441  23.045  26.925  1.00  0.00    -0.014 A 
ATOM     78  C   UNL A   1      43.753  22.461  25.685  1.00  0.00     0.010 A 
ATOM     79  C   UNL A   1      42.804  22.269  27.908  1.00  0.00     0.010 A 
ATOM     80  C   UNL A   1      43.423  21.127  25.428  1.00  0.00     0.020 A 
ATOM     81  C   UNL A   1      42.492  20.928  27.663  1.00  0.00     0.020 A 
ATOM     82  C   UNL A   1      42.795  20.368  26.420  1.00  0.00     0.054 A 
BRANCH  82  83
ATOM     83  S   UNL A   1      42.433  18.621  26.091  1.00  0.00     0.124 S 
ATOM     84  O   UNL A   1      42.754  17.999  27.372  1.00  0.00    -0.237 OA
ATOM     85  O   UNL A   1      41.015  18.651  25.739  1.00  0.00    -0.237 OA
ATOM     86  O   UNL A   1      43.332  18.289  24.988  1.00  0.00    -0.744 OA
ENDBRANCH  82  83
ENDBRANCH  54  77
BRANCH  66  87
ATOM     87  C   UNL A   1      49.445  26.584  26.764  1.00  0.00    -0.014 A 
ATOM     88  C   UNL A   1      50.273  26.075  27.781  1.00  0.00     0.010 A 
ATOM     89  C   UNL A   1      49.936  26.656  25.448  1.00  0.00     0.010 A 
ATOM     90  C   UNL A   1      51.578  25.668  27.488  1.00  0.00     0.020 A 
ATOM     91  C   UNL A   1      51.233  26.230  25.149  1.00  0.00     0.020 A 
ATOM     92  C   UNL A   1      52.050  25.750  26.174  1.00  0.00     0.054 A 
BRANCH  92  93
ATOM     93  S   UNL A   1      53.729  25.168  25.808  1.00  0.00     0.124 S 
ATOM     94  O   UNL A   1      54.098  26.007  24.669  1.00  0.00    -0.237 OA
ATOM     95  O   UNL A   1      54.446  25.445  27.050  1.00  0.00    -0.237 OA
ATOM     96  O   UNL A   1      53.545  23.751  25.504  1.00  0.00    -0.744 OA
ENDBRANCH  92  93
ENDBRANCH  66  87
ENDBRANCH  40  41
ENDBRANCH  32  35
ENDBRANCH  30  31
ENDBRANCH   1  30
TORSDOF 17
ENDMDL
MODEL 3
REMARK VINA RESULT:     -12.1      5.908     12.105
REMARK SMILES O=C(NCCCCNC(=O)c1ccc(-c2c3nc(c(-c4ccc(S(=O)(=O)[O-])cc4)c4ccc([nH]4)c(-c4ccc(S(=O)(=O)[O-])cc4)c4nc(c(-c5ccc(S(=O)(=O)[O-])cc5)c5ccc2[nH]5)C=C4)C=C3)cc1)C1=Cc2c(ccc(Cl)c2Oc2ccccc2)O[C@H]1C(F)(F)F
REMARK SMILES IDX 6 1 5 2 4 3 3 4 1 5 2 6 71 8 72 9 88 10 73 11 87 12 74 13
REMARK SMILES IDX 79 14 75 15 77 16 76 17 78 18 89 19 90 20 91 21 92 22 80 23
REMARK SMILES IDX 81 24 82 25 86 26 83 27 85 28 84 29 7 30 8 31 9 32 10 34
REMARK SMILES IDX 11 35 12 36 70 37 13 38 69 39 14 40 15 41 16 42 63 43 17 44
REMARK SMILES IDX 68 45 62 46 64 47 18 48 67 49 61 50 60 51 19 53 49 54 30 55
REMARK SMILES IDX 48 56 31 57 34 58 47 59 65 60 32 61 33 62 46 64 66 65 35 66
REMARK SMILES IDX 20 67 21 68 29 69 22 70 28 71 23 72 24 73 25 74 26 75 27 76
REMARK SMILES IDX 50 77 51 78 59 79 52 80 58 81 53 82 54 83 55 84 56 85 57 86
REMARK SMILES IDX 36 87 37 88 45 89 38 90 44 91 39 92 40 93 41 94 42 95 43 96
REMARK H PARENT 3 7 8 33 64 52 34 63
REMARK Flexibility Score: inf
ROOT
ATOM      1  C   UNL A   1      33.684  33.058  28.510  1.00  0.00     0.023 C 
ENDROOT
BRANCH   1   2
ATOM      2  C   UNL A   1      34.140  33.417  29.921  1.00  0.00     0.023 C 
BRANCH   2   3
ATOM      3  C   UNL A   1      34.897  32.315  30.656  1.00  0.00     0.116 C 
BRANCH   3   4
ATOM      4  N   UNL A   1      35.003  32.527  32.090  1.00  0.00    -0.352 N 
ATOM      5  O   UNL A   1      36.032  32.824  34.074  1.00  0.00    -0.270 OA
ATOM      6  C   UNL A   1      36.116  32.749  32.852  1.00  0.00     0.251 C 
ATOM      7  H   UNL A   1      34.152  32.508  32.583  1.00  0.00     0.163 HD
BRANCH   6   8
ATOM      8  C   UNL A   1      37.445  32.864  32.217  1.00  0.00     0.067 C 
ATOM      9  C   UNL A   1      38.436  32.044  32.582  1.00  0.00     0.029 C 
ATOM     10  C   UNL A   1      37.767  34.108  31.459  1.00  0.00     0.314 C 
ATOM     11  C   UNL A   1      39.497  32.776  33.318  1.00  0.00     0.061 A 
ATOM     12  O   UNL A   1      38.945  34.788  32.001  1.00  0.00    -0.475 OA
ATOM     13  C   UNL A   1      39.666  34.142  32.986  1.00  0.00     0.131 A 
ATOM     14  C   UNL A   1      40.179  32.217  34.425  1.00  0.00     0.156 A 
ATOM     15  C   UNL A   1      40.495  34.954  33.755  1.00  0.00     0.049 A 
ATOM     16  C   UNL A   1      40.971  33.073  35.211  1.00  0.00     0.084 A 
ATOM     17  C   UNL A   1      41.126  34.425  34.879  1.00  0.00     0.028 A 
ATOM     18  Cl  UNL A   1      41.732  32.514  36.661  1.00  0.00    -0.080 Cl
BRANCH  10  19
ATOM     19  C   UNL A   1      37.960  33.821  29.960  1.00  0.00     0.429 C 
ATOM     20  F   UNL A   1      37.069  34.476  29.181  1.00  0.00    -0.167 F 
ATOM     21  F   UNL A   1      39.194  34.195  29.547  1.00  0.00    -0.167 F 
ATOM     22  F   UNL A   1      37.827  32.501  29.678  1.00  0.00    -0.167 F 
ENDBRANCH  10  19
BRANCH  14  23
ATOM     23  O   UNL A   1      40.056  30.917  34.905  1.00  0.00    -0.455 OA
BRANCH  23  24
ATOM     24  C   UNL A   1      40.809  29.921  34.337  1.00  0.00     0.127 A 
ATOM     25  C   UNL A   1      40.175  29.016  33.481  1.00  0.00     0.047 A 
ATOM     26  C   UNL A   1      42.185  29.846  34.563  1.00  0.00     0.047 A 
ATOM     27  C   UNL A   1      40.945  28.115  32.745  1.00  0.00     0.004 A 
ATOM     28  C   UNL A   1      42.948  28.934  33.831  1.00  0.00     0.004 A 
ATOM     29  C   UNL A   1      42.331  28.089  32.906  1.00  0.00     0.000 A 
ENDBRANCH  23  24
ENDBRANCH  14  23
ENDBRANCH   6   8
ENDBRANCH   3   4
ENDBRANCH   2   3
ENDBRANCH   1   2
BRANCH   1  30
ATOM     30  C   UNL A   1      34.625  32.173  27.690  1.00  0.00     0.116 C 
BRANCH  30  31
ATOM     31  N   UNL A   1      34.200  30.784  27.566  1.00  0.00    -0.352 N 
ATOM     32  C   UNL A   1      34.925  29.630  27.779  1.00  0.00     0.251 C 
ATOM     33  H   UNL A   1      33.265  30.651  27.289  1.00  0.00     0.163 HD
ATOM     34  O   UNL A   1      34.410  28.537  27.588  1.00  0.00    -0.269 OA
BRANCH  32  35
ATOM     35  C   UNL A   1      36.350  29.726  28.177  1.00  0.00     0.039 A 
ATOM     36  C   UNL A   1      36.718  29.323  29.463  1.00  0.00     0.014 A 
ATOM     37  C   UNL A   1      37.326  30.129  27.262  1.00  0.00     0.014 A 
ATOM     38  C   UNL A   1      38.072  29.203  29.789  1.00  0.00     0.010 A 
ATOM     39  C   UNL A   1      38.674  29.941  27.565  1.00  0.00     0.010 A 
ATOM     40  C   UNL A   1      39.060  29.445  28.821  1.00  0.00    -0.014 A 
BRANCH  40  41
ATOM     41  C   UNL A   1      40.489  29.115  29.074  1.00  0.00     0.031 A 
ATOM     42  C   UNL A   1      41.040  27.763  28.720  1.00  0.00     0.074 A 
ATOM     43  C   UNL A   1      41.272  30.011  29.712  1.00  0.00     0.049 A 
ATOM     44  N   UNL A   1      42.238  27.280  28.938  1.00  0.00    -0.248 NA
ATOM     45  C   UNL A   1      40.122  26.823  28.059  1.00  0.00     0.031 C 
ATOM     46  C   UNL A   1      40.848  31.340  30.164  1.00  0.00     0.029 A 
ATOM     47  N   UNL A   1      42.586  29.935  30.103  1.00  0.00    -0.354 N 
ATOM     48  C   UNL A   1      42.211  25.975  28.460  1.00  0.00     0.074 A 
ATOM     49  C   UNL A   1      40.869  25.731  27.977  1.00  0.00     0.031 C 
ATOM     50  C   UNL A   1      41.887  31.961  30.745  1.00  0.00     0.029 A 
ATOM     51  C   UNL A   1      43.039  31.065  30.744  1.00  0.00     0.049 A 
ATOM     52  H   UNL A   1      43.151  29.145  29.941  1.00  0.00     0.167 HD
ATOM     53  C   UNL A   1      43.216  25.066  28.414  1.00  0.00     0.031 A 
ATOM     54  C   UNL A   1      44.244  31.353  31.275  1.00  0.00     0.031 A 
ATOM     55  C   UNL A   1      44.555  25.309  28.882  1.00  0.00     0.049 A 
ATOM     56  C   UNL A   1      45.348  30.336  31.197  1.00  0.00     0.074 A 
ATOM     57  C   UNL A   1      45.653  24.469  28.824  1.00  0.00     0.029 A 
ATOM     58  N   UNL A   1      44.979  26.478  29.495  1.00  0.00    -0.354 N 
ATOM     59  N   UNL A   1      45.319  29.130  30.682  1.00  0.00    -0.248 NA
ATOM     60  C   UNL A   1      46.648  30.721  31.761  1.00  0.00     0.031 C 
ATOM     61  C   UNL A   1      46.733  25.116  29.434  1.00  0.00     0.029 A 
ATOM     62  C   UNL A   1      46.319  26.377  29.832  1.00  0.00     0.049 A 
ATOM     63  H   UNL A   1      44.413  27.265  29.664  1.00  0.00     0.167 HD
ATOM     64  C   UNL A   1      46.603  28.622  30.839  1.00  0.00     0.074 A 
ATOM     65  C   UNL A   1      47.387  29.654  31.487  1.00  0.00     0.031 C 
ATOM     66  C   UNL A   1      47.088  27.410  30.475  1.00  0.00     0.031 A 
BRANCH  53  67
ATOM     67  C   UNL A   1      42.895  23.715  27.833  1.00  0.00    -0.014 A 
ATOM     68  C   UNL A   1      42.424  22.671  28.650  1.00  0.00     0.010 A 
ATOM     69  C   UNL A   1      43.047  23.491  26.454  1.00  0.00     0.010 A 
ATOM     70  C   UNL A   1      42.158  21.412  28.106  1.00  0.00     0.020 A 
ATOM     71  C   UNL A   1      42.758  22.240  25.901  1.00  0.00     0.020 A 
ATOM     72  C   UNL A   1      42.336  21.202  26.735  1.00  0.00     0.054 A 
BRANCH  72  73
ATOM     73  S   UNL A   1      41.982  19.560  26.052  1.00  0.00     0.124 S 
ATOM     74  O   UNL A   1      42.408  18.685  27.142  1.00  0.00    -0.237 OA
ATOM     75  O   UNL A   1      40.542  19.611  25.815  1.00  0.00    -0.237 OA
ATOM     76  O   UNL A   1      42.807  19.501  24.848  1.00  0.00    -0.744 OA
ENDBRANCH  72  73
ENDBRANCH  53  67
BRANCH  54  77
ATOM     77  C   UNL A   1      44.476  32.679  31.909  1.00  0.00    -0.014 A 
ATOM     78  C   UNL A   1      44.948  33.758  31.141  1.00  0.00     0.010 A 
ATOM     79  C   UNL A   1      44.208  32.875  33.275  1.00  0.00     0.010 A 
ATOM     80  C   UNL A   1      45.159  35.008  31.731  1.00  0.00     0.020 A 
ATOM     81  C   UNL A   1      44.397  34.128  33.863  1.00  0.00     0.020 A 
ATOM     82  C   UNL A   1      44.881  35.185  33.089  1.00  0.00     0.054 A 
BRANCH  82  83
ATOM     83  S   UNL A   1      45.100  36.831  33.822  1.00  0.00     0.124 S 
ATOM     84  O   UNL A   1      45.136  37.687  32.640  1.00  0.00    -0.237 OA
ATOM     85  O   UNL A   1      43.914  36.964  34.664  1.00  0.00    -0.237 OA
ATOM     86  O   UNL A   1      46.360  36.713  34.551  1.00  0.00    -0.744 OA
ENDBRANCH  82  83
ENDBRANCH  54  77
BRANCH  66  87
ATOM     87  C   UNL A   1      48.543  27.140  30.741  1.00  0.00    -0.014 A 
ATOM     88  C   UNL A   1      48.950  26.358  31.836  1.00  0.00     0.010 A 
ATOM     89  C   UNL A   1      49.514  27.632  29.848  1.00  0.00     0.010 A 
ATOM     90  C   UNL A   1      50.306  26.091  32.047  1.00  0.00     0.020 A 
ATOM     91  C   UNL A   1      50.868  27.349  30.045  1.00  0.00     0.020 A 
ATOM     92  C   UNL A   1      51.256  26.590  31.151  1.00  0.00     0.054 A 
BRANCH  92  93
ATOM     93  S   UNL A   1      53.006  26.190  31.416  1.00  0.00     0.124 S 
ATOM     94  O   UNL A   1      53.497  27.398  32.074  1.00  0.00    -0.237 OA
ATOM     95  O   UNL A   1      52.942  24.997  32.258  1.00  0.00    -0.237 OA
ATOM     96  O   UNL A   1      53.517  25.964  30.066  1.00  0.00    -0.744 OA
ENDBRANCH  92  93
ENDBRANCH  66  87
ENDBRANCH  40  41
ENDBRANCH  32  35
ENDBRANCH  30  31
ENDBRANCH   1  30
TORSDOF 17
ENDMDL
