MODEL 1
REMARK VINA RESULT:     -10.9      0.000      0.000
REMARK SMILES Cc1csc(C[N@H+]2CCC[C@@H](CC(=O)NCCCCNC(=O)c3ccc(-c4c5nc(c(-c6ccc(S(=O)(=O)[O-])cc6)c6ccc([nH]6)c(-c6ccc(S(=O)(=O)[O-])cc6)c6nc(c(-c7ccc(S(=O)(=O)[O-])cc7)c7ccc4[nH]7)C=C6)C=C5)cc3)C2)n1
REMARK SMILES IDX 17 1 16 2 15 3 13 4 14 5 12 7 11 8 7 9 8 10 83 11 9 13 10 14
REMARK SMILES IDX 6 15 5 16 1 17 2 18 3 19 84 20 4 21 18 22 19 23 20 24 21 25
REMARK SMILES IDX 22 27 23 28 24 29 82 30 25 31 81 32 26 33 27 34 28 35 75 36
REMARK SMILES IDX 29 37 80 38 74 39 76 40 30 41 79 42 73 43 72 44 31 46 61 47
REMARK SMILES IDX 42 48 60 49 43 50 46 51 59 52 77 53 44 54 45 55 58 57 78 58
REMARK SMILES IDX 47 59 32 60 33 61 41 62 34 63 40 64 35 65 36 66 37 67 38 68
REMARK SMILES IDX 39 69 62 70 63 71 71 72 64 73 70 74 65 75 66 76 67 77 68 78
REMARK SMILES IDX 69 79 48 80 49 81 57 82 50 83 56 84 51 85 52 86 53 87 54 88
REMARK SMILES IDX 55 89
REMARK H PARENT 15 6 7 12 20 26 76 45 46 56
REMARK Flexibility Score: inf
ROOT
ATOM      1  C   UNL A   1      32.870  29.329  24.986  1.00  0.00     0.023 C 
ENDROOT
BRANCH   1   2
ATOM      2  C   UNL A   1      31.348  29.488  24.951  1.00  0.00     0.116 C 
BRANCH   2   3
ATOM      3  N   UNL A   1      30.817  29.720  23.620  1.00  0.00    -0.356 N 
ATOM      4  C   UNL A   1      30.174  28.869  22.774  1.00  0.00     0.220 C 
ATOM      5  O   UNL A   1      29.761  29.302  21.699  1.00  0.00    -0.275 OA
ATOM      6  H   UNL A   1      30.941  30.634  23.276  1.00  0.00     0.163 HD
BRANCH   4   7
ATOM      7  C   UNL A   1      29.969  27.420  23.160  1.00  0.00     0.109 C 
BRANCH   7   8
ATOM      8  C   UNL A   1      31.212  26.515  23.071  1.00  0.00     0.054 C 
ATOM      9  N   UNL A   1      31.983  24.127  23.550  1.00  0.00    -0.329 N 
ATOM     10  C   UNL A   1      32.796  24.169  22.324  1.00  0.00     0.262 C 
ATOM     11  C   UNL A   1      30.884  25.110  23.620  1.00  0.00     0.266 C 
ATOM     12  H   UNL A   1      32.618  24.402  24.300  1.00  0.00     0.348 HD
ATOM     13  C   UNL A   1      33.092  25.570  21.808  1.00  0.00     0.062 C 
ATOM     14  C   UNL A   1      31.780  26.326  21.662  1.00  0.00     0.016 C 
BRANCH   9  15
ATOM     15  C   UNL A   1      31.471  22.739  23.781  1.00  0.00     0.331 C 
BRANCH  15  16
ATOM     16  C   UNL A   1      32.473  21.785  24.416  1.00  0.00     0.147 A 
ATOM     17  C   UNL A   1      33.853  18.472  24.368  1.00  0.00     0.067 C 
ATOM     18  C   UNL A   1      33.636  19.912  24.657  1.00  0.00     0.049 A 
ATOM     19  C   UNL A   1      34.533  20.799  25.219  1.00  0.00     0.090 A 
ATOM     20  N   UNL A   1      32.427  20.472  24.294  1.00  0.00    -0.240 NA
ATOM     21  S   UNL A   1      33.855  22.375  25.262  1.00  0.00    -0.121 S 
ENDBRANCH  15  16
ENDBRANCH   9  15
ENDBRANCH   7   8
ENDBRANCH   4   7
ENDBRANCH   2   3
ENDBRANCH   1   2
BRANCH   1  22
ATOM     22  C   UNL A   1      33.382  28.179  25.855  1.00  0.00     0.023 C 
BRANCH  22  23
ATOM     23  C   UNL A   1      33.448  28.510  27.341  1.00  0.00     0.116 C 
BRANCH  23  24
ATOM     24  N   UNL A   1      33.486  29.948  27.572  1.00  0.00    -0.352 N 
ATOM     25  C   UNL A   1      34.472  30.712  28.144  1.00  0.00     0.251 C 
ATOM     26  H   UNL A   1      32.687  30.444  27.276  1.00  0.00     0.163 HD
ATOM     27  O   UNL A   1      34.242  31.873  28.474  1.00  0.00    -0.269 OA
BRANCH  25  28
ATOM     28  C   UNL A   1      35.804  30.119  28.369  1.00  0.00     0.039 A 
ATOM     29  C   UNL A   1      36.726  30.085  27.321  1.00  0.00     0.014 A 
ATOM     30  C   UNL A   1      36.145  29.627  29.631  1.00  0.00     0.014 A 
ATOM     31  C   UNL A   1      38.024  29.632  27.563  1.00  0.00     0.010 A 
ATOM     32  C   UNL A   1      37.456  29.249  29.889  1.00  0.00     0.010 A 
ATOM     33  C   UNL A   1      38.410  29.257  28.860  1.00  0.00    -0.014 A 
BRANCH  33  34
ATOM     34  C   UNL A   1      39.812  28.898  29.185  1.00  0.00     0.031 A 
ATOM     35  C   UNL A   1      40.738  29.934  29.760  1.00  0.00     0.074 A 
ATOM     36  C   UNL A   1      40.274  27.674  28.862  1.00  0.00     0.049 A 
ATOM     37  N   UNL A   1      42.023  29.856  29.986  1.00  0.00    -0.248 NA
ATOM     38  C   UNL A   1      40.148  31.242  30.094  1.00  0.00     0.031 C 
ATOM     39  C   UNL A   1      39.483  26.600  28.255  1.00  0.00     0.029 A 
ATOM     40  N   UNL A   1      41.529  27.132  28.977  1.00  0.00    -0.354 N 
ATOM     41  C   UNL A   1      42.400  31.105  30.462  1.00  0.00     0.074 A 
ATOM     42  C   UNL A   1      41.218  31.937  30.453  1.00  0.00     0.031 C 
ATOM     43  C   UNL A   1      40.266  25.527  28.068  1.00  0.00     0.029 A 
ATOM     44  C   UNL A   1      41.623  25.848  28.495  1.00  0.00     0.049 A 
ATOM     45  H   UNL A   1      42.292  27.617  29.369  1.00  0.00     0.167 HD
ATOM     46  C   UNL A   1      43.619  31.517  30.884  1.00  0.00     0.031 A 
ATOM     47  C   UNL A   1      42.686  25.027  28.391  1.00  0.00     0.031 A 
ATOM     48  C   UNL A   1      44.786  30.677  30.908  1.00  0.00     0.049 A 
ATOM     49  C   UNL A   1      44.031  25.510  28.856  1.00  0.00     0.074 A 
ATOM     50  C   UNL A   1      46.049  30.974  31.389  1.00  0.00     0.029 A 
ATOM     51  N   UNL A   1      44.834  29.377  30.429  1.00  0.00    -0.354 N 
ATOM     52  N   UNL A   1      44.352  26.671  29.376  1.00  0.00    -0.248 NA
ATOM     53  C   UNL A   1      45.157  24.575  28.723  1.00  0.00     0.031 C 
ATOM     54  C   UNL A   1      46.874  29.870  31.153  1.00  0.00     0.029 A 
ATOM     55  C   UNL A   1      46.113  28.869  30.571  1.00  0.00     0.049 A 
ATOM     56  H   UNL A   1      44.071  28.888  30.043  1.00  0.00     0.167 HD
ATOM     57  C   UNL A   1      45.714  26.602  29.643  1.00  0.00     0.074 A 
ATOM     58  C   UNL A   1      46.151  25.279  29.247  1.00  0.00     0.031 C 
ATOM     59  C   UNL A   1      46.530  27.550  30.165  1.00  0.00     0.031 A 
BRANCH  46  60
ATOM     60  C   UNL A   1      43.750  32.942  31.351  1.00  0.00    -0.014 A 
ATOM     61  C   UNL A   1      43.607  33.276  32.710  1.00  0.00     0.010 A 
ATOM     62  C   UNL A   1      44.063  33.955  30.426  1.00  0.00     0.010 A 
ATOM     63  C   UNL A   1      43.732  34.602  33.129  1.00  0.00     0.020 A 
ATOM     64  C   UNL A   1      44.216  35.279  30.846  1.00  0.00     0.020 A 
ATOM     65  C   UNL A   1      44.033  35.598  32.194  1.00  0.00     0.054 A 
BRANCH  65  66
ATOM     66  S   UNL A   1      44.215  37.307  32.772  1.00  0.00     0.124 S 
ATOM     67  O   UNL A   1      43.195  37.381  33.815  1.00  0.00    -0.237 OA
ATOM     68  O   UNL A   1      45.597  37.341  33.244  1.00  0.00    -0.237 OA
ATOM     69  O   UNL A   1      43.947  38.107  31.580  1.00  0.00    -0.744 OA
ENDBRANCH  65  66
ENDBRANCH  46  60
BRANCH  47  70
ATOM     70  C   UNL A   1      42.518  23.663  27.816  1.00  0.00    -0.014 A 
ATOM     71  C   UNL A   1      42.713  23.442  26.442  1.00  0.00     0.010 A 
ATOM     72  C   UNL A   1      42.183  22.576  28.644  1.00  0.00     0.010 A 
ATOM     73  C   UNL A   1      42.561  22.160  25.903  1.00  0.00     0.020 A 
ATOM     74  C   UNL A   1      42.056  21.289  28.113  1.00  0.00     0.020 A 
ATOM     75  C   UNL A   1      42.235  21.091  26.742  1.00  0.00     0.054 A 
BRANCH  75  76
ATOM     76  S   UNL A   1      42.097  19.428  26.030  1.00  0.00     0.124 S 
ATOM     77  O   UNL A   1      40.664  19.325  25.777  1.00  0.00    -0.237 OA
ATOM     78  O   UNL A   1      42.944  19.521  24.844  1.00  0.00    -0.237 OA
ATOM     79  O   UNL A   1      42.613  18.561  27.087  1.00  0.00    -0.744 OA
ENDBRANCH  75  76
ENDBRANCH  47  70
BRANCH  59  80
ATOM     80  C   UNL A   1      47.979  27.192  30.349  1.00  0.00    -0.014 A 
ATOM     81  C   UNL A   1      48.917  27.444  29.333  1.00  0.00     0.010 A 
ATOM     82  C   UNL A   1      48.417  26.669  31.578  1.00  0.00     0.010 A 
ATOM     83  C   UNL A   1      50.270  27.166  29.539  1.00  0.00     0.020 A 
ATOM     84  C   UNL A   1      49.773  26.412  31.797  1.00  0.00     0.020 A 
ATOM     85  C   UNL A   1      50.690  26.654  30.772  1.00  0.00     0.054 A 
BRANCH  85  86
ATOM     86  S   UNL A   1      52.461  26.366  31.038  1.00  0.00     0.124 S 
ATOM     87  O   UNL A   1      52.824  27.489  31.898  1.00  0.00    -0.237 OA
ATOM     88  O   UNL A   1      52.479  25.053  31.678  1.00  0.00    -0.237 OA
ATOM     89  O   UNL A   1      53.025  26.405  29.691  1.00  0.00    -0.744 OA
ENDBRANCH  85  86
ENDBRANCH  59  80
ENDBRANCH  33  34
ENDBRANCH  25  28
ENDBRANCH  23  24
ENDBRANCH  22  23
ENDBRANCH   1  22
TORSDOF 17
ENDMDL
MODEL 2
REMARK VINA RESULT:     -10.3      1.550      2.902
REMARK SMILES Cc1csc(C[N@H+]2CCC[C@@H](CC(=O)NCCCCNC(=O)c3ccc(-c4c5nc(c(-c6ccc(S(=O)(=O)[O-])cc6)c6ccc([nH]6)c(-c6ccc(S(=O)(=O)[O-])cc6)c6nc(c(-c7ccc(S(=O)(=O)[O-])cc7)c7ccc4[nH]7)C=C6)C=C5)cc3)C2)n1
REMARK SMILES IDX 17 1 16 2 15 3 13 4 14 5 12 7 11 8 7 9 8 10 83 11 9 13 10 14
REMARK SMILES IDX 6 15 5 16 1 17 2 18 3 19 84 20 4 21 18 22 19 23 20 24 21 25
REMARK SMILES IDX 22 27 23 28 24 29 82 30 25 31 81 32 26 33 27 34 28 35 75 36
REMARK SMILES IDX 29 37 80 38 74 39 76 40 30 41 79 42 73 43 72 44 31 46 61 47
REMARK SMILES IDX 42 48 60 49 43 50 46 51 59 52 77 53 44 54 45 55 58 57 78 58
REMARK SMILES IDX 47 59 32 60 33 61 41 62 34 63 40 64 35 65 36 66 37 67 38 68
REMARK SMILES IDX 39 69 62 70 63 71 71 72 64 73 70 74 65 75 66 76 67 77 68 78
REMARK SMILES IDX 69 79 48 80 49 81 57 82 50 83 56 84 51 85 52 86 53 87 54 88
REMARK SMILES IDX 55 89
REMARK H PARENT 15 6 7 12 20 26 76 45 46 56
REMARK Flexibility Score: inf
ROOT
ATOM      1  C   UNL A   1      31.402  27.881  26.427  1.00  0.00     0.023 C 
ENDROOT
BRANCH   1   2
ATOM      2  C   UNL A   1      30.793  26.480  26.334  1.00  0.00     0.116 C 
BRANCH   2   3
ATOM      3  N   UNL A   1      31.660  25.433  26.842  1.00  0.00    -0.356 N 
ATOM      4  C   UNL A   1      31.671  24.098  26.573  1.00  0.00     0.220 C 
ATOM      5  O   UNL A   1      32.542  23.397  27.087  1.00  0.00    -0.275 OA
ATOM      6  H   UNL A   1      32.346  25.734  27.481  1.00  0.00     0.163 HD
BRANCH   4   7
ATOM      7  C   UNL A   1      30.634  23.499  25.649  1.00  0.00     0.109 C 
BRANCH   7   8
ATOM      8  C   UNL A   1      31.114  23.152  24.227  1.00  0.00     0.054 C 
ATOM      9  N   UNL A   1      32.207  24.210  22.175  1.00  0.00    -0.329 N 
ATOM     10  C   UNL A   1      32.977  22.970  21.976  1.00  0.00     0.262 C 
ATOM     11  C   UNL A   1      31.670  24.415  23.534  1.00  0.00     0.266 C 
ATOM     12  H   UNL A   1      31.380  24.107  21.587  1.00  0.00     0.348 HD
ATOM     13  C   UNL A   1      32.404  21.749  22.681  1.00  0.00     0.062 C 
ATOM     14  C   UNL A   1      32.205  22.081  24.152  1.00  0.00     0.016 C 
BRANCH   9  15
ATOM     15  C   UNL A   1      33.016  25.393  21.738  1.00  0.00     0.331 C 
BRANCH  15  16
ATOM     16  C   UNL A   1      32.383  26.745  22.036  1.00  0.00     0.147 A 
ATOM     17  C   UNL A   1      29.328  28.504  22.709  1.00  0.00     0.067 C 
ATOM     18  C   UNL A   1      30.767  28.168  22.567  1.00  0.00     0.049 A 
ATOM     19  C   UNL A   1      31.845  28.862  23.080  1.00  0.00     0.090 A 
ATOM     20  N   UNL A   1      31.100  27.012  21.889  1.00  0.00    -0.240 NA
ATOM     21  S   UNL A   1      33.304  28.028  22.730  1.00  0.00    -0.121 S 
ENDBRANCH  15  16
ENDBRANCH   9  15
ENDBRANCH   7   8
ENDBRANCH   4   7
ENDBRANCH   2   3
ENDBRANCH   1   2
BRANCH   1  22
ATOM     22  C   UNL A   1      32.774  27.948  27.101  1.00  0.00     0.023 C 
BRANCH  22  23
ATOM     23  C   UNL A   1      33.736  28.931  26.447  1.00  0.00     0.116 C 
BRANCH  23  24
ATOM     24  N   UNL A   1      33.640  30.258  27.041  1.00  0.00    -0.352 N 
ATOM     25  C   UNL A   1      34.468  30.866  27.952  1.00  0.00     0.251 C 
ATOM     26  H   UNL A   1      32.869  30.797  26.748  1.00  0.00     0.163 HD
ATOM     27  O   UNL A   1      34.111  31.894  28.522  1.00  0.00    -0.269 OA
BRANCH  25  28
ATOM     28  C   UNL A   1      35.782  30.265  28.245  1.00  0.00     0.039 A 
ATOM     29  C   UNL A   1      36.759  30.230  27.248  1.00  0.00     0.014 A 
ATOM     30  C   UNL A   1      36.052  29.765  29.521  1.00  0.00     0.014 A 
ATOM     31  C   UNL A   1      38.040  29.768  27.558  1.00  0.00     0.010 A 
ATOM     32  C   UNL A   1      37.345  29.378  29.848  1.00  0.00     0.010 A 
ATOM     33  C   UNL A   1      38.353  29.385  28.872  1.00  0.00    -0.014 A 
BRANCH  33  34
ATOM     34  C   UNL A   1      39.734  29.017  29.271  1.00  0.00     0.031 A 
ATOM     35  C   UNL A   1      40.625  30.038  29.921  1.00  0.00     0.074 A 
ATOM     36  C   UNL A   1      40.214  27.799  28.949  1.00  0.00     0.049 A 
ATOM     37  N   UNL A   1      41.895  29.952  30.220  1.00  0.00    -0.248 NA
ATOM     38  C   UNL A   1      40.017  31.340  30.248  1.00  0.00     0.031 C 
ATOM     39  C   UNL A   1      39.459  26.740  28.273  1.00  0.00     0.029 A 
ATOM     40  N   UNL A   1      41.459  27.253  29.125  1.00  0.00    -0.354 N 
ATOM     41  C   UNL A   1      42.244  31.190  30.745  1.00  0.00     0.074 A 
ATOM     42  C   UNL A   1      41.064  32.025  30.685  1.00  0.00     0.031 C 
ATOM     43  C   UNL A   1      40.251  25.670  28.108  1.00  0.00     0.029 A 
ATOM     44  C   UNL A   1      41.580  25.979  28.621  1.00  0.00     0.049 A 
ATOM     45  H   UNL A   1      42.198  27.727  29.571  1.00  0.00     0.167 HD
ATOM     46  C   UNL A   1      43.437  31.591  31.246  1.00  0.00     0.031 A 
ATOM     47  C   UNL A   1      42.647  25.158  28.561  1.00  0.00     0.031 A 
ATOM     48  C   UNL A   1      44.599  30.749  31.320  1.00  0.00     0.049 A 
ATOM     49  C   UNL A   1      43.963  25.629  29.115  1.00  0.00     0.074 A 
ATOM     50  C   UNL A   1      45.832  31.032  31.880  1.00  0.00     0.029 A 
ATOM     51  N   UNL A   1      44.675  29.459  30.816  1.00  0.00    -0.354 N 
ATOM     52  N   UNL A   1      44.253  26.777  29.678  1.00  0.00    -0.248 NA
ATOM     53  C   UNL A   1      45.094  24.695  29.027  1.00  0.00     0.031 C 
ATOM     54  C   UNL A   1      46.669  29.932  31.668  1.00  0.00     0.029 A 
ATOM     55  C   UNL A   1      45.943  28.945  31.022  1.00  0.00     0.049 A 
ATOM     56  H   UNL A   1      43.936  28.980  30.375  1.00  0.00     0.167 HD
ATOM     57  C   UNL A   1      45.597  26.700  30.023  1.00  0.00     0.074 A 
ATOM     58  C   UNL A   1      46.056  25.385  29.624  1.00  0.00     0.031 C 
ATOM     59  C   UNL A   1      46.382  27.635  30.612  1.00  0.00     0.031 A 
BRANCH  46  60
ATOM     60  C   UNL A   1      43.541  33.005  31.751  1.00  0.00    -0.014 A 
ATOM     61  C   UNL A   1      43.133  33.342  33.054  1.00  0.00     0.010 A 
ATOM     62  C   UNL A   1      44.093  34.003  30.927  1.00  0.00     0.010 A 
ATOM     63  C   UNL A   1      43.237  34.658  33.510  1.00  0.00     0.020 A 
ATOM     64  C   UNL A   1      44.224  35.315  31.389  1.00  0.00     0.020 A 
ATOM     65  C   UNL A   1      43.779  35.639  32.674  1.00  0.00     0.054 A 
BRANCH  65  66
ATOM     66  S   UNL A   1      43.925  37.334  33.302  1.00  0.00     0.124 S 
ATOM     67  O   UNL A   1      45.259  37.319  33.897  1.00  0.00    -0.237 OA
ATOM     68  O   UNL A   1      43.787  38.138  32.090  1.00  0.00    -0.237 OA
ATOM     69  O   UNL A   1      42.820  37.448  34.250  1.00  0.00    -0.744 OA
ENDBRANCH  65  66
ENDBRANCH  46  60
BRANCH  47  70
ATOM     70  C   UNL A   1      42.513  23.808  27.949  1.00  0.00    -0.014 A 
ATOM     71  C   UNL A   1      42.754  23.623  26.577  1.00  0.00     0.010 A 
ATOM     72  C   UNL A   1      42.163  22.697  28.738  1.00  0.00     0.010 A 
ATOM     73  C   UNL A   1      42.633  22.353  26.001  1.00  0.00     0.020 A 
ATOM     74  C   UNL A   1      42.066  21.422  28.172  1.00  0.00     0.020 A 
ATOM     75  C   UNL A   1      42.291  21.261  26.803  1.00  0.00     0.054 A 
BRANCH  75  76
ATOM     76  S   UNL A   1      42.194  19.615  26.046  1.00  0.00     0.124 S 
ATOM     77  O   UNL A   1      40.779  19.521  25.704  1.00  0.00    -0.237 OA
ATOM     78  O   UNL A   1      43.112  19.732  24.916  1.00  0.00    -0.237 OA
ATOM     79  O   UNL A   1      42.643  18.722  27.113  1.00  0.00    -0.744 OA
ENDBRANCH  75  76
ENDBRANCH  47  70
BRANCH  59  80
ATOM     80  C   UNL A   1      47.817  27.270  30.873  1.00  0.00    -0.014 A 
ATOM     81  C   UNL A   1      48.185  26.589  32.046  1.00  0.00     0.010 A 
ATOM     82  C   UNL A   1      48.794  27.542  29.899  1.00  0.00     0.010 A 
ATOM     83  C   UNL A   1      49.511  26.199  32.248  1.00  0.00     0.020 A 
ATOM     84  C   UNL A   1      50.116  27.132  30.086  1.00  0.00     0.020 A 
ATOM     85  C   UNL A   1      50.468  26.470  31.265  1.00  0.00     0.054 A 
BRANCH  85  86
ATOM     86  S   UNL A   1      52.168  25.892  31.520  1.00  0.00     0.124 S 
ATOM     87  O   UNL A   1      52.677  26.865  32.483  1.00  0.00    -0.237 OA
ATOM     88  O   UNL A   1      51.972  24.539  32.037  1.00  0.00    -0.237 OA
ATOM     89  O   UNL A   1      52.762  25.963  30.187  1.00  0.00    -0.744 OA
ENDBRANCH  85  86
ENDBRANCH  59  80
ENDBRANCH  33  34
ENDBRANCH  25  28
ENDBRANCH  23  24
ENDBRANCH  22  23
ENDBRANCH   1  22
TORSDOF 17
ENDMDL
MODEL 3
REMARK VINA RESULT:     -10.2      3.054      7.739
REMARK SMILES Cc1csc(C[N@H+]2CCC[C@@H](CC(=O)NCCCCNC(=O)c3ccc(-c4c5nc(c(-c6ccc(S(=O)(=O)[O-])cc6)c6ccc([nH]6)c(-c6ccc(S(=O)(=O)[O-])cc6)c6nc(c(-c7ccc(S(=O)(=O)[O-])cc7)c7ccc4[nH]7)C=C6)C=C5)cc3)C2)n1
REMARK SMILES IDX 17 1 16 2 15 3 13 4 14 5 12 7 11 8 7 9 8 10 83 11 9 13 10 14
REMARK SMILES IDX 6 15 5 16 1 17 2 18 3 19 84 20 4 21 18 22 19 23 20 24 21 25
REMARK SMILES IDX 22 27 23 28 24 29 82 30 25 31 81 32 26 33 27 34 28 35 75 36
REMARK SMILES IDX 29 37 80 38 74 39 76 40 30 41 79 42 73 43 72 44 31 46 61 47
REMARK SMILES IDX 42 48 60 49 43 50 46 51 59 52 77 53 44 54 45 55 58 57 78 58
REMARK SMILES IDX 47 59 32 60 33 61 41 62 34 63 40 64 35 65 36 66 37 67 38 68
REMARK SMILES IDX 39 69 62 70 63 71 71 72 64 73 70 74 65 75 66 76 67 77 68 78
REMARK SMILES IDX 69 79 48 80 49 81 57 82 50 83 56 84 51 85 52 86 53 87 54 88
REMARK SMILES IDX 55 89
REMARK H PARENT 15 6 7 12 20 26 76 45 46 56
REMARK Flexibility Score: inf
ROOT
ATOM      1  C   UNL A   1      34.492  22.868  26.761  1.00  0.00     0.023 C 
ENDROOT
BRANCH   1   2
ATOM      2  C   UNL A   1      33.362  21.836  26.811  1.00  0.00     0.116 C 
BRANCH   2   3
ATOM      3  N   UNL A   1      32.140  22.339  27.412  1.00  0.00    -0.356 N 
ATOM      4  C   UNL A   1      31.062  22.936  26.833  1.00  0.00     0.220 C 
ATOM      5  O   UNL A   1      30.102  23.240  27.541  1.00  0.00    -0.275 OA
ATOM      6  H   UNL A   1      32.083  22.232  28.388  1.00  0.00     0.163 HD
BRANCH   4   7
ATOM      7  C   UNL A   1      31.049  23.209  25.345  1.00  0.00     0.109 C 
BRANCH   7   8
ATOM      8  C   UNL A   1      30.799  24.671  24.929  1.00  0.00     0.054 C 
ATOM      9  N   UNL A   1      31.944  26.954  24.861  1.00  0.00    -0.329 N 
ATOM     10  C   UNL A   1      31.295  27.213  23.565  1.00  0.00     0.262 C 
ATOM     11  C   UNL A   1      32.038  25.533  25.253  1.00  0.00     0.266 C 
ATOM     12  H   UNL A   1      31.325  27.370  25.557  1.00  0.00     0.348 HD
ATOM     13  C   UNL A   1      30.084  26.339  23.276  1.00  0.00     0.062 C 
ATOM     14  C   UNL A   1      30.481  24.880  23.446  1.00  0.00     0.016 C 
BRANCH   9  15
ATOM     15  C   UNL A   1      33.291  27.607  24.902  1.00  0.00     0.331 C 
BRANCH  15  16
ATOM     16  C   UNL A   1      33.470  28.635  26.010  1.00  0.00     0.147 A 
ATOM     17  C   UNL A   1      35.755  30.088  28.365  1.00  0.00     0.067 C 
ATOM     18  C   UNL A   1      34.562  29.842  27.516  1.00  0.00     0.049 A 
ATOM     19  C   UNL A   1      33.539  30.724  27.232  1.00  0.00     0.090 A 
ATOM     20  N   UNL A   1      34.456  28.617  26.886  1.00  0.00    -0.240 NA
ATOM     21  S   UNL A   1      32.436  30.011  26.126  1.00  0.00    -0.121 S 
ENDBRANCH  15  16
ENDBRANCH   9  15
ENDBRANCH   7   8
ENDBRANCH   4   7
ENDBRANCH   2   3
ENDBRANCH   1   2
BRANCH   1  22
ATOM     22  C   UNL A   1      35.483  22.688  25.609  1.00  0.00     0.023 C 
BRANCH  22  23
ATOM     23  C   UNL A   1      36.868  23.257  25.891  1.00  0.00     0.116 C 
BRANCH  23  24
ATOM     24  N   UNL A   1      37.879  22.210  25.953  1.00  0.00    -0.352 N 
ATOM     25  C   UNL A   1      39.212  22.304  26.265  1.00  0.00     0.251 C 
ATOM     26  H   UNL A   1      37.560  21.303  25.738  1.00  0.00     0.163 HD
ATOM     27  O   UNL A   1      39.968  21.363  26.041  1.00  0.00    -0.269 OA
BRANCH  25  28
ATOM     28  C   UNL A   1      39.726  23.552  26.862  1.00  0.00     0.039 A 
ATOM     29  C   UNL A   1      40.367  23.507  28.101  1.00  0.00     0.014 A 
ATOM     30  C   UNL A   1      39.598  24.759  26.172  1.00  0.00     0.014 A 
ATOM     31  C   UNL A   1      40.955  24.666  28.612  1.00  0.00     0.010 A 
ATOM     32  C   UNL A   1      40.249  25.892  26.643  1.00  0.00     0.010 A 
ATOM     33  C   UNL A   1      40.942  25.853  27.863  1.00  0.00    -0.014 A 
BRANCH  33  34
ATOM     34  C   UNL A   1      41.669  27.067  28.308  1.00  0.00     0.031 A 
ATOM     35  C   UNL A   1      40.906  28.242  28.854  1.00  0.00     0.074 A 
ATOM     36  C   UNL A   1      43.001  27.147  28.119  1.00  0.00     0.049 A 
ATOM     37  N   UNL A   1      41.343  29.433  29.169  1.00  0.00    -0.248 NA
ATOM     38  C   UNL A   1      39.455  28.065  29.038  1.00  0.00     0.031 C 
ATOM     39  C   UNL A   1      43.844  26.090  27.553  1.00  0.00     0.029 A 
ATOM     40  N   UNL A   1      43.879  28.173  28.361  1.00  0.00    -0.354 N 
ATOM     41  C   UNL A   1      40.223  30.154  29.563  1.00  0.00     0.074 A 
ATOM     42  C   UNL A   1      39.080  29.281  29.407  1.00  0.00     0.031 C 
ATOM     43  C   UNL A   1      45.116  26.516  27.508  1.00  0.00     0.029 A 
ATOM     44  C   UNL A   1      45.174  27.889  27.995  1.00  0.00     0.049 A 
ATOM     45  H   UNL A   1      43.609  29.032  28.760  1.00  0.00     0.167 HD
ATOM     46  C   UNL A   1      40.154  31.424  30.028  1.00  0.00     0.031 A 
ATOM     47  C   UNL A   1      46.282  28.655  28.029  1.00  0.00     0.031 A 
ATOM     48  C   UNL A   1      41.297  32.278  30.199  1.00  0.00     0.049 A 
ATOM     49  C   UNL A   1      46.179  30.066  28.540  1.00  0.00     0.074 A 
ATOM     50  C   UNL A   1      41.346  33.552  30.735  1.00  0.00     0.029 A 
ATOM     51  N   UNL A   1      42.594  31.947  29.833  1.00  0.00    -0.354 N 
ATOM     52  N   UNL A   1      45.122  30.704  28.980  1.00  0.00    -0.248 NA
ATOM     53  C   UNL A   1      47.417  30.858  28.559  1.00  0.00     0.031 C 
ATOM     54  C   UNL A   1      42.664  34.011  30.645  1.00  0.00     0.029 A 
ATOM     55  C   UNL A   1      43.444  33.005  30.101  1.00  0.00     0.049 A 
ATOM     56  H   UNL A   1      42.868  31.086  29.440  1.00  0.00     0.167 HD
ATOM     57  C   UNL A   1      45.568  31.970  29.341  1.00  0.00     0.074 A 
ATOM     58  C   UNL A   1      46.994  31.999  29.087  1.00  0.00     0.031 C 
ATOM     59  C   UNL A   1      44.861  33.015  29.834  1.00  0.00     0.031 A 
BRANCH  46  60
ATOM     60  C   UNL A   1      38.795  31.964  30.382  1.00  0.00    -0.014 A 
ATOM     61  C   UNL A   1      38.209  31.692  31.632  1.00  0.00     0.010 A 
ATOM     62  C   UNL A   1      38.111  32.790  29.471  1.00  0.00     0.010 A 
ATOM     63  C   UNL A   1      36.947  32.201  31.947  1.00  0.00     0.020 A 
ATOM     64  C   UNL A   1      36.860  33.323  29.794  1.00  0.00     0.020 A 
ATOM     65  C   UNL A   1      36.278  33.012  31.025  1.00  0.00     0.054 A 
BRANCH  65  66
ATOM     66  S   UNL A   1      34.652  33.680  31.473  1.00  0.00     0.124 S 
ATOM     67  O   UNL A   1      35.016  34.918  32.157  1.00  0.00    -0.237 OA
ATOM     68  O   UNL A   1      34.006  33.847  30.174  1.00  0.00    -0.237 OA
ATOM     69  O   UNL A   1      34.074  32.643  32.324  1.00  0.00    -0.744 OA
ENDBRANCH  65  66
ENDBRANCH  46  60
BRANCH  47  70
ATOM     70  C   UNL A   1      47.583  28.103  27.561  1.00  0.00    -0.014 A 
ATOM     71  C   UNL A   1      48.443  27.451  28.460  1.00  0.00     0.010 A 
ATOM     72  C   UNL A   1      47.958  28.209  26.209  1.00  0.00     0.010 A 
ATOM     73  C   UNL A   1      49.663  26.927  28.020  1.00  0.00     0.020 A 
ATOM     74  C   UNL A   1      49.165  27.664  25.760  1.00  0.00     0.020 A 
ATOM     75  C   UNL A   1      50.016  27.036  26.672  1.00  0.00     0.054 A 
BRANCH  75  76
ATOM     76  S   UNL A   1      51.578  26.301  26.113  1.00  0.00     0.124 S 
ATOM     77  O   UNL A   1      51.462  24.932  26.606  1.00  0.00    -0.237 OA
ATOM     78  O   UNL A   1      51.502  26.461  24.664  1.00  0.00    -0.237 OA
ATOM     79  O   UNL A   1      52.594  27.121  26.769  1.00  0.00    -0.744 OA
ENDBRANCH  75  76
ENDBRANCH  47  70
BRANCH  59  80
ATOM     80  C   UNL A   1      45.616  34.279  30.142  1.00  0.00    -0.014 A 
ATOM     81  C   UNL A   1      46.241  34.458  31.388  1.00  0.00     0.010 A 
ATOM     82  C   UNL A   1      45.767  35.262  29.148  1.00  0.00     0.010 A 
ATOM     83  C   UNL A   1      46.993  35.608  31.640  1.00  0.00     0.020 A 
ATOM     84  C   UNL A   1      46.538  36.401  29.387  1.00  0.00     0.020 A 
ATOM     85  C   UNL A   1      47.140  36.571  30.637  1.00  0.00     0.054 A 
BRANCH  85  86
ATOM     86  S   UNL A   1      48.178  38.021  30.965  1.00  0.00     0.124 S 
ATOM     87  O   UNL A   1      49.088  38.007  29.823  1.00  0.00    -0.237 OA
ATOM     88  O   UNL A   1      47.207  39.114  30.982  1.00  0.00    -0.237 OA
ATOM     89  O   UNL A   1      48.793  37.722  32.256  1.00  0.00    -0.744 OA
ENDBRANCH  85  86
ENDBRANCH  59  80
ENDBRANCH  33  34
ENDBRANCH  25  28
ENDBRANCH  23  24
ENDBRANCH  22  23
ENDBRANCH   1  22
TORSDOF 17
ENDMDL
