MODEL 1
REMARK VINA RESULT:      -9.7      0.000      0.000
REMARK SMILES N#CNC(=O)[C@H]1C[C@@H]1C(=O)NCCCCNC(=O)c1ccc(-c2c3nc(c(-c4ccc(S(=O)(=O)[O-])cc4)c4ccc([nH]4)c(-c4ccc(S(=O)(=O)[O-])cc4)c4nc(c(-c5ccc(S(=O)(=O)[O-])cc5)c5ccc2[nH]5)C=C4)C=C3)cc1
REMARK SMILES IDX 14 1 13 2 12 3 11 4 9 5 10 6 8 8 6 9 7 10 4 11 3 12 5 14
REMARK SMILES IDX 2 15 1 16 15 17 16 18 17 19 18 21 19 22 20 23 78 24 21 25
REMARK SMILES IDX 77 26 22 27 23 28 24 29 71 30 25 31 76 32 70 33 72 34 26 35
REMARK SMILES IDX 75 36 69 37 68 38 27 40 57 41 38 42 56 43 39 44 42 45 55 46
REMARK SMILES IDX 73 47 40 48 41 49 54 51 74 52 43 53 28 54 29 55 37 56 30 57
REMARK SMILES IDX 36 58 31 59 32 60 33 61 34 62 35 63 58 64 59 65 67 66 60 67
REMARK SMILES IDX 66 68 61 69 62 70 63 71 64 72 65 73 44 74 45 75 53 76 46 77
REMARK SMILES IDX 52 78 47 79 48 80 49 81 50 82 51 83
REMARK H PARENT 11 7 3 13 16 20 72 39 42 50
REMARK Flexibility Score: inf
ROOT
ATOM      1  C   UNL A   1      32.595  28.377  26.027  1.00  0.00     0.023 C 
ENDROOT
BRANCH   1   2
ATOM      2  C   UNL A   1      31.982  29.622  25.400  1.00  0.00     0.023 C 
BRANCH   2   3
ATOM      3  C   UNL A   1      30.823  29.375  24.446  1.00  0.00     0.116 C 
BRANCH   3   4
ATOM      4  N   UNL A   1      31.203  28.722  23.209  1.00  0.00    -0.356 N 
ATOM      5  C   UNL A   1      30.864  27.469  22.774  1.00  0.00     0.223 C 
ATOM      6  O   UNL A   1      31.229  27.067  21.675  1.00  0.00    -0.275 OA
ATOM      7  H   UNL A   1      31.776  29.247  22.605  1.00  0.00     0.163 HD
BRANCH   5   8
ATOM      8  C   UNL A   1      30.080  26.565  23.656  1.00  0.00     0.092 C 
ATOM      9  C   UNL A   1      30.831  25.573  24.528  1.00  0.00     0.093 C 
ATOM     10  C   UNL A   1      29.961  25.074  23.418  1.00  0.00     0.028 C 
BRANCH   9  11
ATOM     11  C   UNL A   1      30.558  25.375  25.973  1.00  0.00     0.236 C 
ATOM     12  N   UNL A   1      30.596  24.144  26.565  1.00  0.00    -0.262 N 
ATOM     13  H   UNL A   1      30.446  24.198  27.536  1.00  0.00     0.182 HD
ATOM     14  O   UNL A   1      30.334  26.358  26.673  1.00  0.00    -0.274 OA
BRANCH  12  15
ATOM     15  C   UNL A   1      30.785  22.890  26.154  1.00  0.00     0.183 C 
ATOM     16  N   UNL A   1      30.979  21.802  25.804  1.00  0.00    -0.172 NA
ENDBRANCH  12  15
ENDBRANCH   9  11
ENDBRANCH   5   8
ENDBRANCH   3   4
ENDBRANCH   2   3
ENDBRANCH   1   2
BRANCH   1  17
ATOM     17  C   UNL A   1      33.633  28.639  27.110  1.00  0.00     0.116 C 
BRANCH  17  18
ATOM     18  N   UNL A   1      33.625  30.015  27.592  1.00  0.00    -0.352 N 
ATOM     19  C   UNL A   1      34.608  30.709  28.259  1.00  0.00     0.251 C 
ATOM     20  H   UNL A   1      32.797  30.518  27.415  1.00  0.00     0.163 HD
ATOM     21  O   UNL A   1      34.373  31.820  28.724  1.00  0.00    -0.269 OA
BRANCH  19  22
ATOM     22  C   UNL A   1      35.937  30.088  28.441  1.00  0.00     0.039 A 
ATOM     23  C   UNL A   1      36.848  30.102  27.383  1.00  0.00     0.014 A 
ATOM     24  C   UNL A   1      36.299  29.548  29.677  1.00  0.00     0.014 A 
ATOM     25  C   UNL A   1      38.154  29.657  27.595  1.00  0.00     0.010 A 
ATOM     26  C   UNL A   1      37.624  29.200  29.913  1.00  0.00     0.010 A 
ATOM     27  C   UNL A   1      38.568  29.251  28.876  1.00  0.00    -0.014 A 
BRANCH  27  28
ATOM     28  C   UNL A   1      39.981  28.887  29.158  1.00  0.00     0.031 A 
ATOM     29  C   UNL A   1      40.922  29.912  29.734  1.00  0.00     0.074 A 
ATOM     30  C   UNL A   1      40.437  27.662  28.828  1.00  0.00     0.049 A 
ATOM     31  N   UNL A   1      42.203  29.809  29.977  1.00  0.00    -0.248 NA
ATOM     32  C   UNL A   1      40.356  31.232  30.054  1.00  0.00     0.031 C 
ATOM     33  C   UNL A   1      39.635  26.591  28.230  1.00  0.00     0.029 A 
ATOM     34  N   UNL A   1      41.690  27.111  28.939  1.00  0.00    -0.354 N 
ATOM     35  C   UNL A   1      42.598  31.051  30.460  1.00  0.00     0.074 A 
ATOM     36  C   UNL A   1      41.433  31.908  30.422  1.00  0.00     0.031 C 
ATOM     37  C   UNL A   1      40.408  25.507  28.054  1.00  0.00     0.029 A 
ATOM     38  C   UNL A   1      41.771  25.819  28.470  1.00  0.00     0.049 A 
ATOM     39  H   UNL A   1      42.460  27.595  29.317  1.00  0.00     0.167 HD
ATOM     40  C   UNL A   1      43.814  31.439  30.911  1.00  0.00     0.031 A 
ATOM     41  C   UNL A   1      42.825  24.985  28.366  1.00  0.00     0.031 A 
ATOM     42  C   UNL A   1      44.969  30.581  30.942  1.00  0.00     0.049 A 
ATOM     43  C   UNL A   1      44.177  25.452  28.836  1.00  0.00     0.074 A 
ATOM     44  C   UNL A   1      46.233  30.864  31.428  1.00  0.00     0.029 A 
ATOM     45  N   UNL A   1      45.008  29.283  30.455  1.00  0.00    -0.354 N 
ATOM     46  N   UNL A   1      44.512  26.607  29.360  1.00  0.00    -0.248 NA
ATOM     47  C   UNL A   1      45.290  24.501  28.709  1.00  0.00     0.031 C 
ATOM     48  C   UNL A   1      47.057  29.766  31.164  1.00  0.00     0.029 A 
ATOM     49  C   UNL A   1      46.285  28.766  30.595  1.00  0.00     0.049 A 
ATOM     50  H   UNL A   1      44.242  28.801  30.068  1.00  0.00     0.167 HD
ATOM     51  C   UNL A   1      45.869  26.508  29.656  1.00  0.00     0.074 A 
ATOM     52  C   UNL A   1      46.286  25.178  29.265  1.00  0.00     0.031 C 
ATOM     53  C   UNL A   1      46.690  27.437  30.206  1.00  0.00     0.031 A 
BRANCH  40  54
ATOM     54  C   UNL A   1      43.963  32.861  31.389  1.00  0.00    -0.014 A 
ATOM     55  C   UNL A   1      43.751  33.209  32.736  1.00  0.00     0.010 A 
ATOM     56  C   UNL A   1      44.364  33.860  30.483  1.00  0.00     0.010 A 
ATOM     57  C   UNL A   1      43.893  34.534  33.156  1.00  0.00     0.020 A 
ATOM     58  C   UNL A   1      44.544  35.179  30.907  1.00  0.00     0.020 A 
ATOM     59  C   UNL A   1      44.290  35.511  32.238  1.00  0.00     0.054 A 
BRANCH  59  60
ATOM     60  S   UNL A   1      44.488  37.217  32.821  1.00  0.00     0.124 S 
ATOM     61  O   UNL A   1      45.879  37.223  33.269  1.00  0.00    -0.237 OA
ATOM     62  O   UNL A   1      44.215  37.996  31.616  1.00  0.00    -0.237 OA
ATOM     63  O   UNL A   1      43.493  37.341  33.882  1.00  0.00    -0.744 OA
ENDBRANCH  59  60
ENDBRANCH  40  54
BRANCH  41  64
ATOM     64  C   UNL A   1      42.644  23.624  27.786  1.00  0.00    -0.014 A 
ATOM     65  C   UNL A   1      42.773  23.406  26.404  1.00  0.00     0.010 A 
ATOM     66  C   UNL A   1      42.346  22.530  28.622  1.00  0.00     0.010 A 
ATOM     67  C   UNL A   1      42.591  22.127  25.866  1.00  0.00     0.020 A 
ATOM     68  C   UNL A   1      42.199  21.245  28.094  1.00  0.00     0.020 A 
ATOM     69  C   UNL A   1      42.311  21.054  26.716  1.00  0.00     0.054 A 
BRANCH  69  70
ATOM     70  S   UNL A   1      42.133  19.395  26.001  1.00  0.00     0.124 S 
ATOM     71  O   UNL A   1      40.700  19.332  25.734  1.00  0.00    -0.237 OA
ATOM     72  O   UNL A   1      42.995  19.469  24.825  1.00  0.00    -0.237 OA
ATOM     73  O   UNL A   1      42.612  18.512  27.062  1.00  0.00    -0.744 OA
ENDBRANCH  69  70
ENDBRANCH  41  64
BRANCH  53  74
ATOM     74  C   UNL A   1      48.121  27.041  30.468  1.00  0.00    -0.014 A 
ATOM     75  C   UNL A   1      49.136  27.272  29.523  1.00  0.00     0.010 A 
ATOM     76  C   UNL A   1      48.465  26.500  31.722  1.00  0.00     0.010 A 
ATOM     77  C   UNL A   1      50.464  26.950  29.820  1.00  0.00     0.020 A 
ATOM     78  C   UNL A   1      49.795  26.211  32.036  1.00  0.00     0.020 A 
ATOM     79  C   UNL A   1      50.785  26.430  31.078  1.00  0.00     0.054 A 
BRANCH  79  80
ATOM     80  S   UNL A   1      52.524  26.087  31.461  1.00  0.00     0.124 S 
ATOM     81  O   UNL A   1      52.447  24.763  32.073  1.00  0.00    -0.237 OA
ATOM     82  O   UNL A   1      53.154  26.134  30.144  1.00  0.00    -0.237 OA
ATOM     83  O   UNL A   1      52.902  27.170  32.366  1.00  0.00    -0.744 OA
ENDBRANCH  79  80
ENDBRANCH  53  74
ENDBRANCH  27  28
ENDBRANCH  19  22
ENDBRANCH  17  18
ENDBRANCH   1  17
TORSDOF 16
ENDMDL
MODEL 2
REMARK VINA RESULT:      -9.7      2.755      5.083
REMARK SMILES N#CNC(=O)[C@H]1C[C@@H]1C(=O)NCCCCNC(=O)c1ccc(-c2c3nc(c(-c4ccc(S(=O)(=O)[O-])cc4)c4ccc([nH]4)c(-c4ccc(S(=O)(=O)[O-])cc4)c4nc(c(-c5ccc(S(=O)(=O)[O-])cc5)c5ccc2[nH]5)C=C4)C=C3)cc1
REMARK SMILES IDX 14 1 13 2 12 3 11 4 9 5 10 6 8 8 6 9 7 10 4 11 3 12 5 14
REMARK SMILES IDX 2 15 1 16 15 17 16 18 17 19 18 21 19 22 20 23 78 24 21 25
REMARK SMILES IDX 77 26 22 27 23 28 24 29 71 30 25 31 76 32 70 33 72 34 26 35
REMARK SMILES IDX 75 36 69 37 68 38 27 40 57 41 38 42 56 43 39 44 42 45 55 46
REMARK SMILES IDX 73 47 40 48 41 49 54 51 74 52 43 53 28 54 29 55 37 56 30 57
REMARK SMILES IDX 36 58 31 59 32 60 33 61 34 62 35 63 58 64 59 65 67 66 60 67
REMARK SMILES IDX 66 68 61 69 62 70 63 71 64 72 65 73 44 74 45 75 53 76 46 77
REMARK SMILES IDX 52 78 47 79 48 80 49 81 50 82 51 83
REMARK H PARENT 11 7 3 13 16 20 72 39 42 50
REMARK Flexibility Score: inf
ROOT
ATOM      1  C   UNL A   1      33.189  33.414  27.887  1.00  0.00     0.023 C 
ENDROOT
BRANCH   1   2
ATOM      2  C   UNL A   1      33.289  34.590  28.849  1.00  0.00     0.023 C 
BRANCH   2   3
ATOM      3  C   UNL A   1      34.649  34.796  29.497  1.00  0.00     0.116 C 
BRANCH   3   4
ATOM      4  N   UNL A   1      34.590  35.140  30.902  1.00  0.00    -0.356 N 
ATOM      5  C   UNL A   1      34.969  34.381  31.978  1.00  0.00     0.223 C 
ATOM      6  O   UNL A   1      34.900  34.828  33.116  1.00  0.00    -0.275 OA
ATOM      7  H   UNL A   1      34.234  36.034  31.112  1.00  0.00     0.163 HD
BRANCH   5   8
ATOM      8  C   UNL A   1      35.432  32.983  31.771  1.00  0.00     0.092 C 
ATOM      9  C   UNL A   1      36.748  32.556  32.398  1.00  0.00     0.093 C 
ATOM     10  C   UNL A   1      36.625  32.625  30.908  1.00  0.00     0.028 C 
BRANCH   9  11
ATOM     11  C   UNL A   1      36.922  31.305  33.175  1.00  0.00     0.236 C 
ATOM     12  N   UNL A   1      37.418  31.294  34.448  1.00  0.00    -0.262 N 
ATOM     13  H   UNL A   1      37.416  30.391  34.838  1.00  0.00     0.182 HD
ATOM     14  O   UNL A   1      36.565  30.242  32.675  1.00  0.00    -0.274 OA
BRANCH  12  15
ATOM     15  C   UNL A   1      37.905  32.204  35.293  1.00  0.00     0.183 C 
ATOM     16  N   UNL A   1      38.311  33.017  36.013  1.00  0.00    -0.172 NA
ENDBRANCH  12  15
ENDBRANCH   9  11
ENDBRANCH   5   8
ENDBRANCH   3   4
ENDBRANCH   2   3
ENDBRANCH   1   2
BRANCH   1  17
ATOM     17  C   UNL A   1      34.199  32.299  28.117  1.00  0.00     0.116 C 
BRANCH  17  18
ATOM     18  N   UNL A   1      33.670  30.974  27.821  1.00  0.00    -0.352 N 
ATOM     19  C   UNL A   1      34.329  29.768  27.753  1.00  0.00     0.251 C 
ATOM     20  H   UNL A   1      32.702  30.937  27.643  1.00  0.00     0.163 HD
ATOM     21  O   UNL A   1      33.749  28.769  27.341  1.00  0.00    -0.269 OA
BRANCH  19  22
ATOM     22  C   UNL A   1      35.752  29.698  28.146  1.00  0.00     0.039 A 
ATOM     23  C   UNL A   1      36.083  29.302  29.443  1.00  0.00     0.014 A 
ATOM     24  C   UNL A   1      36.756  29.966  27.212  1.00  0.00     0.014 A 
ATOM     25  C   UNL A   1      37.423  29.086  29.775  1.00  0.00     0.010 A 
ATOM     26  C   UNL A   1      38.076  29.653  27.514  1.00  0.00     0.010 A 
ATOM     27  C   UNL A   1      38.426  29.208  28.798  1.00  0.00    -0.014 A 
BRANCH  27  28
ATOM     28  C   UNL A   1      39.843  28.867  29.091  1.00  0.00     0.031 A 
ATOM     29  C   UNL A   1      40.765  29.910  29.663  1.00  0.00     0.074 A 
ATOM     30  C   UNL A   1      40.318  27.646  28.772  1.00  0.00     0.049 A 
ATOM     31  N   UNL A   1      42.047  29.828  29.913  1.00  0.00    -0.248 NA
ATOM     32  C   UNL A   1      40.178  31.225  29.969  1.00  0.00     0.031 C 
ATOM     33  C   UNL A   1      39.535  26.559  28.179  1.00  0.00     0.029 A 
ATOM     34  N   UNL A   1      41.579  27.114  28.894  1.00  0.00    -0.354 N 
ATOM     35  C   UNL A   1      42.420  31.080  30.388  1.00  0.00     0.074 A 
ATOM     36  C   UNL A   1      41.244  31.918  30.337  1.00  0.00     0.031 C 
ATOM     37  C   UNL A   1      40.325  25.485  28.016  1.00  0.00     0.029 A 
ATOM     38  C   UNL A   1      41.681  25.820  28.436  1.00  0.00     0.049 A 
ATOM     39  H   UNL A   1      42.339  27.613  29.272  1.00  0.00     0.167 HD
ATOM     40  C   UNL A   1      43.628  31.489  30.842  1.00  0.00     0.031 A 
ATOM     41  C   UNL A   1      42.748  25.001  28.344  1.00  0.00     0.031 A 
ATOM     42  C   UNL A   1      44.795  30.649  30.885  1.00  0.00     0.049 A 
ATOM     43  C   UNL A   1      44.090  25.492  28.816  1.00  0.00     0.074 A 
ATOM     44  C   UNL A   1      46.053  30.954  31.375  1.00  0.00     0.029 A 
ATOM     45  N   UNL A   1      44.857  29.347  30.409  1.00  0.00    -0.354 N 
ATOM     46  N   UNL A   1      44.406  26.655  29.333  1.00  0.00    -0.248 NA
ATOM     47  C   UNL A   1      45.218  24.557  28.703  1.00  0.00     0.031 C 
ATOM     48  C   UNL A   1      46.894  29.866  31.124  1.00  0.00     0.029 A 
ATOM     49  C   UNL A   1      46.140  28.850  30.559  1.00  0.00     0.049 A 
ATOM     50  H   UNL A   1      44.099  28.851  30.022  1.00  0.00     0.167 HD
ATOM     51  C   UNL A   1      45.762  26.579  29.636  1.00  0.00     0.074 A 
ATOM     52  C   UNL A   1      46.201  25.253  29.259  1.00  0.00     0.031 C 
ATOM     53  C   UNL A   1      46.567  27.524  30.183  1.00  0.00     0.031 A 
BRANCH  40  54
ATOM     54  C   UNL A   1      43.754  32.917  31.309  1.00  0.00    -0.014 A 
ATOM     55  C   UNL A   1      43.537  33.271  32.653  1.00  0.00     0.010 A 
ATOM     56  C   UNL A   1      44.138  33.915  30.396  1.00  0.00     0.010 A 
ATOM     57  C   UNL A   1      43.657  34.601  33.064  1.00  0.00     0.020 A 
ATOM     58  C   UNL A   1      44.296  35.241  30.810  1.00  0.00     0.020 A 
ATOM     59  C   UNL A   1      44.037  35.578  32.139  1.00  0.00     0.054 A 
BRANCH  59  60
ATOM     60  S   UNL A   1      44.208  37.291  32.708  1.00  0.00     0.124 S 
ATOM     61  O   UNL A   1      45.572  37.300  33.233  1.00  0.00    -0.237 OA
ATOM     62  O   UNL A   1      44.004  38.055  31.480  1.00  0.00    -0.237 OA
ATOM     63  O   UNL A   1      43.155  37.432  33.710  1.00  0.00    -0.744 OA
ENDBRANCH  59  60
ENDBRANCH  40  54
BRANCH  41  64
ATOM     64  C   UNL A   1      42.589  23.632  27.774  1.00  0.00    -0.014 A 
ATOM     65  C   UNL A   1      42.916  23.368  26.433  1.00  0.00     0.010 A 
ATOM     66  C   UNL A   1      42.115  22.580  28.579  1.00  0.00     0.010 A 
ATOM     67  C   UNL A   1      42.754  22.083  25.903  1.00  0.00     0.020 A 
ATOM     68  C   UNL A   1      41.986  21.286  28.064  1.00  0.00     0.020 A 
ATOM     69  C   UNL A   1      42.297  21.050  26.724  1.00  0.00     0.054 A 
BRANCH  69  70
ATOM     70  S   UNL A   1      42.147  19.380  26.028  1.00  0.00     0.124 S 
ATOM     71  O   UNL A   1      42.679  18.553  27.105  1.00  0.00    -0.237 OA
ATOM     72  O   UNL A   1      40.710  19.269  25.793  1.00  0.00    -0.237 OA
ATOM     73  O   UNL A   1      42.966  19.439  24.820  1.00  0.00    -0.744 OA
ENDBRANCH  69  70
ENDBRANCH  41  64
BRANCH  53  74
ATOM     74  C   UNL A   1      48.002  27.152  30.455  1.00  0.00    -0.014 A 
ATOM     75  C   UNL A   1      49.027  27.440  29.537  1.00  0.00     0.010 A 
ATOM     76  C   UNL A   1      48.338  26.574  31.696  1.00  0.00     0.010 A 
ATOM     77  C   UNL A   1      50.356  27.138  29.845  1.00  0.00     0.020 A 
ATOM     78  C   UNL A   1      49.669  26.304  32.021  1.00  0.00     0.020 A 
ATOM     79  C   UNL A   1      50.669  26.580  31.089  1.00  0.00     0.054 A 
BRANCH  79  80
ATOM     80  S   UNL A   1      52.409  26.263  31.489  1.00  0.00     0.124 S 
ATOM     81  O   UNL A   1      52.726  27.375  32.382  1.00  0.00    -0.237 OA
ATOM     82  O   UNL A   1      52.355  24.946  32.120  1.00  0.00    -0.237 OA
ATOM     83  O   UNL A   1      53.078  26.299  30.190  1.00  0.00    -0.744 OA
ENDBRANCH  79  80
ENDBRANCH  53  74
ENDBRANCH  27  28
ENDBRANCH  19  22
ENDBRANCH  17  18
ENDBRANCH   1  17
TORSDOF 16
ENDMDL
MODEL 3
REMARK VINA RESULT:      -9.6      6.167     12.162
REMARK SMILES N#CNC(=O)[C@H]1C[C@@H]1C(=O)NCCCCNC(=O)c1ccc(-c2c3nc(c(-c4ccc(S(=O)(=O)[O-])cc4)c4ccc([nH]4)c(-c4ccc(S(=O)(=O)[O-])cc4)c4nc(c(-c5ccc(S(=O)(=O)[O-])cc5)c5ccc2[nH]5)C=C4)C=C3)cc1
REMARK SMILES IDX 14 1 13 2 12 3 11 4 9 5 10 6 8 8 6 9 7 10 4 11 3 12 5 14
REMARK SMILES IDX 2 15 1 16 15 17 16 18 17 19 18 21 19 22 20 23 78 24 21 25
REMARK SMILES IDX 77 26 22 27 23 28 24 29 71 30 25 31 76 32 70 33 72 34 26 35
REMARK SMILES IDX 75 36 69 37 68 38 27 40 57 41 38 42 56 43 39 44 42 45 55 46
REMARK SMILES IDX 73 47 40 48 41 49 54 51 74 52 43 53 28 54 29 55 37 56 30 57
REMARK SMILES IDX 36 58 31 59 32 60 33 61 34 62 35 63 58 64 59 65 67 66 60 67
REMARK SMILES IDX 66 68 61 69 62 70 63 71 64 72 65 73 44 74 45 75 53 76 46 77
REMARK SMILES IDX 52 78 47 79 48 80 49 81 50 82 51 83
REMARK H PARENT 11 7 3 13 16 20 72 39 42 50
REMARK Flexibility Score: inf
ROOT
ATOM      1  C   UNL A   1      39.890  22.187  26.799  1.00  0.00     0.023 C 
ENDROOT
BRANCH   1   2
ATOM      2  C   UNL A   1      40.743  21.219  27.609  1.00  0.00     0.023 C 
BRANCH   2   3
ATOM      3  C   UNL A   1      42.212  21.155  27.221  1.00  0.00     0.116 C 
BRANCH   3   4
ATOM      4  N   UNL A   1      43.107  21.758  28.186  1.00  0.00    -0.356 N 
ATOM      5  C   UNL A   1      44.085  22.692  27.968  1.00  0.00     0.223 C 
ATOM      6  O   UNL A   1      44.739  23.145  28.900  1.00  0.00    -0.275 OA
ATOM      7  H   UNL A   1      42.998  21.461  29.118  1.00  0.00     0.163 HD
BRANCH   5   8
ATOM      8  C   UNL A   1      44.390  23.135  26.581  1.00  0.00     0.092 C 
ATOM      9  C   UNL A   1      45.303  22.270  25.729  1.00  0.00     0.093 C 
ATOM     10  C   UNL A   1      45.754  23.633  26.152  1.00  0.00     0.028 C 
BRANCH   9  11
ATOM     11  C   UNL A   1      44.996  21.876  24.333  1.00  0.00     0.236 C 
ATOM     12  N   UNL A   1      44.656  20.598  23.988  1.00  0.00    -0.262 N 
ATOM     13  H   UNL A   1      44.431  20.521  23.033  1.00  0.00     0.182 HD
ATOM     14  O   UNL A   1      45.003  22.738  23.459  1.00  0.00    -0.274 OA
BRANCH  12  15
ATOM     15  C   UNL A   1      44.555  19.431  24.624  1.00  0.00     0.183 C 
ATOM     16  N   UNL A   1      44.435  18.416  25.172  1.00  0.00    -0.172 NA
ENDBRANCH  12  15
ENDBRANCH   9  11
ENDBRANCH   5   8
ENDBRANCH   3   4
ENDBRANCH   2   3
ENDBRANCH   1   2
BRANCH   1  17
ATOM     17  C   UNL A   1      40.168  23.663  27.048  1.00  0.00     0.116 C 
BRANCH  17  18
ATOM     18  N   UNL A   1      41.084  24.246  26.076  1.00  0.00    -0.352 N 
ATOM     19  C   UNL A   1      41.512  25.549  25.957  1.00  0.00     0.251 C 
ATOM     20  H   UNL A   1      41.448  23.619  25.411  1.00  0.00     0.163 HD
ATOM     21  O   UNL A   1      42.172  25.895  24.982  1.00  0.00    -0.269 OA
BRANCH  19  22
ATOM     22  C   UNL A   1      41.138  26.533  26.994  1.00  0.00     0.039 A 
ATOM     23  C   UNL A   1      40.265  26.151  28.014  1.00  0.00     0.014 A 
ATOM     24  C   UNL A   1      41.698  27.812  26.986  1.00  0.00     0.014 A 
ATOM     25  C   UNL A   1      40.027  27.024  29.079  1.00  0.00     0.010 A 
ATOM     26  C   UNL A   1      41.540  28.638  28.094  1.00  0.00     0.010 A 
ATOM     27  C   UNL A   1      40.705  28.253  29.154  1.00  0.00    -0.014 A 
BRANCH  27  28
ATOM     28  C   UNL A   1      40.565  29.148  30.333  1.00  0.00     0.031 A 
ATOM     29  C   UNL A   1      41.416  28.923  31.553  1.00  0.00     0.074 A 
ATOM     30  C   UNL A   1      39.622  30.112  30.334  1.00  0.00     0.049 A 
ATOM     31  N   UNL A   1      41.387  29.546  32.704  1.00  0.00    -0.248 NA
ATOM     32  C   UNL A   1      42.412  27.841  31.483  1.00  0.00     0.031 C 
ATOM     33  C   UNL A   1      38.708  30.407  29.228  1.00  0.00     0.029 A 
ATOM     34  N   UNL A   1      39.268  31.018  31.304  1.00  0.00    -0.354 N 
ATOM     35  C   UNL A   1      42.344  28.922  33.496  1.00  0.00     0.074 A 
ATOM     36  C   UNL A   1      42.896  27.837  32.715  1.00  0.00     0.031 C 
ATOM     37  C   UNL A   1      37.921  31.439  29.570  1.00  0.00     0.029 A 
ATOM     38  C   UNL A   1      38.229  31.843  30.937  1.00  0.00     0.049 A 
ATOM     39  H   UNL A   1      39.714  31.072  32.180  1.00  0.00     0.167 HD
ATOM     40  C   UNL A   1      42.741  29.235  34.752  1.00  0.00     0.031 A 
ATOM     41  C   UNL A   1      37.581  32.804  31.628  1.00  0.00     0.031 A 
ATOM     42  C   UNL A   1      42.184  30.314  35.523  1.00  0.00     0.049 A 
ATOM     43  C   UNL A   1      38.012  33.106  33.039  1.00  0.00     0.074 A 
ATOM     44  C   UNL A   1      42.553  30.745  36.786  1.00  0.00     0.029 A 
ATOM     45  N   UNL A   1      41.132  31.123  35.116  1.00  0.00    -0.354 N 
ATOM     46  N   UNL A   1      38.971  32.554  33.743  1.00  0.00    -0.248 NA
ATOM     47  C   UNL A   1      37.281  34.168  33.744  1.00  0.00     0.031 C 
ATOM     48  C   UNL A   1      41.675  31.761  37.174  1.00  0.00     0.029 A 
ATOM     49  C   UNL A   1      40.815  32.024  36.119  1.00  0.00     0.049 A 
ATOM     50  H   UNL A   1      40.679  31.064  34.244  1.00  0.00     0.167 HD
ATOM     51  C   UNL A   1      38.979  33.225  34.962  1.00  0.00     0.074 A 
ATOM     52  C   UNL A   1      37.940  34.230  34.893  1.00  0.00     0.031 C 
ATOM     53  C   UNL A   1      39.780  33.026  36.039  1.00  0.00     0.031 A 
BRANCH  40  54
ATOM     54  C   UNL A   1      43.816  28.385  35.380  1.00  0.00    -0.014 A 
ATOM     55  C   UNL A   1      43.497  27.263  36.167  1.00  0.00     0.010 A 
ATOM     56  C   UNL A   1      45.169  28.687  35.143  1.00  0.00     0.010 A 
ATOM     57  C   UNL A   1      44.509  26.489  36.741  1.00  0.00     0.020 A 
ATOM     58  C   UNL A   1      46.184  27.894  35.684  1.00  0.00     0.020 A 
ATOM     59  C   UNL A   1      45.847  26.810  36.494  1.00  0.00     0.054 A 
BRANCH  59  60
ATOM     60  S   UNL A   1      47.138  25.772  37.235  1.00  0.00     0.124 S 
ATOM     61  O   UNL A   1      48.331  26.596  37.047  1.00  0.00    -0.237 OA
ATOM     62  O   UNL A   1      46.681  25.636  38.615  1.00  0.00    -0.237 OA
ATOM     63  O   UNL A   1      47.097  24.547  36.441  1.00  0.00    -0.744 OA
ENDBRANCH  59  60
ENDBRANCH  40  54
BRANCH  41  64
ATOM     64  C   UNL A   1      36.452  33.544  30.996  1.00  0.00    -0.014 A 
ATOM     65  C   UNL A   1      36.548  34.017  29.677  1.00  0.00     0.010 A 
ATOM     66  C   UNL A   1      35.263  33.771  31.715  1.00  0.00     0.010 A 
ATOM     67  C   UNL A   1      35.488  34.719  29.094  1.00  0.00     0.020 A 
ATOM     68  C   UNL A   1      34.187  34.441  31.125  1.00  0.00     0.020 A 
ATOM     69  C   UNL A   1      34.311  34.920  29.821  1.00  0.00     0.054 A 
BRANCH  69  70
ATOM     70  S   UNL A   1      32.929  35.786  29.025  1.00  0.00     0.124 S 
ATOM     71  O   UNL A   1      32.104  36.158  30.169  1.00  0.00    -0.237 OA
ATOM     72  O   UNL A   1      33.603  36.888  28.344  1.00  0.00    -0.237 OA
ATOM     73  O   UNL A   1      32.355  34.774  28.141  1.00  0.00    -0.744 OA
ENDBRANCH  69  70
ENDBRANCH  41  64
BRANCH  53  74
ATOM     74  C   UNL A   1      39.604  33.941  37.224  1.00  0.00    -0.014 A 
ATOM     75  C   UNL A   1      38.862  33.553  38.353  1.00  0.00     0.010 A 
ATOM     76  C   UNL A   1      40.267  35.184  37.235  1.00  0.00     0.010 A 
ATOM     77  C   UNL A   1      38.769  34.400  39.461  1.00  0.00     0.020 A 
ATOM     78  C   UNL A   1      40.206  36.016  38.354  1.00  0.00     0.020 A 
ATOM     79  C   UNL A   1      39.449  35.622  39.458  1.00  0.00     0.054 A 
BRANCH  79  80
ATOM     80  S   UNL A   1      39.367  36.669  40.936  1.00  0.00     0.124 S 
ATOM     81  O   UNL A   1      40.762  36.694  41.371  1.00  0.00    -0.237 OA
ATOM     82  O   UNL A   1      38.852  37.929  40.405  1.00  0.00    -0.237 OA
ATOM     83  O   UNL A   1      38.453  35.952  41.821  1.00  0.00    -0.744 OA
ENDBRANCH  79  80
ENDBRANCH  53  74
ENDBRANCH  27  28
ENDBRANCH  19  22
ENDBRANCH  17  18
ENDBRANCH   1  17
TORSDOF 16
ENDMDL
