MODEL 1
REMARK VINA RESULT:     -10.3      0.000      0.000
REMARK SMILES C[C@@H]1SC[C@H](C(=O)NCCCCNC(=O)c2ccc(-c3c4nc(c(-c5ccc(S(=O)(=O)[O-])cc5)c5ccc([nH]5)c(-c5ccc(S(=O)(=O)[O-])cc5)c5nc(c(-c6ccc(S(=O)(=O)[O-])cc6)c6ccc3[nH]6)C=C5)C=C4)cc2)N1C(=O)C[NH2+]CC(F)(F)F
REMARK SMILES IDX 9 1 8 2 6 3 7 4 5 6 1 7 2 8 3 9 76 10 4 11 77 12 78 13 79 14
REMARK SMILES IDX 80 15 81 18 82 19 83 20 84 21 85 22 10 23 11 24 12 25 13 26
REMARK SMILES IDX 14 27 15 29 16 30 17 31 75 32 18 33 74 34 19 35 20 36 21 37
REMARK SMILES IDX 68 38 22 39 73 40 67 41 69 42 23 43 72 44 66 45 65 46 24 48
REMARK SMILES IDX 54 49 35 50 53 51 36 52 39 53 52 54 70 55 37 56 38 57 51 59
REMARK SMILES IDX 71 60 40 61 25 62 26 63 34 64 27 65 33 66 28 67 29 68 30 69
REMARK SMILES IDX 31 70 32 71 55 72 56 73 64 74 57 75 63 76 58 77 59 78 60 79
REMARK SMILES IDX 61 80 62 81 41 82 42 83 50 84 43 85 49 86 44 87 45 88 46 89
REMARK SMILES IDX 47 90 48 91
REMARK H PARENT 8 5 80 16 80 17 13 28 69 47 39 58
REMARK Flexibility Score: inf
ROOT
ATOM      1  C   UNL A   1      32.648  29.371  27.193  1.00  0.00     0.116 C 
ENDROOT
BRANCH   1   2
ATOM      2  N   UNL A   1      31.725  28.255  27.222  1.00  0.00    -0.354 N 
ATOM      3  C   UNL A   1      31.716  27.105  26.489  1.00  0.00     0.243 C 
ATOM      4  O   UNL A   1      30.668  26.452  26.473  1.00  0.00    -0.273 OA
ATOM      5  H   UNL A   1      30.990  28.339  27.870  1.00  0.00     0.163 HD
BRANCH   3   6
ATOM      6  C   UNL A   1      32.880  26.732  25.547  1.00  0.00     0.185 C 
ATOM      7  C   UNL A   1      32.815  25.265  22.121  1.00  0.00     0.043 C 
ATOM      8  C   UNL A   1      33.486  25.978  23.290  1.00  0.00     0.141 C 
ATOM      9  S   UNL A   1      34.157  24.703  24.417  1.00  0.00    -0.135 SA
ATOM     10  N   UNL A   1      32.642  26.860  24.098  1.00  0.00    -0.313 N 
ATOM     11  C   UNL A   1      33.272  25.296  25.869  1.00  0.00     0.107 C 
BRANCH  10  12
ATOM     12  C   UNL A   1      32.184  28.099  23.660  1.00  0.00     0.279 C 
ATOM     13  O   UNL A   1      32.961  29.018  23.387  1.00  0.00    -0.268 OA
BRANCH  12  14
ATOM     14  C   UNL A   1      30.680  28.352  23.550  1.00  0.00     0.362 C 
BRANCH  14  15
ATOM     15  N   UNL A   1      30.450  29.746  23.139  1.00  0.00    -0.331 N 
ATOM     16  H   UNL A   1      30.938  29.919  22.261  1.00  0.00     0.346 HD
ATOM     17  H   UNL A   1      30.801  30.360  23.875  1.00  0.00     0.346 HD
BRANCH  15  18
ATOM     18  C   UNL A   1      29.002  30.025  22.951  1.00  0.00     0.378 C 
BRANCH  18  19
ATOM     19  C   UNL A   1      28.411  31.348  23.479  1.00  0.00     0.438 C 
ATOM     20  F   UNL A   1      28.107  32.182  22.460  1.00  0.00    -0.165 F 
ATOM     21  F   UNL A   1      27.276  31.117  24.176  1.00  0.00    -0.165 F 
ATOM     22  F   UNL A   1      29.275  31.982  24.299  1.00  0.00    -0.165 F 
ENDBRANCH  18  19
ENDBRANCH  15  18
ENDBRANCH  14  15
ENDBRANCH  12  14
ENDBRANCH  10  12
ENDBRANCH   3   6
ENDBRANCH   1   2
BRANCH   1  23
ATOM     23  C   UNL A   1      32.110  30.501  26.318  1.00  0.00     0.023 C 
BRANCH  23  24
ATOM     24  C   UNL A   1      31.823  31.805  27.066  1.00  0.00     0.023 C 
BRANCH  24  25
ATOM     25  C   UNL A   1      33.060  32.590  27.488  1.00  0.00     0.116 C 
BRANCH  25  26
ATOM     26  N   UNL A   1      32.754  33.971  27.831  1.00  0.00    -0.352 N 
ATOM     27  C   UNL A   1      33.301  34.765  28.807  1.00  0.00     0.251 C 
ATOM     28  H   UNL A   1      32.055  34.396  27.284  1.00  0.00     0.163 HD
ATOM     29  O   UNL A   1      32.798  35.860  29.052  1.00  0.00    -0.269 OA
BRANCH  27  30
ATOM     30  C   UNL A   1      34.470  34.291  29.578  1.00  0.00     0.039 A 
ATOM     31  C   UNL A   1      34.252  33.591  30.766  1.00  0.00     0.014 A 
ATOM     32  C   UNL A   1      35.773  34.525  29.130  1.00  0.00     0.014 A 
ATOM     33  C   UNL A   1      35.339  33.072  31.471  1.00  0.00     0.010 A 
ATOM     34  C   UNL A   1      36.850  33.936  29.789  1.00  0.00     0.010 A 
ATOM     35  C   UNL A   1      36.645  33.206  30.969  1.00  0.00    -0.014 A 
BRANCH  35  36
ATOM     36  C   UNL A   1      37.794  32.570  31.664  1.00  0.00     0.031 A 
ATOM     37  C   UNL A   1      38.293  33.116  32.975  1.00  0.00     0.074 A 
ATOM     38  C   UNL A   1      38.411  31.514  31.094  1.00  0.00     0.049 A 
ATOM     39  N   UNL A   1      39.280  32.688  33.722  1.00  0.00    -0.248 NA
ATOM     40  C   UNL A   1      37.612  34.306  33.508  1.00  0.00     0.031 C 
ATOM     41  C   UNL A   1      38.059  30.926  29.799  1.00  0.00     0.029 A 
ATOM     42  N   UNL A   1      39.463  30.747  31.529  1.00  0.00    -0.354 N 
ATOM     43  C   UNL A   1      39.335  33.552  34.810  1.00  0.00     0.074 A 
ATOM     44  C   UNL A   1      38.326  34.566  34.594  1.00  0.00     0.031 C 
ATOM     45  C   UNL A   1      38.855  29.873  29.561  1.00  0.00     0.029 A 
ATOM     46  C   UNL A   1      39.802  29.733  30.663  1.00  0.00     0.049 A 
ATOM     47  H   UNL A   1      39.929  30.906  32.382  1.00  0.00     0.167 HD
ATOM     48  C   UNL A   1      40.131  33.491  35.903  1.00  0.00     0.031 A 
ATOM     49  C   UNL A   1      40.771  28.800  30.741  1.00  0.00     0.031 A 
ATOM     50  C   UNL A   1      41.138  32.484  36.114  1.00  0.00     0.049 A 
ATOM     51  C   UNL A   1      41.655  28.765  31.958  1.00  0.00     0.074 A 
ATOM     52  C   UNL A   1      41.973  32.317  37.205  1.00  0.00     0.029 A 
ATOM     53  N   UNL A   1      41.448  31.473  35.216  1.00  0.00    -0.354 N 
ATOM     54  N   UNL A   1      41.643  29.552  33.008  1.00  0.00    -0.248 NA
ATOM     55  C   UNL A   1      42.670  27.705  32.008  1.00  0.00     0.031 C 
ATOM     56  C   UNL A   1      42.826  31.240  36.942  1.00  0.00     0.029 A 
ATOM     57  C   UNL A   1      42.477  30.693  35.718  1.00  0.00     0.049 A 
ATOM     58  H   UNL A   1      41.004  31.332  34.349  1.00  0.00     0.167 HD
ATOM     59  C   UNL A   1      42.636  29.066  33.854  1.00  0.00     0.074 A 
ATOM     60  C   UNL A   1      43.205  27.903  33.204  1.00  0.00     0.031 C 
ATOM     61  C   UNL A   1      43.040  29.542  35.058  1.00  0.00     0.031 A 
BRANCH  48  62
ATOM     62  C   UNL A   1      39.935  34.542  36.967  1.00  0.00    -0.014 A 
ATOM     63  C   UNL A   1      40.647  35.755  36.924  1.00  0.00     0.010 A 
ATOM     64  C   UNL A   1      38.992  34.342  37.992  1.00  0.00     0.010 A 
ATOM     65  C   UNL A   1      40.447  36.731  37.902  1.00  0.00     0.020 A 
ATOM     66  C   UNL A   1      38.766  35.330  38.955  1.00  0.00     0.020 A 
ATOM     67  C   UNL A   1      39.505  36.514  38.911  1.00  0.00     0.054 A 
BRANCH  67  68
ATOM     68  S   UNL A   1      39.242  37.817  40.145  1.00  0.00     0.124 S 
ATOM     69  O   UNL A   1      38.971  37.039  41.352  1.00  0.00    -0.237 OA
ATOM     70  O   UNL A   1      40.516  38.530  40.132  1.00  0.00    -0.237 OA
ATOM     71  O   UNL A   1      38.104  38.568  39.620  1.00  0.00    -0.744 OA
ENDBRANCH  67  68
ENDBRANCH  48  62
BRANCH  49  72
ATOM     72  C   UNL A   1      40.956  27.825  29.630  1.00  0.00    -0.014 A 
ATOM     73  C   UNL A   1      40.070  26.746  29.458  1.00  0.00     0.010 A 
ATOM     74  C   UNL A   1      42.030  27.972  28.734  1.00  0.00     0.010 A 
ATOM     75  C   UNL A   1      40.271  25.820  28.430  1.00  0.00     0.020 A 
ATOM     76  C   UNL A   1      42.215  27.069  27.684  1.00  0.00     0.020 A 
ATOM     77  C   UNL A   1      41.343  25.988  27.549  1.00  0.00     0.054 A 
BRANCH  77  78
ATOM     78  S   UNL A   1      41.565  24.794  26.201  1.00  0.00     0.124 S 
ATOM     79  O   UNL A   1      40.345  24.000  26.293  1.00  0.00    -0.237 OA
ATOM     80  O   UNL A   1      41.671  25.660  25.029  1.00  0.00    -0.237 OA
ATOM     81  O   UNL A   1      42.797  24.096  26.562  1.00  0.00    -0.744 OA
ENDBRANCH  77  78
ENDBRANCH  49  72
BRANCH  61  82
ATOM     82  C   UNL A   1      44.135  28.787  35.765  1.00  0.00    -0.014 A 
ATOM     83  C   UNL A   1      45.490  29.116  35.580  1.00  0.00     0.010 A 
ATOM     84  C   UNL A   1      43.799  27.750  36.654  1.00  0.00     0.010 A 
ATOM     85  C   UNL A   1      46.491  28.392  36.234  1.00  0.00     0.020 A 
ATOM     86  C   UNL A   1      44.794  27.045  37.337  1.00  0.00     0.020 A 
ATOM     87  C   UNL A   1      46.135  27.358  37.107  1.00  0.00     0.054 A 
BRANCH  87  88
ATOM     88  S   UNL A   1      47.451  26.448  37.961  1.00  0.00     0.124 S 
ATOM     89  O   UNL A   1      48.652  26.980  37.323  1.00  0.00    -0.237 OA
ATOM     90  O   UNL A   1      47.256  26.837  39.356  1.00  0.00    -0.237 OA
ATOM     91  O   UNL A   1      47.155  25.049  37.663  1.00  0.00    -0.744 OA
ENDBRANCH  87  88
ENDBRANCH  61  82
ENDBRANCH  35  36
ENDBRANCH  27  30
ENDBRANCH  25  26
ENDBRANCH  24  25
ENDBRANCH  23  24
ENDBRANCH   1  23
TORSDOF 19
ENDMDL
MODEL 2
REMARK VINA RESULT:     -10.1      0.697      8.305
REMARK SMILES C[C@@H]1SC[C@H](C(=O)NCCCCNC(=O)c2ccc(-c3c4nc(c(-c5ccc(S(=O)(=O)[O-])cc5)c5ccc([nH]5)c(-c5ccc(S(=O)(=O)[O-])cc5)c5nc(c(-c6ccc(S(=O)(=O)[O-])cc6)c6ccc3[nH]6)C=C5)C=C4)cc2)N1C(=O)C[NH2+]CC(F)(F)F
REMARK SMILES IDX 9 1 8 2 6 3 7 4 5 6 1 7 2 8 3 9 76 10 4 11 77 12 78 13 79 14
REMARK SMILES IDX 80 15 81 18 82 19 83 20 84 21 85 22 10 23 11 24 12 25 13 26
REMARK SMILES IDX 14 27 15 29 16 30 17 31 75 32 18 33 74 34 19 35 20 36 21 37
REMARK SMILES IDX 68 38 22 39 73 40 67 41 69 42 23 43 72 44 66 45 65 46 24 48
REMARK SMILES IDX 54 49 35 50 53 51 36 52 39 53 52 54 70 55 37 56 38 57 51 59
REMARK SMILES IDX 71 60 40 61 25 62 26 63 34 64 27 65 33 66 28 67 29 68 30 69
REMARK SMILES IDX 31 70 32 71 55 72 56 73 64 74 57 75 63 76 58 77 59 78 60 79
REMARK SMILES IDX 61 80 62 81 41 82 42 83 50 84 43 85 49 86 44 87 45 88 46 89
REMARK SMILES IDX 47 90 48 91
REMARK H PARENT 8 5 80 16 80 17 13 28 69 47 39 58
REMARK Flexibility Score: inf
ROOT
ATOM      1  C   UNL A   1      32.619  29.597  27.021  1.00  0.00     0.116 C 
ENDROOT
BRANCH   1   2
ATOM      2  N   UNL A   1      31.736  28.460  27.173  1.00  0.00    -0.354 N 
ATOM      3  C   UNL A   1      31.751  27.248  26.548  1.00  0.00     0.243 C 
ATOM      4  O   UNL A   1      30.726  26.563  26.616  1.00  0.00    -0.273 OA
ATOM      5  H   UNL A   1      31.011  28.580  27.828  1.00  0.00     0.163 HD
BRANCH   3   6
ATOM      6  C   UNL A   1      32.908  26.827  25.618  1.00  0.00     0.185 C 
ATOM      7  C   UNL A   1      32.819  25.132  22.299  1.00  0.00     0.043 C 
ATOM      8  C   UNL A   1      33.495  25.930  23.408  1.00  0.00     0.141 C 
ATOM      9  S   UNL A   1      34.198  24.744  24.609  1.00  0.00    -0.135 SA
ATOM     10  N   UNL A   1      32.649  26.854  24.166  1.00  0.00    -0.313 N 
ATOM     11  C   UNL A   1      33.324  25.422  26.031  1.00  0.00     0.107 C 
BRANCH  10  12
ATOM     12  C   UNL A   1      32.168  28.055  23.652  1.00  0.00     0.279 C 
ATOM     13  O   UNL A   1      32.920  29.004  23.412  1.00  0.00    -0.268 OA
BRANCH  12  14
ATOM     14  C   UNL A   1      30.668  28.226  23.415  1.00  0.00     0.362 C 
BRANCH  14  15
ATOM     15  N   UNL A   1      30.441  28.644  22.022  1.00  0.00    -0.331 N 
ATOM     16  H   UNL A   1      29.836  27.963  21.564  1.00  0.00     0.346 HD
ATOM     17  H   UNL A   1      31.344  28.698  21.551  1.00  0.00     0.346 HD
BRANCH  15  18
ATOM     18  C   UNL A   1      29.799  29.984  21.954  1.00  0.00     0.378 C 
BRANCH  18  19
ATOM     19  C   UNL A   1      28.312  30.130  22.334  1.00  0.00     0.438 C 
ATOM     20  F   UNL A   1      27.641  28.980  22.108  1.00  0.00    -0.165 F 
ATOM     21  F   UNL A   1      28.184  30.434  23.644  1.00  0.00    -0.165 F 
ATOM     22  F   UNL A   1      27.717  31.112  21.624  1.00  0.00    -0.165 F 
ENDBRANCH  18  19
ENDBRANCH  15  18
ENDBRANCH  14  15
ENDBRANCH  12  14
ENDBRANCH  10  12
ENDBRANCH   3   6
ENDBRANCH   1   2
BRANCH   1  23
ATOM     23  C   UNL A   1      31.938  30.717  26.237  1.00  0.00     0.023 C 
BRANCH  23  24
ATOM     24  C   UNL A   1      31.673  31.990  27.043  1.00  0.00     0.023 C 
BRANCH  24  25
ATOM     25  C   UNL A   1      32.918  32.794  27.403  1.00  0.00     0.116 C 
BRANCH  25  26
ATOM     26  N   UNL A   1      32.612  34.175  27.741  1.00  0.00    -0.352 N 
ATOM     27  C   UNL A   1      33.140  34.965  28.732  1.00  0.00     0.251 C 
ATOM     28  H   UNL A   1      31.929  34.606  27.178  1.00  0.00     0.163 HD
ATOM     29  O   UNL A   1      32.637  36.062  28.966  1.00  0.00    -0.269 OA
BRANCH  27  30
ATOM     30  C   UNL A   1      34.287  34.483  29.531  1.00  0.00     0.039 A 
ATOM     31  C   UNL A   1      34.046  33.963  30.804  1.00  0.00     0.014 A 
ATOM     32  C   UNL A   1      35.589  34.533  29.027  1.00  0.00     0.014 A 
ATOM     33  C   UNL A   1      35.106  33.435  31.545  1.00  0.00     0.010 A 
ATOM     34  C   UNL A   1      36.629  33.932  29.731  1.00  0.00     0.010 A 
ATOM     35  C   UNL A   1      36.400  33.379  31.000  1.00  0.00    -0.014 A 
BRANCH  35  36
ATOM     36  C   UNL A   1      37.510  32.729  31.744  1.00  0.00     0.031 A 
ATOM     37  C   UNL A   1      38.181  31.498  31.197  1.00  0.00     0.074 A 
ATOM     38  C   UNL A   1      37.892  33.233  32.935  1.00  0.00     0.049 A 
ATOM     39  N   UNL A   1      39.164  30.801  31.709  1.00  0.00    -0.248 NA
ATOM     40  C   UNL A   1      37.673  30.967  29.922  1.00  0.00     0.031 C 
ATOM     41  C   UNL A   1      37.284  34.388  33.600  1.00  0.00     0.029 A 
ATOM     42  N   UNL A   1      38.884  32.841  33.799  1.00  0.00    -0.354 N 
ATOM     43  C   UNL A   1      39.393  29.757  30.820  1.00  0.00     0.074 A 
ATOM     44  C   UNL A   1      38.403  29.872  29.772  1.00  0.00     0.031 C 
ATOM     45  C   UNL A   1      37.935  34.631  34.748  1.00  0.00     0.029 A 
ATOM     46  C   UNL A   1      38.979  33.627  34.924  1.00  0.00     0.049 A 
ATOM     47  H   UNL A   1      39.473  32.070  33.629  1.00  0.00     0.167 HD
ATOM     48  C   UNL A   1      40.355  28.805  30.856  1.00  0.00     0.031 A 
ATOM     49  C   UNL A   1      39.808  33.546  35.984  1.00  0.00     0.031 A 
ATOM     50  C   UNL A   1      41.336  28.688  31.904  1.00  0.00     0.049 A 
ATOM     51  C   UNL A   1      40.858  32.468  36.010  1.00  0.00     0.074 A 
ATOM     52  C   UNL A   1      42.373  27.779  32.014  1.00  0.00     0.029 A 
ATOM     53  N   UNL A   1      41.401  29.505  33.023  1.00  0.00    -0.354 N 
ATOM     54  N   UNL A   1      41.099  31.531  35.123  1.00  0.00    -0.248 NA
ATOM     55  C   UNL A   1      41.757  32.448  37.170  1.00  0.00     0.031 C 
ATOM     56  C   UNL A   1      43.031  28.010  33.227  1.00  0.00     0.029 A 
ATOM     57  C   UNL A   1      42.447  29.107  33.840  1.00  0.00     0.049 A 
ATOM     58  H   UNL A   1      40.793  30.257  33.211  1.00  0.00     0.167 HD
ATOM     59  C   UNL A   1      42.194  30.824  35.610  1.00  0.00     0.074 A 
ATOM     60  C   UNL A   1      42.582  31.461  36.852  1.00  0.00     0.031 C 
ATOM     61  C   UNL A   1      42.818  29.745  35.078  1.00  0.00     0.031 A 
BRANCH  48  62
ATOM     62  C   UNL A   1      40.402  27.817  29.718  1.00  0.00    -0.014 A 
ATOM     63  C   UNL A   1      39.483  26.755  29.646  1.00  0.00     0.010 A 
ATOM     64  C   UNL A   1      41.337  27.980  28.680  1.00  0.00     0.010 A 
ATOM     65  C   UNL A   1      39.521  25.854  28.579  1.00  0.00     0.020 A 
ATOM     66  C   UNL A   1      41.358  27.100  27.594  1.00  0.00     0.020 A 
ATOM     67  C   UNL A   1      40.457  26.033  27.557  1.00  0.00     0.054 A 
BRANCH  67  68
ATOM     68  S   UNL A   1      40.455  24.869  26.167  1.00  0.00     0.124 S 
ATOM     69  O   UNL A   1      40.987  25.692  25.083  1.00  0.00    -0.237 OA
ATOM     70  O   UNL A   1      41.339  23.807  26.640  1.00  0.00    -0.237 OA
ATOM     71  O   UNL A   1      39.050  24.493  26.031  1.00  0.00    -0.744 OA
ENDBRANCH  67  68
ENDBRANCH  48  62
BRANCH  49  72
ATOM     72  C   UNL A   1      39.675  34.515  37.108  1.00  0.00    -0.014 A 
ATOM     73  C   UNL A   1      40.325  35.761  37.072  1.00  0.00     0.010 A 
ATOM     74  C   UNL A   1      38.890  34.189  38.230  1.00  0.00     0.010 A 
ATOM     75  C   UNL A   1      40.218  36.649  38.147  1.00  0.00     0.020 A 
ATOM     76  C   UNL A   1      38.752  35.087  39.291  1.00  0.00     0.020 A 
ATOM     77  C   UNL A   1      39.431  36.306  39.249  1.00  0.00     0.054 A 
BRANCH  77  78
ATOM     78  S   UNL A   1      39.276  37.488  40.617  1.00  0.00     0.124 S 
ATOM     79  O   UNL A   1      38.325  38.453  40.079  1.00  0.00    -0.237 OA
ATOM     80  O   UNL A   1      38.780  36.647  41.704  1.00  0.00    -0.237 OA
ATOM     81  O   UNL A   1      40.640  37.983  40.796  1.00  0.00    -0.744 OA
ENDBRANCH  77  78
ENDBRANCH  49  72
BRANCH  61  82
ATOM     82  C   UNL A   1      44.008  29.199  35.825  1.00  0.00    -0.014 A 
ATOM     83  C   UNL A   1      43.868  28.173  36.776  1.00  0.00     0.010 A 
ATOM     84  C   UNL A   1      45.292  29.703  35.546  1.00  0.00     0.010 A 
ATOM     85  C   UNL A   1      44.983  27.693  37.469  1.00  0.00     0.020 A 
ATOM     86  C   UNL A   1      46.414  29.202  36.212  1.00  0.00     0.020 A 
ATOM     87  C   UNL A   1      46.249  28.213  37.183  1.00  0.00     0.054 A 
BRANCH  87  88
ATOM     88  S   UNL A   1      47.683  27.558  38.080  1.00  0.00     0.124 S 
ATOM     89  O   UNL A   1      47.049  26.812  39.163  1.00  0.00    -0.237 OA
ATOM     90  O   UNL A   1      48.351  26.746  37.065  1.00  0.00    -0.237 OA
ATOM     91  O   UNL A   1      48.413  28.755  38.491  1.00  0.00    -0.744 OA
ENDBRANCH  87  88
ENDBRANCH  61  82
ENDBRANCH  35  36
ENDBRANCH  27  30
ENDBRANCH  25  26
ENDBRANCH  24  25
ENDBRANCH  23  24
ENDBRANCH   1  23
TORSDOF 19
ENDMDL
MODEL 3
REMARK VINA RESULT:      -9.8      3.798      5.331
REMARK SMILES C[C@@H]1SC[C@H](C(=O)NCCCCNC(=O)c2ccc(-c3c4nc(c(-c5ccc(S(=O)(=O)[O-])cc5)c5ccc([nH]5)c(-c5ccc(S(=O)(=O)[O-])cc5)c5nc(c(-c6ccc(S(=O)(=O)[O-])cc6)c6ccc3[nH]6)C=C5)C=C4)cc2)N1C(=O)C[NH2+]CC(F)(F)F
REMARK SMILES IDX 9 1 8 2 6 3 7 4 5 6 1 7 2 8 3 9 76 10 4 11 77 12 78 13 79 14
REMARK SMILES IDX 80 15 81 18 82 19 83 20 84 21 85 22 10 23 11 24 12 25 13 26
REMARK SMILES IDX 14 27 15 29 16 30 17 31 75 32 18 33 74 34 19 35 20 36 21 37
REMARK SMILES IDX 68 38 22 39 73 40 67 41 69 42 23 43 72 44 66 45 65 46 24 48
REMARK SMILES IDX 54 49 35 50 53 51 36 52 39 53 52 54 70 55 37 56 38 57 51 59
REMARK SMILES IDX 71 60 40 61 25 62 26 63 34 64 27 65 33 66 28 67 29 68 30 69
REMARK SMILES IDX 31 70 32 71 55 72 56 73 64 74 57 75 63 76 58 77 59 78 60 79
REMARK SMILES IDX 61 80 62 81 41 82 42 83 50 84 43 85 49 86 44 87 45 88 46 89
REMARK SMILES IDX 47 90 48 91
REMARK H PARENT 8 5 80 16 80 17 13 28 69 47 39 58
REMARK Flexibility Score: inf
ROOT
ATOM      1  C   UNL A   1      32.655  25.748  24.157  1.00  0.00     0.116 C 
ENDROOT
BRANCH   1   2
ATOM      2  N   UNL A   1      33.138  25.079  22.967  1.00  0.00    -0.354 N 
ATOM      3  C   UNL A   1      33.381  23.756  22.743  1.00  0.00     0.243 C 
ATOM      4  O   UNL A   1      34.075  23.467  21.762  1.00  0.00    -0.273 OA
ATOM      5  H   UNL A   1      33.320  25.670  22.202  1.00  0.00     0.163 HD
BRANCH   3   6
ATOM      6  C   UNL A   1      32.997  22.673  23.771  1.00  0.00     0.185 C 
ATOM      7  C   UNL A   1      34.934  19.731  24.992  1.00  0.00     0.043 C 
ATOM      8  C   UNL A   1      33.797  20.744  25.064  1.00  0.00     0.141 C 
ATOM      9  S   UNL A   1      32.408  20.105  24.061  1.00  0.00    -0.135 SA
ATOM     10  N   UNL A   1      34.085  22.095  24.582  1.00  0.00    -0.313 N 
ATOM     11  C   UNL A   1      32.294  21.560  23.005  1.00  0.00     0.107 C 
BRANCH  10  12
ATOM     12  C   UNL A   1      34.883  23.005  25.271  1.00  0.00     0.279 C 
ATOM     13  O   UNL A   1      34.408  23.779  26.106  1.00  0.00    -0.268 OA
BRANCH  12  14
ATOM     14  C   UNL A   1      36.378  23.082  24.962  1.00  0.00     0.362 C 
BRANCH  14  15
ATOM     15  N   UNL A   1      37.131  22.408  26.033  1.00  0.00    -0.331 N 
ATOM     16  H   UNL A   1      36.946  21.406  25.990  1.00  0.00     0.346 HD
ATOM     17  H   UNL A   1      36.829  22.793  26.928  1.00  0.00     0.346 HD
BRANCH  15  18
ATOM     18  C   UNL A   1      38.593  22.637  25.895  1.00  0.00     0.378 C 
BRANCH  18  19
ATOM     19  C   UNL A   1      39.305  23.592  26.875  1.00  0.00     0.438 C 
ATOM     20  F   UNL A   1      39.922  22.901  27.859  1.00  0.00    -0.165 F 
ATOM     21  F   UNL A   1      40.243  24.321  26.232  1.00  0.00    -0.165 F 
ATOM     22  F   UNL A   1      38.435  24.452  27.445  1.00  0.00    -0.165 F 
ENDBRANCH  18  19
ENDBRANCH  15  18
ENDBRANCH  14  15
ENDBRANCH  12  14
ENDBRANCH  10  12
ENDBRANCH   3   6
ENDBRANCH   1   2
BRANCH   1  23
ATOM     23  C   UNL A   1      33.670  26.773  24.658  1.00  0.00     0.023 C 
BRANCH  23  24
ATOM     24  C   UNL A   1      33.286  27.465  25.967  1.00  0.00     0.023 C 
BRANCH  24  25
ATOM     25  C   UNL A   1      34.367  28.360  26.563  1.00  0.00     0.116 C 
BRANCH  25  26
ATOM     26  N   UNL A   1      33.932  29.741  26.707  1.00  0.00    -0.352 N 
ATOM     27  C   UNL A   1      34.437  30.732  27.511  1.00  0.00     0.251 C 
ATOM     28  H   UNL A   1      33.166  30.002  26.147  1.00  0.00     0.163 HD
ATOM     29  O   UNL A   1      33.831  31.797  27.615  1.00  0.00    -0.269 OA
BRANCH  27  30
ATOM     30  C   UNL A   1      35.685  30.505  28.270  1.00  0.00     0.039 A 
ATOM     31  C   UNL A   1      35.649  29.667  29.386  1.00  0.00     0.014 A 
ATOM     32  C   UNL A   1      36.886  31.106  27.880  1.00  0.00     0.014 A 
ATOM     33  C   UNL A   1      36.831  29.382  30.073  1.00  0.00     0.010 A 
ATOM     34  C   UNL A   1      38.075  30.754  28.515  1.00  0.00     0.010 A 
ATOM     35  C   UNL A   1      38.061  29.891  29.620  1.00  0.00    -0.014 A 
BRANCH  35  36
ATOM     36  C   UNL A   1      39.332  29.511  30.288  1.00  0.00     0.031 A 
ATOM     37  C   UNL A   1      39.799  30.242  31.519  1.00  0.00     0.074 A 
ATOM     38  C   UNL A   1      40.084  28.521  29.766  1.00  0.00     0.049 A 
ATOM     39  N   UNL A   1      40.879  30.045  32.232  1.00  0.00    -0.248 NA
ATOM     40  C   UNL A   1      38.958  31.350  31.999  1.00  0.00     0.031 C 
ATOM     41  C   UNL A   1      39.770  27.773  28.546  1.00  0.00     0.029 A 
ATOM     42  N   UNL A   1      41.269  27.973  30.192  1.00  0.00    -0.354 N 
ATOM     43  C   UNL A   1      40.845  30.998  33.244  1.00  0.00     0.074 A 
ATOM     44  C   UNL A   1      39.674  31.816  33.013  1.00  0.00     0.031 C 
ATOM     45  C   UNL A   1      40.716  26.844  28.341  1.00  0.00     0.029 A 
ATOM     46  C   UNL A   1      41.727  26.955  29.388  1.00  0.00     0.049 A 
ATOM     47  H   UNL A   1      41.744  28.279  30.998  1.00  0.00     0.167 HD
ATOM     48  C   UNL A   1      41.693  31.162  34.286  1.00  0.00     0.031 A 
ATOM     49  C   UNL A   1      42.838  26.199  29.477  1.00  0.00     0.031 A 
ATOM     50  C   UNL A   1      42.862  30.351  34.511  1.00  0.00     0.049 A 
ATOM     51  C   UNL A   1      43.776  26.412  30.635  1.00  0.00     0.074 A 
ATOM     52  C   UNL A   1      43.766  30.416  35.556  1.00  0.00     0.029 A 
ATOM     53  N   UNL A   1      43.289  29.328  33.677  1.00  0.00    -0.354 N 
ATOM     54  N   UNL A   1      43.687  27.276  31.619  1.00  0.00    -0.248 NA
ATOM     55  C   UNL A   1      44.953  25.537  30.703  1.00  0.00     0.031 C 
ATOM     56  C   UNL A   1      44.771  29.471  35.325  1.00  0.00     0.029 A 
ATOM     57  C   UNL A   1      44.456  28.769  34.172  1.00  0.00     0.049 A 
ATOM     58  H   UNL A   1      42.831  29.042  32.853  1.00  0.00     0.167 HD
ATOM     59  C   UNL A   1      44.787  27.032  32.435  1.00  0.00     0.074 A 
ATOM     60  C   UNL A   1      45.506  25.922  31.844  1.00  0.00     0.031 C 
ATOM     61  C   UNL A   1      45.167  27.670  33.570  1.00  0.00     0.031 A 
BRANCH  48  62
ATOM     62  C   UNL A   1      41.381  32.257  35.274  1.00  0.00    -0.014 A 
ATOM     63  C   UNL A   1      41.722  33.595  35.002  1.00  0.00     0.010 A 
ATOM     64  C   UNL A   1      40.691  31.959  36.463  1.00  0.00     0.010 A 
ATOM     65  C   UNL A   1      41.413  34.607  35.914  1.00  0.00     0.020 A 
ATOM     66  C   UNL A   1      40.351  32.973  37.364  1.00  0.00     0.020 A 
ATOM     67  C   UNL A   1      40.727  34.290  37.089  1.00  0.00     0.054 A 
BRANCH  67  68
ATOM     68  S   UNL A   1      40.307  35.632  38.235  1.00  0.00     0.124 S 
ATOM     69  O   UNL A   1      39.001  35.207  38.732  1.00  0.00    -0.237 OA
ATOM     70  O   UNL A   1      41.396  35.575  39.205  1.00  0.00    -0.237 OA
ATOM     71  O   UNL A   1      40.292  36.821  37.386  1.00  0.00    -0.744 OA
ENDBRANCH  67  68
ENDBRANCH  48  62
BRANCH  49  72
ATOM     72  C   UNL A   1      43.125  25.172  28.437  1.00  0.00    -0.014 A 
ATOM     73  C   UNL A   1      43.655  25.536  27.186  1.00  0.00     0.010 A 
ATOM     74  C   UNL A   1      42.866  23.813  28.697  1.00  0.00     0.010 A 
ATOM     75  C   UNL A   1      43.893  24.567  26.207  1.00  0.00     0.020 A 
ATOM     76  C   UNL A   1      43.134  22.837  27.734  1.00  0.00     0.020 A 
ATOM     77  C   UNL A   1      43.631  23.223  26.487  1.00  0.00     0.054 A 
BRANCH  77  78
ATOM     78  S   UNL A   1      43.980  21.977  25.215  1.00  0.00     0.124 S 
ATOM     79  O   UNL A   1      45.339  21.571  25.552  1.00  0.00    -0.237 OA
ATOM     80  O   UNL A   1      42.941  20.980  25.459  1.00  0.00    -0.237 OA
ATOM     81  O   UNL A   1      43.838  22.719  23.964  1.00  0.00    -0.744 OA
ENDBRANCH  77  78
ENDBRANCH  49  72
BRANCH  61  82
ATOM     82  C   UNL A   1      46.405  27.164  34.263  1.00  0.00    -0.014 A 
ATOM     83  C   UNL A   1      46.332  26.195  35.279  1.00  0.00     0.010 A 
ATOM     84  C   UNL A   1      47.667  27.646  33.868  1.00  0.00     0.010 A 
ATOM     85  C   UNL A   1      47.492  25.751  35.920  1.00  0.00     0.020 A 
ATOM     86  C   UNL A   1      48.833  27.180  34.482  1.00  0.00     0.020 A 
ATOM     87  C   UNL A   1      48.735  26.249  35.518  1.00  0.00     0.054 A 
BRANCH  87  88
ATOM     88  S   UNL A   1      50.228  25.641  36.350  1.00  0.00     0.124 S 
ATOM     89  O   UNL A   1      51.259  26.519  35.803  1.00  0.00    -0.237 OA
ATOM     90  O   UNL A   1      49.913  25.847  37.762  1.00  0.00    -0.237 OA
ATOM     91  O   UNL A   1      50.313  24.244  35.933  1.00  0.00    -0.744 OA
ENDBRANCH  87  88
ENDBRANCH  61  82
ENDBRANCH  35  36
ENDBRANCH  27  30
ENDBRANCH  25  26
ENDBRANCH  24  25
ENDBRANCH  23  24
ENDBRANCH   1  23
TORSDOF 19
ENDMDL
