MODEL 1
REMARK VINA RESULT:     -12.3      0.000      0.000
REMARK SMILES N#Cc1ccc(C(F)(F)F)nc1N1CCOC[C@H]1C(=O)NCCCCNC(=O)c1ccc(-c2c3nc(c(-c4ccc(S(=O)(=O)[O-])cc4)c4ccc([nH]4)c(-c4ccc(S(=O)(=O)[O-])cc4)c4nc(c(-c5ccc(S(=O)(=O)[O-])cc5)c5ccc2[nH]5)C=C4)C=C3)cc1
REMARK SMILES IDX 24 1 23 2 22 3 21 4 19 5 20 6 18 8 13 9 14 10 15 11 17 12
REMARK SMILES IDX 16 13 12 14 3 15 4 16 5 17 11 18 6 19 2 20 1 21 7 22 8 23
REMARK SMILES IDX 9 24 10 25 25 26 26 27 27 28 28 30 29 31 30 32 88 33 31 34
REMARK SMILES IDX 87 35 32 36 33 37 34 38 81 39 35 40 86 41 80 42 82 43 36 44
REMARK SMILES IDX 85 45 79 46 78 47 37 49 67 50 48 51 66 52 49 53 52 54 65 55
REMARK SMILES IDX 83 56 50 57 51 58 64 60 84 61 53 62 38 63 39 64 47 65 40 66
REMARK SMILES IDX 46 67 41 68 42 69 43 70 44 71 45 72 68 73 69 74 77 75 70 76
REMARK SMILES IDX 76 77 71 78 72 79 73 80 74 81 75 82 54 83 55 84 63 85 56 86
REMARK SMILES IDX 62 87 57 88 58 89 59 90 60 91 61 92
REMARK H PARENT 21 7 26 29 82 48 52 59
REMARK Flexibility Score: inf
ROOT
ATOM      1  C   UNL A   1      34.355  30.527  27.361  1.00  0.00     0.023 C 
ENDROOT
BRANCH   1   2
ATOM      2  C   UNL A   1      33.403  29.489  26.798  1.00  0.00     0.023 C 
BRANCH   2   3
ATOM      3  C   UNL A   1      32.731  29.890  25.482  1.00  0.00     0.116 C 
BRANCH   3   4
ATOM      4  N   UNL A   1      33.552  29.557  24.339  1.00  0.00    -0.354 N 
ATOM      5  C   UNL A   1      33.659  28.465  23.536  1.00  0.00     0.245 C 
ATOM      6  O   UNL A   1      34.469  28.599  22.603  1.00  0.00    -0.273 OA
ATOM      7  H   UNL A   1      34.170  30.281  24.087  1.00  0.00     0.163 HD
BRANCH   5   8
ATOM      8  C   UNL A   1      32.817  27.167  23.619  1.00  0.00     0.199 C 
ATOM      9  N   UNL A   1      31.692  27.005  22.665  1.00  0.00    -0.339 N 
ATOM     10  C   UNL A   1      32.025  26.461  21.355  1.00  0.00     0.147 C 
ATOM     11  C   UNL A   1      32.867  25.191  21.492  1.00  0.00     0.181 C 
ATOM     12  C   UNL A   1      33.682  25.887  23.628  1.00  0.00     0.195 C 
ATOM     13  O   UNL A   1      34.016  25.375  22.329  1.00  0.00    -0.377 OA
BRANCH   9  14
ATOM     14  C   UNL A   1      30.418  27.458  22.935  1.00  0.00     0.148 A 
ATOM     15  C   UNL A   1      29.507  26.726  23.718  1.00  0.00     0.095 A 
ATOM     16  C   UNL A   1      28.174  27.130  23.803  1.00  0.00     0.025 A 
ATOM     17  C   UNL A   1      27.775  28.294  23.170  1.00  0.00     0.035 A 
ATOM     18  N   UNL A   1      30.035  28.637  22.386  1.00  0.00    -0.225 NA
ATOM     19  C   UNL A   1      28.731  29.052  22.497  1.00  0.00     0.146 A 
BRANCH  15  20
ATOM     20  C   UNL A   1      29.899  25.589  24.500  1.00  0.00     0.103 C 
ATOM     21  N   UNL A   1      30.238  24.675  25.126  1.00  0.00    -0.192 NA
ENDBRANCH  15  20
BRANCH  19  22
ATOM     22  C   UNL A   1      28.295  30.379  21.874  1.00  0.00     0.433 C 
ATOM     23  F   UNL A   1      27.344  31.029  22.600  1.00  0.00    -0.165 F 
ATOM     24  F   UNL A   1      29.319  31.258  21.690  1.00  0.00    -0.165 F 
ATOM     25  F   UNL A   1      27.739  30.215  20.632  1.00  0.00    -0.165 F 
ENDBRANCH  19  22
ENDBRANCH   9  14
ENDBRANCH   5   8
ENDBRANCH   3   4
ENDBRANCH   2   3
ENDBRANCH   1   2
BRANCH   1  26
ATOM     26  C   UNL A   1      35.562  29.929  28.061  1.00  0.00     0.116 C 
BRANCH  26  27
ATOM     27  N   UNL A   1      35.543  30.078  29.512  1.00  0.00    -0.352 N 
ATOM     28  C   UNL A   1      36.547  29.748  30.395  1.00  0.00     0.251 C 
ATOM     29  H   UNL A   1      34.723  30.455  29.903  1.00  0.00     0.163 HD
ATOM     30  O   UNL A   1      36.368  29.804  31.606  1.00  0.00    -0.269 OA
BRANCH  28  31
ATOM     31  C   UNL A   1      37.832  29.291  29.833  1.00  0.00     0.039 A 
ATOM     32  C   UNL A   1      38.159  29.607  28.515  1.00  0.00     0.014 A 
ATOM     33  C   UNL A   1      38.757  28.656  30.667  1.00  0.00     0.014 A 
ATOM     34  C   UNL A   1      39.442  29.321  28.049  1.00  0.00     0.010 A 
ATOM     35  C   UNL A   1      40.068  28.511  30.246  1.00  0.00     0.010 A 
ATOM     36  C   UNL A   1      40.414  28.795  28.918  1.00  0.00    -0.014 A 
BRANCH  36  37
ATOM     37  C   UNL A   1      41.774  28.448  28.439  1.00  0.00     0.031 A 
ATOM     38  C   UNL A   1      42.830  29.525  28.383  1.00  0.00     0.074 A 
ATOM     39  C   UNL A   1      42.056  27.193  28.043  1.00  0.00     0.049 A 
ATOM     40  N   UNL A   1      44.076  29.439  27.997  1.00  0.00    -0.248 NA
ATOM     41  C   UNL A   1      42.426  30.887  28.785  1.00  0.00     0.031 C 
ATOM     42  C   UNL A   1      41.107  26.075  28.011  1.00  0.00     0.029 A 
ATOM     43  N   UNL A   1      43.231  26.639  27.604  1.00  0.00    -0.354 N 
ATOM     44  C   UNL A   1      44.592  30.725  28.105  1.00  0.00     0.074 A 
ATOM     45  C   UNL A   1      43.507  31.590  28.499  1.00  0.00     0.031 C 
ATOM     46  C   UNL A   1      41.753  24.960  27.631  1.00  0.00     0.029 A 
ATOM     47  C   UNL A   1      43.147  25.290  27.347  1.00  0.00     0.049 A 
ATOM     48  H   UNL A   1      44.059  27.158  27.485  1.00  0.00     0.167 HD
ATOM     49  C   UNL A   1      45.866  31.148  27.936  1.00  0.00     0.031 A 
ATOM     50  C   UNL A   1      44.089  24.421  26.935  1.00  0.00     0.031 A 
ATOM     51  C   UNL A   1      46.947  30.281  27.555  1.00  0.00     0.049 A 
ATOM     52  C   UNL A   1      45.492  24.924  26.716  1.00  0.00     0.074 A 
ATOM     53  C   UNL A   1      48.282  30.596  27.385  1.00  0.00     0.029 A 
ATOM     54  N   UNL A   1      46.815  28.927  27.287  1.00  0.00    -0.354 N 
ATOM     55  N   UNL A   1      45.973  26.135  26.880  1.00  0.00    -0.248 NA
ATOM     56  C   UNL A   1      46.485  23.934  26.280  1.00  0.00     0.031 C 
ATOM     57  C   UNL A   1      48.947  29.446  26.952  1.00  0.00     0.029 A 
ATOM     58  C   UNL A   1      48.043  28.396  26.934  1.00  0.00     0.049 A 
ATOM     59  H   UNL A   1      45.973  28.420  27.342  1.00  0.00     0.167 HD
ATOM     60  C   UNL A   1      47.336  26.039  26.610  1.00  0.00     0.074 A 
ATOM     61  C   UNL A   1      47.600  24.649  26.297  1.00  0.00     0.031 C 
ATOM     62  C   UNL A   1      48.286  27.008  26.627  1.00  0.00     0.031 A 
BRANCH  49  63
ATOM     63  C   UNL A   1      46.152  32.608  28.174  1.00  0.00    -0.014 A 
ATOM     64  C   UNL A   1      46.073  33.546  27.127  1.00  0.00     0.010 A 
ATOM     65  C   UNL A   1      46.475  33.057  29.468  1.00  0.00     0.010 A 
ATOM     66  C   UNL A   1      46.345  34.895  27.360  1.00  0.00     0.020 A 
ATOM     67  C   UNL A   1      46.711  34.412  29.713  1.00  0.00     0.020 A 
ATOM     68  C   UNL A   1      46.657  35.321  28.654  1.00  0.00     0.054 A 
BRANCH  68  69
ATOM     69  S   UNL A   1      46.959  37.086  28.934  1.00  0.00     0.124 S 
ATOM     70  O   UNL A   1      45.620  37.574  29.260  1.00  0.00    -0.237 OA
ATOM     71  O   UNL A   1      47.909  37.074  30.043  1.00  0.00    -0.237 OA
ATOM     72  O   UNL A   1      47.496  37.555  27.659  1.00  0.00    -0.744 OA
ENDBRANCH  68  69
ENDBRANCH  49  63
BRANCH  50  73
ATOM     73  C   UNL A   1      43.754  22.983  26.724  1.00  0.00    -0.014 A 
ATOM     74  C   UNL A   1      44.230  22.292  25.594  1.00  0.00     0.010 A 
ATOM     75  C   UNL A   1      42.930  22.302  27.639  1.00  0.00     0.010 A 
ATOM     76  C   UNL A   1      43.853  20.965  25.361  1.00  0.00     0.020 A 
ATOM     77  C   UNL A   1      42.582  20.964  27.430  1.00  0.00     0.020 A 
ATOM     78  C   UNL A   1      43.030  20.311  26.280  1.00  0.00     0.054 A 
BRANCH  78  79
ATOM     79  S   UNL A   1      42.570  18.585  25.966  1.00  0.00     0.124 S 
ATOM     80  O   UNL A   1      41.138  18.694  25.708  1.00  0.00    -0.237 OA
ATOM     81  O   UNL A   1      43.398  18.244  24.812  1.00  0.00    -0.237 OA
ATOM     82  O   UNL A   1      42.931  17.903  27.207  1.00  0.00    -0.744 OA
ENDBRANCH  78  79
ENDBRANCH  50  73
BRANCH  62  83
ATOM     83  C   UNL A   1      49.708  26.586  26.363  1.00  0.00    -0.014 A 
ATOM     84  C   UNL A   1      50.287  26.682  25.084  1.00  0.00     0.010 A 
ATOM     85  C   UNL A   1      50.485  26.092  27.428  1.00  0.00     0.010 A 
ATOM     86  C   UNL A   1      51.589  26.227  24.863  1.00  0.00     0.020 A 
ATOM     87  C   UNL A   1      51.801  25.677  27.221  1.00  0.00     0.020 A 
ATOM     88  C   UNL A   1      52.336  25.722  25.933  1.00  0.00     0.054 A 
BRANCH  88  89
ATOM     89  S   UNL A   1      54.020  25.132  25.619  1.00  0.00     0.124 S 
ATOM     90  O   UNL A   1      53.852  23.683  25.686  1.00  0.00    -0.237 OA
ATOM     91  O   UNL A   1      54.304  25.671  24.291  1.00  0.00    -0.237 OA
ATOM     92  O   UNL A   1      54.802  25.719  26.704  1.00  0.00    -0.744 OA
ENDBRANCH  88  89
ENDBRANCH  62  83
ENDBRANCH  36  37
ENDBRANCH  28  31
ENDBRANCH  26  27
ENDBRANCH   1  26
TORSDOF 17
ENDMDL
MODEL 2
REMARK VINA RESULT:     -12.2      4.723      5.910
REMARK SMILES N#Cc1ccc(C(F)(F)F)nc1N1CCOC[C@H]1C(=O)NCCCCNC(=O)c1ccc(-c2c3nc(c(-c4ccc(S(=O)(=O)[O-])cc4)c4ccc([nH]4)c(-c4ccc(S(=O)(=O)[O-])cc4)c4nc(c(-c5ccc(S(=O)(=O)[O-])cc5)c5ccc2[nH]5)C=C4)C=C3)cc1
REMARK SMILES IDX 24 1 23 2 22 3 21 4 19 5 20 6 18 8 13 9 14 10 15 11 17 12
REMARK SMILES IDX 16 13 12 14 3 15 4 16 5 17 11 18 6 19 2 20 1 21 7 22 8 23
REMARK SMILES IDX 9 24 10 25 25 26 26 27 27 28 28 30 29 31 30 32 88 33 31 34
REMARK SMILES IDX 87 35 32 36 33 37 34 38 81 39 35 40 86 41 80 42 82 43 36 44
REMARK SMILES IDX 85 45 79 46 78 47 37 49 67 50 48 51 66 52 49 53 52 54 65 55
REMARK SMILES IDX 83 56 50 57 51 58 64 60 84 61 53 62 38 63 39 64 47 65 40 66
REMARK SMILES IDX 46 67 41 68 42 69 43 70 44 71 45 72 68 73 69 74 77 75 70 76
REMARK SMILES IDX 76 77 71 78 72 79 73 80 74 81 75 82 54 83 55 84 63 85 56 86
REMARK SMILES IDX 62 87 57 88 58 89 59 90 60 91 61 92
REMARK H PARENT 21 7 26 29 82 48 52 59
REMARK Flexibility Score: inf
ROOT
ATOM      1  C   UNL A   1      32.619  27.746  26.326  1.00  0.00     0.023 C 
ENDROOT
BRANCH   1   2
ATOM      2  C   UNL A   1      32.860  27.030  25.011  1.00  0.00     0.023 C 
BRANCH   2   3
ATOM      3  C   UNL A   1      33.018  25.512  25.134  1.00  0.00     0.116 C 
BRANCH   3   4
ATOM      4  N   UNL A   1      33.854  24.975  24.083  1.00  0.00    -0.354 N 
ATOM      5  C   UNL A   1      33.892  23.791  23.414  1.00  0.00     0.245 C 
ATOM      6  O   UNL A   1      34.752  23.741  22.519  1.00  0.00    -0.273 OA
ATOM      7  H   UNL A   1      34.550  25.605  23.786  1.00  0.00     0.163 HD
BRANCH   5   8
ATOM      8  C   UNL A   1      32.925  22.593  23.595  1.00  0.00     0.199 C 
ATOM      9  N   UNL A   1      33.094  21.739  24.796  1.00  0.00    -0.339 N 
ATOM     10  C   UNL A   1      32.434  22.191  26.013  1.00  0.00     0.147 C 
ATOM     11  C   UNL A   1      30.969  22.538  25.740  1.00  0.00     0.181 C 
ATOM     12  C   UNL A   1      31.440  22.989  23.441  1.00  0.00     0.195 C 
ATOM     13  O   UNL A   1      30.810  23.451  24.646  1.00  0.00    -0.377 OA
BRANCH   9  14
ATOM     14  C   UNL A   1      33.931  20.643  24.816  1.00  0.00     0.148 A 
ATOM     15  C   UNL A   1      35.301  20.745  25.120  1.00  0.00     0.095 A 
ATOM     16  C   UNL A   1      36.143  19.647  24.939  1.00  0.00     0.025 A 
ATOM     17  C   UNL A   1      35.605  18.439  24.528  1.00  0.00     0.035 A 
ATOM     18  N   UNL A   1      33.404  19.437  24.490  1.00  0.00    -0.225 NA
ATOM     19  C   UNL A   1      34.227  18.347  24.345  1.00  0.00     0.146 A 
BRANCH  15  20
ATOM     20  C   UNL A   1      35.883  21.933  25.675  1.00  0.00     0.103 C 
ATOM     21  N   UNL A   1      36.374  22.887  26.112  1.00  0.00    -0.192 NA
ENDBRANCH  15  20
BRANCH  19  22
ATOM     22  C   UNL A   1      33.636  16.988  23.972  1.00  0.00     0.433 C 
ATOM     23  F   UNL A   1      32.479  17.079  23.260  1.00  0.00    -0.165 F 
ATOM     24  F   UNL A   1      34.482  16.204  23.248  1.00  0.00    -0.165 F 
ATOM     25  F   UNL A   1      33.313  16.238  25.074  1.00  0.00    -0.165 F 
ENDBRANCH  19  22
ENDBRANCH   9  14
ENDBRANCH   5   8
ENDBRANCH   3   4
ENDBRANCH   2   3
ENDBRANCH   1   2
BRANCH   1  26
ATOM     26  C   UNL A   1      33.869  28.377  26.913  1.00  0.00     0.116 C 
BRANCH  26  27
ATOM     27  N   UNL A   1      33.668  29.730  27.424  1.00  0.00    -0.352 N 
ATOM     28  C   UNL A   1      34.572  30.496  28.124  1.00  0.00     0.251 C 
ATOM     29  H   UNL A   1      32.790  30.137  27.250  1.00  0.00     0.163 HD
ATOM     30  O   UNL A   1      34.247  31.574  28.609  1.00  0.00    -0.269 OA
BRANCH  28  31
ATOM     31  C   UNL A   1      35.936  29.961  28.298  1.00  0.00     0.039 A 
ATOM     32  C   UNL A   1      36.866  30.094  27.268  1.00  0.00     0.014 A 
ATOM     33  C   UNL A   1      36.313  29.441  29.540  1.00  0.00     0.014 A 
ATOM     34  C   UNL A   1      38.193  29.740  27.506  1.00  0.00     0.010 A 
ATOM     35  C   UNL A   1      37.654  29.232  29.814  1.00  0.00     0.010 A 
ATOM     36  C   UNL A   1      38.603  29.332  28.788  1.00  0.00    -0.014 A 
BRANCH  36  37
ATOM     37  C   UNL A   1      40.001  28.917  29.058  1.00  0.00     0.031 A 
ATOM     38  C   UNL A   1      40.930  29.876  29.760  1.00  0.00     0.074 A 
ATOM     39  C   UNL A   1      40.438  27.705  28.664  1.00  0.00     0.049 A 
ATOM     40  N   UNL A   1      42.185  29.716  30.090  1.00  0.00    -0.248 NA
ATOM     41  C   UNL A   1      40.389  31.204  30.110  1.00  0.00     0.031 C 
ATOM     42  C   UNL A   1      39.646  26.707  27.939  1.00  0.00     0.029 A 
ATOM     43  N   UNL A   1      41.657  27.099  28.833  1.00  0.00    -0.354 N 
ATOM     44  C   UNL A   1      42.574  30.916  30.675  1.00  0.00     0.074 A 
ATOM     45  C   UNL A   1      41.460  31.825  30.572  1.00  0.00     0.031 C 
ATOM     46  C   UNL A   1      40.382  25.595  27.778  1.00  0.00     0.029 A 
ATOM     47  C   UNL A   1      41.710  25.815  28.343  1.00  0.00     0.049 A 
ATOM     48  H   UNL A   1      42.423  27.542  29.266  1.00  0.00     0.167 HD
ATOM     49  C   UNL A   1      43.740  31.224  31.289  1.00  0.00     0.031 A 
ATOM     50  C   UNL A   1      42.714  24.919  28.356  1.00  0.00     0.031 A 
ATOM     51  C   UNL A   1      44.844  30.312  31.402  1.00  0.00     0.049 A 
ATOM     52  C   UNL A   1      44.017  25.299  29.010  1.00  0.00     0.074 A 
ATOM     53  C   UNL A   1      46.061  30.508  32.028  1.00  0.00     0.029 A 
ATOM     54  N   UNL A   1      44.863  29.028  30.877  1.00  0.00    -0.354 N 
ATOM     55  N   UNL A   1      44.346  26.420  29.611  1.00  0.00    -0.248 NA
ATOM     56  C   UNL A   1      45.076  24.282  29.009  1.00  0.00     0.031 C 
ATOM     57  C   UNL A   1      46.841  29.366  31.827  1.00  0.00     0.029 A 
ATOM     58  C   UNL A   1      46.080  28.427  31.148  1.00  0.00     0.049 A 
ATOM     59  H   UNL A   1      44.121  28.607  30.386  1.00  0.00     0.167 HD
ATOM     60  C   UNL A   1      45.635  26.223  30.098  1.00  0.00     0.074 A 
ATOM     61  C   UNL A   1      46.011  24.870  29.741  1.00  0.00     0.031 C 
ATOM     62  C   UNL A   1      46.435  27.078  30.785  1.00  0.00     0.031 A 
BRANCH  49  63
ATOM     63  C   UNL A   1      43.868  32.600  31.890  1.00  0.00    -0.014 A 
ATOM     64  C   UNL A   1      44.437  33.662  31.162  1.00  0.00     0.010 A 
ATOM     65  C   UNL A   1      43.385  32.845  33.188  1.00  0.00     0.010 A 
ATOM     66  C   UNL A   1      44.554  34.932  31.732  1.00  0.00     0.020 A 
ATOM     67  C   UNL A   1      43.466  34.123  33.748  1.00  0.00     0.020 A 
ATOM     68  C   UNL A   1      44.062  35.155  33.021  1.00  0.00     0.054 A 
BRANCH  68  69
ATOM     69  S   UNL A   1      44.185  36.825  33.715  1.00  0.00     0.124 S 
ATOM     70  O   UNL A   1      43.292  36.739  34.869  1.00  0.00    -0.237 OA
ATOM     71  O   UNL A   1      45.606  36.935  34.030  1.00  0.00    -0.237 OA
ATOM     72  O   UNL A   1      43.719  37.688  32.632  1.00  0.00    -0.744 OA
ENDBRANCH  68  69
ENDBRANCH  49  63
BRANCH  50  73
ATOM     73  C   UNL A   1      42.532  23.566  27.756  1.00  0.00    -0.014 A 
ATOM     74  C   UNL A   1      41.946  22.523  28.497  1.00  0.00     0.010 A 
ATOM     75  C   UNL A   1      42.973  23.302  26.446  1.00  0.00     0.010 A 
ATOM     76  C   UNL A   1      41.844  21.236  27.959  1.00  0.00     0.020 A 
ATOM     77  C   UNL A   1      42.839  22.026  25.889  1.00  0.00     0.020 A 
ATOM     78  C   UNL A   1      42.293  20.997  26.658  1.00  0.00     0.054 A 
BRANCH  78  79
ATOM     79  S   UNL A   1      42.134  19.324  25.974  1.00  0.00     0.124 S 
ATOM     80  O   UNL A   1      42.639  18.500  27.067  1.00  0.00    -0.237 OA
ATOM     81  O   UNL A   1      40.701  19.226  25.713  1.00  0.00    -0.237 OA
ATOM     82  O   UNL A   1      42.977  19.362  24.780  1.00  0.00    -0.744 OA
ENDBRANCH  78  79
ENDBRANCH  50  73
BRANCH  62  83
ATOM     83  C   UNL A   1      47.767  26.551  31.253  1.00  0.00    -0.014 A 
ATOM     84  C   UNL A   1      48.943  26.735  30.504  1.00  0.00     0.010 A 
ATOM     85  C   UNL A   1      47.840  25.867  32.481  1.00  0.00     0.010 A 
ATOM     86  C   UNL A   1      50.150  26.183  30.940  1.00  0.00     0.020 A 
ATOM     87  C   UNL A   1      49.052  25.352  32.942  1.00  0.00     0.020 A 
ATOM     88  C   UNL A   1      50.195  25.490  32.155  1.00  0.00     0.054 A 
BRANCH  88  89
ATOM     89  S   UNL A   1      51.772  24.778  32.695  1.00  0.00     0.124 S 
ATOM     90  O   UNL A   1      51.930  25.364  34.023  1.00  0.00    -0.237 OA
ATOM     91  O   UNL A   1      51.500  23.343  32.668  1.00  0.00    -0.237 OA
ATOM     92  O   UNL A   1      52.725  25.245  31.691  1.00  0.00    -0.744 OA
ENDBRANCH  88  89
ENDBRANCH  62  83
ENDBRANCH  36  37
ENDBRANCH  28  31
ENDBRANCH  26  27
ENDBRANCH   1  26
TORSDOF 17
ENDMDL
MODEL 3
REMARK VINA RESULT:     -12.0      4.107      9.800
REMARK SMILES N#Cc1ccc(C(F)(F)F)nc1N1CCOC[C@H]1C(=O)NCCCCNC(=O)c1ccc(-c2c3nc(c(-c4ccc(S(=O)(=O)[O-])cc4)c4ccc([nH]4)c(-c4ccc(S(=O)(=O)[O-])cc4)c4nc(c(-c5ccc(S(=O)(=O)[O-])cc5)c5ccc2[nH]5)C=C4)C=C3)cc1
REMARK SMILES IDX 24 1 23 2 22 3 21 4 19 5 20 6 18 8 13 9 14 10 15 11 17 12
REMARK SMILES IDX 16 13 12 14 3 15 4 16 5 17 11 18 6 19 2 20 1 21 7 22 8 23
REMARK SMILES IDX 9 24 10 25 25 26 26 27 27 28 28 30 29 31 30 32 88 33 31 34
REMARK SMILES IDX 87 35 32 36 33 37 34 38 81 39 35 40 86 41 80 42 82 43 36 44
REMARK SMILES IDX 85 45 79 46 78 47 37 49 67 50 48 51 66 52 49 53 52 54 65 55
REMARK SMILES IDX 83 56 50 57 51 58 64 60 84 61 53 62 38 63 39 64 47 65 40 66
REMARK SMILES IDX 46 67 41 68 42 69 43 70 44 71 45 72 68 73 69 74 77 75 70 76
REMARK SMILES IDX 76 77 71 78 72 79 73 80 74 81 75 82 54 83 55 84 63 85 56 86
REMARK SMILES IDX 62 87 57 88 58 89 59 90 60 91 61 92
REMARK H PARENT 21 7 26 29 82 48 52 59
REMARK Flexibility Score: inf
ROOT
ATOM      1  C   UNL A   1      35.365  23.907  25.005  1.00  0.00     0.023 C 
ENDROOT
BRANCH   1   2
ATOM      2  C   UNL A   1      34.178  24.469  25.764  1.00  0.00     0.023 C 
BRANCH   2   3
ATOM      3  C   UNL A   1      32.872  23.693  25.566  1.00  0.00     0.116 C 
BRANCH   3   4
ATOM      4  N   UNL A   1      31.752  24.365  26.185  1.00  0.00    -0.354 N 
ATOM      5  C   UNL A   1      30.731  25.133  25.718  1.00  0.00     0.245 C 
ATOM      6  O   UNL A   1      29.920  25.486  26.590  1.00  0.00    -0.273 OA
ATOM      7  H   UNL A   1      31.721  24.239  27.161  1.00  0.00     0.163 HD
BRANCH   5   8
ATOM      8  C   UNL A   1      30.450  25.500  24.238  1.00  0.00     0.199 C 
ATOM      9  N   UNL A   1      31.227  26.612  23.638  1.00  0.00    -0.339 N 
ATOM     10  C   UNL A   1      32.533  26.270  23.091  1.00  0.00     0.147 C 
ATOM     11  C   UNL A   1      32.434  25.056  22.166  1.00  0.00     0.181 C 
ATOM     12  C   UNL A   1      30.480  24.275  23.298  1.00  0.00     0.195 C 
ATOM     13  O   UNL A   1      31.778  23.940  22.782  1.00  0.00    -0.377 OA
BRANCH   9  14
ATOM     14  C   UNL A   1      30.812  27.926  23.699  1.00  0.00     0.148 A 
ATOM     15  C   UNL A   1      31.487  28.895  24.465  1.00  0.00     0.095 A 
ATOM     16  C   UNL A   1      30.923  30.158  24.651  1.00  0.00     0.025 A 
ATOM     17  C   UNL A   1      29.733  30.470  24.017  1.00  0.00     0.035 A 
ATOM     18  N   UNL A   1      29.690  28.268  23.021  1.00  0.00    -0.225 NA
ATOM     19  C   UNL A   1      29.152  29.523  23.177  1.00  0.00     0.146 A 
BRANCH  15  20
ATOM     20  C   UNL A   1      32.785  28.666  25.032  1.00  0.00     0.103 C 
ATOM     21  N   UNL A   1      33.822  28.476  25.511  1.00  0.00    -0.192 NA
ENDBRANCH  15  20
BRANCH  19  22
ATOM     22  C   UNL A   1      27.883  29.910  22.418  1.00  0.00     0.433 C 
ATOM     23  F   UNL A   1      26.806  29.140  22.739  1.00  0.00    -0.165 F 
ATOM     24  F   UNL A   1      27.509  31.206  22.604  1.00  0.00    -0.165 F 
ATOM     25  F   UNL A   1      28.023  29.771  21.061  1.00  0.00    -0.165 F 
ENDBRANCH  19  22
ENDBRANCH   9  14
ENDBRANCH   5   8
ENDBRANCH   3   4
ENDBRANCH   2   3
ENDBRANCH   1   2
BRANCH   1  26
ATOM     26  C   UNL A   1      36.695  24.136  25.700  1.00  0.00     0.116 C 
BRANCH  26  27
ATOM     27  N   UNL A   1      37.596  22.989  25.651  1.00  0.00    -0.352 N 
ATOM     28  C   UNL A   1      38.897  22.936  26.098  1.00  0.00     0.251 C 
ATOM     29  H   UNL A   1      37.235  22.165  25.255  1.00  0.00     0.163 HD
ATOM     30  O   UNL A   1      39.598  21.952  25.891  1.00  0.00    -0.269 OA
BRANCH  28  31
ATOM     31  C   UNL A   1      39.430  24.117  26.804  1.00  0.00     0.039 A 
ATOM     32  C   UNL A   1      40.115  25.097  26.087  1.00  0.00     0.014 A 
ATOM     33  C   UNL A   1      39.131  24.298  28.158  1.00  0.00     0.014 A 
ATOM     34  C   UNL A   1      40.462  26.285  26.729  1.00  0.00     0.010 A 
ATOM     35  C   UNL A   1      39.347  25.533  28.744  1.00  0.00     0.010 A 
ATOM     36  C   UNL A   1      40.058  26.524  28.054  1.00  0.00    -0.014 A 
BRANCH  36  37
ATOM     37  C   UNL A   1      40.445  27.763  28.770  1.00  0.00     0.031 A 
ATOM     38  C   UNL A   1      41.835  27.876  29.345  1.00  0.00     0.074 A 
ATOM     39  C   UNL A   1      39.559  28.767  28.919  1.00  0.00     0.049 A 
ATOM     40  N   UNL A   1      42.376  28.866  30.007  1.00  0.00    -0.248 NA
ATOM     41  C   UNL A   1      42.727  26.711  29.186  1.00  0.00     0.031 C 
ATOM     42  C   UNL A   1      38.172  28.758  28.444  1.00  0.00     0.029 A 
ATOM     43  N   UNL A   1      39.699  30.001  29.502  1.00  0.00    -0.354 N 
ATOM     44  C   UNL A   1      43.656  28.439  30.340  1.00  0.00     0.074 A 
ATOM     45  C   UNL A   1      43.781  27.072  29.896  1.00  0.00     0.031 C 
ATOM     46  C   UNL A   1      37.610  29.950  28.704  1.00  0.00     0.029 A 
ATOM     47  C   UNL A   1      38.577  30.790  29.405  1.00  0.00     0.049 A 
ATOM     48  H   UNL A   1      40.527  30.294  29.947  1.00  0.00     0.167 HD
ATOM     49  C   UNL A   1      44.660  29.133  30.923  1.00  0.00     0.031 A 
ATOM     50  C   UNL A   1      38.359  32.050  29.828  1.00  0.00     0.031 A 
ATOM     51  C   UNL A   1      44.537  30.499  31.353  1.00  0.00     0.049 A 
ATOM     52  C   UNL A   1      39.480  32.789  30.510  1.00  0.00     0.074 A 
ATOM     53  C   UNL A   1      45.498  31.309  31.928  1.00  0.00     0.029 A 
ATOM     54  N   UNL A   1      43.379  31.255  31.253  1.00  0.00    -0.354 N 
ATOM     55  N   UNL A   1      40.704  32.387  30.764  1.00  0.00    -0.248 NA
ATOM     56  C   UNL A   1      39.196  34.164  30.940  1.00  0.00     0.031 C 
ATOM     57  C   UNL A   1      44.903  32.536  32.234  1.00  0.00     0.029 A 
ATOM     58  C   UNL A   1      43.596  32.518  31.773  1.00  0.00     0.049 A 
ATOM     59  H   UNL A   1      42.530  30.940  30.867  1.00  0.00     0.167 HD
ATOM     60  C   UNL A   1      41.348  33.477  31.343  1.00  0.00     0.074 A 
ATOM     61  C   UNL A   1      40.383  34.557  31.378  1.00  0.00     0.031 C 
ATOM     62  C   UNL A   1      42.622  33.581  31.798  1.00  0.00     0.031 A 
BRANCH  49  63
ATOM     63  C   UNL A   1      45.976  28.425  31.116  1.00  0.00    -0.014 A 
ATOM     64  C   UNL A   1      46.977  28.464  30.126  1.00  0.00     0.010 A 
ATOM     65  C   UNL A   1      46.232  27.737  32.316  1.00  0.00     0.010 A 
ATOM     66  C   UNL A   1      48.190  27.800  30.316  1.00  0.00     0.020 A 
ATOM     67  C   UNL A   1      47.459  27.103  32.526  1.00  0.00     0.020 A 
ATOM     68  C   UNL A   1      48.425  27.127  31.518  1.00  0.00     0.054 A 
BRANCH  68  69
ATOM     69  S   UNL A   1      50.029  26.315  31.755  1.00  0.00     0.124 S 
ATOM     70  O   UNL A   1      49.635  24.923  31.965  1.00  0.00    -0.237 OA
ATOM     71  O   UNL A   1      50.713  26.589  30.494  1.00  0.00    -0.237 OA
ATOM     72  O   UNL A   1      50.590  26.986  32.925  1.00  0.00    -0.744 OA
ENDBRANCH  68  69
ENDBRANCH  49  63
BRANCH  50  73
ATOM     73  C   UNL A   1      37.040  32.708  29.602  1.00  0.00    -0.014 A 
ATOM     74  C   UNL A   1      36.769  33.382  28.396  1.00  0.00     0.010 A 
ATOM     75  C   UNL A   1      36.056  32.693  30.607  1.00  0.00     0.010 A 
ATOM     76  C   UNL A   1      35.560  34.062  28.218  1.00  0.00     0.020 A 
ATOM     77  C   UNL A   1      34.830  33.340  30.418  1.00  0.00     0.020 A 
ATOM     78  C   UNL A   1      34.599  34.037  29.231  1.00  0.00     0.054 A 
BRANCH  78  79
ATOM     79  S   UNL A   1      33.031  34.911  28.969  1.00  0.00     0.124 S 
ATOM     80  O   UNL A   1      32.359  34.048  28.004  1.00  0.00    -0.237 OA
ATOM     81  O   UNL A   1      32.456  34.933  30.311  1.00  0.00    -0.237 OA
ATOM     82  O   UNL A   1      33.449  36.215  28.457  1.00  0.00    -0.744 OA
ENDBRANCH  78  79
ENDBRANCH  50  73
BRANCH  62  83
ATOM     83  C   UNL A   1      43.064  34.928  32.310  1.00  0.00    -0.014 A 
ATOM     84  C   UNL A   1      42.871  35.314  33.649  1.00  0.00     0.010 A 
ATOM     85  C   UNL A   1      43.701  35.821  31.428  1.00  0.00     0.010 A 
ATOM     86  C   UNL A   1      43.241  36.592  34.075  1.00  0.00     0.020 A 
ATOM     87  C   UNL A   1      44.112  37.082  31.860  1.00  0.00     0.020 A 
ATOM     88  C   UNL A   1      43.854  37.470  33.175  1.00  0.00     0.054 A 
BRANCH  88  89
ATOM     89  S   UNL A   1      44.319  39.124  33.752  1.00  0.00     0.124 S 
ATOM     90  O   UNL A   1      43.070  39.864  33.590  1.00  0.00    -0.237 OA
ATOM     91  O   UNL A   1      44.730  38.877  35.132  1.00  0.00    -0.237 OA
ATOM     92  O   UNL A   1      45.396  39.517  32.847  1.00  0.00    -0.744 OA
ENDBRANCH  88  89
ENDBRANCH  62  83
ENDBRANCH  36  37
ENDBRANCH  28  31
ENDBRANCH  26  27
ENDBRANCH   1  26
TORSDOF 17
ENDMDL
