MODEL 1
REMARK VINA RESULT:     -11.5      0.000      0.000
REMARK SMILES C#Cc1cc(Cl)cc2c1O[C@H](C(F)(F)F)C(C(=O)NCCCCNC(=O)c1ccc(-c3c4nc(c(-c5ccc(S(=O)(=O)[O-])cc5)c5ccc([nH]5)c(-c5ccc(S(=O)(=O)[O-])cc5)c5nc(c(-c6ccc(S(=O)(=O)[O-])cc6)c6ccc3[nH]6)C=C5)C=C4)cc1)=C2
REMARK SMILES IDX 22 1 21 2 20 3 19 4 17 5 18 6 16 8 3 9 4 10 9 11 5 12 8 13
REMARK SMILES IDX 10 14 6 15 7 16 87 17 11 18 2 19 1 20 12 21 13 22 14 23
REMARK SMILES IDX 15 24 23 25 24 26 25 27 26 29 27 30 28 31 86 32 29 33 85 34
REMARK SMILES IDX 30 35 31 36 32 37 79 38 33 39 84 40 78 41 80 42 34 43 83 44
REMARK SMILES IDX 77 45 76 46 35 48 65 49 46 50 64 51 47 52 50 53 63 54 81 55
REMARK SMILES IDX 48 56 49 57 62 59 82 60 51 61 36 62 37 63 45 64 38 65 44 66
REMARK SMILES IDX 39 67 40 68 41 69 42 70 43 71 66 72 67 73 75 74 68 75 74 76
REMARK SMILES IDX 69 77 70 78 71 79 72 80 73 81 52 82 53 83 61 84 54 85 60 86
REMARK SMILES IDX 55 87 56 88 57 89 58 90 59 91
REMARK H PARENT 19 7 24 28 80 47 50 58
REMARK Flexibility Score: inf
ROOT
ATOM      1  C   UNL A   1      32.894  28.950  25.143  1.00  0.00     0.023 C 
ENDROOT
BRANCH   1   2
ATOM      2  C   UNL A   1      33.320  28.062  23.980  1.00  0.00     0.023 C 
BRANCH   2   3
ATOM      3  C   UNL A   1      32.344  26.926  23.708  1.00  0.00     0.116 C 
BRANCH   3   4
ATOM      4  N   UNL A   1      31.679  26.471  24.919  1.00  0.00    -0.352 N 
ATOM      5  C   UNL A   1      31.725  25.380  25.723  1.00  0.00     0.251 C 
ATOM      6  O   UNL A   1      30.998  25.412  26.719  1.00  0.00    -0.270 OA
ATOM      7  H   UNL A   1      31.021  27.129  25.241  1.00  0.00     0.163 HD
BRANCH   5   8
ATOM      8  C   UNL A   1      32.577  24.180  25.471  1.00  0.00     0.067 C 
ATOM      9  C   UNL A   1      34.976  20.751  25.076  1.00  0.00     0.068 A 
ATOM     10  C   UNL A   1      36.354  20.840  25.264  1.00  0.00     0.041 A 
ATOM     11  C   UNL A   1      34.182  21.895  25.235  1.00  0.00     0.143 A 
ATOM     12  C   UNL A   1      36.920  22.067  25.613  1.00  0.00     0.043 A 
ATOM     13  C   UNL A   1      34.746  23.123  25.591  1.00  0.00     0.020 A 
ATOM     14  O   UNL A   1      32.836  21.733  25.079  1.00  0.00    -0.474 OA
ATOM     15  Cl  UNL A   1      38.621  22.172  25.854  1.00  0.00    -0.084 Cl
ATOM     16  C   UNL A   1      36.128  23.206  25.779  1.00  0.00     0.032 A 
ATOM     17  C   UNL A   1      33.877  24.278  25.806  1.00  0.00     0.025 C 
ATOM     18  C   UNL A   1      32.048  22.921  24.858  1.00  0.00     0.314 C 
BRANCH   9  19
ATOM     19  C   UNL A   1      34.374  19.500  24.720  1.00  0.00    -0.067 C 
ATOM     20  C   UNL A   1      33.944  18.419  24.415  1.00  0.00     0.010 C 
ENDBRANCH   9  19
BRANCH  18  21
ATOM     21  C   UNL A   1      31.767  23.071  23.349  1.00  0.00     0.429 C 
ATOM     22  F   UNL A   1      30.560  23.657  23.148  1.00  0.00    -0.167 F 
ATOM     23  F   UNL A   1      32.679  23.848  22.719  1.00  0.00    -0.167 F 
ATOM     24  F   UNL A   1      31.756  21.881  22.706  1.00  0.00    -0.167 F 
ENDBRANCH  18  21
ENDBRANCH   5   8
ENDBRANCH   3   4
ENDBRANCH   2   3
ENDBRANCH   1   2
BRANCH   1  25
ATOM     25  C   UNL A   1      33.967  29.156  26.206  1.00  0.00     0.116 C 
BRANCH  25  26
ATOM     26  N   UNL A   1      33.760  30.355  27.011  1.00  0.00    -0.352 N 
ATOM     27  C   UNL A   1      34.573  30.852  28.003  1.00  0.00     0.251 C 
ATOM     28  H   UNL A   1      32.944  30.869  26.821  1.00  0.00     0.163 HD
ATOM     29  O   UNL A   1      34.219  31.799  28.693  1.00  0.00    -0.269 OA
BRANCH  27  30
ATOM     30  C   UNL A   1      35.864  30.182  28.234  1.00  0.00     0.039 A 
ATOM     31  C   UNL A   1      36.873  30.305  27.279  1.00  0.00     0.014 A 
ATOM     32  C   UNL A   1      36.102  29.545  29.456  1.00  0.00     0.014 A 
ATOM     33  C   UNL A   1      38.152  29.844  27.582  1.00  0.00     0.010 A 
ATOM     34  C   UNL A   1      37.398  29.180  29.792  1.00  0.00     0.010 A 
ATOM     35  C   UNL A   1      38.433  29.314  28.854  1.00  0.00    -0.014 A 
BRANCH  35  36
ATOM     36  C   UNL A   1      39.800  28.867  29.211  1.00  0.00     0.031 A 
ATOM     37  C   UNL A   1      40.704  29.788  29.982  1.00  0.00     0.074 A 
ATOM     38  C   UNL A   1      40.235  27.654  28.818  1.00  0.00     0.049 A 
ATOM     39  N   UNL A   1      41.931  29.587  30.385  1.00  0.00    -0.248 NA
ATOM     40  C   UNL A   1      40.167  31.116  30.329  1.00  0.00     0.031 C 
ATOM     41  C   UNL A   1      39.459  26.685  28.042  1.00  0.00     0.029 A 
ATOM     42  N   UNL A   1      41.436  27.024  29.028  1.00  0.00    -0.354 N 
ATOM     43  C   UNL A   1      42.310  30.759  31.029  1.00  0.00     0.074 A 
ATOM     44  C   UNL A   1      41.215  31.692  30.898  1.00  0.00     0.031 C 
ATOM     45  C   UNL A   1      40.184  25.565  27.885  1.00  0.00     0.029 A 
ATOM     46  C   UNL A   1      41.493  25.753  28.505  1.00  0.00     0.049 A 
ATOM     47  H   UNL A   1      42.187  27.441  29.509  1.00  0.00     0.167 HD
ATOM     48  C   UNL A   1      43.455  31.024  31.699  1.00  0.00     0.031 A 
ATOM     49  C   UNL A   1      42.484  24.841  28.524  1.00  0.00     0.031 A 
ATOM     50  C   UNL A   1      44.542  30.092  31.823  1.00  0.00     0.049 A 
ATOM     51  C   UNL A   1      43.771  25.177  29.227  1.00  0.00     0.074 A 
ATOM     52  C   UNL A   1      45.734  30.252  32.507  1.00  0.00     0.029 A 
ATOM     53  N   UNL A   1      44.575  28.831  31.246  1.00  0.00    -0.354 N 
ATOM     54  N   UNL A   1      44.090  26.269  29.882  1.00  0.00    -0.248 NA
ATOM     55  C   UNL A   1      44.829  24.158  29.201  1.00  0.00     0.031 C 
ATOM     56  C   UNL A   1      46.516  29.116  32.284  1.00  0.00     0.029 A 
ATOM     57  C   UNL A   1      45.782  28.215  31.527  1.00  0.00     0.049 A 
ATOM     58  H   UNL A   1      43.847  28.433  30.715  1.00  0.00     0.167 HD
ATOM     59  C   UNL A   1      45.377  26.060  30.365  1.00  0.00     0.074 A 
ATOM     60  C   UNL A   1      45.769  24.730  29.943  1.00  0.00     0.031 C 
ATOM     61  C   UNL A   1      46.162  26.894  31.092  1.00  0.00     0.031 A 
BRANCH  48  62
ATOM     62  C   UNL A   1      43.586  32.379  32.344  1.00  0.00    -0.014 A 
ATOM     63  C   UNL A   1      43.156  32.599  33.666  1.00  0.00     0.010 A 
ATOM     64  C   UNL A   1      44.178  33.439  31.633  1.00  0.00     0.010 A 
ATOM     65  C   UNL A   1      43.276  33.862  34.249  1.00  0.00     0.020 A 
ATOM     66  C   UNL A   1      44.333  34.695  32.227  1.00  0.00     0.020 A 
ATOM     67  C   UNL A   1      43.866  34.902  33.526  1.00  0.00     0.054 A 
BRANCH  67  68
ATOM     68  S   UNL A   1      44.026  36.524  34.321  1.00  0.00     0.124 S 
ATOM     69  O   UNL A   1      44.467  37.362  33.208  1.00  0.00    -0.237 OA
ATOM     70  O   UNL A   1      42.671  36.777  34.800  1.00  0.00    -0.237 OA
ATOM     71  O   UNL A   1      45.024  36.302  35.365  1.00  0.00    -0.744 OA
ENDBRANCH  67  68
ENDBRANCH  48  62
BRANCH  49  72
ATOM     72  C   UNL A   1      42.277  23.513  27.880  1.00  0.00    -0.014 A 
ATOM     73  C   UNL A   1      42.801  23.251  26.602  1.00  0.00     0.010 A 
ATOM     74  C   UNL A   1      41.595  22.487  28.561  1.00  0.00     0.010 A 
ATOM     75  C   UNL A   1      42.650  21.989  26.019  1.00  0.00     0.020 A 
ATOM     76  C   UNL A   1      41.469  21.216  27.994  1.00  0.00     0.020 A 
ATOM     77  C   UNL A   1      41.995  20.976  26.725  1.00  0.00     0.054 A 
BRANCH  77  78
ATOM     78  S   UNL A   1      41.884  19.325  25.978  1.00  0.00     0.124 S 
ATOM     79  O   UNL A   1      42.412  18.473  27.039  1.00  0.00    -0.237 OA
ATOM     80  O   UNL A   1      40.451  19.199  25.718  1.00  0.00    -0.237 OA
ATOM     81  O   UNL A   1      42.720  19.430  24.785  1.00  0.00    -0.744 OA
ENDBRANCH  77  78
ENDBRANCH  49  72
BRANCH  61  82
ATOM     82  C   UNL A   1      47.528  26.399  31.493  1.00  0.00    -0.014 A 
ATOM     83  C   UNL A   1      47.735  25.759  32.728  1.00  0.00     0.010 A 
ATOM     84  C   UNL A   1      48.598  26.495  30.583  1.00  0.00     0.010 A 
ATOM     85  C   UNL A   1      48.992  25.246  33.055  1.00  0.00     0.020 A 
ATOM     86  C   UNL A   1      49.846  25.951  30.892  1.00  0.00     0.020 A 
ATOM     87  C   UNL A   1      50.038  25.339  32.132  1.00  0.00     0.054 A 
BRANCH  87  88
ATOM     88  S   UNL A   1      51.643  24.613  32.564  1.00  0.00     0.124 S 
ATOM     89  O   UNL A   1      51.454  23.213  32.196  1.00  0.00    -0.237 OA
ATOM     90  O   UNL A   1      52.567  25.366  31.719  1.00  0.00    -0.237 OA
ATOM     91  O   UNL A   1      51.767  24.868  33.997  1.00  0.00    -0.744 OA
ENDBRANCH  87  88
ENDBRANCH  61  82
ENDBRANCH  35  36
ENDBRANCH  27  30
ENDBRANCH  25  26
ENDBRANCH   1  25
TORSDOF 16
ENDMDL
MODEL 2
REMARK VINA RESULT:     -10.9      1.070      8.224
REMARK SMILES C#Cc1cc(Cl)cc2c1O[C@H](C(F)(F)F)C(C(=O)NCCCCNC(=O)c1ccc(-c3c4nc(c(-c5ccc(S(=O)(=O)[O-])cc5)c5ccc([nH]5)c(-c5ccc(S(=O)(=O)[O-])cc5)c5nc(c(-c6ccc(S(=O)(=O)[O-])cc6)c6ccc3[nH]6)C=C5)C=C4)cc1)=C2
REMARK SMILES IDX 22 1 21 2 20 3 19 4 17 5 18 6 16 8 3 9 4 10 9 11 5 12 8 13
REMARK SMILES IDX 10 14 6 15 7 16 87 17 11 18 2 19 1 20 12 21 13 22 14 23
REMARK SMILES IDX 15 24 23 25 24 26 25 27 26 29 27 30 28 31 86 32 29 33 85 34
REMARK SMILES IDX 30 35 31 36 32 37 79 38 33 39 84 40 78 41 80 42 34 43 83 44
REMARK SMILES IDX 77 45 76 46 35 48 65 49 46 50 64 51 47 52 50 53 63 54 81 55
REMARK SMILES IDX 48 56 49 57 62 59 82 60 51 61 36 62 37 63 45 64 38 65 44 66
REMARK SMILES IDX 39 67 40 68 41 69 42 70 43 71 66 72 67 73 75 74 68 75 74 76
REMARK SMILES IDX 69 77 70 78 71 79 72 80 73 81 52 82 53 83 61 84 54 85 60 86
REMARK SMILES IDX 55 87 56 88 57 89 58 90 59 91
REMARK H PARENT 19 7 24 28 80 47 50 58
REMARK Flexibility Score: inf
ROOT
ATOM      1  C   UNL A   1      33.992  28.386  25.209  1.00  0.00     0.023 C 
ENDROOT
BRANCH   1   2
ATOM      2  C   UNL A   1      33.653  27.066  24.527  1.00  0.00     0.023 C 
BRANCH   2   3
ATOM      3  C   UNL A   1      32.171  26.925  24.204  1.00  0.00     0.116 C 
BRANCH   3   4
ATOM      4  N   UNL A   1      31.430  26.300  25.289  1.00  0.00    -0.352 N 
ATOM      5  C   UNL A   1      31.472  25.128  25.968  1.00  0.00     0.251 C 
ATOM      6  O   UNL A   1      30.658  25.007  26.887  1.00  0.00    -0.270 OA
ATOM      7  H   UNL A   1      30.707  26.882  25.616  1.00  0.00     0.163 HD
BRANCH   5   8
ATOM      8  C   UNL A   1      32.416  24.009  25.670  1.00  0.00     0.067 C 
ATOM      9  C   UNL A   1      35.075  20.798  25.138  1.00  0.00     0.068 A 
ATOM     10  C   UNL A   1      36.441  20.985  25.343  1.00  0.00     0.041 A 
ATOM     11  C   UNL A   1      34.194  21.869  25.343  1.00  0.00     0.143 A 
ATOM     12  C   UNL A   1      36.908  22.233  25.755  1.00  0.00     0.043 A 
ATOM     13  C   UNL A   1      34.659  23.119  25.761  1.00  0.00     0.020 A 
ATOM     14  O   UNL A   1      32.866  21.612  25.166  1.00  0.00    -0.474 OA
ATOM     15  Cl  UNL A   1      38.595  22.457  26.017  1.00  0.00    -0.084 Cl
ATOM     16  C   UNL A   1      36.029  23.299  25.966  1.00  0.00     0.032 A 
ATOM     17  C   UNL A   1      33.702  24.191  26.021  1.00  0.00     0.025 C 
ATOM     18  C   UNL A   1      31.989  22.744  24.993  1.00  0.00     0.314 C 
BRANCH   9  19
ATOM     19  C   UNL A   1      34.574  19.523  24.718  1.00  0.00    -0.067 C 
ATOM     20  C   UNL A   1      34.079  18.478  24.388  1.00  0.00     0.010 C 
ENDBRANCH   9  19
BRANCH  18  21
ATOM     21  C   UNL A   1      31.707  22.943  23.491  1.00  0.00     0.429 C 
ATOM     22  F   UNL A   1      31.853  21.771  22.822  1.00  0.00    -0.167 F 
ATOM     23  F   UNL A   1      30.446  23.369  23.244  1.00  0.00    -0.167 F 
ATOM     24  F   UNL A   1      32.541  23.844  22.924  1.00  0.00    -0.167 F 
ENDBRANCH  18  21
ENDBRANCH   5   8
ENDBRANCH   3   4
ENDBRANCH   2   3
ENDBRANCH   1   2
BRANCH   1  25
ATOM     25  C   UNL A   1      33.908  28.350  26.730  1.00  0.00     0.116 C 
BRANCH  25  26
ATOM     26  N   UNL A   1      33.644  29.655  27.325  1.00  0.00    -0.352 N 
ATOM     27  C   UNL A   1      34.484  30.407  28.112  1.00  0.00     0.251 C 
ATOM     28  H   UNL A   1      32.759  30.045  27.141  1.00  0.00     0.163 HD
ATOM     29  O   UNL A   1      34.093  31.431  28.657  1.00  0.00    -0.269 OA
BRANCH  27  30
ATOM     30  C   UNL A   1      35.860  29.917  28.311  1.00  0.00     0.039 A 
ATOM     31  C   UNL A   1      36.776  30.027  27.265  1.00  0.00     0.014 A 
ATOM     32  C   UNL A   1      36.259  29.473  29.575  1.00  0.00     0.014 A 
ATOM     33  C   UNL A   1      38.120  29.751  27.510  1.00  0.00     0.010 A 
ATOM     34  C   UNL A   1      37.609  29.298  29.840  1.00  0.00     0.010 A 
ATOM     35  C   UNL A   1      38.552  29.423  28.808  1.00  0.00    -0.014 A 
BRANCH  35  36
ATOM     36  C   UNL A   1      39.985  29.178  29.097  1.00  0.00     0.031 A 
ATOM     37  C   UNL A   1      40.584  27.835  28.790  1.00  0.00     0.074 A 
ATOM     38  C   UNL A   1      40.732  30.147  29.660  1.00  0.00     0.049 A 
ATOM     39  N   UNL A   1      41.810  27.421  28.972  1.00  0.00    -0.248 NA
ATOM     40  C   UNL A   1      39.684  26.815  28.223  1.00  0.00     0.031 C 
ATOM     41  C   UNL A   1      40.254  31.482  30.028  1.00  0.00     0.029 A 
ATOM     42  N   UNL A   1      42.059  30.163  30.010  1.00  0.00    -0.354 N 
ATOM     43  C   UNL A   1      41.826  26.099  28.544  1.00  0.00     0.074 A 
ATOM     44  C   UNL A   1      40.476  25.756  28.165  1.00  0.00     0.031 C 
ATOM     45  C   UNL A   1      41.284  32.201  30.505  1.00  0.00     0.029 A 
ATOM     46  C   UNL A   1      42.482  31.367  30.523  1.00  0.00     0.049 A 
ATOM     47  H   UNL A   1      42.654  29.386  29.903  1.00  0.00     0.167 HD
ATOM     48  C   UNL A   1      42.880  25.255  28.444  1.00  0.00     0.031 A 
ATOM     49  C   UNL A   1      43.697  31.757  30.956  1.00  0.00     0.031 A 
ATOM     50  C   UNL A   1      44.221  25.602  28.826  1.00  0.00     0.049 A 
ATOM     51  C   UNL A   1      44.842  30.785  30.888  1.00  0.00     0.074 A 
ATOM     52  C   UNL A   1      45.365  24.830  28.735  1.00  0.00     0.029 A 
ATOM     53  N   UNL A   1      44.599  26.818  29.377  1.00  0.00    -0.354 N 
ATOM     54  N   UNL A   1      44.852  29.556  30.424  1.00  0.00    -0.248 NA
ATOM     55  C   UNL A   1      46.141  31.250  31.392  1.00  0.00     0.031 C 
ATOM     56  C   UNL A   1      46.421  25.553  29.296  1.00  0.00     0.029 A 
ATOM     57  C   UNL A   1      45.953  26.805  29.665  1.00  0.00     0.049 A 
ATOM     58  H   UNL A   1      43.994  27.578  29.538  1.00  0.00     0.167 HD
ATOM     59  C   UNL A   1      46.162  29.109  30.562  1.00  0.00     0.074 A 
ATOM     60  C   UNL A   1      46.919  30.206  31.133  1.00  0.00     0.031 C 
ATOM     61  C   UNL A   1      46.690  27.901  30.243  1.00  0.00     0.031 A 
BRANCH  48  62
ATOM     62  C   UNL A   1      42.615  23.874  27.903  1.00  0.00    -0.014 A 
ATOM     63  C   UNL A   1      42.270  22.812  28.758  1.00  0.00     0.010 A 
ATOM     64  C   UNL A   1      42.676  23.643  26.516  1.00  0.00     0.010 A 
ATOM     65  C   UNL A   1      42.034  21.535  28.244  1.00  0.00     0.020 A 
ATOM     66  C   UNL A   1      42.405  22.375  25.994  1.00  0.00     0.020 A 
ATOM     67  C   UNL A   1      42.102  21.326  26.864  1.00  0.00     0.054 A 
BRANCH  67  68
ATOM     68  S   UNL A   1      41.769  19.661  26.226  1.00  0.00     0.124 S 
ATOM     69  O   UNL A   1      40.336  19.727  25.945  1.00  0.00    -0.237 OA
ATOM     70  O   UNL A   1      42.636  19.591  25.054  1.00  0.00    -0.237 OA
ATOM     71  O   UNL A   1      42.144  18.783  27.332  1.00  0.00    -0.744 OA
ENDBRANCH  67  68
ENDBRANCH  48  62
BRANCH  49  72
ATOM     72  C   UNL A   1      43.888  33.145  31.462  1.00  0.00    -0.014 A 
ATOM     73  C   UNL A   1      44.243  34.183  30.583  1.00  0.00     0.010 A 
ATOM     74  C   UNL A   1      43.672  33.447  32.821  1.00  0.00     0.010 A 
ATOM     75  C   UNL A   1      44.374  35.495  31.048  1.00  0.00     0.020 A 
ATOM     76  C   UNL A   1      43.773  34.763  33.284  1.00  0.00     0.020 A 
ATOM     77  C   UNL A   1      44.126  35.778  32.394  1.00  0.00     0.054 A 
BRANCH  77  78
ATOM     78  S   UNL A   1      44.224  37.501  32.955  1.00  0.00     0.124 S 
ATOM     79  O   UNL A   1      45.529  37.535  33.609  1.00  0.00    -0.237 OA
ATOM     80  O   UNL A   1      44.126  38.242  31.699  1.00  0.00    -0.237 OA
ATOM     81  O   UNL A   1      43.074  37.640  33.844  1.00  0.00    -0.744 OA
ENDBRANCH  77  78
ENDBRANCH  49  72
BRANCH  61  82
ATOM     82  C   UNL A   1      48.161  27.690  30.492  1.00  0.00    -0.014 A 
ATOM     83  C   UNL A   1      49.119  28.043  29.526  1.00  0.00     0.010 A 
ATOM     84  C   UNL A   1      48.594  27.219  31.746  1.00  0.00     0.010 A 
ATOM     85  C   UNL A   1      50.482  27.905  29.800  1.00  0.00     0.020 A 
ATOM     86  C   UNL A   1      49.956  27.113  32.036  1.00  0.00     0.020 A 
ATOM     87  C   UNL A   1      50.891  27.448  31.056  1.00  0.00     0.054 A 
BRANCH  87  88
ATOM     88  S   UNL A   1      52.668  27.332  31.400  1.00  0.00     0.124 S 
ATOM     89  O   UNL A   1      52.699  27.356  32.859  1.00  0.00    -0.237 OA
ATOM     90  O   UNL A   1      53.027  26.057  30.785  1.00  0.00    -0.237 OA
ATOM     91  O   UNL A   1      53.228  28.514  30.746  1.00  0.00    -0.744 OA
ENDBRANCH  87  88
ENDBRANCH  61  82
ENDBRANCH  35  36
ENDBRANCH  27  30
ENDBRANCH  25  26
ENDBRANCH   1  25
TORSDOF 16
ENDMDL
MODEL 3
REMARK VINA RESULT:     -10.8      3.197      3.893
REMARK SMILES C#Cc1cc(Cl)cc2c1O[C@H](C(F)(F)F)C(C(=O)NCCCCNC(=O)c1ccc(-c3c4nc(c(-c5ccc(S(=O)(=O)[O-])cc5)c5ccc([nH]5)c(-c5ccc(S(=O)(=O)[O-])cc5)c5nc(c(-c6ccc(S(=O)(=O)[O-])cc6)c6ccc3[nH]6)C=C5)C=C4)cc1)=C2
REMARK SMILES IDX 22 1 21 2 20 3 19 4 17 5 18 6 16 8 3 9 4 10 9 11 5 12 8 13
REMARK SMILES IDX 10 14 6 15 7 16 87 17 11 18 2 19 1 20 12 21 13 22 14 23
REMARK SMILES IDX 15 24 23 25 24 26 25 27 26 29 27 30 28 31 86 32 29 33 85 34
REMARK SMILES IDX 30 35 31 36 32 37 79 38 33 39 84 40 78 41 80 42 34 43 83 44
REMARK SMILES IDX 77 45 76 46 35 48 65 49 46 50 64 51 47 52 50 53 63 54 81 55
REMARK SMILES IDX 48 56 49 57 62 59 82 60 51 61 36 62 37 63 45 64 38 65 44 66
REMARK SMILES IDX 39 67 40 68 41 69 42 70 43 71 66 72 67 73 75 74 68 75 74 76
REMARK SMILES IDX 69 77 70 78 71 79 72 80 73 81 52 82 53 83 61 84 54 85 60 86
REMARK SMILES IDX 55 87 56 88 57 89 58 90 59 91
REMARK H PARENT 19 7 24 28 80 47 50 58
REMARK Flexibility Score: inf
ROOT
ATOM      1  C   UNL A   1      34.477  29.380  26.855  1.00  0.00     0.023 C 
ENDROOT
BRANCH   1   2
ATOM      2  C   UNL A   1      33.373  28.390  27.210  1.00  0.00     0.023 C 
BRANCH   2   3
ATOM      3  C   UNL A   1      33.164  27.323  26.145  1.00  0.00     0.116 C 
BRANCH   3   4
ATOM      4  N   UNL A   1      31.922  26.590  26.338  1.00  0.00    -0.352 N 
ATOM      5  C   UNL A   1      31.517  25.298  26.282  1.00  0.00     0.251 C 
ATOM      6  O   UNL A   1      30.336  25.089  26.571  1.00  0.00    -0.270 OA
ATOM      7  H   UNL A   1      31.179  27.193  26.570  1.00  0.00     0.163 HD
BRANCH   5   8
ATOM      8  C   UNL A   1      32.394  24.152  25.897  1.00  0.00     0.067 C 
ATOM      9  C   UNL A   1      34.873  20.849  25.118  1.00  0.00     0.068 A 
ATOM     10  C   UNL A   1      36.252  20.959  25.283  1.00  0.00     0.041 A 
ATOM     11  C   UNL A   1      34.053  21.948  25.405  1.00  0.00     0.143 A 
ATOM     12  C   UNL A   1      36.794  22.162  25.736  1.00  0.00     0.043 A 
ATOM     13  C   UNL A   1      34.593  23.153  25.865  1.00  0.00     0.020 A 
ATOM     14  O   UNL A   1      32.709  21.764  25.264  1.00  0.00    -0.474 OA
ATOM     15  Cl  UNL A   1      38.497  22.293  25.948  1.00  0.00    -0.084 Cl
ATOM     16  C   UNL A   1      35.976  23.257  26.029  1.00  0.00     0.032 A 
ATOM     17  C   UNL A   1      33.699  24.255  26.210  1.00  0.00     0.025 C 
ATOM     18  C   UNL A   1      31.883  22.944  25.176  1.00  0.00     0.314 C 
BRANCH   9  19
ATOM     19  C   UNL A   1      34.296  19.621  24.656  1.00  0.00    -0.067 C 
ATOM     20  C   UNL A   1      33.760  18.594  24.332  1.00  0.00     0.010 C 
ENDBRANCH   9  19
BRANCH  18  21
ATOM     21  C   UNL A   1      31.561  23.230  23.696  1.00  0.00     0.429 C 
ATOM     22  F   UNL A   1      32.412  24.161  23.197  1.00  0.00    -0.167 F 
ATOM     23  F   UNL A   1      31.687  22.136  22.909  1.00  0.00    -0.167 F 
ATOM     24  F   UNL A   1      30.302  23.693  23.523  1.00  0.00    -0.167 F 
ENDBRANCH  18  21
ENDBRANCH   5   8
ENDBRANCH   3   4
ENDBRANCH   2   3
ENDBRANCH   1   2
BRANCH   1  25
ATOM     25  C   UNL A   1      35.718  29.282  27.732  1.00  0.00     0.116 C 
BRANCH  25  26
ATOM     26  N   UNL A   1      35.470  29.635  29.126  1.00  0.00    -0.352 N 
ATOM     27  C   UNL A   1      36.391  29.749  30.142  1.00  0.00     0.251 C 
ATOM     28  H   UNL A   1      34.534  29.815  29.368  1.00  0.00     0.163 HD
ATOM     29  O   UNL A   1      36.035  29.926  31.300  1.00  0.00    -0.269 OA
BRANCH  27  30
ATOM     30  C   UNL A   1      37.817  29.610  29.796  1.00  0.00     0.039 A 
ATOM     31  C   UNL A   1      38.690  29.057  30.732  1.00  0.00     0.014 A 
ATOM     32  C   UNL A   1      38.245  29.912  28.500  1.00  0.00     0.014 A 
ATOM     33  C   UNL A   1      39.990  28.742  30.341  1.00  0.00     0.010 A 
ATOM     34  C   UNL A   1      39.505  29.504  28.088  1.00  0.00     0.010 A 
ATOM     35  C   UNL A   1      40.394  28.926  29.007  1.00  0.00    -0.014 A 
BRANCH  35  36
ATOM     36  C   UNL A   1      41.756  28.548  28.562  1.00  0.00     0.031 A 
ATOM     37  C   UNL A   1      42.846  29.583  28.546  1.00  0.00     0.074 A 
ATOM     38  C   UNL A   1      42.003  27.290  28.146  1.00  0.00     0.049 A 
ATOM     39  N   UNL A   1      44.097  29.454  28.189  1.00  0.00    -0.248 NA
ATOM     40  C   UNL A   1      42.479  30.946  28.969  1.00  0.00     0.031 C 
ATOM     41  C   UNL A   1      41.019  26.207  28.090  1.00  0.00     0.029 A 
ATOM     42  N   UNL A   1      43.163  26.706  27.702  1.00  0.00    -0.354 N 
ATOM     43  C   UNL A   1      44.661  30.714  28.342  1.00  0.00     0.074 A 
ATOM     44  C   UNL A   1      43.604  31.609  28.752  1.00  0.00     0.031 C 
ATOM     45  C   UNL A   1      41.628  25.080  27.686  1.00  0.00     0.029 A 
ATOM     46  C   UNL A   1      43.032  25.369  27.408  1.00  0.00     0.049 A 
ATOM     47  H   UNL A   1      44.010  27.198  27.605  1.00  0.00     0.167 HD
ATOM     48  C   UNL A   1      45.953  31.087  28.188  1.00  0.00     0.031 A 
ATOM     49  C   UNL A   1      43.939  24.476  26.966  1.00  0.00     0.031 A 
ATOM     50  C   UNL A   1      47.000  30.192  27.779  1.00  0.00     0.049 A 
ATOM     51  C   UNL A   1      45.358  24.925  26.748  1.00  0.00     0.074 A 
ATOM     52  C   UNL A   1      48.347  30.463  27.623  1.00  0.00     0.029 A 
ATOM     53  N   UNL A   1      46.818  28.856  27.453  1.00  0.00    -0.354 N 
ATOM     54  N   UNL A   1      45.888  26.109  26.956  1.00  0.00    -0.248 NA
ATOM     55  C   UNL A   1      46.304  23.920  26.245  1.00  0.00     0.031 C 
ATOM     56  C   UNL A   1      48.967  29.309  27.136  1.00  0.00     0.029 A 
ATOM     57  C   UNL A   1      48.022  28.297  27.062  1.00  0.00     0.049 A 
ATOM     58  H   UNL A   1      45.959  28.376  27.495  1.00  0.00     0.167 HD
ATOM     59  C   UNL A   1      47.234  25.984  26.628  1.00  0.00     0.074 A 
ATOM     60  C   UNL A   1      47.440  24.606  26.229  1.00  0.00     0.031 C 
ATOM     61  C   UNL A   1      48.210  26.926  26.657  1.00  0.00     0.031 A 
BRANCH  48  62
ATOM     62  C   UNL A   1      46.298  32.528  28.463  1.00  0.00    -0.014 A 
ATOM     63  C   UNL A   1      46.693  32.948  29.747  1.00  0.00     0.010 A 
ATOM     64  C   UNL A   1      46.263  33.468  27.417  1.00  0.00     0.010 A 
ATOM     65  C   UNL A   1      47.004  34.287  29.990  1.00  0.00     0.020 A 
ATOM     66  C   UNL A   1      46.608  34.802  27.649  1.00  0.00     0.020 A 
ATOM     67  C   UNL A   1      46.960  35.206  28.937  1.00  0.00     0.054 A 
BRANCH  67  68
ATOM     68  S   UNL A   1      47.391  36.934  29.282  1.00  0.00     0.124 S 
ATOM     69  O   UNL A   1      46.073  37.561  29.364  1.00  0.00    -0.237 OA
ATOM     70  O   UNL A   1      48.118  36.834  30.543  1.00  0.00    -0.237 OA
ATOM     71  O   UNL A   1      48.195  37.329  28.128  1.00  0.00    -0.744 OA
ENDBRANCH  67  68
ENDBRANCH  48  62
BRANCH  49  72
ATOM     72  C   UNL A   1      43.529  23.063  26.733  1.00  0.00    -0.014 A 
ATOM     73  C   UNL A   1      43.861  22.412  25.532  1.00  0.00     0.010 A 
ATOM     74  C   UNL A   1      42.844  22.343  27.731  1.00  0.00     0.010 A 
ATOM     75  C   UNL A   1      43.521  21.071  25.333  1.00  0.00     0.020 A 
ATOM     76  C   UNL A   1      42.529  20.994  27.548  1.00  0.00     0.020 A 
ATOM     77  C   UNL A   1      42.868  20.367  26.349  1.00  0.00     0.054 A 
BRANCH  77  78
ATOM     78  S   UNL A   1      42.509  18.606  26.097  1.00  0.00     0.124 S 
ATOM     79  O   UNL A   1      41.092  18.628  25.751  1.00  0.00    -0.237 OA
ATOM     80  O   UNL A   1      43.421  18.256  25.009  1.00  0.00    -0.237 OA
ATOM     81  O   UNL A   1      42.830  18.001  27.387  1.00  0.00    -0.744 OA
ENDBRANCH  77  78
ENDBRANCH  49  72
BRANCH  61  82
ATOM     82  C   UNL A   1      49.600  26.507  26.256  1.00  0.00    -0.014 A 
ATOM     83  C   UNL A   1      50.117  26.823  24.987  1.00  0.00     0.010 A 
ATOM     84  C   UNL A   1      50.433  25.869  27.195  1.00  0.00     0.010 A 
ATOM     85  C   UNL A   1      51.432  26.487  24.656  1.00  0.00     0.020 A 
ATOM     86  C   UNL A   1      51.759  25.563  26.879  1.00  0.00     0.020 A 
ATOM     87  C   UNL A   1      52.246  25.866  25.607  1.00  0.00     0.054 A 
BRANCH  87  88
ATOM     88  S   UNL A   1      53.965  25.494  25.165  1.00  0.00     0.124 S 
ATOM     89  O   UNL A   1      54.105  24.113  25.619  1.00  0.00    -0.237 OA
ATOM     90  O   UNL A   1      53.967  25.682  23.717  1.00  0.00    -0.237 OA
ATOM     91  O   UNL A   1      54.741  26.477  25.918  1.00  0.00    -0.744 OA
ENDBRANCH  87  88
ENDBRANCH  61  82
ENDBRANCH  35  36
ENDBRANCH  27  30
ENDBRANCH  25  26
ENDBRANCH   1  25
TORSDOF 16
ENDMDL
