MODEL 1
REMARK VINA RESULT:     -11.0      0.000      0.000
REMARK SMILES O=C(NCCCCNC(=O)c1cc(-c2ccc(C(F)(F)F)cc2)cc([N+](=O)[O-])c1)c1ccc(-c2c3nc(c(-c4ccc(S(=O)(=O)[O-])cc4)c4ccc([nH]4)c(-c4ccc(S(=O)(=O)[O-])cc4)c4nc(c(-c5ccc(S(=O)(=O)[O-])cc5)c5ccc2[nH]5)C=C4)C=C3)cc1
REMARK SMILES IDX 5 1 4 2 3 3 1 4 2 5 30 7 31 8 89 9 32 10 88 11 33 12 34 13
REMARK SMILES IDX 35 14 82 15 36 16 87 17 81 18 83 19 37 20 86 21 80 22 79 23
REMARK SMILES IDX 38 25 68 26 49 27 67 28 50 29 53 30 66 31 84 32 51 33 52 34
REMARK SMILES IDX 65 36 85 37 54 38 39 39 40 40 48 41 41 42 47 43 42 44 43 45
REMARK SMILES IDX 44 46 45 47 46 48 69 49 70 50 78 51 71 52 77 53 72 54 73 55
REMARK SMILES IDX 74 56 75 57 76 58 55 59 56 60 64 61 57 62 63 63 58 64 59 65
REMARK SMILES IDX 60 66 61 67 62 68 6 69 7 70 8 71 9 72 10 74 11 75 12 76
REMARK SMILES IDX 29 77 13 78 25 79 24 80 14 81 15 82 23 83 16 84 22 85 17 86
REMARK SMILES IDX 18 87 19 88 20 89 21 90 26 91 27 92 28 93
REMARK H PARENT 3 6 83 24 53 35 8 73
REMARK Flexibility Score: inf
ROOT
ATOM      1  C   UNL A   1      40.613  21.965  27.603  1.00  0.00     0.023 C 
ENDROOT
BRANCH   1   2
ATOM      2  C   UNL A   1      39.818  23.216  27.257  1.00  0.00     0.116 C 
BRANCH   2   3
ATOM      3  N   UNL A   1      40.403  23.992  26.171  1.00  0.00    -0.352 N 
ATOM      4  O   UNL A   1      41.201  25.828  25.128  1.00  0.00    -0.269 OA
ATOM      5  C   UNL A   1      40.854  25.293  26.175  1.00  0.00     0.251 C 
ATOM      6  H   UNL A   1      40.490  23.517  25.312  1.00  0.00     0.163 HD
BRANCH   5   7
ATOM      7  C   UNL A   1      40.872  26.049  27.446  1.00  0.00     0.039 A 
ATOM      8  C   UNL A   1      39.911  25.798  28.426  1.00  0.00     0.014 A 
ATOM      9  C   UNL A   1      41.821  27.057  27.634  1.00  0.00     0.014 A 
ATOM     10  C   UNL A   1      39.769  26.683  29.485  1.00  0.00     0.010 A 
ATOM     11  C   UNL A   1      41.746  27.875  28.766  1.00  0.00     0.010 A 
ATOM     12  C   UNL A   1      40.686  27.730  29.675  1.00  0.00    -0.014 A 
BRANCH  12  13
ATOM     13  C   UNL A   1      40.523  28.628  30.849  1.00  0.00     0.031 A 
ATOM     14  C   UNL A   1      41.444  28.540  32.040  1.00  0.00     0.074 A 
ATOM     15  C   UNL A   1      39.561  29.572  30.809  1.00  0.00     0.049 A 
ATOM     16  N   UNL A   1      41.472  29.292  33.112  1.00  0.00    -0.248 NA
ATOM     17  C   UNL A   1      42.454  27.470  32.036  1.00  0.00     0.031 C 
ATOM     18  C   UNL A   1      38.607  29.756  29.711  1.00  0.00     0.029 A 
ATOM     19  N   UNL A   1      39.246  30.573  31.691  1.00  0.00    -0.354 N 
ATOM     20  C   UNL A   1      42.476  28.772  33.922  1.00  0.00     0.074 A 
ATOM     21  C   UNL A   1      43.021  27.625  33.225  1.00  0.00     0.031 C 
ATOM     22  C   UNL A   1      37.866  30.847  29.949  1.00  0.00     0.029 A 
ATOM     23  C   UNL A   1      38.234  31.393  31.250  1.00  0.00     0.049 A 
ATOM     24  H   UNL A   1      39.698  30.692  32.557  1.00  0.00     0.167 HD
ATOM     25  C   UNL A   1      42.906  29.209  35.130  1.00  0.00     0.031 A 
ATOM     26  C   UNL A   1      37.655  32.462  31.826  1.00  0.00     0.031 A 
ATOM     27  C   UNL A   1      42.365  30.357  35.814  1.00  0.00     0.049 A 
ATOM     28  C   UNL A   1      38.135  32.911  33.174  1.00  0.00     0.074 A 
ATOM     29  C   UNL A   1      42.760  30.904  37.023  1.00  0.00     0.029 A 
ATOM     30  N   UNL A   1      41.308  31.130  35.355  1.00  0.00    -0.354 N 
ATOM     31  N   UNL A   1      39.111  32.423  33.905  1.00  0.00    -0.248 NA
ATOM     32  C   UNL A   1      37.439  34.055  33.776  1.00  0.00     0.031 C 
ATOM     33  C   UNL A   1      41.905  31.970  37.324  1.00  0.00     0.029 A 
ATOM     34  C   UNL A   1      41.020  32.131  36.271  1.00  0.00     0.049 A 
ATOM     35  H   UNL A   1      40.833  30.989  34.506  1.00  0.00     0.167 HD
ATOM     36  C   UNL A   1      39.161  33.220  35.043  1.00  0.00     0.074 A 
ATOM     37  C   UNL A   1      38.130  34.229  34.893  1.00  0.00     0.031 C 
ATOM     38  C   UNL A   1      39.987  33.124  36.114  1.00  0.00     0.031 A 
BRANCH  25  39
ATOM     39  C   UNL A   1      43.994  28.420  35.818  1.00  0.00    -0.014 A 
ATOM     40  C   UNL A   1      45.352  28.752  35.669  1.00  0.00     0.010 A 
ATOM     41  C   UNL A   1      43.643  27.354  36.669  1.00  0.00     0.010 A 
ATOM     42  C   UNL A   1      46.340  28.004  36.319  1.00  0.00     0.020 A 
ATOM     43  C   UNL A   1      44.625  26.622  37.343  1.00  0.00     0.020 A 
ATOM     44  C   UNL A   1      45.970  26.941  37.148  1.00  0.00     0.054 A 
BRANCH  44  45
ATOM     45  S   UNL A   1      47.271  25.995  37.987  1.00  0.00     0.124 S 
ATOM     46  O   UNL A   1      48.469  26.752  37.633  1.00  0.00    -0.237 OA
ATOM     47  O   UNL A   1      46.872  26.074  39.390  1.00  0.00    -0.237 OA
ATOM     48  O   UNL A   1      47.175  24.665  37.390  1.00  0.00    -0.744 OA
ENDBRANCH  44  45
ENDBRANCH  25  39
BRANCH  26  49
ATOM     49  C   UNL A   1      36.555  33.175  31.122  1.00  0.00    -0.014 A 
ATOM     50  C   UNL A   1      35.252  33.176  31.649  1.00  0.00     0.010 A 
ATOM     51  C   UNL A   1      36.813  33.880  29.933  1.00  0.00     0.010 A 
ATOM     52  C   UNL A   1      34.223  33.855  30.990  1.00  0.00     0.020 A 
ATOM     53  C   UNL A   1      35.795  34.588  29.289  1.00  0.00     0.020 A 
ATOM     54  C   UNL A   1      34.503  34.560  29.816  1.00  0.00     0.054 A 
BRANCH  54  55
ATOM     55  S   UNL A   1      33.165  35.478  29.005  1.00  0.00     0.124 S 
ATOM     56  O   UNL A   1      33.903  36.476  28.239  1.00  0.00    -0.237 OA
ATOM     57  O   UNL A   1      32.502  34.439  28.221  1.00  0.00    -0.237 OA
ATOM     58  O   UNL A   1      32.381  35.998  30.124  1.00  0.00    -0.744 OA
ENDBRANCH  54  55
ENDBRANCH  26  49
BRANCH  38  59
ATOM     59  C   UNL A   1      39.836  34.166  37.190  1.00  0.00    -0.014 A 
ATOM     60  C   UNL A   1      40.444  35.430  37.079  1.00  0.00     0.010 A 
ATOM     61  C   UNL A   1      39.052  33.880  38.322  1.00  0.00     0.010 A 
ATOM     62  C   UNL A   1      40.307  36.371  38.102  1.00  0.00     0.020 A 
ATOM     63  C   UNL A   1      38.886  34.830  39.333  1.00  0.00     0.020 A 
ATOM     64  C   UNL A   1      39.531  36.064  39.224  1.00  0.00     0.054 A 
BRANCH  64  65
ATOM     65  S   UNL A   1      39.349  37.310  40.530  1.00  0.00     0.124 S 
ATOM     66  O   UNL A   1      40.737  37.676  40.795  1.00  0.00    -0.237 OA
ATOM     67  O   UNL A   1      38.541  38.339  39.880  1.00  0.00    -0.237 OA
ATOM     68  O   UNL A   1      38.678  36.587  41.608  1.00  0.00    -0.744 OA
ENDBRANCH  64  65
ENDBRANCH  38  59
ENDBRANCH  12  13
ENDBRANCH   5   7
ENDBRANCH   2   3
ENDBRANCH   1   2
BRANCH   1  69
ATOM     69  C   UNL A   1      41.261  21.266  26.415  1.00  0.00     0.023 C 
BRANCH  69  70
ATOM     70  C   UNL A   1      42.770  21.081  26.520  1.00  0.00     0.116 C 
BRANCH  70  71
ATOM     71  N   UNL A   1      43.444  21.162  25.233  1.00  0.00    -0.352 N 
ATOM     72  C   UNL A   1      44.106  22.225  24.674  1.00  0.00     0.251 C 
ATOM     73  H   UNL A   1      43.422  20.341  24.690  1.00  0.00     0.163 HD
ATOM     74  O   UNL A   1      44.519  22.181  23.520  1.00  0.00    -0.269 OA
BRANCH  72  75
ATOM     75  C   UNL A   1      44.301  23.450  25.470  1.00  0.00     0.047 A 
ATOM     76  C   UNL A   1      44.371  23.343  26.863  1.00  0.00     0.023 A 
ATOM     77  C   UNL A   1      44.414  24.692  24.841  1.00  0.00     0.099 A 
ATOM     78  C   UNL A   1      44.613  24.478  27.651  1.00  0.00    -0.011 A 
ATOM     79  C   UNL A   1      44.719  25.811  25.613  1.00  0.00     0.270 A 
ATOM     80  C   UNL A   1      44.823  25.711  27.007  1.00  0.00     0.094 A 
BRANCH  78  81
ATOM     81  C   UNL A   1      44.601  24.398  29.117  1.00  0.00    -0.018 A 
ATOM     82  C   UNL A   1      45.291  25.317  29.918  1.00  0.00     0.009 A 
ATOM     83  C   UNL A   1      43.893  23.363  29.749  1.00  0.00     0.009 A 
ATOM     84  C   UNL A   1      45.269  25.207  31.314  1.00  0.00     0.014 A 
ATOM     85  C   UNL A   1      43.872  23.248  31.139  1.00  0.00     0.014 A 
ATOM     86  C   UNL A   1      44.560  24.169  31.938  1.00  0.00     0.056 A 
BRANCH  86  87
ATOM     87  C   UNL A   1      44.546  24.050  33.442  1.00  0.00     0.416 C 
ATOM     88  F   UNL A   1      43.306  24.241  33.972  1.00  0.00    -0.166 F 
ATOM     89  F   UNL A   1      44.953  22.824  33.872  1.00  0.00    -0.166 F 
ATOM     90  F   UNL A   1      45.359  24.949  34.067  1.00  0.00    -0.166 F 
ENDBRANCH  86  87
ENDBRANCH  78  81
BRANCH  79  91
ATOM     91  N   UNL A   1      44.960  27.099  24.953  1.00  0.00     0.062 N 
ATOM     92  O   UNL A   1      44.034  27.922  24.939  1.00  0.00    -0.258 OA
ATOM     93  O   UNL A   1      46.082  27.292  24.464  1.00  0.00    -0.258 OA
ENDBRANCH  79  91
ENDBRANCH  72  75
ENDBRANCH  70  71
ENDBRANCH  69  70
ENDBRANCH   1  69
TORSDOF 17
ENDMDL
MODEL 2
REMARK VINA RESULT:     -11.0      4.317      6.752
REMARK SMILES O=C(NCCCCNC(=O)c1cc(-c2ccc(C(F)(F)F)cc2)cc([N+](=O)[O-])c1)c1ccc(-c2c3nc(c(-c4ccc(S(=O)(=O)[O-])cc4)c4ccc([nH]4)c(-c4ccc(S(=O)(=O)[O-])cc4)c4nc(c(-c5ccc(S(=O)(=O)[O-])cc5)c5ccc2[nH]5)C=C4)C=C3)cc1
REMARK SMILES IDX 5 1 4 2 3 3 1 4 2 5 30 7 31 8 89 9 32 10 88 11 33 12 34 13
REMARK SMILES IDX 35 14 82 15 36 16 87 17 81 18 83 19 37 20 86 21 80 22 79 23
REMARK SMILES IDX 38 25 68 26 49 27 67 28 50 29 53 30 66 31 84 32 51 33 52 34
REMARK SMILES IDX 65 36 85 37 54 38 39 39 40 40 48 41 41 42 47 43 42 44 43 45
REMARK SMILES IDX 44 46 45 47 46 48 69 49 70 50 78 51 71 52 77 53 72 54 73 55
REMARK SMILES IDX 74 56 75 57 76 58 55 59 56 60 64 61 57 62 63 63 58 64 59 65
REMARK SMILES IDX 60 66 61 67 62 68 6 69 7 70 8 71 9 72 10 74 11 75 12 76
REMARK SMILES IDX 29 77 13 78 25 79 24 80 14 81 15 82 23 83 16 84 22 85 17 86
REMARK SMILES IDX 18 87 19 88 20 89 21 90 26 91 27 92 28 93
REMARK H PARENT 3 6 83 24 53 35 8 73
REMARK Flexibility Score: inf
ROOT
ATOM      1  C   UNL A   1      37.539  23.579  26.050  1.00  0.00     0.023 C 
ENDROOT
BRANCH   1   2
ATOM      2  C   UNL A   1      38.592  24.310  26.871  1.00  0.00     0.116 C 
BRANCH   2   3
ATOM      3  N   UNL A   1      39.701  24.815  26.071  1.00  0.00    -0.352 N 
ATOM      4  O   UNL A   1      41.284  26.283  25.411  1.00  0.00    -0.269 OA
ATOM      5  C   UNL A   1      40.471  25.940  26.262  1.00  0.00     0.251 C 
ATOM      6  H   UNL A   1      39.932  24.273  25.281  1.00  0.00     0.163 HD
BRANCH   5   7
ATOM      7  C   UNL A   1      40.274  26.753  27.482  1.00  0.00     0.039 A 
ATOM      8  C   UNL A   1      40.787  28.049  27.552  1.00  0.00     0.014 A 
ATOM      9  C   UNL A   1      39.624  26.194  28.585  1.00  0.00     0.014 A 
ATOM     10  C   UNL A   1      40.837  28.698  28.777  1.00  0.00     0.010 A 
ATOM     11  C   UNL A   1      39.573  26.902  29.789  1.00  0.00     0.010 A 
ATOM     12  C   UNL A   1      40.226  28.139  29.912  1.00  0.00    -0.014 A 
BRANCH  12  13
ATOM     13  C   UNL A   1      40.263  28.889  31.195  1.00  0.00     0.031 A 
ATOM     14  C   UNL A   1      41.383  28.697  32.186  1.00  0.00     0.074 A 
ATOM     15  C   UNL A   1      39.297  29.797  31.439  1.00  0.00     0.049 A 
ATOM     16  N   UNL A   1      41.593  29.321  33.319  1.00  0.00    -0.248 NA
ATOM     17  C   UNL A   1      42.391  27.671  31.877  1.00  0.00     0.031 C 
ATOM     18  C   UNL A   1      38.160  30.074  30.555  1.00  0.00     0.029 A 
ATOM     19  N   UNL A   1      39.131  30.679  32.476  1.00  0.00    -0.354 N 
ATOM     20  C   UNL A   1      42.733  28.746  33.871  1.00  0.00     0.074 A 
ATOM     21  C   UNL A   1      43.159  27.707  32.958  1.00  0.00     0.031 C 
ATOM     22  C   UNL A   1      37.458  31.103  31.049  1.00  0.00     0.029 A 
ATOM     23  C   UNL A   1      38.046  31.509  32.320  1.00  0.00     0.049 A 
ATOM     24  H   UNL A   1      39.729  30.713  33.256  1.00  0.00     0.167 HD
ATOM     25  C   UNL A   1      43.366  29.056  35.028  1.00  0.00     0.031 A 
ATOM     26  C   UNL A   1      37.564  32.483  33.113  1.00  0.00     0.031 A 
ATOM     27  C   UNL A   1      42.940  30.099  35.929  1.00  0.00     0.049 A 
ATOM     28  C   UNL A   1      38.272  32.790  34.399  1.00  0.00     0.074 A 
ATOM     29  C   UNL A   1      43.538  30.516  37.106  1.00  0.00     0.029 A 
ATOM     30  N   UNL A   1      41.808  30.881  35.759  1.00  0.00    -0.354 N 
ATOM     31  N   UNL A   1      39.369  32.256  34.883  1.00  0.00    -0.248 NA
ATOM     32  C   UNL A   1      37.679  33.832  35.246  1.00  0.00     0.031 C 
ATOM     33  C   UNL A   1      42.736  31.509  37.677  1.00  0.00     0.029 A 
ATOM     34  C   UNL A   1      41.674  31.760  36.824  1.00  0.00     0.049 A 
ATOM     35  H   UNL A   1      41.191  30.823  34.996  1.00  0.00     0.167 HD
ATOM     36  C   UNL A   1      39.611  32.918  36.081  1.00  0.00     0.074 A 
ATOM     37  C   UNL A   1      38.557  33.900  36.237  1.00  0.00     0.031 C 
ATOM     38  C   UNL A   1      40.617  32.728  36.971  1.00  0.00     0.031 A 
BRANCH  25  39
ATOM     39  C   UNL A   1      44.570  28.232  35.414  1.00  0.00    -0.014 A 
ATOM     40  C   UNL A   1      45.872  28.607  35.040  1.00  0.00     0.010 A 
ATOM     41  C   UNL A   1      44.395  27.083  36.210  1.00  0.00     0.010 A 
ATOM     42  C   UNL A   1      46.971  27.825  35.412  1.00  0.00     0.020 A 
ATOM     43  C   UNL A   1      45.493  26.314  36.608  1.00  0.00     0.020 A 
ATOM     44  C   UNL A   1      46.773  26.681  36.191  1.00  0.00     0.054 A 
BRANCH  44  45
ATOM     45  S   UNL A   1      48.216  25.690  36.668  1.00  0.00     0.124 S 
ATOM     46  O   UNL A   1      47.704  24.947  37.817  1.00  0.00    -0.237 OA
ATOM     47  O   UNL A   1      48.470  24.893  35.470  1.00  0.00    -0.237 OA
ATOM     48  O   UNL A   1      49.238  26.688  36.976  1.00  0.00    -0.744 OA
ENDBRANCH  44  45
ENDBRANCH  25  39
BRANCH  26  49
ATOM     49  C   UNL A   1      36.346  33.233  32.705  1.00  0.00    -0.014 A 
ATOM     50  C   UNL A   1      35.088  32.896  33.232  1.00  0.00     0.010 A 
ATOM     51  C   UNL A   1      36.444  34.310  31.804  1.00  0.00     0.010 A 
ATOM     52  C   UNL A   1      33.947  33.610  32.853  1.00  0.00     0.020 A 
ATOM     53  C   UNL A   1      35.312  35.048  31.449  1.00  0.00     0.020 A 
ATOM     54  C   UNL A   1      34.069  34.684  31.967  1.00  0.00     0.054 A 
BRANCH  54  55
ATOM     55  S   UNL A   1      32.584  35.629  31.529  1.00  0.00     0.124 S 
ATOM     56  O   UNL A   1      32.373  35.236  30.140  1.00  0.00    -0.237 OA
ATOM     57  O   UNL A   1      31.599  35.129  32.486  1.00  0.00    -0.237 OA
ATOM     58  O   UNL A   1      32.990  37.018  31.735  1.00  0.00    -0.744 OA
ENDBRANCH  54  55
ENDBRANCH  26  49
BRANCH  38  59
ATOM     59  C   UNL A   1      40.647  33.633  38.173  1.00  0.00    -0.014 A 
ATOM     60  C   UNL A   1      40.017  33.275  39.379  1.00  0.00     0.010 A 
ATOM     61  C   UNL A   1      41.340  34.856  38.099  1.00  0.00     0.010 A 
ATOM     62  C   UNL A   1      40.041  34.143  40.473  1.00  0.00     0.020 A 
ATOM     63  C   UNL A   1      41.393  35.713  39.201  1.00  0.00     0.020 A 
ATOM     64  C   UNL A   1      40.726  35.358  40.376  1.00  0.00     0.054 A 
BRANCH  64  65
ATOM     65  S   UNL A   1      40.762  36.460  41.817  1.00  0.00     0.124 S 
ATOM     66  O   UNL A   1      41.203  37.720  41.224  1.00  0.00    -0.237 OA
ATOM     67  O   UNL A   1      39.376  36.432  42.276  1.00  0.00    -0.237 OA
ATOM     68  O   UNL A   1      41.723  35.824  42.715  1.00  0.00    -0.744 OA
ENDBRANCH  64  65
ENDBRANCH  38  59
ENDBRANCH  12  13
ENDBRANCH   5   7
ENDBRANCH   2   3
ENDBRANCH   1   2
BRANCH   1  69
ATOM     69  C   UNL A   1      36.183  24.271  25.980  1.00  0.00     0.023 C 
BRANCH  69  70
ATOM     70  C   UNL A   1      35.111  23.510  25.210  1.00  0.00     0.116 C 
BRANCH  70  71
ATOM     71  N   UNL A   1      34.937  23.995  23.849  1.00  0.00    -0.352 N 
ATOM     72  C   UNL A   1      34.053  24.931  23.376  1.00  0.00     0.251 C 
ATOM     73  H   UNL A   1      35.535  23.597  23.177  1.00  0.00     0.163 HD
ATOM     74  O   UNL A   1      33.938  25.147  22.175  1.00  0.00    -0.269 OA
BRANCH  72  75
ATOM     75  C   UNL A   1      33.210  25.672  24.332  1.00  0.00     0.047 A 
ATOM     76  C   UNL A   1      33.714  26.846  24.904  1.00  0.00     0.023 A 
ATOM     77  C   UNL A   1      31.933  25.209  24.656  1.00  0.00     0.099 A 
ATOM     78  C   UNL A   1      32.920  27.610  25.772  1.00  0.00    -0.011 A 
ATOM     79  C   UNL A   1      31.118  25.996  25.467  1.00  0.00     0.270 A 
ATOM     80  C   UNL A   1      31.600  27.190  26.020  1.00  0.00     0.094 A 
BRANCH  78  81
ATOM     81  C   UNL A   1      33.463  28.793  26.450  1.00  0.00    -0.018 A 
ATOM     82  C   UNL A   1      34.775  28.833  26.941  1.00  0.00     0.009 A 
ATOM     83  C   UNL A   1      32.649  29.922  26.633  1.00  0.00     0.009 A 
ATOM     84  C   UNL A   1      35.259  29.974  27.593  1.00  0.00     0.014 A 
ATOM     85  C   UNL A   1      33.127  31.058  27.286  1.00  0.00     0.014 A 
ATOM     86  C   UNL A   1      34.439  31.098  27.773  1.00  0.00     0.056 A 
BRANCH  86  87
ATOM     87  C   UNL A   1      34.964  32.321  28.484  1.00  0.00     0.416 C 
ATOM     88  F   UNL A   1      34.387  33.472  28.041  1.00  0.00    -0.166 F 
ATOM     89  F   UNL A   1      34.738  32.281  29.826  1.00  0.00    -0.166 F 
ATOM     90  F   UNL A   1      36.307  32.499  28.340  1.00  0.00    -0.166 F 
ENDBRANCH  86  87
ENDBRANCH  78  81
BRANCH  79  91
ATOM     91  N   UNL A   1      29.733  25.583  25.717  1.00  0.00     0.062 N 
ATOM     92  O   UNL A   1      29.510  24.897  26.724  1.00  0.00    -0.258 OA
ATOM     93  O   UNL A   1      28.868  25.958  24.914  1.00  0.00    -0.258 OA
ENDBRANCH  79  91
ENDBRANCH  72  75
ENDBRANCH  70  71
ENDBRANCH  69  70
ENDBRANCH   1  69
TORSDOF 17
ENDMDL
MODEL 3
REMARK VINA RESULT:     -11.0      4.690      9.852
REMARK SMILES O=C(NCCCCNC(=O)c1cc(-c2ccc(C(F)(F)F)cc2)cc([N+](=O)[O-])c1)c1ccc(-c2c3nc(c(-c4ccc(S(=O)(=O)[O-])cc4)c4ccc([nH]4)c(-c4ccc(S(=O)(=O)[O-])cc4)c4nc(c(-c5ccc(S(=O)(=O)[O-])cc5)c5ccc2[nH]5)C=C4)C=C3)cc1
REMARK SMILES IDX 5 1 4 2 3 3 1 4 2 5 30 7 31 8 89 9 32 10 88 11 33 12 34 13
REMARK SMILES IDX 35 14 82 15 36 16 87 17 81 18 83 19 37 20 86 21 80 22 79 23
REMARK SMILES IDX 38 25 68 26 49 27 67 28 50 29 53 30 66 31 84 32 51 33 52 34
REMARK SMILES IDX 65 36 85 37 54 38 39 39 40 40 48 41 41 42 47 43 42 44 43 45
REMARK SMILES IDX 44 46 45 47 46 48 69 49 70 50 78 51 71 52 77 53 72 54 73 55
REMARK SMILES IDX 74 56 75 57 76 58 55 59 56 60 64 61 57 62 63 63 58 64 59 65
REMARK SMILES IDX 60 66 61 67 62 68 6 69 7 70 8 71 9 72 10 74 11 75 12 76
REMARK SMILES IDX 29 77 13 78 25 79 24 80 14 81 15 82 23 83 16 84 22 85 17 86
REMARK SMILES IDX 18 87 19 88 20 89 21 90 26 91 27 92 28 93
REMARK H PARENT 3 6 83 24 53 35 8 73
REMARK Flexibility Score: inf
ROOT
ATOM      1  C   UNL A   1      34.253  28.172  24.687  1.00  0.00     0.023 C 
ENDROOT
BRANCH   1   2
ATOM      2  C   UNL A   1      33.988  28.414  26.166  1.00  0.00     0.116 C 
BRANCH   2   3
ATOM      3  N   UNL A   1      33.796  29.821  26.497  1.00  0.00    -0.352 N 
ATOM      4  O   UNL A   1      34.148  31.761  27.597  1.00  0.00    -0.269 OA
ATOM      5  C   UNL A   1      34.532  30.626  27.336  1.00  0.00     0.251 C 
ATOM      6  H   UNL A   1      33.031  30.257  26.056  1.00  0.00     0.163 HD
BRANCH   5   7
ATOM      7  C   UNL A   1      35.766  30.093  27.953  1.00  0.00     0.039 A 
ATOM      8  C   UNL A   1      35.722  29.510  29.220  1.00  0.00     0.014 A 
ATOM      9  C   UNL A   1      36.985  30.229  27.284  1.00  0.00     0.014 A 
ATOM     10  C   UNL A   1      36.907  29.262  29.899  1.00  0.00     0.010 A 
ATOM     11  C   UNL A   1      38.172  29.867  27.929  1.00  0.00     0.010 A 
ATOM     12  C   UNL A   1      38.148  29.430  29.262  1.00  0.00    -0.014 A 
BRANCH  12  13
ATOM     13  C   UNL A   1      39.392  29.108  30.011  1.00  0.00     0.031 A 
ATOM     14  C   UNL A   1      40.364  28.069  29.512  1.00  0.00     0.074 A 
ATOM     15  C   UNL A   1      39.669  29.807  31.130  1.00  0.00     0.049 A 
ATOM     16  N   UNL A   1      41.522  27.720  30.016  1.00  0.00    -0.248 NA
ATOM     17  C   UNL A   1      39.991  27.320  28.301  1.00  0.00     0.031 C 
ATOM     18  C   UNL A   1      38.806  30.839  31.714  1.00  0.00     0.029 A 
ATOM     19  N   UNL A   1      40.763  29.787  31.956  1.00  0.00    -0.354 N 
ATOM     20  C   UNL A   1      42.000  26.694  29.207  1.00  0.00     0.074 A 
ATOM     21  C   UNL A   1      40.996  26.462  28.190  1.00  0.00     0.031 C 
ATOM     22  C   UNL A   1      39.433  31.401  32.756  1.00  0.00     0.029 A 
ATOM     23  C   UNL A   1      40.706  30.720  32.964  1.00  0.00     0.049 A 
ATOM     24  H   UNL A   1      41.516  29.164  31.840  1.00  0.00     0.167 HD
ATOM     25  C   UNL A   1      43.167  26.010  29.302  1.00  0.00     0.031 A 
ATOM     26  C   UNL A   1      41.572  30.997  33.956  1.00  0.00     0.031 A 
ATOM     27  C   UNL A   1      44.166  26.252  30.313  1.00  0.00     0.049 A 
ATOM     28  C   UNL A   1      42.845  30.210  34.050  1.00  0.00     0.074 A 
ATOM     29  C   UNL A   1      45.398  25.640  30.468  1.00  0.00     0.029 A 
ATOM     30  N   UNL A   1      44.046  27.172  31.344  1.00  0.00    -0.354 N 
ATOM     31  N   UNL A   1      43.291  29.268  33.253  1.00  0.00    -0.248 NA
ATOM     32  C   UNL A   1      43.733  30.524  35.176  1.00  0.00     0.031 C 
ATOM     33  C   UNL A   1      45.997  26.147  31.626  1.00  0.00     0.029 A 
ATOM     34  C   UNL A   1      45.170  27.124  32.156  1.00  0.00     0.049 A 
ATOM     35  H   UNL A   1      43.277  27.771  31.480  1.00  0.00     0.167 HD
ATOM     36  C   UNL A   1      44.527  28.894  33.768  1.00  0.00     0.074 A 
ATOM     37  C   UNL A   1      44.762  29.724  34.933  1.00  0.00     0.031 C 
ATOM     38  C   UNL A   1      45.389  27.950  33.316  1.00  0.00     0.031 A 
BRANCH  25  39
ATOM     39  C   UNL A   1      43.416  24.902  28.308  1.00  0.00    -0.014 A 
ATOM     40  C   UNL A   1      42.961  23.591  28.534  1.00  0.00     0.010 A 
ATOM     41  C   UNL A   1      44.078  25.193  27.099  1.00  0.00     0.010 A 
ATOM     42  C   UNL A   1      43.205  22.583  27.595  1.00  0.00     0.020 A 
ATOM     43  C   UNL A   1      44.298  24.196  26.145  1.00  0.00     0.020 A 
ATOM     44  C   UNL A   1      43.876  22.891  26.408  1.00  0.00     0.054 A 
BRANCH  44  45
ATOM     45  S   UNL A   1      44.170  21.567  25.203  1.00  0.00     0.124 S 
ATOM     46  O   UNL A   1      43.879  22.242  23.939  1.00  0.00    -0.237 OA
ATOM     47  O   UNL A   1      45.575  21.236  25.426  1.00  0.00    -0.237 OA
ATOM     48  O   UNL A   1      43.218  20.528  25.588  1.00  0.00    -0.744 OA
ENDBRANCH  44  45
ENDBRANCH  25  39
BRANCH  26  49
ATOM     49  C   UNL A   1      41.254  32.071  34.936  1.00  0.00    -0.014 A 
ATOM     50  C   UNL A   1      41.756  33.371  34.760  1.00  0.00     0.010 A 
ATOM     51  C   UNL A   1      40.422  31.801  36.038  1.00  0.00     0.010 A 
ATOM     52  C   UNL A   1      41.446  34.379  35.677  1.00  0.00     0.020 A 
ATOM     53  C   UNL A   1      40.083  32.813  36.939  1.00  0.00     0.020 A 
ATOM     54  C   UNL A   1      40.608  34.093  36.759  1.00  0.00     0.054 A 
BRANCH  54  55
ATOM     55  S   UNL A   1      40.176  35.429  37.909  1.00  0.00     0.124 S 
ATOM     56  O   UNL A   1      39.087  34.829  38.673  1.00  0.00    -0.237 OA
ATOM     57  O   UNL A   1      41.426  35.632  38.637  1.00  0.00    -0.237 OA
ATOM     58  O   UNL A   1      39.793  36.529  37.026  1.00  0.00    -0.744 OA
ENDBRANCH  54  55
ENDBRANCH  26  49
BRANCH  38  59
ATOM     59  C   UNL A   1      46.687  27.794  34.062  1.00  0.00    -0.014 A 
ATOM     60  C   UNL A   1      47.846  28.489  33.673  1.00  0.00     0.010 A 
ATOM     61  C   UNL A   1      46.739  26.953  35.189  1.00  0.00     0.010 A 
ATOM     62  C   UNL A   1      49.044  28.310  34.369  1.00  0.00     0.020 A 
ATOM     63  C   UNL A   1      47.927  26.795  35.906  1.00  0.00     0.020 A 
ATOM     64  C   UNL A   1      49.077  27.461  35.480  1.00  0.00     0.054 A 
BRANCH  64  65
ATOM     65  S   UNL A   1      50.638  27.261  36.381  1.00  0.00     0.124 S 
ATOM     66  O   UNL A   1      50.188  27.255  37.770  1.00  0.00    -0.237 OA
ATOM     67  O   UNL A   1      51.139  25.985  35.876  1.00  0.00    -0.237 OA
ATOM     68  O   UNL A   1      51.420  28.431  35.985  1.00  0.00    -0.744 OA
ENDBRANCH  64  65
ENDBRANCH  38  59
ENDBRANCH  12  13
ENDBRANCH   5   7
ENDBRANCH   2   3
ENDBRANCH   1   2
BRANCH   1  69
ATOM     69  C   UNL A   1      33.293  28.878  23.737  1.00  0.00     0.023 C 
BRANCH  69  70
ATOM     70  C   UNL A   1      32.117  28.033  23.265  1.00  0.00     0.116 C 
BRANCH  70  71
ATOM     71  N   UNL A   1      32.441  27.198  22.119  1.00  0.00    -0.352 N 
ATOM     72  C   UNL A   1      32.954  25.926  22.099  1.00  0.00     0.251 C 
ATOM     73  H   UNL A   1      32.266  27.600  21.237  1.00  0.00     0.163 HD
ATOM     74  O   UNL A   1      33.294  25.394  21.048  1.00  0.00    -0.269 OA
BRANCH  72  75
ATOM     75  C   UNL A   1      33.123  25.199  23.370  1.00  0.00     0.047 A 
ATOM     76  C   UNL A   1      34.383  24.676  23.683  1.00  0.00     0.023 A 
ATOM     77  C   UNL A   1      32.045  25.037  24.242  1.00  0.00     0.099 A 
ATOM     78  C   UNL A   1      34.599  24.029  24.908  1.00  0.00    -0.011 A 
ATOM     79  C   UNL A   1      32.269  24.452  25.487  1.00  0.00     0.270 A 
ATOM     80  C   UNL A   1      33.534  23.954  25.825  1.00  0.00     0.094 A 
BRANCH  78  81
ATOM     81  C   UNL A   1      35.889  23.398  25.214  1.00  0.00    -0.018 A 
ATOM     82  C   UNL A   1      36.186  22.086  24.825  1.00  0.00     0.009 A 
ATOM     83  C   UNL A   1      36.858  24.116  25.933  1.00  0.00     0.009 A 
ATOM     84  C   UNL A   1      37.422  21.509  25.143  1.00  0.00     0.014 A 
ATOM     85  C   UNL A   1      38.088  23.543  26.255  1.00  0.00     0.014 A 
ATOM     86  C   UNL A   1      38.385  22.232  25.863  1.00  0.00     0.056 A 
BRANCH  86  87
ATOM     87  C   UNL A   1      39.712  21.602  26.209  1.00  0.00     0.416 C 
ATOM     88  F   UNL A   1      40.012  21.706  27.533  1.00  0.00    -0.166 F 
ATOM     89  F   UNL A   1      39.750  20.272  25.919  1.00  0.00    -0.166 F 
ATOM     90  F   UNL A   1      40.766  22.155  25.546  1.00  0.00    -0.166 F 
ENDBRANCH  86  87
ENDBRANCH  78  81
BRANCH  79  91
ATOM     91  N   UNL A   1      31.174  24.385  26.461  1.00  0.00     0.062 N 
ATOM     92  O   UNL A   1      30.117  24.968  26.179  1.00  0.00    -0.258 OA
ATOM     93  O   UNL A   1      31.366  23.737  27.498  1.00  0.00    -0.258 OA
ENDBRANCH  79  91
ENDBRANCH  72  75
ENDBRANCH  70  71
ENDBRANCH  69  70
ENDBRANCH   1  69
TORSDOF 17
ENDMDL
