MODEL 1
REMARK VINA RESULT:     -13.6      0.000      0.000
REMARK SMILES O=C(NCCCCNC(=O)[C@H]1CCCN(c2cc(-c3ccccn3)nc(-c3ccccc3F)n2)C1)c1ccc(-c2c3nc(c(-c4ccc(S(=O)(=O)[O-])cc4)c4ccc([nH]4)c(-c4ccc(S(=O)(=O)[O-])cc4)c4nc(c(-c5ccc(S(=O)(=O)[O-])cc5)c5ccc2[nH]5)C=C4)C=C3)cc1
REMARK SMILES IDX 5 1 4 2 3 3 1 4 2 5 36 7 37 8 95 9 38 10 94 11 39 12 40 13
REMARK SMILES IDX 41 14 88 15 42 16 93 17 87 18 89 19 43 20 92 21 86 22 85 23
REMARK SMILES IDX 44 25 74 26 55 27 73 28 56 29 59 30 72 31 90 32 57 33 58 34
REMARK SMILES IDX 71 36 91 37 60 38 45 39 46 40 54 41 47 42 53 43 48 44 49 45
REMARK SMILES IDX 50 46 51 47 52 48 75 49 76 50 84 51 77 52 83 53 78 54 79 55
REMARK SMILES IDX 80 56 81 57 82 58 61 59 62 60 70 61 63 62 69 63 64 64 65 65
REMARK SMILES IDX 66 66 67 67 68 68 6 69 7 70 8 71 9 72 10 74 11 75 12 76
REMARK SMILES IDX 35 77 13 78 15 79 14 80 16 81 17 82 34 83 18 84 26 85 25 86
REMARK SMILES IDX 19 87 20 88 24 89 21 90 23 91 22 92 27 93 28 94 32 95 29 96
REMARK SMILES IDX 31 97 33 98 30 99
REMARK H PARENT 3 6 89 24 59 35 8 73
REMARK Flexibility Score: inf
ROOT
ATOM      1  C   UNL A   1      37.502  23.548  25.496  1.00  0.00     0.023 C 
ENDROOT
BRANCH   1   2
ATOM      2  C   UNL A   1      38.464  24.113  26.527  1.00  0.00     0.116 C 
BRANCH   2   3
ATOM      3  N   UNL A   1      39.851  24.090  26.089  1.00  0.00    -0.352 N 
ATOM      4  O   UNL A   1      41.981  24.827  25.936  1.00  0.00    -0.269 OA
ATOM      5  C   UNL A   1      40.886  24.905  26.485  1.00  0.00     0.251 C 
ATOM      6  H   UNL A   1      40.079  23.404  25.420  1.00  0.00     0.163 HD
BRANCH   5   7
ATOM      7  C   UNL A   1      40.652  25.899  27.553  1.00  0.00     0.039 A 
ATOM      8  C   UNL A   1      41.433  27.055  27.625  1.00  0.00     0.014 A 
ATOM      9  C   UNL A   1      39.668  25.651  28.512  1.00  0.00     0.014 A 
ATOM     10  C   UNL A   1      41.332  27.884  28.734  1.00  0.00     0.010 A 
ATOM     11  C   UNL A   1      39.510  26.533  29.585  1.00  0.00     0.010 A 
ATOM     12  C   UNL A   1      40.365  27.637  29.723  1.00  0.00    -0.014 A 
BRANCH  12  13
ATOM     13  C   UNL A   1      40.242  28.581  30.861  1.00  0.00     0.031 A 
ATOM     14  C   UNL A   1      41.179  28.515  32.035  1.00  0.00     0.074 A 
ATOM     15  C   UNL A   1      39.296  29.538  30.800  1.00  0.00     0.049 A 
ATOM     16  N   UNL A   1      41.241  29.302  33.079  1.00  0.00    -0.248 NA
ATOM     17  C   UNL A   1      42.169  27.427  32.045  1.00  0.00     0.031 C 
ATOM     18  C   UNL A   1      38.329  29.698  29.710  1.00  0.00     0.029 A 
ATOM     19  N   UNL A   1      39.013  30.575  31.650  1.00  0.00    -0.354 N 
ATOM     20  C   UNL A   1      42.255  28.792  33.882  1.00  0.00     0.074 A 
ATOM     21  C   UNL A   1      42.771  27.618  33.213  1.00  0.00     0.031 C 
ATOM     22  C   UNL A   1      37.604  30.805  29.924  1.00  0.00     0.029 A 
ATOM     23  C   UNL A   1      38.011  31.398  31.193  1.00  0.00     0.049 A 
ATOM     24  H   UNL A   1      39.480  30.716  32.505  1.00  0.00     0.167 HD
ATOM     25  C   UNL A   1      42.713  29.262  35.069  1.00  0.00     0.031 A 
ATOM     26  C   UNL A   1      37.474  32.506  31.733  1.00  0.00     0.031 A 
ATOM     27  C   UNL A   1      42.199  30.435  35.728  1.00  0.00     0.049 A 
ATOM     28  C   UNL A   1      37.993  32.999  33.051  1.00  0.00     0.074 A 
ATOM     29  C   UNL A   1      42.617  31.007  36.918  1.00  0.00     0.029 A 
ATOM     30  N   UNL A   1      41.155  31.216  35.255  1.00  0.00    -0.354 N 
ATOM     31  N   UNL A   1      38.967  32.513  33.783  1.00  0.00    -0.248 NA
ATOM     32  C   UNL A   1      37.339  34.186  33.616  1.00  0.00     0.031 C 
ATOM     33  C   UNL A   1      41.797  32.110  37.184  1.00  0.00     0.029 A 
ATOM     34  C   UNL A   1      40.900  32.252  36.138  1.00  0.00     0.049 A 
ATOM     35  H   UNL A   1      40.667  31.057  34.415  1.00  0.00     0.167 HD
ATOM     36  C   UNL A   1      39.050  33.342  34.894  1.00  0.00     0.074 A 
ATOM     37  C   UNL A   1      38.042  34.371  34.725  1.00  0.00     0.031 C 
ATOM     38  C   UNL A   1      39.884  33.257  35.960  1.00  0.00     0.031 A 
BRANCH  25  39
ATOM     39  C   UNL A   1      43.807  28.482  35.748  1.00  0.00    -0.014 A 
ATOM     40  C   UNL A   1      43.514  27.434  36.639  1.00  0.00     0.010 A 
ATOM     41  C   UNL A   1      45.153  28.783  35.465  1.00  0.00     0.010 A 
ATOM     42  C   UNL A   1      44.546  26.731  37.268  1.00  0.00     0.020 A 
ATOM     43  C   UNL A   1      46.188  28.068  36.076  1.00  0.00     0.020 A 
ATOM     44  C   UNL A   1      45.877  27.058  36.990  1.00  0.00     0.054 A 
BRANCH  44  45
ATOM     45  S   UNL A   1      47.199  26.131  37.817  1.00  0.00     0.124 S 
ATOM     46  O   UNL A   1      46.465  25.000  38.380  1.00  0.00    -0.237 OA
ATOM     47  O   UNL A   1      48.103  25.807  36.717  1.00  0.00    -0.237 OA
ATOM     48  O   UNL A   1      47.728  27.079  38.794  1.00  0.00    -0.744 OA
ENDBRANCH  44  45
ENDBRANCH  25  39
BRANCH  26  49
ATOM     49  C   UNL A   1      36.385  33.218  31.015  1.00  0.00    -0.014 A 
ATOM     50  C   UNL A   1      35.100  33.304  31.576  1.00  0.00     0.010 A 
ATOM     51  C   UNL A   1      36.644  33.855  29.788  1.00  0.00     0.010 A 
ATOM     52  C   UNL A   1      34.089  34.011  30.920  1.00  0.00     0.020 A 
ATOM     53  C   UNL A   1      35.643  34.583  29.142  1.00  0.00     0.020 A 
ATOM     54  C   UNL A   1      34.368  34.649  29.708  1.00  0.00     0.054 A 
BRANCH  54  55
ATOM     55  S   UNL A   1      33.064  35.624  28.906  1.00  0.00     0.124 S 
ATOM     56  O   UNL A   1      33.838  36.623  28.179  1.00  0.00    -0.237 OA
ATOM     57  O   UNL A   1      32.382  34.628  28.084  1.00  0.00    -0.237 OA
ATOM     58  O   UNL A   1      32.280  36.131  30.030  1.00  0.00    -0.744 OA
ENDBRANCH  54  55
ENDBRANCH  26  49
BRANCH  38  59
ATOM     59  C   UNL A   1      39.747  34.320  37.014  1.00  0.00    -0.014 A 
ATOM     60  C   UNL A   1      38.978  34.097  38.171  1.00  0.00     0.010 A 
ATOM     61  C   UNL A   1      40.411  35.549  36.854  1.00  0.00     0.010 A 
ATOM     62  C   UNL A   1      38.847  35.101  39.133  1.00  0.00     0.020 A 
ATOM     63  C   UNL A   1      40.299  36.546  37.825  1.00  0.00     0.020 A 
ATOM     64  C   UNL A   1      39.503  36.323  38.951  1.00  0.00     0.054 A 
BRANCH  64  65
ATOM     65  S   UNL A   1      39.340  37.605  40.223  1.00  0.00     0.124 S 
ATOM     66  O   UNL A   1      40.680  38.183  40.243  1.00  0.00    -0.237 OA
ATOM     67  O   UNL A   1      38.292  38.467  39.681  1.00  0.00    -0.237 OA
ATOM     68  O   UNL A   1      38.964  36.857  41.420  1.00  0.00    -0.744 OA
ENDBRANCH  64  65
ENDBRANCH  38  59
ENDBRANCH  12  13
ENDBRANCH   5   7
ENDBRANCH   2   3
ENDBRANCH   1   2
BRANCH   1  69
ATOM     69  C   UNL A   1      36.475  22.561  26.043  1.00  0.00     0.023 C 
BRANCH  69  70
ATOM     70  C   UNL A   1      35.046  22.753  25.528  1.00  0.00     0.116 C 
BRANCH  70  71
ATOM     71  N   UNL A   1      34.065  22.699  26.599  1.00  0.00    -0.356 N 
ATOM     72  C   UNL A   1      32.822  23.259  26.672  1.00  0.00     0.224 C 
ATOM     73  H   UNL A   1      34.338  22.182  27.391  1.00  0.00     0.163 HD
ATOM     74  O   UNL A   1      32.160  23.065  27.693  1.00  0.00    -0.275 OA
BRANCH  72  75
ATOM     75  C   UNL A   1      32.292  24.088  25.509  1.00  0.00     0.098 C 
ATOM     76  C   UNL A   1      31.805  23.194  24.354  1.00  0.00     0.017 C 
ATOM     77  C   UNL A   1      31.126  24.947  25.982  1.00  0.00     0.131 C 
ATOM     78  C   UNL A   1      31.202  24.035  23.222  1.00  0.00     0.022 C 
ATOM     79  N   UNL A   1      30.546  25.702  24.881  1.00  0.00    -0.356 N 
ATOM     80  C   UNL A   1      30.086  24.955  23.722  1.00  0.00     0.118 C 
BRANCH  79  81
ATOM     81  C   UNL A   1      30.847  27.048  24.783  1.00  0.00     0.133 A 
ATOM     82  C   UNL A   1      30.133  27.814  23.885  1.00  0.00     0.077 A 
ATOM     83  N   UNL A   1      31.736  27.602  25.627  1.00  0.00    -0.211 NA
ATOM     84  C   UNL A   1      30.323  29.180  23.918  1.00  0.00     0.095 A 
ATOM     85  C   UNL A   1      31.894  28.941  25.559  1.00  0.00     0.165 A 
ATOM     86  N   UNL A   1      31.214  29.761  24.744  1.00  0.00    -0.226 NA
BRANCH  84  87
ATOM     87  C   UNL A   1      29.486  30.075  23.111  1.00  0.00     0.089 A 
ATOM     88  C   UNL A   1      29.222  31.380  23.529  1.00  0.00     0.030 A 
ATOM     89  N   UNL A   1      28.959  29.559  21.970  1.00  0.00    -0.255 NA
ATOM     90  C   UNL A   1      28.395  32.187  22.752  1.00  0.00     0.004 A 
ATOM     91  C   UNL A   1      28.174  30.370  21.230  1.00  0.00     0.112 A 
ATOM     92  C   UNL A   1      27.860  31.674  21.578  1.00  0.00     0.020 A 
ENDBRANCH  84  87
BRANCH  85  93
ATOM     93  C   UNL A   1      32.934  29.552  26.382  1.00  0.00     0.055 A 
ATOM     94  C   UNL A   1      32.779  30.851  26.901  1.00  0.00     0.015 A 
ATOM     95  C   UNL A   1      34.092  28.848  26.731  1.00  0.00     0.134 A 
ATOM     96  C   UNL A   1      33.739  31.407  27.755  1.00  0.00     0.001 A 
ATOM     97  C   UNL A   1      35.059  29.399  27.574  1.00  0.00     0.040 A 
ATOM     98  F   UNL A   1      34.310  27.616  26.245  1.00  0.00    -0.206 F 
ATOM     99  C   UNL A   1      34.879  30.679  28.094  1.00  0.00     0.003 A 
ENDBRANCH  85  93
ENDBRANCH  79  81
ENDBRANCH  72  75
ENDBRANCH  70  71
ENDBRANCH  69  70
ENDBRANCH   1  69
TORSDOF 17
ENDMDL
MODEL 2
REMARK VINA RESULT:     -13.0      0.767      7.854
REMARK SMILES O=C(NCCCCNC(=O)[C@H]1CCCN(c2cc(-c3ccccn3)nc(-c3ccccc3F)n2)C1)c1ccc(-c2c3nc(c(-c4ccc(S(=O)(=O)[O-])cc4)c4ccc([nH]4)c(-c4ccc(S(=O)(=O)[O-])cc4)c4nc(c(-c5ccc(S(=O)(=O)[O-])cc5)c5ccc2[nH]5)C=C4)C=C3)cc1
REMARK SMILES IDX 5 1 4 2 3 3 1 4 2 5 36 7 37 8 95 9 38 10 94 11 39 12 40 13
REMARK SMILES IDX 41 14 88 15 42 16 93 17 87 18 89 19 43 20 92 21 86 22 85 23
REMARK SMILES IDX 44 25 74 26 55 27 73 28 56 29 59 30 72 31 90 32 57 33 58 34
REMARK SMILES IDX 71 36 91 37 60 38 45 39 46 40 54 41 47 42 53 43 48 44 49 45
REMARK SMILES IDX 50 46 51 47 52 48 75 49 76 50 84 51 77 52 83 53 78 54 79 55
REMARK SMILES IDX 80 56 81 57 82 58 61 59 62 60 70 61 63 62 69 63 64 64 65 65
REMARK SMILES IDX 66 66 67 67 68 68 6 69 7 70 8 71 9 72 10 74 11 75 12 76
REMARK SMILES IDX 35 77 13 78 15 79 14 80 16 81 17 82 34 83 18 84 26 85 25 86
REMARK SMILES IDX 19 87 20 88 24 89 21 90 23 91 22 92 27 93 28 94 32 95 29 96
REMARK SMILES IDX 31 97 33 98 30 99
REMARK H PARENT 3 6 89 24 59 35 8 73
REMARK Flexibility Score: inf
ROOT
ATOM      1  C   UNL A   1      37.367  23.625  25.640  1.00  0.00     0.023 C 
ENDROOT
BRANCH   1   2
ATOM      2  C   UNL A   1      38.365  24.323  26.548  1.00  0.00     0.116 C 
BRANCH   2   3
ATOM      3  N   UNL A   1      39.730  24.268  26.049  1.00  0.00    -0.352 N 
ATOM      4  O   UNL A   1      41.866  24.959  25.795  1.00  0.00    -0.269 OA
ATOM      5  C   UNL A   1      40.798  25.064  26.391  1.00  0.00     0.251 C 
ATOM      6  H   UNL A   1      39.914  23.570  25.379  1.00  0.00     0.163 HD
BRANCH   5   7
ATOM      7  C   UNL A   1      40.632  26.073  27.458  1.00  0.00     0.039 A 
ATOM      8  C   UNL A   1      41.362  27.263  27.423  1.00  0.00     0.014 A 
ATOM      9  C   UNL A   1      39.767  25.806  28.521  1.00  0.00     0.014 A 
ATOM     10  C   UNL A   1      41.340  28.115  28.520  1.00  0.00     0.010 A 
ATOM     11  C   UNL A   1      39.682  26.706  29.586  1.00  0.00     0.010 A 
ATOM     12  C   UNL A   1      40.495  27.850  29.611  1.00  0.00    -0.014 A 
BRANCH  12  13
ATOM     13  C   UNL A   1      40.449  28.815  30.736  1.00  0.00     0.031 A 
ATOM     14  C   UNL A   1      39.412  29.901  30.793  1.00  0.00     0.074 A 
ATOM     15  C   UNL A   1      41.334  28.669  31.742  1.00  0.00     0.049 A 
ATOM     16  N   UNL A   1      39.201  30.786  31.734  1.00  0.00    -0.248 NA
ATOM     17  C   UNL A   1      38.495  30.017  29.647  1.00  0.00     0.031 C 
ATOM     18  C   UNL A   1      42.388  27.652  31.794  1.00  0.00     0.029 A 
ATOM     19  N   UNL A   1      41.470  29.349  32.924  1.00  0.00    -0.354 N 
ATOM     20  C   UNL A   1      38.150  31.578  31.287  1.00  0.00     0.074 A 
ATOM     21  C   UNL A   1      37.775  31.080  29.981  1.00  0.00     0.031 C 
ATOM     22  C   UNL A   1      43.018  27.732  32.975  1.00  0.00     0.029 A 
ATOM     23  C   UNL A   1      42.456  28.842  33.736  1.00  0.00     0.049 A 
ATOM     24  H   UNL A   1      40.916  30.125  33.167  1.00  0.00     0.167 HD
ATOM     25  C   UNL A   1      37.552  32.625  31.909  1.00  0.00     0.031 A 
ATOM     26  C   UNL A   1      42.868  29.226  34.957  1.00  0.00     0.031 A 
ATOM     27  C   UNL A   1      37.926  33.112  33.211  1.00  0.00     0.049 A 
ATOM     28  C   UNL A   1      42.197  30.392  35.619  1.00  0.00     0.074 A 
ATOM     29  C   UNL A   1      37.362  34.148  33.938  1.00  0.00     0.029 A 
ATOM     30  N   UNL A   1      38.959  32.601  33.983  1.00  0.00    -0.354 N 
ATOM     31  N   UNL A   1      41.191  31.114  35.186  1.00  0.00    -0.248 NA
ATOM     32  C   UNL A   1      42.717  30.797  36.930  1.00  0.00     0.031 C 
ATOM     33  C   UNL A   1      38.081  34.287  35.131  1.00  0.00     0.029 A 
ATOM     34  C   UNL A   1      39.063  33.310  35.168  1.00  0.00     0.049 A 
ATOM     35  H   UNL A   1      39.533  31.843  33.726  1.00  0.00     0.167 HD
ATOM     36  C   UNL A   1      40.950  32.055  36.178  1.00  0.00     0.074 A 
ATOM     37  C   UNL A   1      41.903  31.796  37.241  1.00  0.00     0.031 C 
ATOM     38  C   UNL A   1      40.026  33.047  36.206  1.00  0.00     0.031 A 
BRANCH  25  39
ATOM     39  C   UNL A   1      36.450  33.334  31.169  1.00  0.00    -0.014 A 
ATOM     40  C   UNL A   1      35.165  33.470  31.724  1.00  0.00     0.010 A 
ATOM     41  C   UNL A   1      36.714  33.902  29.908  1.00  0.00     0.010 A 
ATOM     42  C   UNL A   1      34.153  34.122  31.013  1.00  0.00     0.020 A 
ATOM     43  C   UNL A   1      35.710  34.574  29.204  1.00  0.00     0.020 A 
ATOM     44  C   UNL A   1      34.429  34.662  29.753  1.00  0.00     0.054 A 
BRANCH  44  45
ATOM     45  S   UNL A   1      33.100  35.505  28.850  1.00  0.00     0.124 S 
ATOM     46  O   UNL A   1      32.479  34.398  28.128  1.00  0.00    -0.237 OA
ATOM     47  O   UNL A   1      32.295  36.082  29.924  1.00  0.00    -0.237 OA
ATOM     48  O   UNL A   1      33.807  36.474  28.017  1.00  0.00    -0.744 OA
ENDBRANCH  44  45
ENDBRANCH  25  39
BRANCH  26  49
ATOM     49  C   UNL A   1      43.973  28.489  35.624  1.00  0.00    -0.014 A 
ATOM     50  C   UNL A   1      45.307  28.889  35.440  1.00  0.00     0.010 A 
ATOM     51  C   UNL A   1      43.690  27.412  36.483  1.00  0.00     0.010 A 
ATOM     52  C   UNL A   1      46.341  28.222  36.102  1.00  0.00     0.020 A 
ATOM     53  C   UNL A   1      44.718  26.759  37.165  1.00  0.00     0.020 A 
ATOM     54  C   UNL A   1      46.040  27.163  36.963  1.00  0.00     0.054 A 
BRANCH  54  55
ATOM     55  S   UNL A   1      47.387  26.355  37.871  1.00  0.00     0.124 S 
ATOM     56  O   UNL A   1      46.711  25.909  39.084  1.00  0.00    -0.237 OA
ATOM     57  O   UNL A   1      47.803  25.299  36.952  1.00  0.00    -0.237 OA
ATOM     58  O   UNL A   1      48.363  27.427  38.054  1.00  0.00    -0.744 OA
ENDBRANCH  54  55
ENDBRANCH  26  49
BRANCH  38  59
ATOM     59  C   UNL A   1      39.995  33.910  37.436  1.00  0.00    -0.014 A 
ATOM     60  C   UNL A   1      40.906  34.969  37.600  1.00  0.00     0.010 A 
ATOM     61  C   UNL A   1      39.031  33.671  38.430  1.00  0.00     0.010 A 
ATOM     62  C   UNL A   1      40.875  35.752  38.756  1.00  0.00     0.020 A 
ATOM     63  C   UNL A   1      38.983  34.465  39.578  1.00  0.00     0.020 A 
ATOM     64  C   UNL A   1      39.918  35.490  39.742  1.00  0.00     0.054 A 
BRANCH  64  65
ATOM     65  S   UNL A   1      39.878  36.533  41.225  1.00  0.00     0.124 S 
ATOM     66  O   UNL A   1      41.174  36.243  41.833  1.00  0.00    -0.237 OA
ATOM     67  O   UNL A   1      39.731  37.878  40.673  1.00  0.00    -0.237 OA
ATOM     68  O   UNL A   1      38.718  36.039  41.963  1.00  0.00    -0.744 OA
ENDBRANCH  64  65
ENDBRANCH  38  59
ENDBRANCH  12  13
ENDBRANCH   5   7
ENDBRANCH   2   3
ENDBRANCH   1   2
BRANCH   1  69
ATOM     69  C   UNL A   1      36.250  22.878  26.362  1.00  0.00     0.023 C 
BRANCH  69  70
ATOM     70  C   UNL A   1      34.860  23.014  25.733  1.00  0.00     0.116 C 
BRANCH  70  71
ATOM     71  N   UNL A   1      33.796  22.817  26.703  1.00  0.00    -0.356 N 
ATOM     72  C   UNL A   1      32.512  23.281  26.695  1.00  0.00     0.224 C 
ATOM     73  H   UNL A   1      34.038  22.267  27.483  1.00  0.00     0.163 HD
ATOM     74  O   UNL A   1      31.780  22.970  27.637  1.00  0.00    -0.275 OA
BRANCH  72  75
ATOM     75  C   UNL A   1      32.024  24.149  25.543  1.00  0.00     0.098 C 
ATOM     76  C   UNL A   1      31.478  23.294  24.384  1.00  0.00     0.017 C 
ATOM     77  C   UNL A   1      30.913  25.071  26.031  1.00  0.00     0.131 C 
ATOM     78  C   UNL A   1      30.918  24.178  23.263  1.00  0.00     0.022 C 
ATOM     79  N   UNL A   1      30.370  25.867  24.940  1.00  0.00    -0.356 N 
ATOM     80  C   UNL A   1      29.860  25.158  23.778  1.00  0.00     0.118 C 
BRANCH  79  81
ATOM     81  C   UNL A   1      30.749  27.193  24.849  1.00  0.00     0.133 A 
ATOM     82  C   UNL A   1      30.070  28.009  23.967  1.00  0.00     0.077 A 
ATOM     83  N   UNL A   1      31.679  27.687  25.687  1.00  0.00    -0.211 NA
ATOM     84  C   UNL A   1      30.341  29.361  24.011  1.00  0.00     0.095 A 
ATOM     85  C   UNL A   1      31.915  29.014  25.629  1.00  0.00     0.165 A 
ATOM     86  N   UNL A   1      31.274  29.881  24.830  1.00  0.00    -0.226 NA
BRANCH  84  87
ATOM     87  C   UNL A   1      29.548  30.311  23.222  1.00  0.00     0.089 A 
ATOM     88  C   UNL A   1      29.205  30.034  21.898  1.00  0.00     0.030 A 
ATOM     89  N   UNL A   1      29.202  31.475  23.831  1.00  0.00    -0.255 NA
ATOM     90  C   UNL A   1      28.482  30.977  21.172  1.00  0.00     0.004 A 
ATOM     91  C   UNL A   1      28.487  32.363  23.108  1.00  0.00     0.112 A 
ATOM     92  C   UNL A   1      28.112  32.165  21.789  1.00  0.00     0.020 A 
ENDBRANCH  84  87
BRANCH  85  93
ATOM     93  C   UNL A   1      32.998  29.556  26.445  1.00  0.00     0.055 A 
ATOM     94  C   UNL A   1      34.206  28.854  26.607  1.00  0.00     0.015 A 
ATOM     95  C   UNL A   1      32.894  30.817  27.046  1.00  0.00     0.134 A 
ATOM     96  C   UNL A   1      35.274  29.409  27.323  1.00  0.00     0.001 A 
ATOM     97  C   UNL A   1      33.950  31.372  27.770  1.00  0.00     0.040 A 
ATOM     98  F   UNL A   1      31.757  31.522  26.951  1.00  0.00    -0.206 F 
ATOM     99  C   UNL A   1      35.147  30.670  27.902  1.00  0.00     0.003 A 
ENDBRANCH  85  93
ENDBRANCH  79  81
ENDBRANCH  72  75
ENDBRANCH  70  71
ENDBRANCH  69  70
ENDBRANCH   1  69
TORSDOF 17
ENDMDL
MODEL 3
REMARK VINA RESULT:     -12.9      3.139      8.439
REMARK SMILES O=C(NCCCCNC(=O)[C@H]1CCCN(c2cc(-c3ccccn3)nc(-c3ccccc3F)n2)C1)c1ccc(-c2c3nc(c(-c4ccc(S(=O)(=O)[O-])cc4)c4ccc([nH]4)c(-c4ccc(S(=O)(=O)[O-])cc4)c4nc(c(-c5ccc(S(=O)(=O)[O-])cc5)c5ccc2[nH]5)C=C4)C=C3)cc1
REMARK SMILES IDX 5 1 4 2 3 3 1 4 2 5 36 7 37 8 95 9 38 10 94 11 39 12 40 13
REMARK SMILES IDX 41 14 88 15 42 16 93 17 87 18 89 19 43 20 92 21 86 22 85 23
REMARK SMILES IDX 44 25 74 26 55 27 73 28 56 29 59 30 72 31 90 32 57 33 58 34
REMARK SMILES IDX 71 36 91 37 60 38 45 39 46 40 54 41 47 42 53 43 48 44 49 45
REMARK SMILES IDX 50 46 51 47 52 48 75 49 76 50 84 51 77 52 83 53 78 54 79 55
REMARK SMILES IDX 80 56 81 57 82 58 61 59 62 60 70 61 63 62 69 63 64 64 65 65
REMARK SMILES IDX 66 66 67 67 68 68 6 69 7 70 8 71 9 72 10 74 11 75 12 76
REMARK SMILES IDX 35 77 13 78 15 79 14 80 16 81 17 82 34 83 18 84 26 85 25 86
REMARK SMILES IDX 19 87 20 88 24 89 21 90 23 91 22 92 27 93 28 94 32 95 29 96
REMARK SMILES IDX 31 97 33 98 30 99
REMARK H PARENT 3 6 89 24 59 35 8 73
REMARK Flexibility Score: inf
ROOT
ATOM      1  C   UNL A   1      34.950  24.137  25.336  1.00  0.00     0.023 C 
ENDROOT
BRANCH   1   2
ATOM      2  C   UNL A   1      36.390  24.427  25.722  1.00  0.00     0.116 C 
BRANCH   2   3
ATOM      3  N   UNL A   1      37.257  23.264  25.617  1.00  0.00    -0.352 N 
ATOM      4  O   UNL A   1      39.193  22.109  25.772  1.00  0.00    -0.269 OA
ATOM      5  C   UNL A   1      38.561  23.129  26.034  1.00  0.00     0.251 C 
ATOM      6  H   UNL A   1      36.859  22.470  25.191  1.00  0.00     0.163 HD
BRANCH   5   7
ATOM      7  C   UNL A   1      39.202  24.240  26.766  1.00  0.00     0.039 A 
ATOM      8  C   UNL A   1      38.981  24.405  28.135  1.00  0.00     0.014 A 
ATOM      9  C   UNL A   1      40.002  25.146  26.066  1.00  0.00     0.014 A 
ATOM     10  C   UNL A   1      39.433  25.554  28.771  1.00  0.00     0.010 A 
ATOM     11  C   UNL A   1      40.528  26.258  26.728  1.00  0.00     0.010 A 
ATOM     12  C   UNL A   1      40.218  26.489  28.077  1.00  0.00    -0.014 A 
BRANCH  12  13
ATOM     13  C   UNL A   1      40.739  27.672  28.805  1.00  0.00     0.031 A 
ATOM     14  C   UNL A   1      39.874  28.874  29.063  1.00  0.00     0.074 A 
ATOM     15  C   UNL A   1      42.000  27.630  29.278  1.00  0.00     0.049 A 
ATOM     16  N   UNL A   1      40.160  29.962  29.733  1.00  0.00    -0.248 NA
ATOM     17  C   UNL A   1      38.517  28.861  28.494  1.00  0.00     0.031 C 
ATOM     18  C   UNL A   1      42.933  26.515  29.086  1.00  0.00     0.029 A 
ATOM     19  N   UNL A   1      42.703  28.524  30.041  1.00  0.00    -0.354 N 
ATOM     20  C   UNL A   1      39.034  30.772  29.647  1.00  0.00     0.074 A 
ATOM     21  C   UNL A   1      38.063  30.058  28.845  1.00  0.00     0.031 C 
ATOM     22  C   UNL A   1      44.060  26.764  29.770  1.00  0.00     0.029 A 
ATOM     23  C   UNL A   1      43.954  28.077  30.395  1.00  0.00     0.049 A 
ATOM     24  H   UNL A   1      42.348  29.402  30.310  1.00  0.00     0.167 HD
ATOM     25  C   UNL A   1      38.828  31.999  30.187  1.00  0.00     0.031 A 
ATOM     26  C   UNL A   1      44.914  28.657  31.137  1.00  0.00     0.031 A 
ATOM     27  C   UNL A   1      39.796  32.701  30.990  1.00  0.00     0.049 A 
ATOM     28  C   UNL A   1      44.664  30.018  31.715  1.00  0.00     0.074 A 
ATOM     29  C   UNL A   1      39.670  33.936  31.606  1.00  0.00     0.029 A 
ATOM     30  N   UNL A   1      41.067  32.235  31.288  1.00  0.00    -0.354 N 
ATOM     31  N   UNL A   1      43.584  30.758  31.637  1.00  0.00    -0.248 NA
ATOM     32  C   UNL A   1      45.763  30.623  32.477  1.00  0.00     0.031 C 
ATOM     33  C   UNL A   1      40.881  34.232  32.242  1.00  0.00     0.029 A 
ATOM     34  C   UNL A   1      41.744  33.163  32.061  1.00  0.00     0.049 A 
ATOM     35  H   UNL A   1      41.434  31.370  30.994  1.00  0.00     0.167 HD
ATOM     36  C   UNL A   1      43.870  31.914  32.350  1.00  0.00     0.074 A 
ATOM     37  C   UNL A   1      45.216  31.766  32.868  1.00  0.00     0.031 C 
ATOM     38  C   UNL A   1      43.088  33.003  32.555  1.00  0.00     0.031 A 
BRANCH  25  39
ATOM     39  C   UNL A   1      37.514  32.673  29.897  1.00  0.00    -0.014 A 
ATOM     40  C   UNL A   1      37.308  33.394  28.708  1.00  0.00     0.010 A 
ATOM     41  C   UNL A   1      36.456  32.556  30.819  1.00  0.00     0.010 A 
ATOM     42  C   UNL A   1      36.083  34.023  28.465  1.00  0.00     0.020 A 
ATOM     43  C   UNL A   1      35.222  33.166  30.569  1.00  0.00     0.020 A 
ATOM     44  C   UNL A   1      35.051  33.914  29.402  1.00  0.00     0.054 A 
BRANCH  44  45
ATOM     45  S   UNL A   1      33.470  34.737  29.064  1.00  0.00     0.124 S 
ATOM     46  O   UNL A   1      32.861  34.774  30.391  1.00  0.00    -0.237 OA
ATOM     47  O   UNL A   1      33.886  36.031  28.530  1.00  0.00    -0.237 OA
ATOM     48  O   UNL A   1      32.816  33.852  28.103  1.00  0.00    -0.744 OA
ENDBRANCH  44  45
ENDBRANCH  25  39
BRANCH  26  49
ATOM     49  C   UNL A   1      46.194  27.940  31.370  1.00  0.00    -0.014 A 
ATOM     50  C   UNL A   1      46.367  27.147  32.516  1.00  0.00     0.010 A 
ATOM     51  C   UNL A   1      47.229  28.011  30.420  1.00  0.00     0.010 A 
ATOM     52  C   UNL A   1      47.555  26.439  32.712  1.00  0.00     0.020 A 
ATOM     53  C   UNL A   1      48.408  27.285  30.600  1.00  0.00     0.020 A 
ATOM     54  C   UNL A   1      48.568  26.509  31.751  1.00  0.00     0.054 A 
BRANCH  54  55
ATOM     55  S   UNL A   1      50.074  25.526  31.985  1.00  0.00     0.124 S 
ATOM     56  O   UNL A   1      49.655  24.566  32.999  1.00  0.00    -0.237 OA
ATOM     57  O   UNL A   1      50.307  24.977  30.651  1.00  0.00    -0.237 OA
ATOM     58  O   UNL A   1      51.059  26.513  32.422  1.00  0.00    -0.744 OA
ENDBRANCH  54  55
ENDBRANCH  26  49
BRANCH  38  59
ATOM     59  C   UNL A   1      43.671  34.108  33.390  1.00  0.00    -0.014 A 
ATOM     60  C   UNL A   1      44.377  35.170  32.796  1.00  0.00     0.010 A 
ATOM     61  C   UNL A   1      43.494  34.095  34.785  1.00  0.00     0.010 A 
ATOM     62  C   UNL A   1      44.928  36.180  33.588  1.00  0.00     0.020 A 
ATOM     63  C   UNL A   1      44.024  35.115  35.577  1.00  0.00     0.020 A 
ATOM     64  C   UNL A   1      44.753  36.143  34.975  1.00  0.00     0.054 A 
BRANCH  64  65
ATOM     65  S   UNL A   1      45.455  37.476  35.983  1.00  0.00     0.124 S 
ATOM     66  O   UNL A   1      45.566  36.840  37.292  1.00  0.00    -0.237 OA
ATOM     67  O   UNL A   1      46.723  37.758  35.313  1.00  0.00    -0.237 OA
ATOM     68  O   UNL A   1      44.459  38.541  35.889  1.00  0.00    -0.744 OA
ENDBRANCH  64  65
ENDBRANCH  38  59
ENDBRANCH  12  13
ENDBRANCH   5   7
ENDBRANCH   2   3
ENDBRANCH   1   2
BRANCH   1  69
ATOM     69  C   UNL A   1      33.965  24.098  26.501  1.00  0.00     0.023 C 
BRANCH  69  70
ATOM     70  C   UNL A   1      33.536  22.697  26.946  1.00  0.00     0.116 C 
BRANCH  70  71
ATOM     71  N   UNL A   1      32.174  22.675  27.452  1.00  0.00    -0.356 N 
ATOM     72  C   UNL A   1      31.045  23.251  26.943  1.00  0.00     0.224 C 
ATOM     73  H   UNL A   1      32.045  22.171  28.288  1.00  0.00     0.163 HD
ATOM     74  O   UNL A   1      29.987  23.085  27.553  1.00  0.00    -0.275 OA
BRANCH  72  75
ATOM     75  C   UNL A   1      31.120  24.063  25.657  1.00  0.00     0.098 C 
ATOM     76  C   UNL A   1      31.060  23.157  24.413  1.00  0.00     0.017 C 
ATOM     77  C   UNL A   1      29.953  25.041  25.600  1.00  0.00     0.131 C 
ATOM     78  C   UNL A   1      31.057  23.988  23.124  1.00  0.00     0.022 C 
ATOM     79  N   UNL A   1      29.949  25.786  24.349  1.00  0.00    -0.356 N 
ATOM     80  C   UNL A   1      29.931  25.024  23.112  1.00  0.00     0.118 C 
BRANCH  79  81
ATOM     81  C   UNL A   1      30.396  27.095  24.368  1.00  0.00     0.133 A 
ATOM     82  C   UNL A   1      29.772  28.010  23.546  1.00  0.00     0.077 A 
ATOM     83  N   UNL A   1      31.337  27.472  25.253  1.00  0.00    -0.211 NA
ATOM     84  C   UNL A   1      30.110  29.339  23.700  1.00  0.00     0.095 A 
ATOM     85  C   UNL A   1      31.640  28.786  25.303  1.00  0.00     0.165 A 
ATOM     86  N   UNL A   1      31.056  29.744  24.567  1.00  0.00    -0.226 NA
BRANCH  84  87
ATOM     87  C   UNL A   1      29.378  30.388  22.980  1.00  0.00     0.089 A 
ATOM     88  C   UNL A   1      28.950  30.192  21.666  1.00  0.00     0.030 A 
ATOM     89  N   UNL A   1      29.176  31.558  23.641  1.00  0.00    -0.255 NA
ATOM     90  C   UNL A   1      28.289  31.224  21.006  1.00  0.00     0.004 A 
ATOM     91  C   UNL A   1      28.518  32.535  22.980  1.00  0.00     0.112 A 
ATOM     92  C   UNL A   1      28.065  32.420  21.676  1.00  0.00     0.020 A 
ENDBRANCH  84  87
BRANCH  85  93
ATOM     93  C   UNL A   1      32.737  29.206  26.170  1.00  0.00     0.055 A 
ATOM     94  C   UNL A   1      33.939  28.477  26.226  1.00  0.00     0.015 A 
ATOM     95  C   UNL A   1      32.654  30.378  26.932  1.00  0.00     0.134 A 
ATOM     96  C   UNL A   1      35.019  28.922  26.997  1.00  0.00     0.001 A 
ATOM     97  C   UNL A   1      33.722  30.823  27.711  1.00  0.00     0.040 A 
ATOM     98  F   UNL A   1      31.523  31.101  26.943  1.00  0.00    -0.206 F 
ATOM     99  C   UNL A   1      34.912  30.097  27.738  1.00  0.00     0.003 A 
ENDBRANCH  85  93
ENDBRANCH  79  81
ENDBRANCH  72  75
ENDBRANCH  70  71
ENDBRANCH  69  70
ENDBRANCH   1  69
TORSDOF 17
ENDMDL
