MODEL 1
REMARK VINA RESULT:      -9.4      0.000      0.000
REMARK SMILES C[C@H](CC(=O)NCCCCNC(=O)c1ccc(-c2c3nc(c(-c4ccc(S(=O)(=O)[O-])cc4)c4ccc([nH]4)c(-c4ccc(S(=O)(=O)[O-])cc4)c4nc(c(-c5ccc(S(=O)(=O)[O-])cc5)c5ccc2[nH]5)C=C4)C=C3)cc1)[NH2+][C@H](C)c1ccccc1
REMARK SMILES IDX 8 1 7 2 6 3 4 4 5 5 3 7 2 8 1 9 74 10 75 13 76 14 77 15
REMARK SMILES IDX 78 16 82 17 79 18 81 19 80 20 9 21 10 22 11 23 12 24 13 26
REMARK SMILES IDX 14 27 15 28 73 29 16 30 72 31 17 32 18 33 19 34 66 35 20 36
REMARK SMILES IDX 71 37 65 38 67 39 21 40 70 41 64 42 63 43 22 45 52 46 33 47
REMARK SMILES IDX 51 48 34 49 37 50 50 51 68 52 35 53 36 54 49 56 69 57 38 58
REMARK SMILES IDX 23 59 24 60 32 61 25 62 31 63 26 64 27 65 28 66 29 67 30 68
REMARK SMILES IDX 53 69 54 70 62 71 55 72 61 73 56 74 57 75 58 76 59 77 60 78
REMARK SMILES IDX 39 79 40 80 48 81 41 82 47 83 42 84 43 85 44 86 45 87 46 88
REMARK H PARENT 6 6 74 11 74 12 11 25 67 44 37 55
REMARK Flexibility Score: inf
ROOT
ATOM      1  C   UNL A   1      33.982  35.095  28.912  1.00  0.00     0.023 C 
ENDROOT
BRANCH   1   2
ATOM      2  C   UNL A   1      33.009  35.701  29.925  1.00  0.00     0.116 C 
BRANCH   2   3
ATOM      3  N   UNL A   1      33.656  36.652  30.817  1.00  0.00    -0.356 N 
ATOM      4  C   UNL A   1      33.851  36.581  32.170  1.00  0.00     0.225 C 
ATOM      5  O   UNL A   1      34.387  37.536  32.738  1.00  0.00    -0.275 OA
ATOM      6  H   UNL A   1      34.003  37.466  30.385  1.00  0.00     0.163 HD
BRANCH   4   7
ATOM      7  C   UNL A   1      33.398  35.357  32.957  1.00  0.00     0.164 C 
BRANCH   7   8
ATOM      8  C   UNL A   1      34.537  34.407  33.419  1.00  0.00     0.189 C 
ATOM      9  C   UNL A   1      34.306  32.997  32.883  1.00  0.00     0.075 C 
BRANCH   8  10
ATOM     10  N   UNL A   1      35.803  34.999  33.012  1.00  0.00    -0.338 N 
ATOM     11  H   UNL A   1      35.973  35.750  33.680  1.00  0.00     0.347 HD
ATOM     12  H   UNL A   1      35.603  35.171  32.027  1.00  0.00     0.347 HD
BRANCH  10  13
ATOM     13  C   UNL A   1      37.082  34.300  32.886  1.00  0.00     0.210 C 
ATOM     14  C   UNL A   1      38.049  34.547  34.043  1.00  0.00     0.081 C 
BRANCH  13  15
ATOM     15  C   UNL A   1      37.747  34.229  31.520  1.00  0.00     0.009 A 
ATOM     16  C   UNL A   1      37.028  33.622  30.469  1.00  0.00     0.010 A 
ATOM     17  C   UNL A   1      39.008  34.753  31.216  1.00  0.00     0.010 A 
ATOM     18  C   UNL A   1      37.560  33.512  29.183  1.00  0.00     0.001 A 
ATOM     19  C   UNL A   1      39.551  34.631  29.931  1.00  0.00     0.001 A 
ATOM     20  C   UNL A   1      38.831  34.007  28.918  1.00  0.00     0.000 A 
ENDBRANCH  13  15
ENDBRANCH  10  13
ENDBRANCH   8  10
ENDBRANCH   7   8
ENDBRANCH   4   7
ENDBRANCH   2   3
ENDBRANCH   1   2
BRANCH   1  21
ATOM     21  C   UNL A   1      33.484  33.880  28.153  1.00  0.00     0.023 C 
BRANCH  21  22
ATOM     22  C   UNL A   1      34.165  32.587  28.537  1.00  0.00     0.116 C 
BRANCH  22  23
ATOM     23  N   UNL A   1      33.760  31.457  27.713  1.00  0.00    -0.352 N 
ATOM     24  C   UNL A   1      34.456  30.307  27.426  1.00  0.00     0.251 C 
ATOM     25  H   UNL A   1      32.866  31.526  27.305  1.00  0.00     0.163 HD
ATOM     26  O   UNL A   1      34.018  29.508  26.604  1.00  0.00    -0.269 OA
BRANCH  24  27
ATOM     27  C   UNL A   1      35.752  30.065  28.093  1.00  0.00     0.039 A 
ATOM     28  C   UNL A   1      35.769  29.527  29.380  1.00  0.00     0.014 A 
ATOM     29  C   UNL A   1      36.949  30.325  27.422  1.00  0.00     0.014 A 
ATOM     30  C   UNL A   1      36.991  29.203  29.970  1.00  0.00     0.010 A 
ATOM     31  C   UNL A   1      38.148  29.875  27.952  1.00  0.00     0.010 A 
ATOM     32  C   UNL A   1      38.189  29.349  29.250  1.00  0.00    -0.014 A 
BRANCH  32  33
ATOM     33  C   UNL A   1      39.504  29.040  29.859  1.00  0.00     0.031 A 
ATOM     34  C   UNL A   1      39.974  29.838  31.049  1.00  0.00     0.074 A 
ATOM     35  C   UNL A   1      40.290  28.086  29.322  1.00  0.00     0.049 A 
ATOM     36  N   UNL A   1      41.100  29.752  31.709  1.00  0.00    -0.248 NA
ATOM     37  C   UNL A   1      39.078  30.902  31.539  1.00  0.00     0.031 C 
ATOM     38  C   UNL A   1      39.974  27.292  28.131  1.00  0.00     0.029 A 
ATOM     39  N   UNL A   1      41.517  27.619  29.715  1.00  0.00    -0.354 N 
ATOM     40  C   UNL A   1      41.053  30.762  32.664  1.00  0.00     0.074 A 
ATOM     41  C   UNL A   1      39.830  31.497  32.450  1.00  0.00     0.031 C 
ATOM     42  C   UNL A   1      40.959  26.403  27.922  1.00  0.00     0.029 A 
ATOM     43  C   UNL A   1      41.989  26.586  28.939  1.00  0.00     0.049 A 
ATOM     44  H   UNL A   1      42.015  27.987  30.480  1.00  0.00     0.167 HD
ATOM     45  C   UNL A   1      41.930  31.032  33.659  1.00  0.00     0.031 A 
ATOM     46  C   UNL A   1      43.119  25.861  29.048  1.00  0.00     0.031 A 
ATOM     47  C   UNL A   1      43.126  30.271  33.895  1.00  0.00     0.049 A 
ATOM     48  C   UNL A   1      44.062  26.154  30.183  1.00  0.00     0.074 A 
ATOM     49  C   UNL A   1      44.051  30.410  34.912  1.00  0.00     0.029 A 
ATOM     50  N   UNL A   1      43.553  29.215  33.103  1.00  0.00    -0.354 N 
ATOM     51  N   UNL A   1      43.966  27.068  31.120  1.00  0.00    -0.248 NA
ATOM     52  C   UNL A   1      45.254  25.303  30.286  1.00  0.00     0.031 C 
ATOM     53  C   UNL A   1      45.062  29.464  34.712  1.00  0.00     0.029 A 
ATOM     54  C   UNL A   1      44.737  28.702  33.601  1.00  0.00     0.049 A 
ATOM     55  H   UNL A   1      43.083  28.880  32.305  1.00  0.00     0.167 HD
ATOM     56  C   UNL A   1      45.075  26.886  31.940  1.00  0.00     0.074 A 
ATOM     57  C   UNL A   1      45.811  25.760  31.400  1.00  0.00     0.031 C 
ATOM     58  C   UNL A   1      45.454  27.586  33.039  1.00  0.00     0.031 A 
BRANCH  45  59
ATOM     59  C   UNL A   1      41.611  32.189  34.569  1.00  0.00    -0.014 A 
ATOM     60  C   UNL A   1      40.901  31.995  35.769  1.00  0.00     0.010 A 
ATOM     61  C   UNL A   1      42.033  33.486  34.228  1.00  0.00     0.010 A 
ATOM     62  C   UNL A   1      40.575  33.082  36.585  1.00  0.00     0.020 A 
ATOM     63  C   UNL A   1      41.737  34.573  35.057  1.00  0.00     0.020 A 
ATOM     64  C   UNL A   1      40.993  34.365  36.220  1.00  0.00     0.054 A 
BRANCH  64  65
ATOM     65  S   UNL A   1      40.573  35.755  37.307  1.00  0.00     0.124 S 
ATOM     66  O   UNL A   1      39.845  35.087  38.382  1.00  0.00    -0.237 OA
ATOM     67  O   UNL A   1      41.885  36.284  37.674  1.00  0.00    -0.237 OA
ATOM     68  O   UNL A   1      39.768  36.628  36.458  1.00  0.00    -0.744 OA
ENDBRANCH  64  65
ENDBRANCH  45  59
BRANCH  46  69
ATOM     69  C   UNL A   1      43.397  24.763  28.083  1.00  0.00    -0.014 A 
ATOM     70  C   UNL A   1      44.283  24.965  27.009  1.00  0.00     0.010 A 
ATOM     71  C   UNL A   1      42.784  23.505  28.232  1.00  0.00     0.010 A 
ATOM     72  C   UNL A   1      44.531  23.941  26.090  1.00  0.00     0.020 A 
ATOM     73  C   UNL A   1      43.052  22.470  27.333  1.00  0.00     0.020 A 
ATOM     74  C   UNL A   1      43.915  22.698  26.258  1.00  0.00     0.054 A 
BRANCH  74  75
ATOM     75  S   UNL A   1      44.285  21.370  25.080  1.00  0.00     0.124 S 
ATOM     76  O   UNL A   1      45.644  20.997  25.460  1.00  0.00    -0.237 OA
ATOM     77  O   UNL A   1      43.250  20.383  25.380  1.00  0.00    -0.237 OA
ATOM     78  O   UNL A   1      44.154  22.021  23.778  1.00  0.00    -0.744 OA
ENDBRANCH  74  75
ENDBRANCH  46  69
BRANCH  58  79
ATOM     79  C   UNL A   1      46.704  27.131  33.741  1.00  0.00    -0.014 A 
ATOM     80  C   UNL A   1      46.656  26.156  34.753  1.00  0.00     0.010 A 
ATOM     81  C   UNL A   1      47.947  27.667  33.360  1.00  0.00     0.010 A 
ATOM     82  C   UNL A   1      47.826  25.763  35.408  1.00  0.00     0.020 A 
ATOM     83  C   UNL A   1      49.123  27.254  33.990  1.00  0.00     0.020 A 
ATOM     84  C   UNL A   1      49.051  26.320  35.026  1.00  0.00     0.054 A 
BRANCH  84  85
ATOM     85  S   UNL A   1      50.557  25.786  35.881  1.00  0.00     0.124 S 
ATOM     86  O   UNL A   1      50.012  25.094  37.047  1.00  0.00    -0.237 OA
ATOM     87  O   UNL A   1      51.205  24.931  34.890  1.00  0.00    -0.237 OA
ATOM     88  O   UNL A   1      51.255  27.037  36.169  1.00  0.00    -0.744 OA
ENDBRANCH  84  85
ENDBRANCH  58  79
ENDBRANCH  32  33
ENDBRANCH  24  27
ENDBRANCH  22  23
ENDBRANCH  21  22
ENDBRANCH   1  21
TORSDOF 18
ENDMDL
MODEL 2
REMARK VINA RESULT:      -9.2      3.956      6.868
REMARK SMILES C[C@H](CC(=O)NCCCCNC(=O)c1ccc(-c2c3nc(c(-c4ccc(S(=O)(=O)[O-])cc4)c4ccc([nH]4)c(-c4ccc(S(=O)(=O)[O-])cc4)c4nc(c(-c5ccc(S(=O)(=O)[O-])cc5)c5ccc2[nH]5)C=C4)C=C3)cc1)[NH2+][C@H](C)c1ccccc1
REMARK SMILES IDX 8 1 7 2 6 3 4 4 5 5 3 7 2 8 1 9 74 10 75 13 76 14 77 15
REMARK SMILES IDX 78 16 82 17 79 18 81 19 80 20 9 21 10 22 11 23 12 24 13 26
REMARK SMILES IDX 14 27 15 28 73 29 16 30 72 31 17 32 18 33 19 34 66 35 20 36
REMARK SMILES IDX 71 37 65 38 67 39 21 40 70 41 64 42 63 43 22 45 52 46 33 47
REMARK SMILES IDX 51 48 34 49 37 50 50 51 68 52 35 53 36 54 49 56 69 57 38 58
REMARK SMILES IDX 23 59 24 60 32 61 25 62 31 63 26 64 27 65 28 66 29 67 30 68
REMARK SMILES IDX 53 69 54 70 62 71 55 72 61 73 56 74 57 75 58 76 59 77 60 78
REMARK SMILES IDX 39 79 40 80 48 81 41 82 47 83 42 84 43 85 44 86 45 87 46 88
REMARK H PARENT 6 6 74 11 74 12 11 25 67 44 37 55
REMARK Flexibility Score: inf
ROOT
ATOM      1  C   UNL A   1      33.999  27.478  24.138  1.00  0.00     0.023 C 
ENDROOT
BRANCH   1   2
ATOM      2  C   UNL A   1      33.356  28.126  22.911  1.00  0.00     0.116 C 
BRANCH   2   3
ATOM      3  N   UNL A   1      33.522  27.324  21.707  1.00  0.00    -0.356 N 
ATOM      4  C   UNL A   1      32.756  26.290  21.239  1.00  0.00     0.225 C 
ATOM      5  O   UNL A   1      33.113  25.715  20.208  1.00  0.00    -0.275 OA
ATOM      6  H   UNL A   1      34.297  27.559  21.148  1.00  0.00     0.163 HD
BRANCH   4   7
ATOM      7  C   UNL A   1      31.504  25.850  21.987  1.00  0.00     0.164 C 
BRANCH   7   8
ATOM      8  C   UNL A   1      31.697  24.647  22.952  1.00  0.00     0.189 C 
ATOM      9  C   UNL A   1      30.347  24.148  23.459  1.00  0.00     0.075 C 
BRANCH   8  10
ATOM     10  N   UNL A   1      32.481  23.638  22.254  1.00  0.00    -0.338 N 
ATOM     11  H   UNL A   1      33.102  24.163  21.638  1.00  0.00     0.347 HD
ATOM     12  H   UNL A   1      31.728  23.046  21.906  1.00  0.00     0.347 HD
BRANCH  10  13
ATOM     13  C   UNL A   1      33.328  22.621  22.876  1.00  0.00     0.210 C 
ATOM     14  C   UNL A   1      32.566  21.408  23.409  1.00  0.00     0.081 C 
BRANCH  13  15
ATOM     15  C   UNL A   1      34.484  23.069  23.759  1.00  0.00     0.009 A 
ATOM     16  C   UNL A   1      35.796  22.818  23.303  1.00  0.00     0.010 A 
ATOM     17  C   UNL A   1      34.346  23.746  24.975  1.00  0.00     0.010 A 
ATOM     18  C   UNL A   1      36.915  23.192  24.047  1.00  0.00     0.001 A 
ATOM     19  C   UNL A   1      35.467  24.110  25.731  1.00  0.00     0.001 A 
ATOM     20  C   UNL A   1      36.749  23.829  25.270  1.00  0.00     0.000 A 
ENDBRANCH  13  15
ENDBRANCH  10  13
ENDBRANCH   8  10
ENDBRANCH   7   8
ENDBRANCH   4   7
ENDBRANCH   2   3
ENDBRANCH   1   2
BRANCH   1  21
ATOM     21  C   UNL A   1      33.242  27.624  25.445  1.00  0.00     0.023 C 
BRANCH  21  22
ATOM     22  C   UNL A   1      34.071  28.170  26.583  1.00  0.00     0.116 C 
BRANCH  22  23
ATOM     23  N   UNL A   1      33.668  29.508  26.996  1.00  0.00    -0.352 N 
ATOM     24  C   UNL A   1      34.362  30.420  27.753  1.00  0.00     0.251 C 
ATOM     25  H   UNL A   1      32.777  29.797  26.692  1.00  0.00     0.163 HD
ATOM     26  O   UNL A   1      33.822  31.459  28.120  1.00  0.00    -0.269 OA
BRANCH  24  27
ATOM     27  C   UNL A   1      35.754  30.119  28.148  1.00  0.00     0.039 A 
ATOM     28  C   UNL A   1      36.008  29.592  29.414  1.00  0.00     0.014 A 
ATOM     29  C   UNL A   1      36.801  30.311  27.243  1.00  0.00     0.014 A 
ATOM     30  C   UNL A   1      37.307  29.213  29.750  1.00  0.00     0.010 A 
ATOM     31  C   UNL A   1      38.059  29.805  27.527  1.00  0.00     0.010 A 
ATOM     32  C   UNL A   1      38.338  29.291  28.799  1.00  0.00    -0.014 A 
BRANCH  32  33
ATOM     33  C   UNL A   1      39.734  28.921  29.134  1.00  0.00     0.031 A 
ATOM     34  C   UNL A   1      40.608  29.913  29.859  1.00  0.00     0.074 A 
ATOM     35  C   UNL A   1      40.227  27.727  28.751  1.00  0.00     0.049 A 
ATOM     36  N   UNL A   1      41.862  29.803  30.216  1.00  0.00    -0.248 NA
ATOM     37  C   UNL A   1      40.008  31.219  30.191  1.00  0.00     0.031 C 
ATOM     38  C   UNL A   1      39.500  26.709  27.987  1.00  0.00     0.029 A 
ATOM     39  N   UNL A   1      41.460  27.165  28.959  1.00  0.00    -0.354 N 
ATOM     40  C   UNL A   1      42.199  31.027  30.785  1.00  0.00     0.074 A 
ATOM     41  C   UNL A   1      41.050  31.890  30.655  1.00  0.00     0.031 C 
ATOM     42  C   UNL A   1      40.284  25.629  27.835  1.00  0.00     0.029 A 
ATOM     43  C   UNL A   1      41.577  25.889  28.459  1.00  0.00     0.049 A 
ATOM     44  H   UNL A   1      42.193  27.630  29.423  1.00  0.00     0.167 HD
ATOM     45  C   UNL A   1      43.349  31.391  31.397  1.00  0.00     0.031 A 
ATOM     46  C   UNL A   1      42.608  25.025  28.511  1.00  0.00     0.031 A 
ATOM     47  C   UNL A   1      44.476  30.515  31.562  1.00  0.00     0.049 A 
ATOM     48  C   UNL A   1      43.864  25.437  29.229  1.00  0.00     0.074 A 
ATOM     49  C   UNL A   1      45.665  30.753  32.225  1.00  0.00     0.029 A 
ATOM     50  N   UNL A   1      44.543  29.221  31.065  1.00  0.00    -0.354 N 
ATOM     51  N   UNL A   1      44.139  26.575  29.823  1.00  0.00    -0.248 NA
ATOM     52  C   UNL A   1      44.940  24.440  29.302  1.00  0.00     0.031 C 
ATOM     53  C   UNL A   1      46.471  29.617  32.093  1.00  0.00     0.029 A 
ATOM     54  C   UNL A   1      45.761  28.654  31.394  1.00  0.00     0.049 A 
ATOM     55  H   UNL A   1      43.831  28.774  30.554  1.00  0.00     0.167 HD
ATOM     56  C   UNL A   1      45.412  26.421  30.362  1.00  0.00     0.074 A 
ATOM     57  C   UNL A   1      45.840  25.073  30.042  1.00  0.00     0.031 C 
ATOM     58  C   UNL A   1      46.164  27.312  31.057  1.00  0.00     0.031 A 
BRANCH  45  59
ATOM     59  C   UNL A   1      43.429  32.792  31.944  1.00  0.00    -0.014 A 
ATOM     60  C   UNL A   1      43.963  33.844  31.176  1.00  0.00     0.010 A 
ATOM     61  C   UNL A   1      42.956  33.067  33.240  1.00  0.00     0.010 A 
ATOM     62  C   UNL A   1      44.070  35.131  31.710  1.00  0.00     0.020 A 
ATOM     63  C   UNL A   1      43.030  34.360  33.767  1.00  0.00     0.020 A 
ATOM     64  C   UNL A   1      43.606  35.379  33.004  1.00  0.00     0.054 A 
BRANCH  64  65
ATOM     65  S   UNL A   1      43.738  37.063  33.665  1.00  0.00     0.124 S 
ATOM     66  O   UNL A   1      43.822  37.859  32.444  1.00  0.00    -0.237 OA
ATOM     67  O   UNL A   1      42.498  37.208  34.425  1.00  0.00    -0.237 OA
ATOM     68  O   UNL A   1      44.956  37.025  34.469  1.00  0.00    -0.744 OA
ENDBRANCH  64  65
ENDBRANCH  45  59
BRANCH  46  69
ATOM     69  C   UNL A   1      42.480  23.672  27.904  1.00  0.00    -0.014 A 
ATOM     70  C   UNL A   1      41.948  22.604  28.649  1.00  0.00     0.010 A 
ATOM     71  C   UNL A   1      42.883  23.441  26.576  1.00  0.00     0.010 A 
ATOM     72  C   UNL A   1      41.845  21.328  28.088  1.00  0.00     0.020 A 
ATOM     73  C   UNL A   1      42.755  22.174  26.001  1.00  0.00     0.020 A 
ATOM     74  C   UNL A   1      42.248  21.120  26.766  1.00  0.00     0.054 A 
BRANCH  74  75
ATOM     75  S   UNL A   1      42.064  19.467  26.043  1.00  0.00     0.124 S 
ATOM     76  O   UNL A   1      42.575  18.611  27.108  1.00  0.00    -0.237 OA
ATOM     77  O   UNL A   1      40.625  19.386  25.801  1.00  0.00    -0.237 OA
ATOM     78  O   UNL A   1      42.888  19.528  24.837  1.00  0.00    -0.744 OA
ENDBRANCH  74  75
ENDBRANCH  46  69
BRANCH  58  79
ATOM     79  C   UNL A   1      47.509  26.843  31.538  1.00  0.00    -0.014 A 
ATOM     80  C   UNL A   1      48.673  27.070  30.781  1.00  0.00     0.010 A 
ATOM     81  C   UNL A   1      47.613  26.190  32.780  1.00  0.00     0.010 A 
ATOM     82  C   UNL A   1      49.910  26.607  31.235  1.00  0.00     0.020 A 
ATOM     83  C   UNL A   1      48.852  25.753  33.252  1.00  0.00     0.020 A 
ATOM     84  C   UNL A   1      49.989  25.945  32.465  1.00  0.00     0.054 A 
BRANCH  84  85
ATOM     85  S   UNL A   1      51.607  25.364  33.039  1.00  0.00     0.124 S 
ATOM     86  O   UNL A   1      52.167  24.779  31.823  1.00  0.00    -0.237 OA
ATOM     87  O   UNL A   1      52.249  26.594  33.496  1.00  0.00    -0.237 OA
ATOM     88  O   UNL A   1      51.278  24.410  34.096  1.00  0.00    -0.744 OA
ENDBRANCH  84  85
ENDBRANCH  58  79
ENDBRANCH  32  33
ENDBRANCH  24  27
ENDBRANCH  22  23
ENDBRANCH  21  22
ENDBRANCH   1  21
TORSDOF 18
ENDMDL
MODEL 3
REMARK VINA RESULT:      -9.0      1.957      2.787
REMARK SMILES C[C@H](CC(=O)NCCCCNC(=O)c1ccc(-c2c3nc(c(-c4ccc(S(=O)(=O)[O-])cc4)c4ccc([nH]4)c(-c4ccc(S(=O)(=O)[O-])cc4)c4nc(c(-c5ccc(S(=O)(=O)[O-])cc5)c5ccc2[nH]5)C=C4)C=C3)cc1)[NH2+][C@H](C)c1ccccc1
REMARK SMILES IDX 8 1 7 2 6 3 4 4 5 5 3 7 2 8 1 9 74 10 75 13 76 14 77 15
REMARK SMILES IDX 78 16 82 17 79 18 81 19 80 20 9 21 10 22 11 23 12 24 13 26
REMARK SMILES IDX 14 27 15 28 73 29 16 30 72 31 17 32 18 33 19 34 66 35 20 36
REMARK SMILES IDX 71 37 65 38 67 39 21 40 70 41 64 42 63 43 22 45 52 46 33 47
REMARK SMILES IDX 51 48 34 49 37 50 50 51 68 52 35 53 36 54 49 56 69 57 38 58
REMARK SMILES IDX 23 59 24 60 32 61 25 62 31 63 26 64 27 65 28 66 29 67 30 68
REMARK SMILES IDX 53 69 54 70 62 71 55 72 61 73 56 74 57 75 58 76 59 77 60 78
REMARK SMILES IDX 39 79 40 80 48 81 41 82 47 83 42 84 43 85 44 86 45 87 46 88
REMARK H PARENT 6 6 74 11 74 12 11 25 67 44 37 55
REMARK Flexibility Score: inf
ROOT
ATOM      1  C   UNL A   1      34.547  35.465  28.591  1.00  0.00     0.023 C 
ENDROOT
BRANCH   1   2
ATOM      2  C   UNL A   1      33.243  35.606  29.378  1.00  0.00     0.116 C 
BRANCH   2   3
ATOM      3  N   UNL A   1      33.248  36.766  30.258  1.00  0.00    -0.356 N 
ATOM      4  C   UNL A   1      33.407  36.826  31.617  1.00  0.00     0.225 C 
ATOM      5  O   UNL A   1      33.327  37.925  32.170  1.00  0.00    -0.275 OA
ATOM      6  H   UNL A   1      33.117  37.634  29.812  1.00  0.00     0.163 HD
BRANCH   4   7
ATOM      7  C   UNL A   1      33.656  35.559  32.426  1.00  0.00     0.164 C 
BRANCH   7   8
ATOM      8  C   UNL A   1      35.127  35.338  32.876  1.00  0.00     0.189 C 
ATOM      9  C   UNL A   1      35.171  34.605  34.214  1.00  0.00     0.075 C 
BRANCH   8  10
ATOM     10  N   UNL A   1      35.824  34.653  31.798  1.00  0.00    -0.338 N 
ATOM     11  H   UNL A   1      35.688  35.241  30.976  1.00  0.00     0.347 HD
ATOM     12  H   UNL A   1      35.410  33.725  31.888  1.00  0.00     0.347 HD
BRANCH  10  13
ATOM     13  C   UNL A   1      37.241  34.290  31.780  1.00  0.00     0.210 C 
ATOM     14  C   UNL A   1      37.901  34.400  30.406  1.00  0.00     0.081 C 
BRANCH  13  15
ATOM     15  C   UNL A   1      37.702  33.094  32.600  1.00  0.00     0.009 A 
ATOM     16  C   UNL A   1      38.840  33.257  33.418  1.00  0.00     0.010 A 
ATOM     17  C   UNL A   1      37.061  31.852  32.633  1.00  0.00     0.010 A 
ATOM     18  C   UNL A   1      39.335  32.214  34.203  1.00  0.00     0.001 A 
ATOM     19  C   UNL A   1      37.562  30.799  33.408  1.00  0.00     0.001 A 
ATOM     20  C   UNL A   1      38.700  30.978  34.188  1.00  0.00     0.000 A 
ENDBRANCH  13  15
ENDBRANCH  10  13
ENDBRANCH   8  10
ENDBRANCH   7   8
ENDBRANCH   4   7
ENDBRANCH   2   3
ENDBRANCH   1   2
BRANCH   1  21
ATOM     21  C   UNL A   1      34.685  34.211  27.748  1.00  0.00     0.023 C 
BRANCH  21  22
ATOM     22  C   UNL A   1      34.962  32.957  28.544  1.00  0.00     0.116 C 
BRANCH  22  23
ATOM     23  N   UNL A   1      34.078  31.852  28.202  1.00  0.00    -0.352 N 
ATOM     24  C   UNL A   1      34.387  30.525  28.027  1.00  0.00     0.251 C 
ATOM     25  H   UNL A   1      33.130  32.088  28.079  1.00  0.00     0.163 HD
ATOM     26  O   UNL A   1      33.538  29.741  27.611  1.00  0.00    -0.269 OA
BRANCH  24  27
ATOM     27  C   UNL A   1      35.761  30.061  28.312  1.00  0.00     0.039 A 
ATOM     28  C   UNL A   1      36.727  30.127  27.308  1.00  0.00     0.014 A 
ATOM     29  C   UNL A   1      36.102  29.609  29.589  1.00  0.00     0.014 A 
ATOM     30  C   UNL A   1      38.047  29.786  27.605  1.00  0.00     0.010 A 
ATOM     31  C   UNL A   1      37.433  29.406  29.916  1.00  0.00     0.010 A 
ATOM     32  C   UNL A   1      38.415  29.449  28.918  1.00  0.00    -0.014 A 
BRANCH  32  33
ATOM     33  C   UNL A   1      39.803  29.056  29.260  1.00  0.00     0.031 A 
ATOM     34  C   UNL A   1      40.683  30.026  30.008  1.00  0.00     0.074 A 
ATOM     35  C   UNL A   1      40.284  27.862  28.862  1.00  0.00     0.049 A 
ATOM     36  N   UNL A   1      41.931  29.894  30.375  1.00  0.00    -0.248 NA
ATOM     37  C   UNL A   1      40.096  31.333  30.356  1.00  0.00     0.031 C 
ATOM     38  C   UNL A   1      39.551  26.866  28.076  1.00  0.00     0.029 A 
ATOM     39  N   UNL A   1      41.508  27.281  29.073  1.00  0.00    -0.354 N 
ATOM     40  C   UNL A   1      42.279  31.105  30.966  1.00  0.00     0.074 A 
ATOM     41  C   UNL A   1      41.142  31.984  30.840  1.00  0.00     0.031 C 
ATOM     42  C   UNL A   1      40.323  25.779  27.914  1.00  0.00     0.029 A 
ATOM     43  C   UNL A   1      41.613  26.012  28.553  1.00  0.00     0.049 A 
ATOM     44  H   UNL A   1      42.243  27.730  29.551  1.00  0.00     0.167 HD
ATOM     45  C   UNL A   1      43.427  31.445  31.594  1.00  0.00     0.031 A 
ATOM     46  C   UNL A   1      42.633  25.134  28.601  1.00  0.00     0.031 A 
ATOM     47  C   UNL A   1      44.542  30.551  31.755  1.00  0.00     0.049 A 
ATOM     48  C   UNL A   1      43.888  25.519  29.337  1.00  0.00     0.074 A 
ATOM     49  C   UNL A   1      45.728  30.764  32.433  1.00  0.00     0.029 A 
ATOM     50  N   UNL A   1      44.597  29.265  31.238  1.00  0.00    -0.354 N 
ATOM     51  N   UNL A   1      44.172  26.644  29.951  1.00  0.00    -0.248 NA
ATOM     52  C   UNL A   1      44.950  24.507  29.403  1.00  0.00     0.031 C 
ATOM     53  C   UNL A   1      46.520  29.620  32.290  1.00  0.00     0.029 A 
ATOM     54  C   UNL A   1      45.804  28.677  31.569  1.00  0.00     0.049 A 
ATOM     55  H   UNL A   1      43.884  28.835  30.714  1.00  0.00     0.167 HD
ATOM     56  C   UNL A   1      45.438  26.466  30.499  1.00  0.00     0.074 A 
ATOM     57  C   UNL A   1      45.851  25.118  30.162  1.00  0.00     0.031 C 
ATOM     58  C   UNL A   1      46.194  27.336  31.214  1.00  0.00     0.031 A 
BRANCH  45  59
ATOM     59  C   UNL A   1      43.520  32.835  32.165  1.00  0.00    -0.014 A 
ATOM     60  C   UNL A   1      44.176  33.866  31.465  1.00  0.00     0.010 A 
ATOM     61  C   UNL A   1      42.936  33.122  33.411  1.00  0.00     0.010 A 
ATOM     62  C   UNL A   1      44.291  35.142  32.023  1.00  0.00     0.020 A 
ATOM     63  C   UNL A   1      43.020  34.406  33.959  1.00  0.00     0.020 A 
ATOM     64  C   UNL A   1      43.715  35.402  33.269  1.00  0.00     0.054 A 
BRANCH  64  65
ATOM     65  S   UNL A   1      43.862  37.072  33.961  1.00  0.00     0.124 S 
ATOM     66  O   UNL A   1      45.298  37.315  33.858  1.00  0.00    -0.237 OA
ATOM     67  O   UNL A   1      43.026  37.867  33.063  1.00  0.00    -0.237 OA
ATOM     68  O   UNL A   1      43.349  36.931  35.321  1.00  0.00    -0.744 OA
ENDBRANCH  64  65
ENDBRANCH  45  59
BRANCH  46  69
ATOM     69  C   UNL A   1      42.494  23.792  27.972  1.00  0.00    -0.014 A 
ATOM     70  C   UNL A   1      42.796  23.608  26.611  1.00  0.00     0.010 A 
ATOM     71  C   UNL A   1      42.063  22.688  28.730  1.00  0.00     0.010 A 
ATOM     72  C   UNL A   1      42.647  22.353  26.014  1.00  0.00     0.020 A 
ATOM     73  C   UNL A   1      41.940  21.425  28.143  1.00  0.00     0.020 A 
ATOM     74  C   UNL A   1      42.221  21.268  26.784  1.00  0.00     0.054 A 
BRANCH  74  75
ATOM     75  S   UNL A   1      42.077  19.639  25.999  1.00  0.00     0.124 S 
ATOM     76  O   UNL A   1      43.003  19.759  24.878  1.00  0.00    -0.237 OA
ATOM     77  O   UNL A   1      42.491  18.735  27.070  1.00  0.00    -0.237 OA
ATOM     78  O   UNL A   1      40.663  19.557  25.639  1.00  0.00    -0.744 OA
ENDBRANCH  74  75
ENDBRANCH  46  69
BRANCH  58  79
ATOM     79  C   UNL A   1      47.529  26.842  31.700  1.00  0.00    -0.014 A 
ATOM     80  C   UNL A   1      47.649  26.151  32.920  1.00  0.00     0.010 A 
ATOM     81  C   UNL A   1      48.674  27.048  30.911  1.00  0.00     0.010 A 
ATOM     82  C   UNL A   1      48.901  25.719  33.364  1.00  0.00     0.020 A 
ATOM     83  C   UNL A   1      49.923  26.591  31.336  1.00  0.00     0.020 A 
ATOM     84  C   UNL A   1      50.031  25.949  32.572  1.00  0.00     0.054 A 
BRANCH  84  85
ATOM     85  S   UNL A   1      51.643  25.368  33.163  1.00  0.00     0.124 S 
ATOM     86  O   UNL A   1      52.353  25.123  31.912  1.00  0.00    -0.237 OA
ATOM     87  O   UNL A   1      52.126  26.502  33.948  1.00  0.00    -0.237 OA
ATOM     88  O   UNL A   1      51.317  24.174  33.940  1.00  0.00    -0.744 OA
ENDBRANCH  84  85
ENDBRANCH  58  79
ENDBRANCH  32  33
ENDBRANCH  24  27
ENDBRANCH  22  23
ENDBRANCH  21  22
ENDBRANCH   1  21
TORSDOF 18
ENDMDL
