MODEL 1
REMARK VINA RESULT:     -12.9      0.000      0.000
REMARK SMILES COc1ccc(-c2cnc(N)c(C(=O)NCCCCNC(=O)c3ccc(-c4c5nc(c(-c6ccc(S(=O)(=O)[O-])cc6)c6ccc([nH]6)c(-c6ccc(S(=O)(=O)[O-])cc6)c6nc(c(-c7ccc(S(=O)(=O)[O-])cc7)c7ccc4[nH]7)C=C6)C=C5)cc3)c2)c(C)c1
REMARK SMILES IDX 18 1 17 2 16 3 15 4 13 5 14 6 12 8 7 9 8 10 83 11 9 12 10 13
REMARK SMILES IDX 6 14 3 15 4 16 86 17 5 18 84 19 85 20 2 21 1 22 11 23 19 26
REMARK SMILES IDX 20 27 21 28 22 30 23 31 24 32 82 33 25 34 81 35 26 36 27 37
REMARK SMILES IDX 28 38 75 39 29 40 80 41 74 42 76 43 30 44 79 45 73 46 72 47
REMARK SMILES IDX 31 49 61 50 42 51 60 52 43 53 46 54 59 55 77 56 44 57 45 58
REMARK SMILES IDX 58 60 78 61 47 62 32 63 33 64 41 65 34 66 40 67 35 68 36 69
REMARK SMILES IDX 37 70 38 71 39 72 62 73 63 74 71 75 64 76 70 77 65 78 66 79
REMARK SMILES IDX 67 80 68 81 69 82 48 83 49 84 57 85 50 86 56 87 51 88 52 89
REMARK SMILES IDX 53 90 54 91 55 92
REMARK H PARENT 15 7 11 24 11 25 20 29 76 48 46 59
REMARK Flexibility Score: inf
ROOT
ATOM      1  C   UNL A   1      39.679  21.678  26.150  1.00  0.00     0.023 C 
ENDROOT
BRANCH   1   2
ATOM      2  C   UNL A   1      38.569  22.891  26.127  1.00  0.00     0.023 C 
BRANCH   2   3
ATOM      3  C   UNL A   1      37.069  22.832  25.670  1.00  0.00     0.116 C 
BRANCH   3   4
ATOM      4  N   UNL A   1      36.060  22.073  26.437  1.00  0.00    -0.352 N 
ATOM      5  C   UNL A   1      34.674  22.041  26.286  1.00  0.00     0.255 C 
ATOM      6  O   UNL A   1      33.986  21.220  26.896  1.00  0.00    -0.269 OA
ATOM      7  H   UNL A   1      36.418  21.509  27.160  1.00  0.00     0.163 HD
BRANCH   5   8
ATOM      8  C   UNL A   1      33.943  23.064  25.487  1.00  0.00     0.082 A 
ATOM      9  C   UNL A   1      33.263  25.400  25.273  1.00  0.00     0.001 A 
ATOM     10  C   UNL A   1      32.929  25.072  23.960  1.00  0.00     0.122 A 
ATOM     11  C   UNL A   1      33.793  24.353  26.038  1.00  0.00     0.028 A 
ATOM     12  N   UNL A   1      32.921  23.823  23.453  1.00  0.00    -0.238 NA
ATOM     13  C   UNL A   1      33.346  22.824  24.253  1.00  0.00     0.136 A 
BRANCH   9  14
ATOM     14  C   UNL A   1      32.980  26.753  25.791  1.00  0.00    -0.014 A 
ATOM     15  C   UNL A   1      32.670  29.407  26.751  1.00  0.00     0.119 A 
ATOM     16  C   UNL A   1      33.917  28.967  26.332  1.00  0.00     0.047 A 
ATOM     17  C   UNL A   1      31.591  28.523  26.729  1.00  0.00     0.050 A 
ATOM     18  C   UNL A   1      34.061  27.665  25.851  1.00  0.00     0.013 A 
ATOM     19  C   UNL A   1      31.724  27.198  26.254  1.00  0.00    -0.040 A 
ATOM     20  C   UNL A   1      30.485  26.344  26.259  1.00  0.00     0.045 C 
BRANCH  15  21
ATOM     21  O   UNL A   1      32.426  30.661  27.243  1.00  0.00    -0.497 OA
ATOM     22  C   UNL A   1      33.597  31.347  27.681  1.00  0.00     0.278 C 
ENDBRANCH  15  21
ENDBRANCH   9  14
BRANCH  13  23
ATOM     23  N   UNL A   1      33.114  21.573  23.730  1.00  0.00    -0.383 N 
ATOM     24  H   UNL A   1      32.756  20.858  24.304  1.00  0.00     0.158 HD
ATOM     25  H   UNL A   1      33.307  21.393  22.782  1.00  0.00     0.158 HD
ENDBRANCH  13  23
ENDBRANCH   5   8
ENDBRANCH   3   4
ENDBRANCH   2   3
ENDBRANCH   1   2
BRANCH   1  26
ATOM     26  C   UNL A   1      41.254  21.973  26.278  1.00  0.00     0.116 C 
BRANCH  26  27
ATOM     27  N   UNL A   1      41.993  23.422  26.523  1.00  0.00    -0.352 N 
ATOM     28  C   UNL A   1      41.923  24.824  26.953  1.00  0.00     0.251 C 
ATOM     29  H   UNL A   1      42.929  23.284  26.251  1.00  0.00     0.163 HD
ATOM     30  O   UNL A   1      43.008  25.204  27.444  1.00  0.00    -0.269 OA
BRANCH  28  31
ATOM     31  C   UNL A   1      40.805  25.961  27.076  1.00  0.00     0.039 A 
ATOM     32  C   UNL A   1      40.866  27.177  26.326  1.00  0.00     0.014 A 
ATOM     33  C   UNL A   1      39.717  25.940  27.926  1.00  0.00     0.014 A 
ATOM     34  C   UNL A   1      40.428  28.413  26.917  1.00  0.00     0.010 A 
ATOM     35  C   UNL A   1      39.259  27.151  28.506  1.00  0.00     0.010 A 
ATOM     36  C   UNL A   1      39.800  28.393  28.161  1.00  0.00    -0.014 A 
BRANCH  36  37
ATOM     37  C   UNL A   1      39.774  29.531  29.148  1.00  0.00     0.031 A 
ATOM     38  C   UNL A   1      38.709  30.522  29.109  1.00  0.00     0.074 A 
ATOM     39  C   UNL A   1      40.601  29.720  30.215  1.00  0.00     0.049 A 
ATOM     40  N   UNL A   1      38.891  31.796  28.998  1.00  0.00    -0.248 NA
ATOM     41  C   UNL A   1      37.323  30.116  29.280  1.00  0.00     0.031 C 
ATOM     42  C   UNL A   1      40.647  30.714  31.303  1.00  0.00     0.029 A 
ATOM     43  N   UNL A   1      41.684  28.946  30.557  1.00  0.00    -0.354 N 
ATOM     44  C   UNL A   1      37.707  32.361  29.420  1.00  0.00     0.074 A 
ATOM     45  C   UNL A   1      36.720  31.304  29.356  1.00  0.00     0.031 C 
ATOM     46  C   UNL A   1      41.873  30.698  31.877  1.00  0.00     0.029 A 
ATOM     47  C   UNL A   1      42.668  29.707  31.182  1.00  0.00     0.049 A 
ATOM     48  H   UNL A   1      41.754  27.980  30.382  1.00  0.00     0.167 HD
ATOM     49  C   UNL A   1      37.687  33.542  30.103  1.00  0.00     0.031 A 
ATOM     50  C   UNL A   1      43.872  29.842  30.543  1.00  0.00     0.031 A 
ATOM     51  C   UNL A   1      39.033  33.959  30.514  1.00  0.00     0.049 A 
ATOM     52  C   UNL A   1      43.995  31.224  29.966  1.00  0.00     0.074 A 
ATOM     53  C   UNL A   1      39.653  33.997  31.756  1.00  0.00     0.029 A 
ATOM     54  N   UNL A   1      40.048  34.094  29.575  1.00  0.00    -0.354 N 
ATOM     55  N   UNL A   1      43.001  32.065  29.959  1.00  0.00    -0.248 NA
ATOM     56  C   UNL A   1      45.200  31.804  29.388  1.00  0.00     0.031 C 
ATOM     57  C   UNL A   1      41.054  34.099  31.551  1.00  0.00     0.029 A 
ATOM     58  C   UNL A   1      41.287  34.147  30.188  1.00  0.00     0.049 A 
ATOM     59  H   UNL A   1      39.905  34.146  28.602  1.00  0.00     0.167 HD
ATOM     60  C   UNL A   1      43.384  33.264  29.448  1.00  0.00     0.074 A 
ATOM     61  C   UNL A   1      44.778  33.052  29.095  1.00  0.00     0.031 C 
ATOM     62  C   UNL A   1      42.504  34.307  29.395  1.00  0.00     0.031 A 
BRANCH  49  63
ATOM     63  C   UNL A   1      36.418  34.119  30.700  1.00  0.00    -0.014 A 
ATOM     64  C   UNL A   1      35.256  34.249  29.914  1.00  0.00     0.010 A 
ATOM     65  C   UNL A   1      36.298  34.504  32.052  1.00  0.00     0.010 A 
ATOM     66  C   UNL A   1      34.070  34.798  30.420  1.00  0.00     0.020 A 
ATOM     67  C   UNL A   1      35.131  35.094  32.564  1.00  0.00     0.020 A 
ATOM     68  C   UNL A   1      34.018  35.231  31.742  1.00  0.00     0.054 A 
BRANCH  68  69
ATOM     69  S   UNL A   1      32.465  35.907  32.381  1.00  0.00     0.124 S 
ATOM     70  O   UNL A   1      31.784  34.718  32.886  1.00  0.00    -0.237 OA
ATOM     71  O   UNL A   1      32.928  36.845  33.399  1.00  0.00    -0.237 OA
ATOM     72  O   UNL A   1      31.843  36.522  31.210  1.00  0.00    -0.744 OA
ENDBRANCH  68  69
ENDBRANCH  49  63
BRANCH  50  73
ATOM     73  C   UNL A   1      44.385  28.527  29.961  1.00  0.00    -0.014 A 
ATOM     74  C   UNL A   1      43.756  28.209  28.746  1.00  0.00     0.010 A 
ATOM     75  C   UNL A   1      45.758  28.320  29.958  1.00  0.00     0.010 A 
ATOM     76  C   UNL A   1      44.424  28.534  27.558  1.00  0.00     0.020 A 
ATOM     77  C   UNL A   1      46.427  28.443  28.717  1.00  0.00     0.020 A 
ATOM     78  C   UNL A   1      45.766  28.850  27.567  1.00  0.00     0.054 A 
BRANCH  78  79
ATOM     79  S   UNL A   1      46.375  30.117  26.154  1.00  0.00     0.124 S 
ATOM     80  O   UNL A   1      45.291  31.078  26.108  1.00  0.00    -0.237 OA
ATOM     81  O   UNL A   1      47.582  30.710  26.666  1.00  0.00    -0.237 OA
ATOM     82  O   UNL A   1      46.499  29.392  24.894  1.00  0.00    -0.744 OA
ENDBRANCH  78  79
ENDBRANCH  50  73
BRANCH  62  83
ATOM     83  C   UNL A   1      42.708  35.627  28.698  1.00  0.00    -0.014 A 
ATOM     84  C   UNL A   1      42.282  35.917  27.397  1.00  0.00     0.010 A 
ATOM     85  C   UNL A   1      43.294  36.692  29.431  1.00  0.00     0.010 A 
ATOM     86  C   UNL A   1      42.490  37.182  26.834  1.00  0.00     0.020 A 
ATOM     87  C   UNL A   1      43.453  37.971  28.902  1.00  0.00     0.020 A 
ATOM     88  C   UNL A   1      43.076  38.200  27.589  1.00  0.00     0.054 A 
BRANCH  88  89
ATOM     89  S   UNL A   1      43.307  39.828  26.847  1.00  0.00     0.124 S 
ATOM     90  O   UNL A   1      44.538  39.638  26.084  1.00  0.00    -0.237 OA
ATOM     91  O   UNL A   1      42.095  39.991  26.048  1.00  0.00    -0.237 OA
ATOM     92  O   UNL A   1      43.415  40.725  27.994  1.00  0.00    -0.744 OA
ENDBRANCH  88  89
ENDBRANCH  62  83
ENDBRANCH  36  37
ENDBRANCH  28  31
ENDBRANCH  26  27
ENDBRANCH   1  26
TORSDOF 17
ENDMDL
MODEL 2
REMARK VINA RESULT:     -12.1      1.122      1.566
REMARK SMILES COc1ccc(-c2cnc(N)c(C(=O)NCCCCNC(=O)c3ccc(-c4c5nc(c(-c6ccc(S(=O)(=O)[O-])cc6)c6ccc([nH]6)c(-c6ccc(S(=O)(=O)[O-])cc6)c6nc(c(-c7ccc(S(=O)(=O)[O-])cc7)c7ccc4[nH]7)C=C6)C=C5)cc3)c2)c(C)c1
REMARK SMILES IDX 18 1 17 2 16 3 15 4 13 5 14 6 12 8 7 9 8 10 83 11 9 12 10 13
REMARK SMILES IDX 6 14 3 15 4 16 86 17 5 18 84 19 85 20 2 21 1 22 11 23 19 26
REMARK SMILES IDX 20 27 21 28 22 30 23 31 24 32 82 33 25 34 81 35 26 36 27 37
REMARK SMILES IDX 28 38 75 39 29 40 80 41 74 42 76 43 30 44 79 45 73 46 72 47
REMARK SMILES IDX 31 49 61 50 42 51 60 52 43 53 46 54 59 55 77 56 44 57 45 58
REMARK SMILES IDX 58 60 78 61 47 62 32 63 33 64 41 65 34 66 40 67 35 68 36 69
REMARK SMILES IDX 37 70 38 71 39 72 62 73 63 74 71 75 64 76 70 77 65 78 66 79
REMARK SMILES IDX 67 80 68 81 69 82 48 83 49 84 57 85 50 86 56 87 51 88 52 89
REMARK SMILES IDX 53 90 54 91 55 92
REMARK H PARENT 15 7 11 24 11 25 20 29 76 48 46 59
REMARK Flexibility Score: inf
ROOT
ATOM      1  C   UNL A   1      38.969  21.779  26.112  1.00  0.00     0.023 C 
ENDROOT
BRANCH   1   2
ATOM      2  C   UNL A   1      38.166  23.081  25.508  1.00  0.00     0.023 C 
BRANCH   2   3
ATOM      3  C   UNL A   1      36.785  23.670  25.960  1.00  0.00     0.116 C 
BRANCH   3   4
ATOM      4  N   UNL A   1      35.880  22.915  26.851  1.00  0.00    -0.352 N 
ATOM      5  C   UNL A   1      34.638  22.345  26.573  1.00  0.00     0.255 C 
ATOM      6  O   UNL A   1      34.086  21.595  27.381  1.00  0.00    -0.269 OA
ATOM      7  H   UNL A   1      36.201  22.796  27.774  1.00  0.00     0.163 HD
BRANCH   5   8
ATOM      8  C   UNL A   1      33.859  22.705  25.356  1.00  0.00     0.082 A 
ATOM      9  C   UNL A   1      32.763  24.466  24.065  1.00  0.00     0.001 A 
ATOM     10  C   UNL A   1      32.729  23.537  23.027  1.00  0.00     0.122 A 
ATOM     11  C   UNL A   1      33.359  24.019  25.252  1.00  0.00     0.028 A 
ATOM     12  N   UNL A   1      33.060  22.235  23.142  1.00  0.00    -0.238 NA
ATOM     13  C   UNL A   1      33.539  21.818  24.332  1.00  0.00     0.136 A 
BRANCH   9  14
ATOM     14  C   UNL A   1      32.128  25.788  23.895  1.00  0.00    -0.014 A 
ATOM     15  C   UNL A   1      31.080  28.381  23.408  1.00  0.00     0.119 A 
ATOM     16  C   UNL A   1      32.222  27.963  22.741  1.00  0.00     0.047 A 
ATOM     17  C   UNL A   1      30.483  27.531  24.339  1.00  0.00     0.050 A 
ATOM     18  C   UNL A   1      32.727  26.682  22.977  1.00  0.00     0.013 A 
ATOM     19  C   UNL A   1      30.989  26.236  24.596  1.00  0.00    -0.040 A 
ATOM     20  C   UNL A   1      30.248  25.403  25.607  1.00  0.00     0.045 C 
BRANCH  15  21
ATOM     21  O   UNL A   1      30.511  29.616  23.251  1.00  0.00    -0.497 OA
ATOM     22  C   UNL A   1      29.890  29.808  21.981  1.00  0.00     0.278 C 
ENDBRANCH  15  21
ENDBRANCH   9  14
BRANCH  13  23
ATOM     23  N   UNL A   1      33.658  20.451  24.420  1.00  0.00    -0.383 N 
ATOM     24  H   UNL A   1      34.510  20.049  24.706  1.00  0.00     0.158 HD
ATOM     25  H   UNL A   1      32.892  19.874  24.198  1.00  0.00     0.158 HD
ENDBRANCH  13  23
ENDBRANCH   5   8
ENDBRANCH   3   4
ENDBRANCH   2   3
ENDBRANCH   1   2
BRANCH   1  26
ATOM     26  C   UNL A   1      40.491  21.884  26.622  1.00  0.00     0.116 C 
BRANCH  26  27
ATOM     27  N   UNL A   1      41.397  23.242  26.822  1.00  0.00    -0.352 N 
ATOM     28  C   UNL A   1      41.485  24.671  27.148  1.00  0.00     0.251 C 
ATOM     29  H   UNL A   1      42.322  22.964  26.631  1.00  0.00     0.163 HD
ATOM     30  O   UNL A   1      42.576  24.946  27.692  1.00  0.00    -0.269 OA
BRANCH  28  31
ATOM     31  C   UNL A   1      40.522  25.946  27.107  1.00  0.00     0.039 A 
ATOM     32  C   UNL A   1      40.862  27.139  26.396  1.00  0.00     0.014 A 
ATOM     33  C   UNL A   1      39.317  26.075  27.770  1.00  0.00     0.014 A 
ATOM     34  C   UNL A   1      40.502  28.426  26.928  1.00  0.00     0.010 A 
ATOM     35  C   UNL A   1      38.936  27.339  28.288  1.00  0.00     0.010 A 
ATOM     36  C   UNL A   1      39.684  28.497  28.054  1.00  0.00    -0.014 A 
BRANCH  36  37
ATOM     37  C   UNL A   1      39.650  29.634  29.042  1.00  0.00     0.031 A 
ATOM     38  C   UNL A   1      38.585  30.625  28.995  1.00  0.00     0.074 A 
ATOM     39  C   UNL A   1      40.466  29.821  30.117  1.00  0.00     0.049 A 
ATOM     40  N   UNL A   1      38.768  31.899  28.886  1.00  0.00    -0.248 NA
ATOM     41  C   UNL A   1      37.197  30.219  29.152  1.00  0.00     0.031 C 
ATOM     42  C   UNL A   1      40.503  30.814  31.206  1.00  0.00     0.029 A 
ATOM     43  N   UNL A   1      41.546  29.047  30.468  1.00  0.00    -0.354 N 
ATOM     44  C   UNL A   1      37.580  32.463  29.298  1.00  0.00     0.074 A 
ATOM     45  C   UNL A   1      36.594  31.407  29.224  1.00  0.00     0.031 C 
ATOM     46  C   UNL A   1      41.724  30.797  31.791  1.00  0.00     0.029 A 
ATOM     47  C   UNL A   1      42.525  29.808  31.102  1.00  0.00     0.049 A 
ATOM     48  H   UNL A   1      41.618  28.081  30.293  1.00  0.00     0.167 HD
ATOM     49  C   UNL A   1      37.554  33.644  29.982  1.00  0.00     0.031 A 
ATOM     50  C   UNL A   1      43.734  29.943  30.474  1.00  0.00     0.031 A 
ATOM     51  C   UNL A   1      38.897  34.061  30.405  1.00  0.00     0.049 A 
ATOM     52  C   UNL A   1      43.863  31.326  29.899  1.00  0.00     0.074 A 
ATOM     53  C   UNL A   1      39.506  34.097  31.652  1.00  0.00     0.029 A 
ATOM     54  N   UNL A   1      39.920  34.196  29.475  1.00  0.00    -0.354 N 
ATOM     55  N   UNL A   1      42.869  32.167  29.884  1.00  0.00    -0.248 NA
ATOM     56  C   UNL A   1      45.073  31.906  29.332  1.00  0.00     0.031 C 
ATOM     57  C   UNL A   1      40.908  34.199  31.461  1.00  0.00     0.029 A 
ATOM     58  C   UNL A   1      41.153  34.248  30.100  1.00  0.00     0.049 A 
ATOM     59  H   UNL A   1      39.786  34.249  28.501  1.00  0.00     0.167 HD
ATOM     60  C   UNL A   1      43.257  33.366  29.378  1.00  0.00     0.074 A 
ATOM     61  C   UNL A   1      44.654  33.154  29.037  1.00  0.00     0.031 C 
ATOM     62  C   UNL A   1      42.378  34.409  29.318  1.00  0.00     0.031 A 
BRANCH  49  63
ATOM     63  C   UNL A   1      36.280  34.220  30.567  1.00  0.00    -0.014 A 
ATOM     64  C   UNL A   1      36.258  34.703  31.891  1.00  0.00     0.010 A 
ATOM     65  C   UNL A   1      35.081  34.359  29.837  1.00  0.00     0.010 A 
ATOM     66  C   UNL A   1      35.095  35.222  32.476  1.00  0.00     0.020 A 
ATOM     67  C   UNL A   1      33.897  34.838  30.421  1.00  0.00     0.020 A 
ATOM     68  C   UNL A   1      33.914  35.274  31.741  1.00  0.00     0.054 A 
BRANCH  68  69
ATOM     69  S   UNL A   1      32.435  35.979  32.510  1.00  0.00     0.124 S 
ATOM     70  O   UNL A   1      31.870  36.788  31.433  1.00  0.00    -0.237 OA
ATOM     71  O   UNL A   1      31.671  34.787  32.867  1.00  0.00    -0.237 OA
ATOM     72  O   UNL A   1      32.959  36.741  33.643  1.00  0.00    -0.744 OA
ENDBRANCH  68  69
ENDBRANCH  49  63
BRANCH  50  73
ATOM     73  C   UNL A   1      44.253  28.629  29.896  1.00  0.00    -0.014 A 
ATOM     74  C   UNL A   1      43.645  28.319  28.667  1.00  0.00     0.010 A 
ATOM     75  C   UNL A   1      45.625  28.415  29.916  1.00  0.00     0.010 A 
ATOM     76  C   UNL A   1      44.336  28.646  27.493  1.00  0.00     0.020 A 
ATOM     77  C   UNL A   1      46.317  28.541  28.689  1.00  0.00     0.020 A 
ATOM     78  C   UNL A   1      45.679  28.957  27.529  1.00  0.00     0.054 A 
BRANCH  78  79
ATOM     79  S   UNL A   1      46.319  30.228  26.133  1.00  0.00     0.124 S 
ATOM     80  O   UNL A   1      45.224  31.172  26.046  1.00  0.00    -0.237 OA
ATOM     81  O   UNL A   1      47.499  30.839  26.685  1.00  0.00    -0.237 OA
ATOM     82  O   UNL A   1      46.497  29.500  24.881  1.00  0.00    -0.744 OA
ENDBRANCH  78  79
ENDBRANCH  50  73
BRANCH  62  83
ATOM     83  C   UNL A   1      42.588  35.730  28.624  1.00  0.00    -0.014 A 
ATOM     84  C   UNL A   1      42.157  36.028  27.326  1.00  0.00     0.010 A 
ATOM     85  C   UNL A   1      43.186  36.788  29.357  1.00  0.00     0.010 A 
ATOM     86  C   UNL A   1      42.372  37.293  26.766  1.00  0.00     0.020 A 
ATOM     87  C   UNL A   1      43.352  38.068  28.831  1.00  0.00     0.020 A 
ATOM     88  C   UNL A   1      42.970  38.303  27.521  1.00  0.00     0.054 A 
BRANCH  88  89
ATOM     89  S   UNL A   1      43.210  39.932  26.783  1.00  0.00     0.124 S 
ATOM     90  O   UNL A   1      43.420  40.768  27.963  1.00  0.00    -0.237 OA
ATOM     91  O   UNL A   1      44.387  39.732  25.941  1.00  0.00    -0.237 OA
ATOM     92  O   UNL A   1      41.966  40.176  26.058  1.00  0.00    -0.744 OA
ENDBRANCH  88  89
ENDBRANCH  62  83
ENDBRANCH  36  37
ENDBRANCH  28  31
ENDBRANCH  26  27
ENDBRANCH   1  26
TORSDOF 17
ENDMDL
MODEL 3
REMARK VINA RESULT:     -11.9      4.782     11.171
REMARK SMILES COc1ccc(-c2cnc(N)c(C(=O)NCCCCNC(=O)c3ccc(-c4c5nc(c(-c6ccc(S(=O)(=O)[O-])cc6)c6ccc([nH]6)c(-c6ccc(S(=O)(=O)[O-])cc6)c6nc(c(-c7ccc(S(=O)(=O)[O-])cc7)c7ccc4[nH]7)C=C6)C=C5)cc3)c2)c(C)c1
REMARK SMILES IDX 18 1 17 2 16 3 15 4 13 5 14 6 12 8 7 9 8 10 83 11 9 12 10 13
REMARK SMILES IDX 6 14 3 15 4 16 86 17 5 18 84 19 85 20 2 21 1 22 11 23 19 26
REMARK SMILES IDX 20 27 21 28 22 30 23 31 24 32 82 33 25 34 81 35 26 36 27 37
REMARK SMILES IDX 28 38 75 39 29 40 80 41 74 42 76 43 30 44 79 45 73 46 72 47
REMARK SMILES IDX 31 49 61 50 42 51 60 52 43 53 46 54 59 55 77 56 44 57 45 58
REMARK SMILES IDX 58 60 78 61 47 62 32 63 33 64 41 65 34 66 40 67 35 68 36 69
REMARK SMILES IDX 37 70 38 71 39 72 62 73 63 74 71 75 64 76 70 77 65 78 66 79
REMARK SMILES IDX 67 80 68 81 69 82 48 83 49 84 57 85 50 86 56 87 51 88 52 89
REMARK SMILES IDX 53 90 54 91 55 92
REMARK H PARENT 15 7 11 24 11 25 20 29 76 48 46 59
REMARK Flexibility Score: inf
ROOT
ATOM      1  C   UNL A   1      33.658  31.442  27.656  1.00  0.00     0.023 C 
ENDROOT
BRANCH   1   2
ATOM      2  C   UNL A   1      34.197  29.936  27.273  1.00  0.00     0.023 C 
BRANCH   2   3
ATOM      3  C   UNL A   1      33.381  28.724  26.702  1.00  0.00     0.116 C 
BRANCH   3   4
ATOM      4  N   UNL A   1      32.107  28.926  25.982  1.00  0.00    -0.352 N 
ATOM      5  C   UNL A   1      31.590  28.232  24.888  1.00  0.00     0.255 C 
ATOM      6  O   UNL A   1      30.430  28.410  24.511  1.00  0.00    -0.269 OA
ATOM      7  H   UNL A   1      31.541  29.655  26.324  1.00  0.00     0.163 HD
BRANCH   5   8
ATOM      8  C   UNL A   1      32.437  27.342  24.045  1.00  0.00     0.082 A 
ATOM      9  C   UNL A   1      33.119  25.057  23.514  1.00  0.00     0.001 A 
ATOM     10  C   UNL A   1      33.676  25.604  22.360  1.00  0.00     0.122 A 
ATOM     11  C   UNL A   1      32.477  25.968  24.363  1.00  0.00     0.028 A 
ATOM     12  N   UNL A   1      33.785  26.924  22.104  1.00  0.00    -0.238 NA
ATOM     13  C   UNL A   1      33.240  27.777  22.995  1.00  0.00     0.136 A 
BRANCH   9  14
ATOM     14  C   UNL A   1      33.294  23.621  23.809  1.00  0.00    -0.014 A 
ATOM     15  C   UNL A   1      33.393  20.835  24.344  1.00  0.00     0.119 A 
ATOM     16  C   UNL A   1      32.179  21.437  24.046  1.00  0.00     0.047 A 
ATOM     17  C   UNL A   1      34.545  21.618  24.413  1.00  0.00     0.050 A 
ATOM     18  C   UNL A   1      32.139  22.805  23.774  1.00  0.00     0.013 A 
ATOM     19  C   UNL A   1      34.517  23.007  24.150  1.00  0.00    -0.040 A 
ATOM     20  C   UNL A   1      35.827  23.743  24.235  1.00  0.00     0.045 C 
BRANCH  15  21
ATOM     21  O   UNL A   1      33.538  19.504  24.630  1.00  0.00    -0.497 OA
ATOM     22  C   UNL A   1      32.773  18.645  23.786  1.00  0.00     0.278 C 
ENDBRANCH  15  21
ENDBRANCH   9  14
BRANCH  13  23
ATOM     23  N   UNL A   1      33.571  29.091  22.761  1.00  0.00    -0.383 N 
ATOM     24  H   UNL A   1      33.106  29.810  23.247  1.00  0.00     0.158 HD
ATOM     25  H   UNL A   1      34.273  29.313  22.108  1.00  0.00     0.158 HD
ENDBRANCH  13  23
ENDBRANCH   5   8
ENDBRANCH   3   4
ENDBRANCH   2   3
ENDBRANCH   1   2
BRANCH   1  26
ATOM     26  C   UNL A   1      34.328  32.307  28.834  1.00  0.00     0.116 C 
BRANCH  26  27
ATOM     27  N   UNL A   1      35.679  31.955  29.703  1.00  0.00    -0.352 N 
ATOM     28  C   UNL A   1      36.881  31.135  29.900  1.00  0.00     0.251 C 
ATOM     29  H   UNL A   1      35.684  32.601  30.445  1.00  0.00     0.163 HD
ATOM     30  O   UNL A   1      37.797  31.794  30.437  1.00  0.00    -0.269 OA
BRANCH  28  31
ATOM     31  C   UNL A   1      37.379  29.667  29.509  1.00  0.00     0.039 A 
ATOM     32  C   UNL A   1      37.668  28.670  30.493  1.00  0.00     0.014 A 
ATOM     33  C   UNL A   1      37.636  29.211  28.231  1.00  0.00     0.014 A 
ATOM     34  C   UNL A   1      38.759  27.753  30.294  1.00  0.00     0.010 A 
ATOM     35  C   UNL A   1      38.697  28.294  28.017  1.00  0.00     0.010 A 
ATOM     36  C   UNL A   1      39.428  27.739  29.072  1.00  0.00    -0.014 A 
BRANCH  36  37
ATOM     37  C   UNL A   1      40.852  27.296  28.857  1.00  0.00     0.031 A 
ATOM     38  C   UNL A   1      41.151  25.926  28.468  1.00  0.00     0.074 A 
ATOM     39  C   UNL A   1      41.971  28.074  28.869  1.00  0.00     0.049 A 
ATOM     40  N   UNL A   1      41.939  25.132  29.114  1.00  0.00    -0.248 NA
ATOM     41  C   UNL A   1      40.614  25.380  27.232  1.00  0.00     0.031 C 
ATOM     42  C   UNL A   1      43.395  27.811  28.594  1.00  0.00     0.029 A 
ATOM     43  N   UNL A   1      42.031  29.415  29.163  1.00  0.00    -0.354 N 
ATOM     44  C   UNL A   1      42.260  24.142  28.212  1.00  0.00     0.074 A 
ATOM     45  C   UNL A   1      41.254  24.211  27.174  1.00  0.00     0.031 C 
ATOM     46  C   UNL A   1      44.147  28.809  29.117  1.00  0.00     0.029 A 
ATOM     47  C   UNL A   1      43.247  29.745  29.757  1.00  0.00     0.049 A 
ATOM     48  H   UNL A   1      41.309  30.058  28.979  1.00  0.00     0.167 HD
ATOM     49  C   UNL A   1      43.497  23.565  28.201  1.00  0.00     0.031 A 
ATOM     50  C   UNL A   1      43.225  30.193  31.050  1.00  0.00     0.031 A 
ATOM     51  C   UNL A   1      44.444  24.284  29.061  1.00  0.00     0.049 A 
ATOM     52  C   UNL A   1      43.733  29.122  31.974  1.00  0.00     0.074 A 
ATOM     53  C   UNL A   1      45.532  25.095  28.766  1.00  0.00     0.029 A 
ATOM     54  N   UNL A   1      44.153  24.505  30.401  1.00  0.00    -0.354 N 
ATOM     55  N   UNL A   1      43.980  27.911  31.564  1.00  0.00    -0.248 NA
ATOM     56  C   UNL A   1      44.039  29.289  33.389  1.00  0.00     0.031 C 
ATOM     57  C   UNL A   1      45.854  25.846  29.926  1.00  0.00     0.029 A 
ATOM     58  C   UNL A   1      44.981  25.477  30.934  1.00  0.00     0.049 A 
ATOM     59  H   UNL A   1      43.452  24.032  30.906  1.00  0.00     0.167 HD
ATOM     60  C   UNL A   1      44.493  27.155  32.569  1.00  0.00     0.074 A 
ATOM     61  C   UNL A   1      44.507  28.063  33.704  1.00  0.00     0.031 C 
ATOM     62  C   UNL A   1      44.868  25.862  32.340  1.00  0.00     0.031 A 
BRANCH  49  63
ATOM     63  C   UNL A   1      43.925  22.573  27.136  1.00  0.00    -0.014 A 
ATOM     64  C   UNL A   1      43.055  21.542  26.731  1.00  0.00     0.010 A 
ATOM     65  C   UNL A   1      45.162  22.642  26.461  1.00  0.00     0.010 A 
ATOM     66  C   UNL A   1      43.422  20.592  25.768  1.00  0.00     0.020 A 
ATOM     67  C   UNL A   1      45.561  21.675  25.524  1.00  0.00     0.020 A 
ATOM     68  C   UNL A   1      44.681  20.655  25.178  1.00  0.00     0.054 A 
BRANCH  68  69
ATOM     69  S   UNL A   1      45.117  19.436  23.913  1.00  0.00     0.124 S 
ATOM     70  O   UNL A   1      44.512  19.996  22.708  1.00  0.00    -0.237 OA
ATOM     71  O   UNL A   1      46.577  19.457  23.950  1.00  0.00    -0.237 OA
ATOM     72  O   UNL A   1      44.504  18.199  24.393  1.00  0.00    -0.744 OA
ENDBRANCH  68  69
ENDBRANCH  49  63
BRANCH  50  73
ATOM     73  C   UNL A   1      42.116  31.212  31.306  1.00  0.00    -0.014 A 
ATOM     74  C   UNL A   1      40.852  30.604  31.383  1.00  0.00     0.010 A 
ATOM     75  C   UNL A   1      42.342  32.174  32.282  1.00  0.00     0.010 A 
ATOM     76  C   UNL A   1      40.338  30.323  32.656  1.00  0.00     0.020 A 
ATOM     77  C   UNL A   1      41.665  32.015  33.514  1.00  0.00     0.020 A 
ATOM     78  C   UNL A   1      40.886  30.899  33.782  1.00  0.00     0.054 A 
BRANCH  78  79
ATOM     79  S   UNL A   1      40.767  29.827  35.459  1.00  0.00     0.124 S 
ATOM     80  O   UNL A   1      39.384  30.013  35.849  1.00  0.00    -0.237 OA
ATOM     81  O   UNL A   1      41.025  28.468  35.064  1.00  0.00    -0.237 OA
ATOM     82  O   UNL A   1      41.680  30.395  36.446  1.00  0.00    -0.744 OA
ENDBRANCH  78  79
ENDBRANCH  50  73
BRANCH  62  83
ATOM     83  C   UNL A   1      45.275  24.842  33.371  1.00  0.00    -0.014 A 
ATOM     84  C   UNL A   1      46.238  25.052  34.365  1.00  0.00     0.010 A 
ATOM     85  C   UNL A   1      44.580  23.605  33.407  1.00  0.00     0.010 A 
ATOM     86  C   UNL A   1      46.537  24.056  35.302  1.00  0.00     0.020 A 
ATOM     87  C   UNL A   1      44.827  22.630  34.371  1.00  0.00     0.020 A 
ATOM     88  C   UNL A   1      45.832  22.851  35.297  1.00  0.00     0.054 A 
BRANCH  88  89
ATOM     89  S   UNL A   1      46.220  21.596  36.534  1.00  0.00     0.124 S 
ATOM     90  O   UNL A   1      45.424  20.462  36.071  1.00  0.00    -0.237 OA
ATOM     91  O   UNL A   1      47.667  21.443  36.392  1.00  0.00    -0.237 OA
ATOM     92  O   UNL A   1      45.783  22.195  37.792  1.00  0.00    -0.744 OA
ENDBRANCH  88  89
ENDBRANCH  62  83
ENDBRANCH  36  37
ENDBRANCH  28  31
ENDBRANCH  26  27
ENDBRANCH   1  26
TORSDOF 17
ENDMDL
