MODEL 1
REMARK VINA RESULT:      -9.3      0.000      0.000
REMARK SMILES C=CCN(CC(=O)NCCCCNC(=O)c1ccc(-c2c3nc(c(-c4ccc(S(=O)(=O)[O-])cc4)c4ccc([nH]4)c(-c4ccc(S(=O)(=O)[O-])cc4)c4nc(c(-c5ccc(S(=O)(=O)[O-])cc5)c5ccc2[nH]5)C=C4)C=C3)cc1)C(=O)NC1CC[NH+](CCC)CC1
REMARK SMILES IDX 9 1 8 2 6 3 7 4 5 6 4 7 3 8 2 9 1 10 76 11 77 12 78 13 79 15
REMARK SMILES IDX 80 16 87 17 81 18 86 19 82 20 83 22 84 23 85 24 10 25 11 26
REMARK SMILES IDX 12 27 13 28 14 29 15 31 16 32 17 33 75 34 18 35 74 36 19 37
REMARK SMILES IDX 20 38 21 39 68 40 22 41 73 42 67 43 69 44 23 45 72 46 66 47
REMARK SMILES IDX 65 48 24 50 54 51 35 52 53 53 36 54 39 55 52 56 70 57 37 58
REMARK SMILES IDX 38 59 51 61 71 62 40 63 25 64 26 65 34 66 27 67 33 68 28 69
REMARK SMILES IDX 29 70 30 71 31 72 32 73 55 74 56 75 64 76 57 77 63 78 58 79
REMARK SMILES IDX 59 80 60 81 61 82 62 83 41 84 42 85 50 86 43 87 49 88 44 89
REMARK SMILES IDX 45 90 46 91 47 92 48 93
REMARK H PARENT 8 5 78 14 82 21 13 30 69 49 39 60
REMARK Flexibility Score: inf
ROOT
ATOM      1  C   UNL A   1      35.306  20.461  24.793  1.00  0.00     0.116 C 
ENDROOT
BRANCH   1   2
ATOM      2  N   UNL A   1      34.169  19.682  25.215  1.00  0.00    -0.355 N 
ATOM      3  C   UNL A   1      32.882  20.084  25.392  1.00  0.00     0.239 C 
ATOM      4  O   UNL A   1      32.007  19.232  25.190  1.00  0.00    -0.273 OA
ATOM      5  H   UNL A   1      34.348  18.731  25.397  1.00  0.00     0.163 HD
BRANCH   3   6
ATOM      6  C   UNL A   1      32.478  21.545  25.693  1.00  0.00     0.221 C 
BRANCH   6   7
ATOM      7  N   UNL A   1      32.127  22.431  24.576  1.00  0.00    -0.312 N 
BRANCH   7   8
ATOM      8  C   UNL A   1      32.287  21.879  23.229  1.00  0.00     0.149 C 
BRANCH   8   9
ATOM      9  C   UNL A   1      33.322  22.615  22.430  1.00  0.00    -0.013 C 
ATOM     10  C   UNL A   1      33.064  23.143  21.224  1.00  0.00     0.006 C 
ENDBRANCH   8   9
ENDBRANCH   7   8
BRANCH   7  11
ATOM     11  C   UNL A   1      31.516  23.654  24.672  1.00  0.00     0.318 C 
ATOM     12  O   UNL A   1      30.333  23.829  24.361  1.00  0.00    -0.249 OA
ATOM     13  N   UNL A   1      32.134  24.749  25.165  1.00  0.00    -0.335 N 
ATOM     14  H   UNL A   1      31.570  25.287  25.766  1.00  0.00     0.165 HD
BRANCH  13  15
ATOM     15  C   UNL A   1      33.483  25.290  24.980  1.00  0.00     0.095 C 
ATOM     16  C   UNL A   1      33.895  26.227  26.117  1.00  0.00     0.086 C 
ATOM     17  C   UNL A   1      33.591  26.008  23.634  1.00  0.00     0.086 C 
ATOM     18  C   UNL A   1      33.179  27.572  26.053  1.00  0.00     0.264 C 
ATOM     19  C   UNL A   1      32.834  27.337  23.647  1.00  0.00     0.264 C 
ATOM     20  N   UNL A   1      33.303  28.194  24.738  1.00  0.00    -0.335 N 
ATOM     21  H   UNL A   1      34.308  28.298  24.598  1.00  0.00     0.348 HD
BRANCH  20  22
ATOM     22  C   UNL A   1      32.771  29.561  24.667  1.00  0.00     0.261 C 
BRANCH  22  23
ATOM     23  C   UNL A   1      31.642  29.991  25.618  1.00  0.00     0.058 C 
ATOM     24  C   UNL A   1      32.057  30.911  26.756  1.00  0.00     0.010 C 
ENDBRANCH  22  23
ENDBRANCH  20  22
ENDBRANCH  13  15
ENDBRANCH   7  11
ENDBRANCH   6   7
ENDBRANCH   3   6
ENDBRANCH   1   2
BRANCH   1  25
ATOM     25  C   UNL A   1      35.845  21.398  25.868  1.00  0.00     0.023 C 
BRANCH  25  26
ATOM     26  C   UNL A   1      35.756  22.891  25.545  1.00  0.00     0.023 C 
BRANCH  26  27
ATOM     27  C   UNL A   1      37.085  23.626  25.409  1.00  0.00     0.116 C 
BRANCH  27  28
ATOM     28  N   UNL A   1      38.247  22.757  25.512  1.00  0.00    -0.352 N 
ATOM     29  C   UNL A   1      39.460  23.002  26.114  1.00  0.00     0.251 C 
ATOM     30  H   UNL A   1      38.154  21.872  25.093  1.00  0.00     0.163 HD
ATOM     31  O   UNL A   1      40.356  22.171  26.047  1.00  0.00    -0.269 OA
BRANCH  29  32
ATOM     32  C   UNL A   1      39.687  24.293  26.802  1.00  0.00     0.039 A 
ATOM     33  C   UNL A   1      39.197  24.453  28.100  1.00  0.00     0.014 A 
ATOM     34  C   UNL A   1      40.408  25.321  26.188  1.00  0.00     0.014 A 
ATOM     35  C   UNL A   1      39.493  25.619  28.810  1.00  0.00     0.010 A 
ATOM     36  C   UNL A   1      40.761  26.449  26.922  1.00  0.00     0.010 A 
ATOM     37  C   UNL A   1      40.311  26.609  28.242  1.00  0.00    -0.014 A 
BRANCH  37  38
ATOM     38  C   UNL A   1      40.722  27.806  29.016  1.00  0.00     0.031 A 
ATOM     39  C   UNL A   1      42.052  27.838  29.717  1.00  0.00     0.074 A 
ATOM     40  C   UNL A   1      39.865  28.838  29.151  1.00  0.00     0.049 A 
ATOM     41  N   UNL A   1      42.558  28.768  30.485  1.00  0.00    -0.248 NA
ATOM     42  C   UNL A   1      42.916  26.657  29.557  1.00  0.00     0.031 C 
ATOM     43  C   UNL A   1      38.525  28.908  28.562  1.00  0.00     0.029 A 
ATOM     44  N   UNL A   1      39.987  30.020  29.836  1.00  0.00    -0.354 N 
ATOM     45  C   UNL A   1      43.784  28.279  30.915  1.00  0.00     0.074 A 
ATOM     46  C   UNL A   1      43.926  26.950  30.361  1.00  0.00     0.031 C 
ATOM     47  C   UNL A   1      37.961  30.081  28.892  1.00  0.00     0.029 A 
ATOM     48  C   UNL A   1      38.878  30.829  29.746  1.00  0.00     0.049 A 
ATOM     49  H   UNL A   1      40.794  30.267  30.343  1.00  0.00     0.167 HD
ATOM     50  C   UNL A   1      44.718  28.886  31.688  1.00  0.00     0.031 A 
ATOM     51  C   UNL A   1      38.624  32.033  30.293  1.00  0.00     0.031 A 
ATOM     52  C   UNL A   1      44.577  30.211  32.231  1.00  0.00     0.049 A 
ATOM     53  C   UNL A   1      39.674  32.692  31.143  1.00  0.00     0.074 A 
ATOM     54  C   UNL A   1      45.492  30.939  32.971  1.00  0.00     0.029 A 
ATOM     55  N   UNL A   1      43.447  31.004  32.100  1.00  0.00    -0.354 N 
ATOM     56  N   UNL A   1      40.862  32.244  31.476  1.00  0.00    -0.248 NA
ATOM     57  C   UNL A   1      39.357  34.022  31.680  1.00  0.00     0.031 C 
ATOM     58  C   UNL A   1      44.895  32.152  33.331  1.00  0.00     0.029 A 
ATOM     59  C   UNL A   1      43.631  32.204  32.767  1.00  0.00     0.049 A 
ATOM     60  H   UNL A   1      42.634  30.751  31.606  1.00  0.00     0.167 HD
ATOM     61  C   UNL A   1      41.441  33.248  32.243  1.00  0.00     0.074 A 
ATOM     62  C   UNL A   1      40.481  34.330  32.312  1.00  0.00     0.031 C 
ATOM     63  C   UNL A   1      42.663  33.270  32.835  1.00  0.00     0.031 A 
BRANCH  50  64
ATOM     64  C   UNL A   1      45.969  28.107  32.001  1.00  0.00    -0.014 A 
ATOM     65  C   UNL A   1      46.055  27.294  33.145  1.00  0.00     0.010 A 
ATOM     66  C   UNL A   1      47.073  28.179  31.131  1.00  0.00     0.010 A 
ATOM     67  C   UNL A   1      47.237  26.612  33.444  1.00  0.00     0.020 A 
ATOM     68  C   UNL A   1      48.247  27.475  31.410  1.00  0.00     0.020 A 
ATOM     69  C   UNL A   1      48.330  26.714  32.578  1.00  0.00     0.054 A 
BRANCH  69  70
ATOM     70  S   UNL A   1      49.854  25.822  32.992  1.00  0.00     0.124 S 
ATOM     71  O   UNL A   1      49.477  25.146  34.231  1.00  0.00    -0.237 OA
ATOM     72  O   UNL A   1      50.043  24.952  31.834  1.00  0.00    -0.237 OA
ATOM     73  O   UNL A   1      50.848  26.883  33.139  1.00  0.00    -0.744 OA
ENDBRANCH  69  70
ENDBRANCH  50  64
BRANCH  51  74
ATOM     74  C   UNL A   1      37.318  32.698  30.028  1.00  0.00    -0.014 A 
ATOM     75  C   UNL A   1      36.181  32.359  30.780  1.00  0.00     0.010 A 
ATOM     76  C   UNL A   1      37.219  33.705  29.050  1.00  0.00     0.010 A 
ATOM     77  C   UNL A   1      34.965  33.014  30.558  1.00  0.00     0.020 A 
ATOM     78  C   UNL A   1      36.011  34.379  28.844  1.00  0.00     0.020 A 
ATOM     79  C   UNL A   1      34.890  34.024  29.597  1.00  0.00     0.054 A 
BRANCH  79  80
ATOM     80  S   UNL A   1      33.322  34.914  29.382  1.00  0.00     0.124 S 
ATOM     81  O   UNL A   1      33.743  36.096  28.638  1.00  0.00    -0.237 OA
ATOM     82  O   UNL A   1      32.513  33.951  28.638  1.00  0.00    -0.237 OA
ATOM     83  O   UNL A   1      32.880  35.160  30.753  1.00  0.00    -0.744 OA
ENDBRANCH  79  80
ENDBRANCH  51  74
BRANCH  63  84
ATOM     84  C   UNL A   1      43.044  34.516  33.590  1.00  0.00    -0.014 A 
ATOM     85  C   UNL A   1      43.004  34.559  34.994  1.00  0.00     0.010 A 
ATOM     86  C   UNL A   1      43.504  35.641  32.882  1.00  0.00     0.010 A 
ATOM     87  C   UNL A   1      43.392  35.715  35.677  1.00  0.00     0.020 A 
ATOM     88  C   UNL A   1      43.918  36.789  33.562  1.00  0.00     0.020 A 
ATOM     89  C   UNL A   1      43.847  36.823  34.955  1.00  0.00     0.054 A 
BRANCH  89  90
ATOM     90  S   UNL A   1      44.389  38.295  35.866  1.00  0.00     0.124 S 
ATOM     91  O   UNL A   1      44.032  39.371  34.944  1.00  0.00    -0.237 OA
ATOM     92  O   UNL A   1      43.593  38.228  37.089  1.00  0.00    -0.237 OA
ATOM     93  O   UNL A   1      45.823  38.081  36.050  1.00  0.00    -0.744 OA
ENDBRANCH  89  90
ENDBRANCH  63  84
ENDBRANCH  37  38
ENDBRANCH  29  32
ENDBRANCH  27  28
ENDBRANCH  26  27
ENDBRANCH  25  26
ENDBRANCH   1  25
TORSDOF 21
ENDMDL
MODEL 2
REMARK VINA RESULT:      -9.0      3.210      8.785
REMARK SMILES C=CCN(CC(=O)NCCCCNC(=O)c1ccc(-c2c3nc(c(-c4ccc(S(=O)(=O)[O-])cc4)c4ccc([nH]4)c(-c4ccc(S(=O)(=O)[O-])cc4)c4nc(c(-c5ccc(S(=O)(=O)[O-])cc5)c5ccc2[nH]5)C=C4)C=C3)cc1)C(=O)NC1CC[NH+](CCC)CC1
REMARK SMILES IDX 9 1 8 2 6 3 7 4 5 6 4 7 3 8 2 9 1 10 76 11 77 12 78 13 79 15
REMARK SMILES IDX 80 16 87 17 81 18 86 19 82 20 83 22 84 23 85 24 10 25 11 26
REMARK SMILES IDX 12 27 13 28 14 29 15 31 16 32 17 33 75 34 18 35 74 36 19 37
REMARK SMILES IDX 20 38 21 39 68 40 22 41 73 42 67 43 69 44 23 45 72 46 66 47
REMARK SMILES IDX 65 48 24 50 54 51 35 52 53 53 36 54 39 55 52 56 70 57 37 58
REMARK SMILES IDX 38 59 51 61 71 62 40 63 25 64 26 65 34 66 27 67 33 68 28 69
REMARK SMILES IDX 29 70 30 71 31 72 32 73 55 74 56 75 64 76 57 77 63 78 58 79
REMARK SMILES IDX 59 80 60 81 61 82 62 83 41 84 42 85 50 86 43 87 49 88 44 89
REMARK SMILES IDX 45 90 46 91 47 92 48 93
REMARK H PARENT 8 5 78 14 82 21 13 30 69 49 39 60
REMARK Flexibility Score: inf
ROOT
ATOM      1  C   UNL A   1      33.700  24.390  24.880  1.00  0.00     0.116 C 
ENDROOT
BRANCH   1   2
ATOM      2  N   UNL A   1      33.703  24.611  23.456  1.00  0.00    -0.355 N 
ATOM      3  C   UNL A   1      33.128  25.622  22.751  1.00  0.00     0.239 C 
ATOM      4  O   UNL A   1      33.691  25.947  21.698  1.00  0.00    -0.273 OA
ATOM      5  H   UNL A   1      34.186  23.940  22.921  1.00  0.00     0.163 HD
BRANCH   3   6
ATOM      6  C   UNL A   1      31.922  26.441  23.264  1.00  0.00     0.221 C 
BRANCH   6   7
ATOM      7  N   UNL A   1      31.855  27.876  22.960  1.00  0.00    -0.312 N 
BRANCH   7   8
ATOM      8  C   UNL A   1      30.661  28.339  22.251  1.00  0.00     0.149 C 
BRANCH   8   9
ATOM      9  C   UNL A   1      29.488  28.528  23.168  1.00  0.00    -0.013 C 
ATOM     10  C   UNL A   1      28.304  28.991  22.740  1.00  0.00     0.006 C 
ENDBRANCH   8   9
ENDBRANCH   7   8
BRANCH   7  11
ATOM     11  C   UNL A   1      32.714  28.842  23.415  1.00  0.00     0.318 C 
ATOM     12  O   UNL A   1      33.794  29.079  22.862  1.00  0.00    -0.249 OA
ATOM     13  N   UNL A   1      32.430  29.648  24.459  1.00  0.00    -0.335 N 
ATOM     14  H   UNL A   1      32.683  30.589  24.316  1.00  0.00     0.165 HD
BRANCH  13  15
ATOM     15  C   UNL A   1      31.817  29.394  25.766  1.00  0.00     0.095 C 
ATOM     16  C   UNL A   1      31.452  30.687  26.499  1.00  0.00     0.086 C 
ATOM     17  C   UNL A   1      32.739  28.534  26.631  1.00  0.00     0.086 C 
ATOM     18  C   UNL A   1      32.677  31.415  27.042  1.00  0.00     0.264 C 
ATOM     19  C   UNL A   1      33.950  29.332  27.121  1.00  0.00     0.264 C 
ATOM     20  N   UNL A   1      33.525  30.535  27.840  1.00  0.00    -0.335 N 
ATOM     21  H   UNL A   1      32.919  30.210  28.593  1.00  0.00     0.348 HD
BRANCH  20  22
ATOM     22  C   UNL A   1      34.631  31.220  28.520  1.00  0.00     0.261 C 
BRANCH  22  23
ATOM     23  C   UNL A   1      35.974  30.496  28.714  1.00  0.00     0.058 C 
ATOM     24  C   UNL A   1      36.979  30.664  27.585  1.00  0.00     0.010 C 
ENDBRANCH  22  23
ENDBRANCH  20  22
ENDBRANCH  13  15
ENDBRANCH   7  11
ENDBRANCH   6   7
ENDBRANCH   3   6
ENDBRANCH   1   2
BRANCH   1  25
ATOM     25  C   UNL A   1      34.278  23.043  25.298  1.00  0.00     0.023 C 
BRANCH  25  26
ATOM     26  C   UNL A   1      35.305  23.090  26.431  1.00  0.00     0.023 C 
BRANCH  26  27
ATOM     27  C   UNL A   1      36.698  23.581  26.050  1.00  0.00     0.116 C 
BRANCH  27  28
ATOM     28  N   UNL A   1      37.692  22.521  25.978  1.00  0.00    -0.352 N 
ATOM     29  C   UNL A   1      39.038  22.575  26.261  1.00  0.00     0.251 C 
ATOM     30  H   UNL A   1      37.356  21.643  25.686  1.00  0.00     0.163 HD
ATOM     31  O   UNL A   1      39.741  21.590  26.080  1.00  0.00    -0.269 OA
BRANCH  29  32
ATOM     32  C   UNL A   1      39.633  23.842  26.740  1.00  0.00     0.039 A 
ATOM     33  C   UNL A   1      39.890  23.985  28.106  1.00  0.00     0.014 A 
ATOM     34  C   UNL A   1      39.969  24.864  25.849  1.00  0.00     0.014 A 
ATOM     35  C   UNL A   1      40.552  25.124  28.568  1.00  0.00     0.010 A 
ATOM     36  C   UNL A   1      40.690  25.965  26.302  1.00  0.00     0.010 A 
ATOM     37  C   UNL A   1      40.993  26.105  27.665  1.00  0.00    -0.014 A 
BRANCH  37  38
ATOM     38  C   UNL A   1      41.788  27.272  28.123  1.00  0.00     0.031 A 
ATOM     39  C   UNL A   1      41.105  28.459  28.742  1.00  0.00     0.074 A 
ATOM     40  C   UNL A   1      43.120  27.294  27.914  1.00  0.00     0.049 A 
ATOM     41  N   UNL A   1      41.623  29.590  29.149  1.00  0.00    -0.248 NA
ATOM     42  C   UNL A   1      39.644  28.377  28.900  1.00  0.00     0.031 C 
ATOM     43  C   UNL A   1      43.895  26.225  27.278  1.00  0.00     0.029 A 
ATOM     44  N   UNL A   1      44.055  28.255  28.202  1.00  0.00    -0.354 N 
ATOM     45  C   UNL A   1      40.553  30.360  29.589  1.00  0.00     0.074 A 
ATOM     46  C   UNL A   1      39.353  29.586  29.357  1.00  0.00     0.031 C 
ATOM     47  C   UNL A   1      45.189  26.581  27.247  1.00  0.00     0.029 A 
ATOM     48  C   UNL A   1      45.332  27.915  27.821  1.00  0.00     0.049 A 
ATOM     49  H   UNL A   1      43.833  29.107  28.642  1.00  0.00     0.167 HD
ATOM     50  C   UNL A   1      40.569  31.592  30.153  1.00  0.00     0.031 A 
ATOM     51  C   UNL A   1      46.488  28.599  27.918  1.00  0.00     0.031 A 
ATOM     52  C   UNL A   1      41.765  32.356  30.389  1.00  0.00     0.049 A 
ATOM     53  C   UNL A   1      46.485  29.963  28.550  1.00  0.00     0.074 A 
ATOM     54  C   UNL A   1      41.893  33.584  31.012  1.00  0.00     0.029 A 
ATOM     55  N   UNL A   1      43.040  31.967  30.007  1.00  0.00    -0.354 N 
ATOM     56  N   UNL A   1      45.471  30.644  29.031  1.00  0.00    -0.248 NA
ATOM     57  C   UNL A   1      47.781  30.645  28.664  1.00  0.00     0.031 C 
ATOM     58  C   UNL A   1      43.239  33.963  30.960  1.00  0.00     0.029 A 
ATOM     59  C   UNL A   1      43.958  32.943  30.356  1.00  0.00     0.049 A 
ATOM     60  H   UNL A   1      43.261  31.121  29.553  1.00  0.00     0.167 HD
ATOM     61  C   UNL A   1      46.011  31.825  29.525  1.00  0.00     0.074 A 
ATOM     62  C   UNL A   1      47.440  31.760  29.298  1.00  0.00     0.031 C 
ATOM     63  C   UNL A   1      45.378  32.869  30.117  1.00  0.00     0.031 A 
BRANCH  50  64
ATOM     64  C   UNL A   1      39.242  32.194  30.536  1.00  0.00    -0.014 A 
ATOM     65  C   UNL A   1      38.612  31.859  31.749  1.00  0.00     0.010 A 
ATOM     66  C   UNL A   1      38.619  33.117  29.676  1.00  0.00     0.010 A 
ATOM     67  C   UNL A   1      37.361  32.391  32.069  1.00  0.00     0.020 A 
ATOM     68  C   UNL A   1      37.382  33.676  30.008  1.00  0.00     0.020 A 
ATOM     69  C   UNL A   1      36.749  33.292  31.192  1.00  0.00     0.054 A 
BRANCH  69  70
ATOM     70  S   UNL A   1      35.124  33.965  31.631  1.00  0.00     0.124 S 
ATOM     71  O   UNL A   1      35.468  34.910  32.690  1.00  0.00    -0.237 OA
ATOM     72  O   UNL A   1      34.674  34.564  30.376  1.00  0.00    -0.237 OA
ATOM     73  O   UNL A   1      34.367  32.792  32.064  1.00  0.00    -0.744 OA
ENDBRANCH  69  70
ENDBRANCH  50  64
BRANCH  51  74
ATOM     74  C   UNL A   1      47.749  27.985  27.418  1.00  0.00    -0.014 A 
ATOM     75  C   UNL A   1      48.203  28.252  26.115  1.00  0.00     0.010 A 
ATOM     76  C   UNL A   1      48.523  27.164  28.259  1.00  0.00     0.010 A 
ATOM     77  C   UNL A   1      49.409  27.707  25.661  1.00  0.00     0.020 A 
ATOM     78  C   UNL A   1      49.740  26.638  27.817  1.00  0.00     0.020 A 
ATOM     79  C   UNL A   1      50.172  26.910  26.516  1.00  0.00     0.054 A 
BRANCH  79  80
ATOM     80  S   UNL A   1      51.771  26.280  25.932  1.00  0.00     0.124 S 
ATOM     81  O   UNL A   1      51.652  26.441  24.487  1.00  0.00    -0.237 OA
ATOM     82  O   UNL A   1      52.721  27.172  26.593  1.00  0.00    -0.237 OA
ATOM     83  O   UNL A   1      51.790  24.900  26.411  1.00  0.00    -0.744 OA
ENDBRANCH  79  80
ENDBRANCH  51  74
BRANCH  63  84
ATOM     84  C   UNL A   1      46.229  34.020  30.587  1.00  0.00    -0.014 A 
ATOM     85  C   UNL A   1      46.542  35.092  29.732  1.00  0.00     0.010 A 
ATOM     86  C   UNL A   1      46.672  34.054  31.921  1.00  0.00     0.010 A 
ATOM     87  C   UNL A   1      47.307  36.165  30.197  1.00  0.00     0.020 A 
ATOM     88  C   UNL A   1      47.414  35.138  32.397  1.00  0.00     0.020 A 
ATOM     89  C   UNL A   1      47.738  36.180  31.527  1.00  0.00     0.054 A 
BRANCH  89  90
ATOM     90  S   UNL A   1      48.690  37.606  32.120  1.00  0.00     0.124 S 
ATOM     91  O   UNL A   1      50.040  37.279  31.669  1.00  0.00    -0.237 OA
ATOM     92  O   UNL A   1      48.053  38.726  31.433  1.00  0.00    -0.237 OA
ATOM     93  O   UNL A   1      48.493  37.578  33.568  1.00  0.00    -0.744 OA
ENDBRANCH  89  90
ENDBRANCH  63  84
ENDBRANCH  37  38
ENDBRANCH  29  32
ENDBRANCH  27  28
ENDBRANCH  26  27
ENDBRANCH  25  26
ENDBRANCH   1  25
TORSDOF 21
ENDMDL
MODEL 3
REMARK VINA RESULT:      -9.0      4.446     10.359
REMARK SMILES C=CCN(CC(=O)NCCCCNC(=O)c1ccc(-c2c3nc(c(-c4ccc(S(=O)(=O)[O-])cc4)c4ccc([nH]4)c(-c4ccc(S(=O)(=O)[O-])cc4)c4nc(c(-c5ccc(S(=O)(=O)[O-])cc5)c5ccc2[nH]5)C=C4)C=C3)cc1)C(=O)NC1CC[NH+](CCC)CC1
REMARK SMILES IDX 9 1 8 2 6 3 7 4 5 6 4 7 3 8 2 9 1 10 76 11 77 12 78 13 79 15
REMARK SMILES IDX 80 16 87 17 81 18 86 19 82 20 83 22 84 23 85 24 10 25 11 26
REMARK SMILES IDX 12 27 13 28 14 29 15 31 16 32 17 33 75 34 18 35 74 36 19 37
REMARK SMILES IDX 20 38 21 39 68 40 22 41 73 42 67 43 69 44 23 45 72 46 66 47
REMARK SMILES IDX 65 48 24 50 54 51 35 52 53 53 36 54 39 55 52 56 70 57 37 58
REMARK SMILES IDX 38 59 51 61 71 62 40 63 25 64 26 65 34 66 27 67 33 68 28 69
REMARK SMILES IDX 29 70 30 71 31 72 32 73 55 74 56 75 64 76 57 77 63 78 58 79
REMARK SMILES IDX 59 80 60 81 61 82 62 83 41 84 42 85 50 86 43 87 49 88 44 89
REMARK SMILES IDX 45 90 46 91 47 92 48 93
REMARK H PARENT 8 5 78 14 82 21 13 30 69 49 39 60
REMARK Flexibility Score: inf
ROOT
ATOM      1  C   UNL A   1      34.421  28.764  26.628  1.00  0.00     0.116 C 
ENDROOT
BRANCH   1   2
ATOM      2  N   UNL A   1      33.556  29.746  26.025  1.00  0.00    -0.355 N 
ATOM      3  C   UNL A   1      32.197  29.765  25.974  1.00  0.00     0.239 C 
ATOM      4  O   UNL A   1      31.664  30.882  25.950  1.00  0.00    -0.273 OA
ATOM      5  H   UNL A   1      34.009  30.506  25.593  1.00  0.00     0.163 HD
BRANCH   3   6
ATOM      6  C   UNL A   1      31.321  28.495  26.079  1.00  0.00     0.221 C 
BRANCH   6   7
ATOM      7  N   UNL A   1      31.004  27.746  24.857  1.00  0.00    -0.312 N 
BRANCH   7   8
ATOM      8  C   UNL A   1      31.327  28.399  23.588  1.00  0.00     0.149 C 
BRANCH   8   9
ATOM      9  C   UNL A   1      30.253  29.349  23.143  1.00  0.00    -0.013 C 
ATOM     10  C   UNL A   1      29.077  28.930  22.651  1.00  0.00     0.006 C 
ENDBRANCH   8   9
ENDBRANCH   7   8
BRANCH   7  11
ATOM     11  C   UNL A   1      30.589  26.442  24.790  1.00  0.00     0.318 C 
ATOM     12  O   UNL A   1      29.426  26.131  24.510  1.00  0.00    -0.249 OA
ATOM     13  N   UNL A   1      31.422  25.394  24.966  1.00  0.00    -0.335 N 
ATOM     14  H   UNL A   1      31.278  24.660  24.327  1.00  0.00     0.165 HD
BRANCH  13  15
ATOM     15  C   UNL A   1      32.501  25.139  25.925  1.00  0.00     0.095 C 
ATOM     16  C   UNL A   1      33.863  24.994  25.243  1.00  0.00     0.086 C 
ATOM     17  C   UNL A   1      32.190  23.898  26.762  1.00  0.00     0.086 C 
ATOM     18  C   UNL A   1      34.003  23.671  24.497  1.00  0.00     0.264 C 
ATOM     19  C   UNL A   1      32.337  22.617  25.938  1.00  0.00     0.264 C 
ATOM     20  N   UNL A   1      33.673  22.529  25.345  1.00  0.00    -0.335 N 
ATOM     21  H   UNL A   1      34.329  22.591  26.124  1.00  0.00     0.348 HD
BRANCH  20  22
ATOM     22  C   UNL A   1      33.946  21.224  24.729  1.00  0.00     0.261 C 
BRANCH  22  23
ATOM     23  C   UNL A   1      32.799  20.218  24.536  1.00  0.00     0.058 C 
ATOM     24  C   UNL A   1      33.001  18.859  25.190  1.00  0.00     0.010 C 
ENDBRANCH  22  23
ENDBRANCH  20  22
ENDBRANCH  13  15
ENDBRANCH   7  11
ENDBRANCH   6   7
ENDBRANCH   3   6
ENDBRANCH   1   2
BRANCH   1  25
ATOM     25  C   UNL A   1      35.688  29.349  27.241  1.00  0.00     0.023 C 
BRANCH  25  26
ATOM     26  C   UNL A   1      35.483  30.163  28.521  1.00  0.00     0.023 C 
BRANCH  26  27
ATOM     27  C   UNL A   1      35.969  29.512  29.812  1.00  0.00     0.116 C 
BRANCH  27  28
ATOM     28  N   UNL A   1      35.995  30.418  30.950  1.00  0.00    -0.352 N 
ATOM     29  C   UNL A   1      37.078  30.988  31.578  1.00  0.00     0.251 C 
ATOM     30  H   UNL A   1      35.116  30.656  31.323  1.00  0.00     0.163 HD
ATOM     31  O   UNL A   1      36.914  31.682  32.572  1.00  0.00    -0.269 OA
BRANCH  29  32
ATOM     32  C   UNL A   1      38.442  30.719  31.070  1.00  0.00     0.039 A 
ATOM     33  C   UNL A   1      39.361  30.099  31.920  1.00  0.00     0.014 A 
ATOM     34  C   UNL A   1      38.800  31.040  29.758  1.00  0.00     0.014 A 
ATOM     35  C   UNL A   1      40.616  29.734  31.431  1.00  0.00     0.010 A 
ATOM     36  C   UNL A   1      40.025  30.612  29.253  1.00  0.00     0.010 A 
ATOM     37  C   UNL A   1      40.944  29.951  30.082  1.00  0.00    -0.014 A 
BRANCH  37  38
ATOM     38  C   UNL A   1      42.232  29.479  29.517  1.00  0.00     0.031 A 
ATOM     39  C   UNL A   1      43.394  30.423  29.381  1.00  0.00     0.074 A 
ATOM     40  C   UNL A   1      42.334  28.215  29.056  1.00  0.00     0.049 A 
ATOM     41  N   UNL A   1      44.575  30.209  28.860  1.00  0.00    -0.248 NA
ATOM     42  C   UNL A   1      43.193  31.797  29.868  1.00  0.00     0.031 C 
ATOM     43  C   UNL A   1      41.264  27.215  29.086  1.00  0.00     0.029 A 
ATOM     44  N   UNL A   1      43.384  27.560  28.464  1.00  0.00    -0.354 N 
ATOM     45  C   UNL A   1      45.248  31.422  28.937  1.00  0.00     0.074 A 
ATOM     46  C   UNL A   1      44.328  32.380  29.512  1.00  0.00     0.031 C 
ATOM     47  C   UNL A   1      41.720  26.068  28.557  1.00  0.00     0.029 A 
ATOM     48  C   UNL A   1      43.098  26.261  28.116  1.00  0.00     0.049 A 
ATOM     49  H   UNL A   1      44.259  27.981  28.304  1.00  0.00     0.167 HD
ATOM     50  C   UNL A   1      46.523  31.711  28.579  1.00  0.00     0.031 A 
ATOM     51  C   UNL A   1      43.855  25.329  27.505  1.00  0.00     0.031 A 
ATOM     52  C   UNL A   1      47.438  30.754  28.015  1.00  0.00     0.049 A 
ATOM     53  C   UNL A   1      45.268  25.667  27.120  1.00  0.00     0.074 A 
ATOM     54  C   UNL A   1      48.768  30.931  27.679  1.00  0.00     0.029 A 
ATOM     55  N   UNL A   1      47.115  29.443  27.696  1.00  0.00    -0.354 N 
ATOM     56  N   UNL A   1      45.913  26.800  27.271  1.00  0.00    -0.248 NA
ATOM     57  C   UNL A   1      46.060  24.600  26.494  1.00  0.00     0.031 C 
ATOM     58  C   UNL A   1      49.236  29.742  27.109  1.00  0.00     0.029 A 
ATOM     59  C   UNL A   1      48.214  28.806  27.143  1.00  0.00     0.049 A 
ATOM     60  H   UNL A   1      46.235  29.027  27.841  1.00  0.00     0.167 HD
ATOM     61  C   UNL A   1      47.193  26.574  26.779  1.00  0.00     0.074 A 
ATOM     62  C   UNL A   1      47.235  25.195  26.339  1.00  0.00     0.031 C 
ATOM     63  C   UNL A   1      48.240  27.434  26.702  1.00  0.00     0.031 A 
BRANCH  50  64
ATOM     64  C   UNL A   1      46.992  33.129  28.776  1.00  0.00    -0.014 A 
ATOM     65  C   UNL A   1      47.687  33.513  29.938  1.00  0.00     0.010 A 
ATOM     66  C   UNL A   1      46.746  34.090  27.779  1.00  0.00     0.010 A 
ATOM     67  C   UNL A   1      48.076  34.841  30.124  1.00  0.00     0.020 A 
ATOM     68  C   UNL A   1      47.161  35.414  27.948  1.00  0.00     0.020 A 
ATOM     69  C   UNL A   1      47.804  35.786  29.131  1.00  0.00     0.054 A 
BRANCH  69  70
ATOM     70  S   UNL A   1      48.317  37.505  29.401  1.00  0.00     0.124 S 
ATOM     71  O   UNL A   1      49.773  37.390  29.367  1.00  0.00    -0.237 OA
ATOM     72  O   UNL A   1      47.715  38.202  28.267  1.00  0.00    -0.237 OA
ATOM     73  O   UNL A   1      47.749  37.836  30.706  1.00  0.00    -0.744 OA
ENDBRANCH  69  70
ENDBRANCH  50  64
BRANCH  51  74
ATOM     74  C   UNL A   1      43.288  23.977  27.244  1.00  0.00    -0.014 A 
ATOM     75  C   UNL A   1      42.857  23.624  25.955  1.00  0.00     0.010 A 
ATOM     76  C   UNL A   1      43.217  23.024  28.277  1.00  0.00     0.010 A 
ATOM     77  C   UNL A   1      42.362  22.340  25.701  1.00  0.00     0.020 A 
ATOM     78  C   UNL A   1      42.748  21.732  28.021  1.00  0.00     0.020 A 
ATOM     79  C   UNL A   1      42.317  21.401  26.735  1.00  0.00     0.054 A 
BRANCH  79  80
ATOM     80  S   UNL A   1      41.747  19.718  26.364  1.00  0.00     0.124 S 
ATOM     81  O   UNL A   1      42.135  18.993  27.569  1.00  0.00    -0.237 OA
ATOM     82  O   UNL A   1      40.310  19.908  26.174  1.00  0.00    -0.237 OA
ATOM     83  O   UNL A   1      42.486  19.366  25.154  1.00  0.00    -0.744 OA
ENDBRANCH  79  80
ENDBRANCH  51  74
BRANCH  63  84
ATOM     84  C   UNL A   1      49.534  26.902  26.143  1.00  0.00    -0.014 A 
ATOM     85  C   UNL A   1      49.887  27.108  24.798  1.00  0.00     0.010 A 
ATOM     86  C   UNL A   1      50.434  26.238  26.995  1.00  0.00     0.010 A 
ATOM     87  C   UNL A   1      51.106  26.633  24.307  1.00  0.00     0.020 A 
ATOM     88  C   UNL A   1      51.666  25.785  26.515  1.00  0.00     0.020 A 
ATOM     89  C   UNL A   1      51.988  25.974  25.170  1.00  0.00     0.054 A 
BRANCH  89  90
ATOM     90  S   UNL A   1      53.584  25.408  24.521  1.00  0.00     0.124 S 
ATOM     91  O   UNL A   1      54.530  26.167  25.335  1.00  0.00    -0.237 OA
ATOM     92  O   UNL A   1      53.546  23.971  24.781  1.00  0.00    -0.237 OA
ATOM     93  O   UNL A   1      53.537  25.781  23.109  1.00  0.00    -0.744 OA
ENDBRANCH  89  90
ENDBRANCH  63  84
ENDBRANCH  37  38
ENDBRANCH  29  32
ENDBRANCH  27  28
ENDBRANCH  26  27
ENDBRANCH  25  26
ENDBRANCH   1  25
TORSDOF 21
ENDMDL
