MODEL 1
REMARK VINA RESULT:     -11.6      0.000      0.000
REMARK SMILES O=C(NCCCCNC(=O)[C@]1(CCc2cccnc2)CCC[NH2+]C1)c1ccc(-c2c3nc(c(-c4ccc(S(=O)(=O)[O-])cc4)c4ccc([nH]4)c(-c4ccc(S(=O)(=O)[O-])cc4)c4nc(c(-c5ccc(S(=O)(=O)[O-])cc5)c5ccc2[nH]5)C=C4)C=C3)cc1
REMARK SMILES IDX 5 1 4 2 3 3 1 4 2 5 25 7 26 8 84 9 27 10 83 11 28 12 29 13
REMARK SMILES IDX 30 14 77 15 31 16 82 17 76 18 78 19 32 20 81 21 75 22 74 23
REMARK SMILES IDX 33 25 63 26 44 27 62 28 45 29 48 30 61 31 79 32 46 33 47 34
REMARK SMILES IDX 60 36 80 37 49 38 34 39 35 40 43 41 36 42 42 43 37 44 38 45
REMARK SMILES IDX 39 46 40 47 41 48 64 49 65 50 73 51 66 52 72 53 67 54 68 55
REMARK SMILES IDX 69 56 70 57 71 58 50 59 51 60 59 61 52 62 58 63 53 64 54 65
REMARK SMILES IDX 55 66 56 67 57 68 6 69 7 70 8 71 9 72 10 74 11 75 20 76
REMARK SMILES IDX 24 77 21 78 23 79 22 80 12 83 13 84 14 85 15 86 19 87 16 88
REMARK SMILES IDX 18 89 17 90
REMARK H PARENT 3 6 78 24 48 35 8 73 23 81 23 82
REMARK Flexibility Score: inf
ROOT
ATOM      1  C   UNL A   1      34.553  30.307  27.181  1.00  0.00     0.023 C 
ENDROOT
BRANCH   1   2
ATOM      2  C   UNL A   1      35.592  29.609  28.043  1.00  0.00     0.116 C 
BRANCH   2   3
ATOM      3  N   UNL A   1      35.496  29.977  29.449  1.00  0.00    -0.352 N 
ATOM      4  O   UNL A   1      36.186  30.176  31.584  1.00  0.00    -0.269 OA
ATOM      5  C   UNL A   1      36.474  29.962  30.411  1.00  0.00     0.251 C 
ATOM      6  H   UNL A   1      34.608  30.277  29.750  1.00  0.00     0.163 HD
BRANCH   5   7
ATOM      7  C   UNL A   1      37.864  29.653  30.022  1.00  0.00     0.039 A 
ATOM      8  C   UNL A   1      38.308  29.912  28.721  1.00  0.00     0.014 A 
ATOM      9  C   UNL A   1      38.721  29.083  30.964  1.00  0.00     0.014 A 
ATOM     10  C   UNL A   1      39.570  29.483  28.328  1.00  0.00     0.010 A 
ATOM     11  C   UNL A   1      40.016  28.725  30.589  1.00  0.00     0.010 A 
ATOM     12  C   UNL A   1      40.440  28.901  29.262  1.00  0.00    -0.014 A 
BRANCH  12  13
ATOM     13  C   UNL A   1      41.821  28.552  28.853  1.00  0.00     0.031 A 
ATOM     14  C   UNL A   1      42.909  29.585  28.835  1.00  0.00     0.074 A 
ATOM     15  C   UNL A   1      42.075  27.282  28.482  1.00  0.00     0.049 A 
ATOM     16  N   UNL A   1      44.159  29.452  28.473  1.00  0.00    -0.248 NA
ATOM     17  C   UNL A   1      42.550  30.943  29.271  1.00  0.00     0.031 C 
ATOM     18  C   UNL A   1      41.086  26.201  28.450  1.00  0.00     0.029 A 
ATOM     19  N   UNL A   1      43.234  26.686  28.061  1.00  0.00    -0.354 N 
ATOM     20  C   UNL A   1      44.730  30.711  28.609  1.00  0.00     0.074 A 
ATOM     21  C   UNL A   1      43.685  31.599  29.072  1.00  0.00     0.031 C 
ATOM     22  C   UNL A   1      41.684  25.071  28.050  1.00  0.00     0.029 A 
ATOM     23  C   UNL A   1      43.080  25.360  27.742  1.00  0.00     0.049 A 
ATOM     24  H   UNL A   1      44.094  27.163  27.995  1.00  0.00     0.167 HD
ATOM     25  C   UNL A   1      46.010  31.088  28.367  1.00  0.00     0.031 A 
ATOM     26  C   UNL A   1      43.953  24.475  27.225  1.00  0.00     0.031 A 
ATOM     27  C   UNL A   1      47.037  30.194  27.900  1.00  0.00     0.049 A 
ATOM     28  C   UNL A   1      45.357  24.919  26.949  1.00  0.00     0.074 A 
ATOM     29  C   UNL A   1      48.374  30.466  27.665  1.00  0.00     0.029 A 
ATOM     30  N   UNL A   1      46.842  28.856  27.585  1.00  0.00    -0.354 N 
ATOM     31  N   UNL A   1      45.893  26.103  27.129  1.00  0.00    -0.248 NA
ATOM     32  C   UNL A   1      46.276  23.913  26.404  1.00  0.00     0.031 C 
ATOM     33  C   UNL A   1      48.973  29.308  27.159  1.00  0.00     0.029 A 
ATOM     34  C   UNL A   1      48.024  28.298  27.129  1.00  0.00     0.049 A 
ATOM     35  H   UNL A   1      45.987  28.376  27.672  1.00  0.00     0.167 HD
ATOM     36  C   UNL A   1      47.216  25.983  26.729  1.00  0.00     0.074 A 
ATOM     37  C   UNL A   1      47.404  24.605  26.313  1.00  0.00     0.031 C 
ATOM     38  C   UNL A   1      48.188  26.928  26.708  1.00  0.00     0.031 A 
BRANCH  25  39
ATOM     39  C   UNL A   1      46.352  32.541  28.561  1.00  0.00    -0.014 A 
ATOM     40  C   UNL A   1      46.915  33.008  29.763  1.00  0.00     0.010 A 
ATOM     41  C   UNL A   1      46.119  33.456  27.517  1.00  0.00     0.010 A 
ATOM     42  C   UNL A   1      47.185  34.370  29.936  1.00  0.00     0.020 A 
ATOM     43  C   UNL A   1      46.411  34.813  27.677  1.00  0.00     0.020 A 
ATOM     44  C   UNL A   1      46.919  35.265  28.896  1.00  0.00     0.054 A 
BRANCH  44  45
ATOM     45  S   UNL A   1      47.257  37.029  29.153  1.00  0.00     0.124 S 
ATOM     46  O   UNL A   1      45.908  37.590  29.188  1.00  0.00    -0.237 OA
ATOM     47  O   UNL A   1      47.973  37.038  30.427  1.00  0.00    -0.237 OA
ATOM     48  O   UNL A   1      48.057  37.402  27.990  1.00  0.00    -0.744 OA
ENDBRANCH  44  45
ENDBRANCH  25  39
BRANCH  26  49
ATOM     49  C   UNL A   1      43.486  23.098  26.923  1.00  0.00    -0.014 A 
ATOM     50  C   UNL A   1      43.638  22.554  25.638  1.00  0.00     0.010 A 
ATOM     51  C   UNL A   1      42.971  22.290  27.956  1.00  0.00     0.010 A 
ATOM     52  C   UNL A   1      43.292  21.222  25.391  1.00  0.00     0.020 A 
ATOM     53  C   UNL A   1      42.649  20.953  27.719  1.00  0.00     0.020 A 
ATOM     54  C   UNL A   1      42.807  20.427  26.436  1.00  0.00     0.054 A 
BRANCH  54  55
ATOM     55  S   UNL A   1      42.460  18.675  26.117  1.00  0.00     0.124 S 
ATOM     56  O   UNL A   1      43.407  18.368  25.051  1.00  0.00    -0.237 OA
ATOM     57  O   UNL A   1      42.739  18.056  27.410  1.00  0.00    -0.237 OA
ATOM     58  O   UNL A   1      41.051  18.672  25.726  1.00  0.00    -0.744 OA
ENDBRANCH  54  55
ENDBRANCH  26  49
BRANCH  38  59
ATOM     59  C   UNL A   1      49.550  26.503  26.232  1.00  0.00    -0.014 A 
ATOM     60  C   UNL A   1      49.953  26.724  24.905  1.00  0.00     0.010 A 
ATOM     61  C   UNL A   1      50.459  25.938  27.145  1.00  0.00     0.010 A 
ATOM     62  C   UNL A   1      51.241  26.371  24.492  1.00  0.00     0.020 A 
ATOM     63  C   UNL A   1      51.754  25.605  26.742  1.00  0.00     0.020 A 
ATOM     64  C   UNL A   1      52.134  25.816  25.415  1.00  0.00     0.054 A 
BRANCH  64  65
ATOM     65  S   UNL A   1      53.820  25.426  24.873  1.00  0.00     0.124 S 
ATOM     66  O   UNL A   1      54.628  26.042  25.922  1.00  0.00    -0.237 OA
ATOM     67  O   UNL A   1      53.822  23.964  24.854  1.00  0.00    -0.237 OA
ATOM     68  O   UNL A   1      53.916  26.059  23.559  1.00  0.00    -0.744 OA
ENDBRANCH  64  65
ENDBRANCH  38  59
ENDBRANCH  12  13
ENDBRANCH   5   7
ENDBRANCH   2   3
ENDBRANCH   1   2
BRANCH   1  69
ATOM     69  C   UNL A   1      33.179  29.646  27.178  1.00  0.00     0.023 C 
BRANCH  69  70
ATOM     70  C   UNL A   1      32.309  29.962  25.963  1.00  0.00     0.116 C 
BRANCH  70  71
ATOM     71  N   UNL A   1      32.988  29.756  24.697  1.00  0.00    -0.355 N 
ATOM     72  C   UNL A   1      32.889  28.817  23.717  1.00  0.00     0.231 C 
ATOM     73  H   UNL A   1      33.667  30.443  24.506  1.00  0.00     0.163 HD
ATOM     74  O   UNL A   1      33.585  29.015  22.716  1.00  0.00    -0.274 OA
BRANCH  72  75
ATOM     75  C   UNL A   1      31.998  27.560  23.829  1.00  0.00     0.098 C 
ATOM     76  C   UNL A   1      32.385  26.698  25.070  1.00  0.00     0.028 C 
ATOM     77  C   UNL A   1      32.216  26.652  22.586  1.00  0.00     0.277 C 
ATOM     78  C   UNL A   1      33.738  25.994  24.950  1.00  0.00     0.063 C 
ATOM     79  N   UNL A   1      33.570  26.098  22.491  1.00  0.00    -0.345 N 
ATOM     80  C   UNL A   1      33.885  25.248  23.633  1.00  0.00     0.260 C 
ATOM     81  H   UNL A   1      33.643  25.545  21.637  1.00  0.00     0.346 HD
ATOM     82  H   UNL A   1      34.231  26.874  22.481  1.00  0.00     0.346 HD
BRANCH  75  83
ATOM     83  C   UNL A   1      30.494  27.961  23.973  1.00  0.00     0.028 C 
BRANCH  83  84
ATOM     84  C   UNL A   1      29.728  28.433  22.713  1.00  0.00     0.038 C 
BRANCH  84  85
ATOM     85  C   UNL A   1      29.286  29.871  22.622  1.00  0.00    -0.030 A 
ATOM     86  C   UNL A   1      29.322  30.722  23.732  1.00  0.00     0.007 A 
ATOM     87  C   UNL A   1      28.887  30.444  21.417  1.00  0.00     0.114 A 
ATOM     88  C   UNL A   1      28.934  32.056  23.606  1.00  0.00     0.020 A 
ATOM     89  N   UNL A   1      28.506  31.734  21.265  1.00  0.00    -0.264 NA
ATOM     90  C   UNL A   1      28.527  32.509  22.365  1.00  0.00     0.111 A 
ENDBRANCH  84  85
ENDBRANCH  83  84
ENDBRANCH  75  83
ENDBRANCH  72  75
ENDBRANCH  70  71
ENDBRANCH  69  70
ENDBRANCH   1  69
TORSDOF 17
ENDMDL
MODEL 2
REMARK VINA RESULT:     -11.3      5.501     10.402
REMARK SMILES O=C(NCCCCNC(=O)[C@]1(CCc2cccnc2)CCC[NH2+]C1)c1ccc(-c2c3nc(c(-c4ccc(S(=O)(=O)[O-])cc4)c4ccc([nH]4)c(-c4ccc(S(=O)(=O)[O-])cc4)c4nc(c(-c5ccc(S(=O)(=O)[O-])cc5)c5ccc2[nH]5)C=C4)C=C3)cc1
REMARK SMILES IDX 5 1 4 2 3 3 1 4 2 5 25 7 26 8 84 9 27 10 83 11 28 12 29 13
REMARK SMILES IDX 30 14 77 15 31 16 82 17 76 18 78 19 32 20 81 21 75 22 74 23
REMARK SMILES IDX 33 25 63 26 44 27 62 28 45 29 48 30 61 31 79 32 46 33 47 34
REMARK SMILES IDX 60 36 80 37 49 38 34 39 35 40 43 41 36 42 42 43 37 44 38 45
REMARK SMILES IDX 39 46 40 47 41 48 64 49 65 50 73 51 66 52 72 53 67 54 68 55
REMARK SMILES IDX 69 56 70 57 71 58 50 59 51 60 59 61 52 62 58 63 53 64 54 65
REMARK SMILES IDX 55 66 56 67 57 68 6 69 7 70 8 71 9 72 10 74 11 75 20 76
REMARK SMILES IDX 24 77 21 78 23 79 22 80 12 83 13 84 14 85 15 86 19 87 16 88
REMARK SMILES IDX 18 89 17 90
REMARK H PARENT 3 6 78 24 48 35 8 73 23 81 23 82
REMARK Flexibility Score: inf
ROOT
ATOM      1  C   UNL A   1      33.502  28.090  25.609  1.00  0.00     0.023 C 
ENDROOT
BRANCH   1   2
ATOM      2  C   UNL A   1      34.521  28.928  26.362  1.00  0.00     0.116 C 
BRANCH   2   3
ATOM      3  N   UNL A   1      34.005  30.235  26.743  1.00  0.00    -0.352 N 
ATOM      4  O   UNL A   1      33.829  32.106  27.986  1.00  0.00    -0.269 OA
ATOM      5  C   UNL A   1      34.469  31.098  27.703  1.00  0.00     0.251 C 
ATOM      6  H   UNL A   1      33.214  30.541  26.243  1.00  0.00     0.163 HD
BRANCH   5   7
ATOM      7  C   UNL A   1      35.726  30.782  28.409  1.00  0.00     0.039 A 
ATOM      8  C   UNL A   1      36.877  31.542  28.179  1.00  0.00     0.014 A 
ATOM      9  C   UNL A   1      35.753  29.704  29.296  1.00  0.00     0.014 A 
ATOM     10  C   UNL A   1      38.085  31.144  28.737  1.00  0.00     0.010 A 
ATOM     11  C   UNL A   1      36.951  29.354  29.917  1.00  0.00     0.010 A 
ATOM     12  C   UNL A   1      38.130  30.058  29.622  1.00  0.00    -0.014 A 
BRANCH  12  13
ATOM     13  C   UNL A   1      39.406  29.717  30.295  1.00  0.00     0.031 A 
ATOM     14  C   UNL A   1      40.292  28.626  29.771  1.00  0.00     0.074 A 
ATOM     15  C   UNL A   1      39.747  30.403  31.403  1.00  0.00     0.049 A 
ATOM     16  N   UNL A   1      41.421  28.182  30.260  1.00  0.00    -0.248 NA
ATOM     17  C   UNL A   1      39.853  27.937  28.547  1.00  0.00     0.031 C 
ATOM     18  C   UNL A   1      38.950  31.476  32.006  1.00  0.00     0.029 A 
ATOM     19  N   UNL A   1      40.844  30.304  32.217  1.00  0.00    -0.354 N 
ATOM     20  C   UNL A   1      41.816  27.145  29.423  1.00  0.00     0.074 A 
ATOM     21  C   UNL A   1      40.796  27.016  28.404  1.00  0.00     0.031 C 
ATOM     22  C   UNL A   1      39.594  31.947  33.082  1.00  0.00     0.029 A 
ATOM     23  C   UNL A   1      40.814  31.173  33.280  1.00  0.00     0.049 A 
ATOM     24  H   UNL A   1      41.581  29.671  32.056  1.00  0.00     0.167 HD
ATOM     25  C   UNL A   1      42.928  26.373  29.501  1.00  0.00     0.031 A 
ATOM     26  C   UNL A   1      41.655  31.314  34.320  1.00  0.00     0.031 A 
ATOM     27  C   UNL A   1      43.931  26.510  30.525  1.00  0.00     0.049 A 
ATOM     28  C   UNL A   1      42.869  30.439  34.396  1.00  0.00     0.074 A 
ATOM     29  C   UNL A   1      45.115  25.807  30.670  1.00  0.00     0.029 A 
ATOM     30  N   UNL A   1      43.865  27.401  31.587  1.00  0.00    -0.354 N 
ATOM     31  N   UNL A   1      43.251  29.495  33.569  1.00  0.00    -0.248 NA
ATOM     32  C   UNL A   1      43.765  30.644  35.540  1.00  0.00     0.031 C 
ATOM     33  C   UNL A   1      45.738  26.238  31.847  1.00  0.00     0.029 A 
ATOM     34  C   UNL A   1      44.970  27.246  32.407  1.00  0.00     0.049 A 
ATOM     35  H   UNL A   1      43.138  28.048  31.735  1.00  0.00     0.167 HD
ATOM     36  C   UNL A   1      44.440  28.999  34.086  1.00  0.00     0.074 A 
ATOM     37  C   UNL A   1      44.721  29.760  35.289  1.00  0.00     0.031 C 
ATOM     38  C   UNL A   1      45.226  28.005  33.608  1.00  0.00     0.031 A 
BRANCH  25  39
ATOM     39  C   UNL A   1      43.089  25.283  28.475  1.00  0.00    -0.014 A 
ATOM     40  C   UNL A   1      42.684  23.962  28.738  1.00  0.00     0.010 A 
ATOM     41  C   UNL A   1      43.643  25.589  27.218  1.00  0.00     0.010 A 
ATOM     42  C   UNL A   1      42.883  22.957  27.786  1.00  0.00     0.020 A 
ATOM     43  C   UNL A   1      43.821  24.593  26.254  1.00  0.00     0.020 A 
ATOM     44  C   UNL A   1      43.461  23.277  26.554  1.00  0.00     0.054 A 
BRANCH  44  45
ATOM     45  S   UNL A   1      43.730  21.954  25.343  1.00  0.00     0.124 S 
ATOM     46  O   UNL A   1      45.085  21.517  25.672  1.00  0.00    -0.237 OA
ATOM     47  O   UNL A   1      42.669  21.001  25.666  1.00  0.00    -0.237 OA
ATOM     48  O   UNL A   1      43.588  22.627  24.055  1.00  0.00    -0.744 OA
ENDBRANCH  44  45
ENDBRANCH  25  39
BRANCH  26  49
ATOM     49  C   UNL A   1      41.338  32.316  35.370  1.00  0.00    -0.014 A 
ATOM     50  C   UNL A   1      41.851  33.620  35.297  1.00  0.00     0.010 A 
ATOM     51  C   UNL A   1      40.436  31.988  36.402  1.00  0.00     0.010 A 
ATOM     52  C   UNL A   1      41.463  34.585  36.232  1.00  0.00     0.020 A 
ATOM     53  C   UNL A   1      40.026  32.955  37.322  1.00  0.00     0.020 A 
ATOM     54  C   UNL A   1      40.546  34.248  37.234  1.00  0.00     0.054 A 
BRANCH  54  55
ATOM     55  S   UNL A   1      39.978  35.539  38.375  1.00  0.00     0.124 S 
ATOM     56  O   UNL A   1      38.800  34.920  38.971  1.00  0.00    -0.237 OA
ATOM     57  O   UNL A   1      41.125  35.705  39.264  1.00  0.00    -0.237 OA
ATOM     58  O   UNL A   1      39.713  36.677  37.496  1.00  0.00    -0.744 OA
ENDBRANCH  54  55
ENDBRANCH  26  49
BRANCH  38  59
ATOM     59  C   UNL A   1      46.478  27.687  34.378  1.00  0.00    -0.014 A 
ATOM     60  C   UNL A   1      47.680  28.365  34.115  1.00  0.00     0.010 A 
ATOM     61  C   UNL A   1      46.431  26.746  35.422  1.00  0.00     0.010 A 
ATOM     62  C   UNL A   1      48.822  28.096  34.874  1.00  0.00     0.020 A 
ATOM     63  C   UNL A   1      47.564  26.491  36.199  1.00  0.00     0.020 A 
ATOM     64  C   UNL A   1      48.754  27.162  35.914  1.00  0.00     0.054 A 
BRANCH  64  65
ATOM     65  S   UNL A   1      50.231  26.876  36.928  1.00  0.00     0.124 S 
ATOM     66  O   UNL A   1      51.084  27.998  36.548  1.00  0.00    -0.237 OA
ATOM     67  O   UNL A   1      49.700  26.922  38.290  1.00  0.00    -0.237 OA
ATOM     68  O   UNL A   1      50.699  25.561  36.495  1.00  0.00    -0.744 OA
ENDBRANCH  64  65
ENDBRANCH  38  59
ENDBRANCH  12  13
ENDBRANCH   5   7
ENDBRANCH   2   3
ENDBRANCH   1   2
BRANCH   1  69
ATOM     69  C   UNL A   1      33.265  26.699  26.189  1.00  0.00     0.023 C 
BRANCH  69  70
ATOM     70  C   UNL A   1      32.260  25.839  25.425  1.00  0.00     0.116 C 
BRANCH  70  71
ATOM     71  N   UNL A   1      31.681  24.778  26.229  1.00  0.00    -0.355 N 
ATOM     72  C   UNL A   1      32.093  23.529  26.577  1.00  0.00     0.231 C 
ATOM     73  H   UNL A   1      30.800  25.012  26.602  1.00  0.00     0.163 HD
ATOM     74  O   UNL A   1      31.359  22.926  27.366  1.00  0.00    -0.274 OA
BRANCH  72  75
ATOM     75  C   UNL A   1      33.373  22.868  26.018  1.00  0.00     0.098 C 
ATOM     76  C   UNL A   1      33.417  22.941  24.460  1.00  0.00     0.028 C 
ATOM     77  C   UNL A   1      33.381  21.356  26.381  1.00  0.00     0.277 C 
ATOM     78  C   UNL A   1      32.390  22.051  23.759  1.00  0.00     0.063 C 
ATOM     79  N   UNL A   1      32.303  20.591  25.746  1.00  0.00    -0.345 N 
ATOM     80  C   UNL A   1      32.401  20.626  24.292  1.00  0.00     0.260 C 
ATOM     81  H   UNL A   1      32.355  19.622  26.059  1.00  0.00     0.346 HD
ATOM     82  H   UNL A   1      31.414  21.014  26.015  1.00  0.00     0.346 HD
BRANCH  75  83
ATOM     83  C   UNL A   1      34.649  23.583  26.569  1.00  0.00     0.028 C 
BRANCH  83  84
ATOM     84  C   UNL A   1      35.794  23.922  25.584  1.00  0.00     0.038 C 
BRANCH  84  85
ATOM     85  C   UNL A   1      37.172  23.371  25.849  1.00  0.00    -0.030 A 
ATOM     86  C   UNL A   1      38.145  24.119  26.521  1.00  0.00     0.007 A 
ATOM     87  C   UNL A   1      37.524  22.070  25.502  1.00  0.00     0.114 A 
ATOM     88  C   UNL A   1      39.402  23.567  26.776  1.00  0.00     0.020 A 
ATOM     89  N   UNL A   1      38.734  21.508  25.737  1.00  0.00    -0.264 NA
ATOM     90  C   UNL A   1      39.649  22.273  26.359  1.00  0.00     0.111 A 
ENDBRANCH  84  85
ENDBRANCH  83  84
ENDBRANCH  75  83
ENDBRANCH  72  75
ENDBRANCH  70  71
ENDBRANCH  69  70
ENDBRANCH   1  69
TORSDOF 17
ENDMDL
MODEL 3
REMARK VINA RESULT:     -11.3      6.064      8.189
REMARK SMILES O=C(NCCCCNC(=O)[C@]1(CCc2cccnc2)CCC[NH2+]C1)c1ccc(-c2c3nc(c(-c4ccc(S(=O)(=O)[O-])cc4)c4ccc([nH]4)c(-c4ccc(S(=O)(=O)[O-])cc4)c4nc(c(-c5ccc(S(=O)(=O)[O-])cc5)c5ccc2[nH]5)C=C4)C=C3)cc1
REMARK SMILES IDX 5 1 4 2 3 3 1 4 2 5 25 7 26 8 84 9 27 10 83 11 28 12 29 13
REMARK SMILES IDX 30 14 77 15 31 16 82 17 76 18 78 19 32 20 81 21 75 22 74 23
REMARK SMILES IDX 33 25 63 26 44 27 62 28 45 29 48 30 61 31 79 32 46 33 47 34
REMARK SMILES IDX 60 36 80 37 49 38 34 39 35 40 43 41 36 42 42 43 37 44 38 45
REMARK SMILES IDX 39 46 40 47 41 48 64 49 65 50 73 51 66 52 72 53 67 54 68 55
REMARK SMILES IDX 69 56 70 57 71 58 50 59 51 60 59 61 52 62 58 63 53 64 54 65
REMARK SMILES IDX 55 66 56 67 57 68 6 69 7 70 8 71 9 72 10 74 11 75 20 76
REMARK SMILES IDX 24 77 21 78 23 79 22 80 12 83 13 84 14 85 15 86 19 87 16 88
REMARK SMILES IDX 18 89 17 90
REMARK H PARENT 3 6 78 24 48 35 8 73 23 81 23 82
REMARK Flexibility Score: inf
ROOT
ATOM      1  C   UNL A   1      31.953  31.697  27.271  1.00  0.00     0.023 C 
ENDROOT
BRANCH   1   2
ATOM      2  C   UNL A   1      33.215  32.544  27.289  1.00  0.00     0.116 C 
BRANCH   2   3
ATOM      3  N   UNL A   1      32.960  33.926  27.671  1.00  0.00    -0.352 N 
ATOM      4  O   UNL A   1      33.097  35.775  28.951  1.00  0.00    -0.269 OA
ATOM      5  C   UNL A   1      33.528  34.657  28.682  1.00  0.00     0.251 C 
ATOM      6  H   UNL A   1      32.288  34.399  27.129  1.00  0.00     0.163 HD
BRANCH   5   7
ATOM      7  C   UNL A   1      34.638  34.073  29.461  1.00  0.00     0.039 A 
ATOM      8  C   UNL A   1      35.963  34.389  29.149  1.00  0.00     0.014 A 
ATOM      9  C   UNL A   1      34.344  33.187  30.499  1.00  0.00     0.014 A 
ATOM     10  C   UNL A   1      36.998  33.721  29.791  1.00  0.00     0.010 A 
ATOM     11  C   UNL A   1      35.386  32.577  31.197  1.00  0.00     0.010 A 
ATOM     12  C   UNL A   1      36.719  32.821  30.831  1.00  0.00    -0.014 A 
BRANCH  12  13
ATOM     13  C   UNL A   1      37.838  32.202  31.580  1.00  0.00     0.031 A 
ATOM     14  C   UNL A   1      38.236  32.706  32.936  1.00  0.00     0.074 A 
ATOM     15  C   UNL A   1      38.503  31.182  31.005  1.00  0.00     0.049 A 
ATOM     16  N   UNL A   1      39.211  32.298  33.707  1.00  0.00    -0.248 NA
ATOM     17  C   UNL A   1      37.447  33.813  33.497  1.00  0.00     0.031 C 
ATOM     18  C   UNL A   1      38.207  30.623  29.684  1.00  0.00     0.029 A 
ATOM     19  N   UNL A   1      39.561  30.436  31.454  1.00  0.00    -0.354 N 
ATOM     20  C   UNL A   1      39.172  33.114  34.831  1.00  0.00     0.074 A 
ATOM     21  C   UNL A   1      38.087  34.051  34.634  1.00  0.00     0.031 C 
ATOM     22  C   UNL A   1      39.050  29.611  29.437  1.00  0.00     0.029 A 
ATOM     23  C   UNL A   1      39.981  29.489  30.553  1.00  0.00     0.049 A 
ATOM     24  H   UNL A   1      39.979  30.566  32.337  1.00  0.00     0.167 HD
ATOM     25  C   UNL A   1      39.972  33.082  35.926  1.00  0.00     0.031 A 
ATOM     26  C   UNL A   1      41.021  28.636  30.598  1.00  0.00     0.031 A 
ATOM     27  C   UNL A   1      41.052  32.147  36.106  1.00  0.00     0.049 A 
ATOM     28  C   UNL A   1      41.902  28.630  31.810  1.00  0.00     0.074 A 
ATOM     29  C   UNL A   1      41.894  32.003  37.196  1.00  0.00     0.029 A 
ATOM     30  N   UNL A   1      41.449  31.204  35.168  1.00  0.00    -0.354 N 
ATOM     31  N   UNL A   1      41.821  29.377  32.885  1.00  0.00    -0.248 NA
ATOM     32  C   UNL A   1      43.011  27.669  31.819  1.00  0.00     0.031 C 
ATOM     33  C   UNL A   1      42.831  31.009  36.895  1.00  0.00     0.029 A 
ATOM     34  C   UNL A   1      42.541  30.495  35.640  1.00  0.00     0.049 A 
ATOM     35  H   UNL A   1      41.017  31.060  34.295  1.00  0.00     0.167 HD
ATOM     36  C   UNL A   1      42.864  28.970  33.706  1.00  0.00     0.074 A 
ATOM     37  C   UNL A   1      43.550  27.898  33.009  1.00  0.00     0.031 C 
ATOM     38  C   UNL A   1      43.219  29.440  34.927  1.00  0.00     0.031 A 
BRANCH  25  39
ATOM     39  C   UNL A   1      39.732  34.120  36.990  1.00  0.00    -0.014 A 
ATOM     40  C   UNL A   1      40.231  35.430  36.864  1.00  0.00     0.010 A 
ATOM     41  C   UNL A   1      38.981  33.784  38.132  1.00  0.00     0.010 A 
ATOM     42  C   UNL A   1      40.032  36.364  37.885  1.00  0.00     0.020 A 
ATOM     43  C   UNL A   1      38.759  34.722  39.143  1.00  0.00     0.020 A 
ATOM     44  C   UNL A   1      39.307  36.001  39.024  1.00  0.00     0.054 A 
BRANCH  44  45
ATOM     45  S   UNL A   1      39.082  37.224  40.344  1.00  0.00     0.124 S 
ATOM     46  O   UNL A   1      38.369  38.291  39.646  1.00  0.00    -0.237 OA
ATOM     47  O   UNL A   1      38.296  36.489  41.333  1.00  0.00    -0.237 OA
ATOM     48  O   UNL A   1      40.445  37.549  40.753  1.00  0.00    -0.744 OA
ENDBRANCH  44  45
ENDBRANCH  25  39
BRANCH  26  49
ATOM     49  C   UNL A   1      41.274  27.749  29.434  1.00  0.00    -0.014 A 
ATOM     50  C   UNL A   1      42.313  28.026  28.532  1.00  0.00     0.010 A 
ATOM     51  C   UNL A   1      40.527  26.564  29.280  1.00  0.00     0.010 A 
ATOM     52  C   UNL A   1      42.609  27.129  27.501  1.00  0.00     0.020 A 
ATOM     53  C   UNL A   1      40.836  25.655  28.267  1.00  0.00     0.020 A 
ATOM     54  C   UNL A   1      41.874  25.945  27.380  1.00  0.00     0.054 A 
BRANCH  54  55
ATOM     55  S   UNL A   1      42.340  24.749  26.098  1.00  0.00     0.124 S 
ATOM     56  O   UNL A   1      41.325  23.715  26.265  1.00  0.00    -0.237 OA
ATOM     57  O   UNL A   1      42.244  25.540  24.874  1.00  0.00    -0.237 OA
ATOM     58  O   UNL A   1      43.699  24.360  26.472  1.00  0.00    -0.744 OA
ENDBRANCH  54  55
ENDBRANCH  26  49
BRANCH  38  59
ATOM     59  C   UNL A   1      44.397  28.791  35.598  1.00  0.00    -0.014 A 
ATOM     60  C   UNL A   1      44.235  27.649  36.399  1.00  0.00     0.010 A 
ATOM     61  C   UNL A   1      45.691  29.293  35.367  1.00  0.00     0.010 A 
ATOM     62  C   UNL A   1      45.346  27.026  36.973  1.00  0.00     0.020 A 
ATOM     63  C   UNL A   1      46.807  28.660  35.920  1.00  0.00     0.020 A 
ATOM     64  C   UNL A   1      46.626  27.535  36.726  1.00  0.00     0.054 A 
BRANCH  64  65
ATOM     65  S   UNL A   1      48.059  26.673  37.429  1.00  0.00     0.124 S 
ATOM     66  O   UNL A   1      47.828  25.297  36.999  1.00  0.00    -0.237 OA
ATOM     67  O   UNL A   1      49.187  27.350  36.791  1.00  0.00    -0.237 OA
ATOM     68  O   UNL A   1      47.933  26.908  38.866  1.00  0.00    -0.744 OA
ENDBRANCH  64  65
ENDBRANCH  38  59
ENDBRANCH  12  13
ENDBRANCH   5   7
ENDBRANCH   2   3
ENDBRANCH   1   2
BRANCH   1  69
ATOM     69  C   UNL A   1      31.745  30.891  25.993  1.00  0.00     0.023 C 
BRANCH  69  70
ATOM     70  C   UNL A   1      32.669  29.685  25.828  1.00  0.00     0.116 C 
BRANCH  70  71
ATOM     71  N   UNL A   1      33.200  29.545  24.485  1.00  0.00    -0.355 N 
ATOM     72  C   UNL A   1      32.917  28.718  23.442  1.00  0.00     0.231 C 
ATOM     73  H   UNL A   1      33.920  30.186  24.284  1.00  0.00     0.163 HD
ATOM     74  O   UNL A   1      33.529  28.951  22.395  1.00  0.00    -0.274 OA
BRANCH  72  75
ATOM     75  C   UNL A   1      31.925  27.537  23.537  1.00  0.00     0.098 C 
ATOM     76  C   UNL A   1      32.309  26.563  24.694  1.00  0.00     0.028 C 
ATOM     77  C   UNL A   1      31.983  26.699  22.228  1.00  0.00     0.277 C 
ATOM     78  C   UNL A   1      33.583  25.756  24.439  1.00  0.00     0.063 C 
ATOM     79  N   UNL A   1      33.273  26.038  22.009  1.00  0.00    -0.345 N 
ATOM     80  C   UNL A   1      33.580  25.089  23.072  1.00  0.00     0.260 C 
ATOM     81  H   UNL A   1      33.243  25.540  21.119  1.00  0.00     0.346 HD
ATOM     82  H   UNL A   1      33.999  26.754  22.002  1.00  0.00     0.346 HD
BRANCH  75  83
ATOM     83  C   UNL A   1      30.475  28.055  23.806  1.00  0.00     0.028 C 
BRANCH  83  84
ATOM     84  C   UNL A   1      29.599  28.469  22.599  1.00  0.00     0.038 C 
BRANCH  84  85
ATOM     85  C   UNL A   1      29.151  29.904  22.479  1.00  0.00    -0.030 A 
ATOM     86  C   UNL A   1      29.136  30.763  23.582  1.00  0.00     0.007 A 
ATOM     87  C   UNL A   1      28.798  30.464  21.254  1.00  0.00     0.114 A 
ATOM     88  C   UNL A   1      28.744  32.094  23.430  1.00  0.00     0.020 A 
ATOM     89  N   UNL A   1      28.415  31.751  21.076  1.00  0.00    -0.264 NA
ATOM     90  C   UNL A   1      28.386  32.534  22.170  1.00  0.00     0.111 A 
ENDBRANCH  84  85
ENDBRANCH  83  84
ENDBRANCH  75  83
ENDBRANCH  72  75
ENDBRANCH  70  71
ENDBRANCH  69  70
ENDBRANCH   1  69
TORSDOF 17
ENDMDL
