MODEL 1
REMARK VINA RESULT:     -11.2      0.000      0.000
REMARK SMILES O=C(NCCCCNC(=O)[C@@]1([C@@H]2CCO[C@@]3(CCOC3)C2)CCOC1)c1ccc(-c2c3nc(c(-c4ccc(S(=O)(=O)[O-])cc4)c4ccc([nH]4)c(-c4ccc(S(=O)(=O)[O-])cc4)c4nc(c(-c5ccc(S(=O)(=O)[O-])cc5)c5ccc2[nH]5)C=C4)C=C3)cc1
REMARK SMILES IDX 4 1 3 2 1 3 2 4 26 6 27 7 85 8 28 9 84 10 29 11 30 12 31 13
REMARK SMILES IDX 78 14 32 15 83 16 77 17 79 18 33 19 82 20 76 21 75 22 34 24
REMARK SMILES IDX 64 25 45 26 63 27 46 28 49 29 62 30 80 31 47 32 48 33 61 35
REMARK SMILES IDX 81 36 50 37 35 38 36 39 44 40 37 41 43 42 38 43 39 44 40 45
REMARK SMILES IDX 41 46 42 47 65 48 66 49 74 50 67 51 73 52 68 53 69 54 70 55
REMARK SMILES IDX 71 56 72 57 51 58 52 59 60 60 53 61 59 62 54 63 55 64 56 65
REMARK SMILES IDX 57 66 58 67 5 68 6 69 7 70 8 71 9 72 10 74 11 75 22 76 25 77
REMARK SMILES IDX 23 78 24 79 12 80 13 81 21 82 14 83 16 84 15 85 17 86 20 87
REMARK SMILES IDX 18 88 19 89
REMARK H PARENT 3 5 79 23 49 34 8 73
REMARK Flexibility Score: inf
ROOT
ATOM      1  C   UNL A   1      33.412  28.513  27.057  1.00  0.00     0.116 C 
ENDROOT
BRANCH   1   2
ATOM      2  N   UNL A   1      33.423  29.931  27.379  1.00  0.00    -0.352 N 
ATOM      3  O   UNL A   1      34.048  31.814  28.424  1.00  0.00    -0.269 OA
ATOM      4  C   UNL A   1      34.360  30.686  28.044  1.00  0.00     0.251 C 
ATOM      5  H   UNL A   1      32.633  30.430  27.071  1.00  0.00     0.163 HD
BRANCH   4   6
ATOM      6  C   UNL A   1      35.728  30.172  28.310  1.00  0.00     0.039 A 
ATOM      7  C   UNL A   1      36.741  30.283  27.359  1.00  0.00     0.014 A 
ATOM      8  C   UNL A   1      36.031  29.647  29.573  1.00  0.00     0.014 A 
ATOM      9  C   UNL A   1      38.001  29.752  27.609  1.00  0.00     0.010 A 
ATOM     10  C   UNL A   1      37.334  29.224  29.868  1.00  0.00     0.010 A 
ATOM     11  C   UNL A   1      38.331  29.266  28.884  1.00  0.00    -0.014 A 
BRANCH  11  12
ATOM     12  C   UNL A   1      39.753  28.951  29.181  1.00  0.00     0.031 A 
ATOM     13  C   UNL A   1      40.638  29.908  29.928  1.00  0.00     0.074 A 
ATOM     14  C   UNL A   1      40.232  27.750  28.790  1.00  0.00     0.049 A 
ATOM     15  N   UNL A   1      41.889  29.759  30.282  1.00  0.00    -0.248 NA
ATOM     16  C   UNL A   1      40.056  31.201  30.318  1.00  0.00     0.031 C 
ATOM     17  C   UNL A   1      39.470  26.745  28.040  1.00  0.00     0.029 A 
ATOM     18  N   UNL A   1      41.448  27.153  28.993  1.00  0.00    -0.354 N 
ATOM     19  C   UNL A   1      42.255  30.944  30.909  1.00  0.00     0.074 A 
ATOM     20  C   UNL A   1      41.095  31.810  30.875  1.00  0.00     0.031 C 
ATOM     21  C   UNL A   1      40.204  25.632  27.920  1.00  0.00     0.029 A 
ATOM     22  C   UNL A   1      41.516  25.867  28.506  1.00  0.00     0.049 A 
ATOM     23  H   UNL A   1      42.201  27.598  29.445  1.00  0.00     0.167 HD
ATOM     24  C   UNL A   1      43.449  31.276  31.460  1.00  0.00     0.031 A 
ATOM     25  C   UNL A   1      42.525  24.976  28.509  1.00  0.00     0.031 A 
ATOM     26  C   UNL A   1      44.595  30.403  31.494  1.00  0.00     0.049 A 
ATOM     27  C   UNL A   1      43.834  25.372  29.122  1.00  0.00     0.074 A 
ATOM     28  C   UNL A   1      45.842  30.640  32.047  1.00  0.00     0.029 A 
ATOM     29  N   UNL A   1      44.635  29.125  30.957  1.00  0.00    -0.354 N 
ATOM     30  N   UNL A   1      44.153  26.496  29.718  1.00  0.00    -0.248 NA
ATOM     31  C   UNL A   1      44.920  24.387  29.055  1.00  0.00     0.031 C 
ATOM     32  C   UNL A   1      46.649  29.522  31.805  1.00  0.00     0.029 A 
ATOM     33  C   UNL A   1      45.890  28.569  31.146  1.00  0.00     0.049 A 
ATOM     34  H   UNL A   1      43.882  28.678  30.506  1.00  0.00     0.167 HD
ATOM     35  C   UNL A   1      45.479  26.355  30.099  1.00  0.00     0.074 A 
ATOM     36  C   UNL A   1      45.893  25.026  29.692  1.00  0.00     0.031 C 
ATOM     37  C   UNL A   1      46.286  27.250  30.721  1.00  0.00     0.031 A 
BRANCH  24  38
ATOM     38  C   UNL A   1      43.589  32.659  32.041  1.00  0.00    -0.014 A 
ATOM     39  C   UNL A   1      43.311  32.917  33.395  1.00  0.00     0.010 A 
ATOM     40  C   UNL A   1      44.050  33.712  31.227  1.00  0.00     0.010 A 
ATOM     41  C   UNL A   1      43.453  34.209  33.914  1.00  0.00     0.020 A 
ATOM     42  C   UNL A   1      44.216  34.999  31.748  1.00  0.00     0.020 A 
ATOM     43  C   UNL A   1      43.898  35.243  33.085  1.00  0.00     0.054 A 
BRANCH  43  44
ATOM     44  S   UNL A   1      44.088  36.907  33.786  1.00  0.00     0.124 S 
ATOM     45  O   UNL A   1      45.540  37.021  33.900  1.00  0.00    -0.237 OA
ATOM     46  O   UNL A   1      43.470  37.756  32.770  1.00  0.00    -0.237 OA
ATOM     47  O   UNL A   1      43.367  36.833  35.054  1.00  0.00    -0.744 OA
ENDBRANCH  43  44
ENDBRANCH  24  38
BRANCH  25  48
ATOM     48  C   UNL A   1      42.329  23.640  27.884  1.00  0.00    -0.014 A 
ATOM     49  C   UNL A   1      42.627  23.432  26.527  1.00  0.00     0.010 A 
ATOM     50  C   UNL A   1      41.888  22.554  28.664  1.00  0.00     0.010 A 
ATOM     51  C   UNL A   1      42.486  22.161  25.960  1.00  0.00     0.020 A 
ATOM     52  C   UNL A   1      41.774  21.278  28.108  1.00  0.00     0.020 A 
ATOM     53  C   UNL A   1      42.064  21.091  26.755  1.00  0.00     0.054 A 
BRANCH  53  54
ATOM     54  S   UNL A   1      41.959  19.436  26.021  1.00  0.00     0.124 S 
ATOM     55  O   UNL A   1      42.464  18.594  27.099  1.00  0.00    -0.237 OA
ATOM     56  O   UNL A   1      40.533  19.307  25.729  1.00  0.00    -0.237 OA
ATOM     57  O   UNL A   1      42.819  19.531  24.843  1.00  0.00    -0.744 OA
ENDBRANCH  53  54
ENDBRANCH  25  48
BRANCH  37  58
ATOM     58  C   UNL A   1      47.694  26.808  31.007  1.00  0.00    -0.014 A 
ATOM     59  C   UNL A   1      48.727  27.045  30.083  1.00  0.00     0.010 A 
ATOM     60  C   UNL A   1      47.991  26.175  32.226  1.00  0.00     0.010 A 
ATOM     61  C   UNL A   1      50.030  26.625  30.361  1.00  0.00     0.020 A 
ATOM     62  C   UNL A   1      49.297  25.775  32.518  1.00  0.00     0.020 A 
ATOM     63  C   UNL A   1      50.306  25.990  31.576  1.00  0.00     0.054 A 
BRANCH  63  64
ATOM     64  S   UNL A   1      52.010  25.483  31.933  1.00  0.00     0.124 S 
ATOM     65  O   UNL A   1      52.322  26.285  33.115  1.00  0.00    -0.237 OA
ATOM     66  O   UNL A   1      51.877  24.046  32.168  1.00  0.00    -0.237 OA
ATOM     67  O   UNL A   1      52.741  25.844  30.723  1.00  0.00    -0.744 OA
ENDBRANCH  63  64
ENDBRANCH  37  58
ENDBRANCH  11  12
ENDBRANCH   4   6
ENDBRANCH   1   2
BRANCH   1  68
ATOM     68  C   UNL A   1      32.130  28.101  26.351  1.00  0.00     0.023 C 
BRANCH  68  69
ATOM     69  C   UNL A   1      31.537  26.783  26.845  1.00  0.00     0.023 C 
BRANCH  69  70
ATOM     70  C   UNL A   1      30.415  26.206  25.981  1.00  0.00     0.116 C 
BRANCH  70  71
ATOM     71  N   UNL A   1      30.113  24.791  26.168  1.00  0.00    -0.356 N 
ATOM     72  C   UNL A   1      30.814  23.627  26.204  1.00  0.00     0.228 C 
ATOM     73  H   UNL A   1      29.150  24.639  26.303  1.00  0.00     0.163 HD
ATOM     74  O   UNL A   1      30.170  22.645  26.600  1.00  0.00    -0.274 OA
BRANCH  72  75
ATOM     75  C   UNL A   1      32.243  23.417  25.655  1.00  0.00     0.078 C 
ATOM     76  C   UNL A   1      33.370  23.988  26.499  1.00  0.00     0.048 C 
ATOM     77  C   UNL A   1      32.536  21.906  25.776  1.00  0.00     0.177 C 
ATOM     78  C   UNL A   1      34.431  22.906  26.604  1.00  0.00     0.161 C 
ATOM     79  O   UNL A   1      33.955  21.764  25.899  1.00  0.00    -0.380 OA
BRANCH  75  80
ATOM     80  C   UNL A   1      32.245  23.793  24.126  1.00  0.00     0.012 C 
ATOM     81  C   UNL A   1      32.526  22.687  23.090  1.00  0.00     0.033 C 
ATOM     82  C   UNL A   1      33.105  25.000  23.776  1.00  0.00     0.043 C 
ATOM     83  C   UNL A   1      33.394  23.155  21.909  1.00  0.00     0.161 C 
ATOM     84  C   UNL A   1      32.830  25.468  22.336  1.00  0.00     0.094 C 
ATOM     85  O   UNL A   1      33.044  24.432  21.381  1.00  0.00    -0.372 OA
ATOM     86  C   UNL A   1      31.433  26.046  22.129  1.00  0.00     0.066 C 
ATOM     87  C   UNL A   1      33.631  26.744  22.059  1.00  0.00     0.195 C 
ATOM     88  C   UNL A   1      31.523  27.391  22.813  1.00  0.00     0.163 C 
ATOM     89  O   UNL A   1      32.891  27.820  22.677  1.00  0.00    -0.378 OA
ENDBRANCH  75  80
ENDBRANCH  72  75
ENDBRANCH  70  71
ENDBRANCH  69  70
ENDBRANCH  68  69
ENDBRANCH   1  68
TORSDOF 15
ENDMDL
MODEL 2
REMARK VINA RESULT:     -11.0      3.068      4.332
REMARK SMILES O=C(NCCCCNC(=O)[C@@]1([C@@H]2CCO[C@@]3(CCOC3)C2)CCOC1)c1ccc(-c2c3nc(c(-c4ccc(S(=O)(=O)[O-])cc4)c4ccc([nH]4)c(-c4ccc(S(=O)(=O)[O-])cc4)c4nc(c(-c5ccc(S(=O)(=O)[O-])cc5)c5ccc2[nH]5)C=C4)C=C3)cc1
REMARK SMILES IDX 4 1 3 2 1 3 2 4 26 6 27 7 85 8 28 9 84 10 29 11 30 12 31 13
REMARK SMILES IDX 78 14 32 15 83 16 77 17 79 18 33 19 82 20 76 21 75 22 34 24
REMARK SMILES IDX 64 25 45 26 63 27 46 28 49 29 62 30 80 31 47 32 48 33 61 35
REMARK SMILES IDX 81 36 50 37 35 38 36 39 44 40 37 41 43 42 38 43 39 44 40 45
REMARK SMILES IDX 41 46 42 47 65 48 66 49 74 50 67 51 73 52 68 53 69 54 70 55
REMARK SMILES IDX 71 56 72 57 51 58 52 59 60 60 53 61 59 62 54 63 55 64 56 65
REMARK SMILES IDX 57 66 58 67 5 68 6 69 7 70 8 71 9 72 10 74 11 75 22 76 25 77
REMARK SMILES IDX 23 78 24 79 12 80 13 81 21 82 14 83 16 84 15 85 17 86 20 87
REMARK SMILES IDX 18 88 19 89
REMARK H PARENT 3 5 79 23 49 34 8 73
REMARK Flexibility Score: inf
ROOT
ATOM      1  C   UNL A   1      35.355  30.458  27.766  1.00  0.00     0.116 C 
ENDROOT
BRANCH   1   2
ATOM      2  N   UNL A   1      35.409  30.544  29.217  1.00  0.00    -0.352 N 
ATOM      3  O   UNL A   1      36.060  30.032  31.300  1.00  0.00    -0.269 OA
ATOM      4  C   UNL A   1      36.343  30.064  30.103  1.00  0.00     0.251 C 
ATOM      5  H   UNL A   1      34.655  31.023  29.630  1.00  0.00     0.163 HD
BRANCH   4   6
ATOM      6  C   UNL A   1      37.675  29.589  29.648  1.00  0.00     0.039 A 
ATOM      7  C   UNL A   1      38.146  29.871  28.367  1.00  0.00     0.014 A 
ATOM      8  C   UNL A   1      38.513  28.925  30.553  1.00  0.00     0.014 A 
ATOM      9  C   UNL A   1      39.375  29.377  27.945  1.00  0.00     0.010 A 
ATOM     10  C   UNL A   1      39.802  28.534  30.167  1.00  0.00     0.010 A 
ATOM     11  C   UNL A   1      40.242  28.750  28.854  1.00  0.00    -0.014 A 
BRANCH  11  12
ATOM     12  C   UNL A   1      41.640  28.472  28.430  1.00  0.00     0.031 A 
ATOM     13  C   UNL A   1      42.712  29.523  28.492  1.00  0.00     0.074 A 
ATOM     14  C   UNL A   1      41.939  27.222  28.014  1.00  0.00     0.049 A 
ATOM     15  N   UNL A   1      43.979  29.418  28.181  1.00  0.00    -0.248 NA
ATOM     16  C   UNL A   1      42.316  30.864  28.947  1.00  0.00     0.031 C 
ATOM     17  C   UNL A   1      40.975  26.122  27.893  1.00  0.00     0.029 A 
ATOM     18  N   UNL A   1      43.132  26.652  27.651  1.00  0.00    -0.354 N 
ATOM     19  C   UNL A   1      44.527  30.681  28.373  1.00  0.00     0.074 A 
ATOM     20  C   UNL A   1      43.450  31.541  28.816  1.00  0.00     0.031 C 
ATOM     21  C   UNL A   1      41.624  24.998  27.568  1.00  0.00     0.029 A 
ATOM     22  C   UNL A   1      43.034  25.308  27.372  1.00  0.00     0.049 A 
ATOM     23  H   UNL A   1      43.976  27.154  27.596  1.00  0.00     0.167 HD
ATOM     24  C   UNL A   1      45.810  31.082  28.194  1.00  0.00     0.031 A 
ATOM     25  C   UNL A   1      43.967  24.419  26.982  1.00  0.00     0.031 A 
ATOM     26  C   UNL A   1      46.876  30.214  27.760  1.00  0.00     0.049 A 
ATOM     27  C   UNL A   1      45.376  24.892  26.791  1.00  0.00     0.074 A 
ATOM     28  C   UNL A   1      48.212  30.521  27.569  1.00  0.00     0.029 A 
ATOM     29  N   UNL A   1      46.729  28.870  27.451  1.00  0.00    -0.354 N 
ATOM     30  N   UNL A   1      45.873  26.089  26.988  1.00  0.00    -0.248 NA
ATOM     31  C   UNL A   1      46.347  23.899  26.315  1.00  0.00     0.031 C 
ATOM     32  C   UNL A   1      48.864  29.373  27.103  1.00  0.00     0.029 A 
ATOM     33  C   UNL A   1      47.945  28.338  27.051  1.00  0.00     0.049 A 
ATOM     34  H   UNL A   1      45.884  28.366  27.507  1.00  0.00     0.167 HD
ATOM     35  C   UNL A   1      47.218  25.997  26.660  1.00  0.00     0.074 A 
ATOM     36  C   UNL A   1      47.462  24.618  26.281  1.00  0.00     0.031 C 
ATOM     37  C   UNL A   1      48.164  26.967  26.664  1.00  0.00     0.031 A 
BRANCH  24  38
ATOM     38  C   UNL A   1      46.127  32.535  28.435  1.00  0.00    -0.014 A 
ATOM     39  C   UNL A   1      46.569  32.990  29.689  1.00  0.00     0.010 A 
ATOM     40  C   UNL A   1      46.023  33.454  27.373  1.00  0.00     0.010 A 
ATOM     41  C   UNL A   1      46.862  34.344  29.889  1.00  0.00     0.020 A 
ATOM     42  C   UNL A   1      46.338  34.803  27.563  1.00  0.00     0.020 A 
ATOM     43  C   UNL A   1      46.738  35.243  28.826  1.00  0.00     0.054 A 
BRANCH  43  44
ATOM     44  S   UNL A   1      47.139  36.991  29.106  1.00  0.00     0.124 S 
ATOM     45  O   UNL A   1      46.156  37.664  28.260  1.00  0.00    -0.237 OA
ATOM     46  O   UNL A   1      46.934  37.141  30.545  1.00  0.00    -0.237 OA
ATOM     47  O   UNL A   1      48.526  37.105  28.662  1.00  0.00    -0.744 OA
ENDBRANCH  43  44
ENDBRANCH  24  38
BRANCH  25  48
ATOM     48  C   UNL A   1      43.577  23.006  26.727  1.00  0.00    -0.014 A 
ATOM     49  C   UNL A   1      43.940  22.368  25.529  1.00  0.00     0.010 A 
ATOM     50  C   UNL A   1      42.880  22.277  27.708  1.00  0.00     0.010 A 
ATOM     51  C   UNL A   1      43.611  21.025  25.317  1.00  0.00     0.020 A 
ATOM     52  C   UNL A   1      42.576  20.928  27.512  1.00  0.00     0.020 A 
ATOM     53  C   UNL A   1      42.935  20.312  26.311  1.00  0.00     0.054 A 
BRANCH  53  54
ATOM     54  S   UNL A   1      42.583  18.552  26.050  1.00  0.00     0.124 S 
ATOM     55  O   UNL A   1      42.963  17.974  27.334  1.00  0.00    -0.237 OA
ATOM     56  O   UNL A   1      41.153  18.554  25.753  1.00  0.00    -0.237 OA
ATOM     57  O   UNL A   1      43.443  18.197  24.922  1.00  0.00    -0.744 OA
ENDBRANCH  53  54
ENDBRANCH  25  48
BRANCH  37  58
ATOM     58  C   UNL A   1      49.552  26.562  26.254  1.00  0.00    -0.014 A 
ATOM     59  C   UNL A   1      50.407  25.901  27.153  1.00  0.00     0.010 A 
ATOM     60  C   UNL A   1      49.994  26.818  24.944  1.00  0.00     0.010 A 
ATOM     61  C   UNL A   1      51.696  25.533  26.759  1.00  0.00     0.020 A 
ATOM     62  C   UNL A   1      51.273  26.431  24.539  1.00  0.00     0.020 A 
ATOM     63  C   UNL A   1      52.122  25.804  25.456  1.00  0.00     0.054 A 
BRANCH  63  64
ATOM     64  S   UNL A   1      53.785  25.288  24.952  1.00  0.00     0.124 S 
ATOM     65  O   UNL A   1      53.962  26.017  23.698  1.00  0.00    -0.237 OA
ATOM     66  O   UNL A   1      54.616  25.747  26.065  1.00  0.00    -0.237 OA
ATOM     67  O   UNL A   1      53.676  23.840  24.822  1.00  0.00    -0.744 OA
ENDBRANCH  63  64
ENDBRANCH  37  58
ENDBRANCH  11  12
ENDBRANCH   4   6
ENDBRANCH   1   2
BRANCH   1  68
ATOM     68  C   UNL A   1      33.926  30.360  27.256  1.00  0.00     0.023 C 
BRANCH  68  69
ATOM     69  C   UNL A   1      33.605  29.053  26.533  1.00  0.00     0.023 C 
BRANCH  69  70
ATOM     70  C   UNL A   1      33.310  29.187  25.038  1.00  0.00     0.116 C 
BRANCH  70  71
ATOM     71  N   UNL A   1      31.994  28.742  24.594  1.00  0.00    -0.356 N 
ATOM     72  C   UNL A   1      31.452  27.597  24.100  1.00  0.00     0.228 C 
ATOM     73  H   UNL A   1      31.322  29.458  24.671  1.00  0.00     0.163 HD
ATOM     74  O   UNL A   1      30.215  27.592  24.040  1.00  0.00    -0.274 OA
BRANCH  72  75
ATOM     75  C   UNL A   1      32.240  26.420  23.482  1.00  0.00     0.078 C 
ATOM     76  C   UNL A   1      31.578  25.724  22.304  1.00  0.00     0.048 C 
ATOM     77  C   UNL A   1      33.472  27.040  22.788  1.00  0.00     0.177 C 
ATOM     78  C   UNL A   1      32.644  25.568  21.232  1.00  0.00     0.161 C 
ATOM     79  O   UNL A   1      33.842  26.156  21.726  1.00  0.00    -0.380 OA
BRANCH  75  80
ATOM     80  C   UNL A   1      32.750  25.498  24.651  1.00  0.00     0.012 C 
ATOM     81  C   UNL A   1      34.227  25.596  25.083  1.00  0.00     0.033 C 
ATOM     82  C   UNL A   1      32.400  24.024  24.490  1.00  0.00     0.043 C 
ATOM     83  C   UNL A   1      34.858  24.238  25.432  1.00  0.00     0.161 C 
ATOM     84  C   UNL A   1      32.679  23.252  25.791  1.00  0.00     0.094 C 
ATOM     85  O   UNL A   1      34.033  23.380  26.216  1.00  0.00    -0.372 OA
ATOM     86  C   UNL A   1      31.761  23.635  26.949  1.00  0.00     0.066 C 
ATOM     87  C   UNL A   1      32.215  21.800  25.624  1.00  0.00     0.195 C 
ATOM     88  C   UNL A   1      30.447  22.998  26.558  1.00  0.00     0.163 C 
ATOM     89  O   UNL A   1      30.781  21.819  25.802  1.00  0.00    -0.378 OA
ENDBRANCH  75  80
ENDBRANCH  72  75
ENDBRANCH  70  71
ENDBRANCH  69  70
ENDBRANCH  68  69
ENDBRANCH   1  68
TORSDOF 15
ENDMDL
MODEL 3
REMARK VINA RESULT:     -11.0      3.367      4.528
REMARK SMILES O=C(NCCCCNC(=O)[C@@]1([C@@H]2CCO[C@@]3(CCOC3)C2)CCOC1)c1ccc(-c2c3nc(c(-c4ccc(S(=O)(=O)[O-])cc4)c4ccc([nH]4)c(-c4ccc(S(=O)(=O)[O-])cc4)c4nc(c(-c5ccc(S(=O)(=O)[O-])cc5)c5ccc2[nH]5)C=C4)C=C3)cc1
REMARK SMILES IDX 4 1 3 2 1 3 2 4 26 6 27 7 85 8 28 9 84 10 29 11 30 12 31 13
REMARK SMILES IDX 78 14 32 15 83 16 77 17 79 18 33 19 82 20 76 21 75 22 34 24
REMARK SMILES IDX 64 25 45 26 63 27 46 28 49 29 62 30 80 31 47 32 48 33 61 35
REMARK SMILES IDX 81 36 50 37 35 38 36 39 44 40 37 41 43 42 38 43 39 44 40 45
REMARK SMILES IDX 41 46 42 47 65 48 66 49 74 50 67 51 73 52 68 53 69 54 70 55
REMARK SMILES IDX 71 56 72 57 51 58 52 59 60 60 53 61 59 62 54 63 55 64 56 65
REMARK SMILES IDX 57 66 58 67 5 68 6 69 7 70 8 71 9 72 10 74 11 75 22 76 25 77
REMARK SMILES IDX 23 78 24 79 12 80 13 81 21 82 14 83 16 84 15 85 17 86 20 87
REMARK SMILES IDX 18 88 19 89
REMARK H PARENT 3 5 79 23 49 34 8 73
REMARK Flexibility Score: inf
ROOT
ATOM      1  C   UNL A   1      35.393  29.588  27.560  1.00  0.00     0.116 C 
ENDROOT
BRANCH   1   2
ATOM      2  N   UNL A   1      35.368  29.841  28.992  1.00  0.00    -0.352 N 
ATOM      3  O   UNL A   1      36.052  29.748  31.125  1.00  0.00    -0.269 OA
ATOM      4  C   UNL A   1      36.361  29.724  29.935  1.00  0.00     0.251 C 
ATOM      5  H   UNL A   1      34.500  30.146  29.342  1.00  0.00     0.163 HD
BRANCH   4   6
ATOM      6  C   UNL A   1      37.787  29.573  29.547  1.00  0.00     0.039 A 
ATOM      7  C   UNL A   1      38.747  29.149  30.465  1.00  0.00     0.014 A 
ATOM      8  C   UNL A   1      38.160  29.771  28.211  1.00  0.00     0.014 A 
ATOM      9  C   UNL A   1      40.084  29.060  30.094  1.00  0.00     0.010 A 
ATOM     10  C   UNL A   1      39.486  29.561  27.809  1.00  0.00     0.010 A 
ATOM     11  C   UNL A   1      40.463  29.210  28.751  1.00  0.00    -0.014 A 
BRANCH  11  12
ATOM     12  C   UNL A   1      41.852  28.853  28.357  1.00  0.00     0.031 A 
ATOM     13  C   UNL A   1      42.975  29.850  28.422  1.00  0.00     0.074 A 
ATOM     14  C   UNL A   1      42.094  27.583  27.969  1.00  0.00     0.049 A 
ATOM     15  N   UNL A   1      44.240  29.674  28.136  1.00  0.00    -0.248 NA
ATOM     16  C   UNL A   1      42.640  31.217  28.846  1.00  0.00     0.031 C 
ATOM     17  C   UNL A   1      41.078  26.532  27.849  1.00  0.00     0.029 A 
ATOM     18  N   UNL A   1      43.262  26.946  27.638  1.00  0.00    -0.354 N 
ATOM     19  C   UNL A   1      44.849  30.911  28.317  1.00  0.00     0.074 A 
ATOM     20  C   UNL A   1      43.810  31.833  28.724  1.00  0.00     0.031 C 
ATOM     21  C   UNL A   1      41.674  25.369  27.555  1.00  0.00     0.029 A 
ATOM     22  C   UNL A   1      43.101  25.604  27.381  1.00  0.00     0.049 A 
ATOM     23  H   UNL A   1      44.132  27.403  27.591  1.00  0.00     0.167 HD
ATOM     24  C   UNL A   1      46.154  31.243  28.155  1.00  0.00     0.031 A 
ATOM     25  C   UNL A   1      43.994  24.662  27.024  1.00  0.00     0.031 A 
ATOM     26  C   UNL A   1      47.181  30.315  27.756  1.00  0.00     0.049 A 
ATOM     27  C   UNL A   1      45.429  25.059  26.851  1.00  0.00     0.074 A 
ATOM     28  C   UNL A   1      48.535  30.550  27.585  1.00  0.00     0.029 A 
ATOM     29  N   UNL A   1      46.971  28.974  27.468  1.00  0.00    -0.354 N 
ATOM     30  N   UNL A   1      45.983  26.233  27.037  1.00  0.00    -0.248 NA
ATOM     31  C   UNL A   1      46.356  24.010  26.411  1.00  0.00     0.031 C 
ATOM     32  C   UNL A   1      49.135  29.362  27.151  1.00  0.00     0.029 A 
ATOM     33  C   UNL A   1      48.165  28.374  27.100  1.00  0.00     0.049 A 
ATOM     34  H   UNL A   1      46.101  28.516  27.517  1.00  0.00     0.167 HD
ATOM     35  C   UNL A   1      47.326  26.066  26.736  1.00  0.00     0.074 A 
ATOM     36  C   UNL A   1      47.507  24.670  26.385  1.00  0.00     0.031 C 
ATOM     37  C   UNL A   1      48.321  26.987  26.740  1.00  0.00     0.031 A 
BRANCH  24  38
ATOM     38  C   UNL A   1      46.540  32.682  28.377  1.00  0.00    -0.014 A 
ATOM     39  C   UNL A   1      46.967  33.141  29.635  1.00  0.00     0.010 A 
ATOM     40  C   UNL A   1      46.518  33.582  27.294  1.00  0.00     0.010 A 
ATOM     41  C   UNL A   1      47.326  34.481  29.817  1.00  0.00     0.020 A 
ATOM     42  C   UNL A   1      46.899  34.917  27.466  1.00  0.00     0.020 A 
ATOM     43  C   UNL A   1      47.283  35.362  28.733  1.00  0.00     0.054 A 
BRANCH  43  44
ATOM     44  S   UNL A   1      47.767  37.093  28.990  1.00  0.00     0.124 S 
ATOM     45  O   UNL A   1      48.450  37.025  30.280  1.00  0.00    -0.237 OA
ATOM     46  O   UNL A   1      48.627  37.361  27.840  1.00  0.00    -0.237 OA
ATOM     47  O   UNL A   1      46.496  37.812  28.995  1.00  0.00    -0.744 OA
ENDBRANCH  43  44
ENDBRANCH  24  38
BRANCH  25  48
ATOM     48  C   UNL A   1      43.537  23.267  26.785  1.00  0.00    -0.014 A 
ATOM     49  C   UNL A   1      43.802  22.624  25.564  1.00  0.00     0.010 A 
ATOM     50  C   UNL A   1      42.875  22.556  27.804  1.00  0.00     0.010 A 
ATOM     51  C   UNL A   1      43.411  21.296  25.366  1.00  0.00     0.020 A 
ATOM     52  C   UNL A   1      42.509  21.220  27.620  1.00  0.00     0.020 A 
ATOM     53  C   UNL A   1      42.771  20.601  26.396  1.00  0.00     0.054 A 
BRANCH  53  54
ATOM     54  S   UNL A   1      42.339  18.857  26.148  1.00  0.00     0.124 S 
ATOM     55  O   UNL A   1      42.591  18.292  27.469  1.00  0.00    -0.237 OA
ATOM     56  O   UNL A   1      40.936  18.931  25.746  1.00  0.00    -0.237 OA
ATOM     57  O   UNL A   1      43.256  18.426  25.095  1.00  0.00    -0.744 OA
ENDBRANCH  53  54
ENDBRANCH  25  48
BRANCH  37  58
ATOM     58  C   UNL A   1      49.694  26.504  26.364  1.00  0.00    -0.014 A 
ATOM     59  C   UNL A   1      50.160  26.612  25.042  1.00  0.00     0.010 A 
ATOM     60  C   UNL A   1      50.537  25.965  27.351  1.00  0.00     0.010 A 
ATOM     61  C   UNL A   1      51.437  26.155  24.706  1.00  0.00     0.020 A 
ATOM     62  C   UNL A   1      51.823  25.529  27.024  1.00  0.00     0.020 A 
ATOM     63  C   UNL A   1      52.258  25.614  25.699  1.00  0.00     0.054 A 
BRANCH  63  64
ATOM     64  S   UNL A   1      53.925  25.059  25.250  1.00  0.00     0.124 S 
ATOM     65  O   UNL A   1      54.242  25.934  24.122  1.00  0.00    -0.237 OA
ATOM     66  O   UNL A   1      54.689  25.310  26.472  1.00  0.00    -0.237 OA
ATOM     67  O   UNL A   1      53.744  23.651  24.915  1.00  0.00    -0.744 OA
ENDBRANCH  63  64
ENDBRANCH  37  58
ENDBRANCH  11  12
ENDBRANCH   4   6
ENDBRANCH   1   2
BRANCH   1  68
ATOM     68  C   UNL A   1      34.093  28.970  27.070  1.00  0.00     0.023 C 
BRANCH  68  69
ATOM     69  C   UNL A   1      32.939  29.962  26.930  1.00  0.00     0.023 C 
BRANCH  69  70
ATOM     70  C   UNL A   1      32.255  29.981  25.562  1.00  0.00     0.116 C 
BRANCH  70  71
ATOM     71  N   UNL A   1      33.092  29.655  24.413  1.00  0.00    -0.356 N 
ATOM     72  C   UNL A   1      33.027  28.808  23.352  1.00  0.00     0.228 C 
ATOM     73  H   UNL A   1      33.919  30.188  24.403  1.00  0.00     0.163 HD
ATOM     74  O   UNL A   1      33.886  29.002  22.480  1.00  0.00    -0.274 OA
BRANCH  72  75
ATOM     75  C   UNL A   1      32.108  27.571  23.239  1.00  0.00     0.078 C 
ATOM     76  C   UNL A   1      32.344  26.675  22.035  1.00  0.00     0.048 C 
ATOM     77  C   UNL A   1      32.519  26.620  24.385  1.00  0.00     0.177 C 
ATOM     78  C   UNL A   1      32.369  25.246  22.551  1.00  0.00     0.161 C 
ATOM     79  O   UNL A   1      32.193  25.292  23.962  1.00  0.00    -0.380 OA
BRANCH  75  80
ATOM     80  C   UNL A   1      30.625  28.033  23.497  1.00  0.00     0.012 C 
ATOM     81  C   UNL A   1      29.648  27.050  24.173  1.00  0.00     0.033 C 
ATOM     82  C   UNL A   1      29.930  28.628  22.279  1.00  0.00     0.043 C 
ATOM     83  C   UNL A   1      28.225  27.097  23.591  1.00  0.00     0.161 C 
ATOM     84  C   UNL A   1      28.609  29.305  22.681  1.00  0.00     0.094 C 
ATOM     85  O   UNL A   1      27.724  28.409  23.348  1.00  0.00    -0.372 OA
ATOM     86  C   UNL A   1      28.788  30.552  23.542  1.00  0.00     0.066 C 
ATOM     87  C   UNL A   1      27.996  29.983  21.450  1.00  0.00     0.195 C 
ATOM     88  C   UNL A   1      29.298  31.573  22.550  1.00  0.00     0.163 C 
ATOM     89  O   UNL A   1      28.717  31.223  21.280  1.00  0.00    -0.378 OA
ENDBRANCH  75  80
ENDBRANCH  72  75
ENDBRANCH  70  71
ENDBRANCH  69  70
ENDBRANCH  68  69
ENDBRANCH   1  68
TORSDOF 15
ENDMDL
