MODEL 1
REMARK VINA RESULT:     -14.0      0.000      0.000
REMARK SMILES COc1cccc(-c2nn(-c3cc4c(cc3C(N)=O)OCO4)cc2C(=O)NCCCCNC(=O)c2ccc(-c3c4nc(c(-c5ccc(S(=O)(=O)[O-])cc5)c5ccc([nH]5)c(-c5ccc(S(=O)(=O)[O-])cc5)c5nc(c(-c6ccc(S(=O)(=O)[O-])cc6)c6ccc3[nH]6)C=C5)C=C4)cc2)c1
REMARK SMILES IDX 30 1 29 2 28 3 27 4 25 5 26 6 24 8 8 9 9 10 10 11 23 12 7 13
REMARK SMILES IDX 3 14 4 15 95 16 5 17 6 18 2 19 1 20 11 21 12 22 16 23 13 24
REMARK SMILES IDX 15 25 14 26 22 27 20 28 21 29 17 30 18 31 19 32 31 35 32 36
REMARK SMILES IDX 33 37 34 39 35 40 36 41 94 42 37 43 93 44 38 45 39 46 40 47
REMARK SMILES IDX 87 48 41 49 92 50 86 51 88 52 42 53 91 54 85 55 84 56 43 58
REMARK SMILES IDX 73 59 54 60 72 61 55 62 58 63 71 64 89 65 56 66 57 67 70 69
REMARK SMILES IDX 90 70 59 71 44 72 45 73 53 74 46 75 52 76 47 77 48 78 49 79
REMARK SMILES IDX 50 80 51 81 74 82 75 83 83 84 76 85 82 86 77 87 78 88 79 89
REMARK SMILES IDX 80 90 81 91 60 92 61 93 69 94 62 95 68 96 63 97 64 98 65 99
REMARK SMILES IDX 66 100 67 101
REMARK H PARENT 27 7 18 33 18 34 32 38 88 57 58 68
REMARK Flexibility Score: inf
ROOT
ATOM      1  C   UNL A   1      36.793  22.033  24.370  1.00  0.00     0.023 C 
ENDROOT
BRANCH   1   2
ATOM      2  C   UNL A   1      35.349  22.247  24.851  1.00  0.00     0.023 C 
BRANCH   2   3
ATOM      3  C   UNL A   1      35.167  23.381  25.865  1.00  0.00     0.116 C 
BRANCH   3   4
ATOM      4  N   UNL A   1      34.186  23.041  26.873  1.00  0.00    -0.352 N 
ATOM      5  C   UNL A   1      32.813  23.091  26.905  1.00  0.00     0.255 C 
ATOM      6  O   UNL A   1      32.301  22.721  27.961  1.00  0.00    -0.269 OA
ATOM      7  H   UNL A   1      34.583  22.704  27.708  1.00  0.00     0.163 HD
BRANCH   5   8
ATOM      8  C   UNL A   1      32.014  23.528  25.767  1.00  0.00     0.086 A 
ATOM      9  C   UNL A   1      31.702  22.800  24.560  1.00  0.00     0.106 A 
ATOM     10  N   UNL A   1      31.031  23.572  23.673  1.00  0.00    -0.167 NA
ATOM     11  N   UNL A   1      31.101  24.804  24.223  1.00  0.00    -0.239 N 
ATOM     12  C   UNL A   1      31.359  24.725  25.568  1.00  0.00     0.129 A 
BRANCH   9  13
ATOM     13  C   UNL A   1      32.012  21.398  24.259  1.00  0.00     0.007 A 
ATOM     14  C   UNL A   1      32.390  19.109  24.977  1.00  0.00     0.119 A 
ATOM     15  C   UNL A   1      32.502  18.713  23.642  1.00  0.00     0.046 A 
ATOM     16  C   UNL A   1      32.151  20.452  25.288  1.00  0.00     0.056 A 
ATOM     17  C   UNL A   1      32.376  19.646  22.616  1.00  0.00     0.005 A 
ATOM     18  C   UNL A   1      32.146  20.985  22.925  1.00  0.00     0.011 A 
BRANCH  14  19
ATOM     19  O   UNL A   1      32.592  18.110  25.891  1.00  0.00    -0.497 OA
ATOM     20  C   UNL A   1      32.545  16.784  25.375  1.00  0.00     0.278 C 
ENDBRANCH  14  19
ENDBRANCH   9  13
BRANCH  11  21
ATOM     21  C   UNL A   1      30.740  25.992  23.541  1.00  0.00     0.081 A 
ATOM     22  C   UNL A   1      29.428  26.474  23.698  1.00  0.00     0.079 A 
ATOM     23  C   UNL A   1      31.710  26.736  22.800  1.00  0.00     0.069 A 
ATOM     24  C   UNL A   1      29.149  27.725  23.188  1.00  0.00     0.167 A 
ATOM     25  C   UNL A   1      31.399  28.040  22.383  1.00  0.00     0.066 A 
ATOM     26  C   UNL A   1      30.115  28.492  22.579  1.00  0.00     0.166 A 
ATOM     27  O   UNL A   1      27.947  28.365  23.223  1.00  0.00    -0.454 OA
ATOM     28  O   UNL A   1      29.643  29.698  22.161  1.00  0.00    -0.454 OA
ATOM     29  C   UNL A   1      28.233  29.513  22.393  1.00  0.00     0.468 C 
BRANCH  23  30
ATOM     30  C   UNL A   1      32.976  26.113  22.282  1.00  0.00     0.251 C 
ATOM     31  N   UNL A   1      33.847  25.570  23.181  1.00  0.00    -0.366 N 
ATOM     32  O   UNL A   1      33.303  26.124  21.099  1.00  0.00    -0.269 OA
ATOM     33  H   UNL A   1      33.616  25.544  24.137  1.00  0.00     0.159 HD
ATOM     34  H   UNL A   1      34.708  25.203  22.873  1.00  0.00     0.159 HD
ENDBRANCH  23  30
ENDBRANCH  11  21
ENDBRANCH   5   8
ENDBRANCH   3   4
ENDBRANCH   2   3
ENDBRANCH   1   2
BRANCH   1  35
ATOM     35  C   UNL A   1      37.858  22.748  25.195  1.00  0.00     0.116 C 
BRANCH  35  36
ATOM     36  N   UNL A   1      38.640  21.841  26.041  1.00  0.00    -0.352 N 
ATOM     37  C   UNL A   1      39.785  22.125  26.769  1.00  0.00     0.251 C 
ATOM     38  H   UNL A   1      38.312  20.915  26.099  1.00  0.00     0.163 HD
ATOM     39  O   UNL A   1      40.560  21.237  27.098  1.00  0.00    -0.269 OA
BRANCH  37  40
ATOM     40  C   UNL A   1      40.031  23.522  27.166  1.00  0.00     0.039 A 
ATOM     41  C   UNL A   1      39.060  24.522  27.068  1.00  0.00     0.014 A 
ATOM     42  C   UNL A   1      41.284  23.799  27.699  1.00  0.00     0.014 A 
ATOM     43  C   UNL A   1      39.345  25.783  27.592  1.00  0.00     0.010 A 
ATOM     44  C   UNL A   1      41.484  24.961  28.389  1.00  0.00     0.010 A 
ATOM     45  C   UNL A   1      40.559  25.988  28.268  1.00  0.00    -0.014 A 
BRANCH  45  46
ATOM     46  C   UNL A   1      40.866  27.231  28.961  1.00  0.00     0.031 A 
ATOM     47  C   UNL A   1      42.071  27.936  28.451  1.00  0.00     0.074 A 
ATOM     48  C   UNL A   1      39.992  27.824  29.806  1.00  0.00     0.049 A 
ATOM     49  N   UNL A   1      43.218  28.045  29.031  1.00  0.00    -0.248 NA
ATOM     50  C   UNL A   1      42.056  28.438  27.065  1.00  0.00     0.031 C 
ATOM     51  C   UNL A   1      38.623  27.408  30.147  1.00  0.00     0.029 A 
ATOM     52  N   UNL A   1      40.097  29.017  30.448  1.00  0.00    -0.354 N 
ATOM     53  C   UNL A   1      43.987  28.851  28.199  1.00  0.00     0.074 A 
ATOM     54  C   UNL A   1      43.312  28.869  26.926  1.00  0.00     0.031 C 
ATOM     55  C   UNL A   1      37.957  28.442  30.710  1.00  0.00     0.029 A 
ATOM     56  C   UNL A   1      38.896  29.522  30.942  1.00  0.00     0.049 A 
ATOM     57  H   UNL A   1      40.955  29.487  30.556  1.00  0.00     0.167 HD
ATOM     58  C   UNL A   1      44.958  29.666  28.703  1.00  0.00     0.031 A 
ATOM     59  C   UNL A   1      38.691  30.749  31.486  1.00  0.00     0.031 A 
ATOM     60  C   UNL A   1      45.239  29.357  30.084  1.00  0.00     0.049 A 
ATOM     61  C   UNL A   1      40.020  31.247  31.918  1.00  0.00     0.074 A 
ATOM     62  C   UNL A   1      45.662  28.233  30.764  1.00  0.00     0.029 A 
ATOM     63  N   UNL A   1      44.668  30.180  31.029  1.00  0.00    -0.354 N 
ATOM     64  N   UNL A   1      40.723  30.678  32.859  1.00  0.00    -0.248 NA
ATOM     65  C   UNL A   1      40.775  32.066  30.985  1.00  0.00     0.031 C 
ATOM     66  C   UNL A   1      44.893  28.224  31.965  1.00  0.00     0.029 A 
ATOM     67  C   UNL A   1      44.113  29.383  31.995  1.00  0.00     0.049 A 
ATOM     68  H   UNL A   1      44.661  31.165  31.013  1.00  0.00     0.167 HD
ATOM     69  C   UNL A   1      42.026  30.692  32.383  1.00  0.00     0.074 A 
ATOM     70  C   UNL A   1      42.011  31.642  31.271  1.00  0.00     0.031 C 
ATOM     71  C   UNL A   1      42.923  29.726  32.747  1.00  0.00     0.031 A 
BRANCH  58  72
ATOM     72  C   UNL A   1      45.333  31.001  28.104  1.00  0.00    -0.014 A 
ATOM     73  C   UNL A   1      44.352  32.012  28.041  1.00  0.00     0.010 A 
ATOM     74  C   UNL A   1      46.511  31.207  27.356  1.00  0.00     0.010 A 
ATOM     75  C   UNL A   1      44.511  33.131  27.214  1.00  0.00     0.020 A 
ATOM     76  C   UNL A   1      46.699  32.340  26.563  1.00  0.00     0.020 A 
ATOM     77  C   UNL A   1      45.680  33.278  26.469  1.00  0.00     0.054 A 
BRANCH  77  78
ATOM     78  S   UNL A   1      45.834  34.674  25.329  1.00  0.00     0.124 S 
ATOM     79  O   UNL A   1      45.306  35.773  26.131  1.00  0.00    -0.237 OA
ATOM     80  O   UNL A   1      47.273  34.707  25.076  1.00  0.00    -0.237 OA
ATOM     81  O   UNL A   1      45.014  34.276  24.189  1.00  0.00    -0.744 OA
ENDBRANCH  77  78
ENDBRANCH  58  72
BRANCH  59  82
ATOM     82  C   UNL A   1      37.506  31.638  31.359  1.00  0.00    -0.014 A 
ATOM     83  C   UNL A   1      36.313  31.361  32.056  1.00  0.00     0.010 A 
ATOM     84  C   UNL A   1      37.646  32.923  30.795  1.00  0.00     0.010 A 
ATOM     85  C   UNL A   1      35.332  32.352  32.243  1.00  0.00     0.020 A 
ATOM     86  C   UNL A   1      36.672  33.915  30.975  1.00  0.00     0.020 A 
ATOM     87  C   UNL A   1      35.529  33.633  31.721  1.00  0.00     0.054 A 
BRANCH  87  88
ATOM     88  S   UNL A   1      34.352  34.960  32.130  1.00  0.00     0.124 S 
ATOM     89  O   UNL A   1      35.172  35.869  32.925  1.00  0.00    -0.237 OA
ATOM     90  O   UNL A   1      33.958  35.453  30.813  1.00  0.00    -0.237 OA
ATOM     91  O   UNL A   1      33.298  34.268  32.870  1.00  0.00    -0.744 OA
ENDBRANCH  87  88
ENDBRANCH  59  82
BRANCH  71  92
ATOM     92  C   UNL A   1      42.565  28.800  33.891  1.00  0.00    -0.014 A 
ATOM     93  C   UNL A   1      41.702  27.691  33.777  1.00  0.00     0.010 A 
ATOM     94  C   UNL A   1      43.260  28.983  35.099  1.00  0.00     0.010 A 
ATOM     95  C   UNL A   1      41.524  26.808  34.855  1.00  0.00     0.020 A 
ATOM     96  C   UNL A   1      43.102  28.099  36.167  1.00  0.00     0.020 A 
ATOM     97  C   UNL A   1      42.226  27.020  36.047  1.00  0.00     0.054 A 
BRANCH  97  98
ATOM     98  S   UNL A   1      42.021  25.863  37.431  1.00  0.00     0.124 S 
ATOM     99  O   UNL A   1      42.429  24.590  36.845  1.00  0.00    -0.237 OA
ATOM    100  O   UNL A   1      42.923  26.406  38.445  1.00  0.00    -0.237 OA
ATOM    101  O   UNL A   1      40.600  25.964  37.763  1.00  0.00    -0.744 OA
ENDBRANCH  97  98
ENDBRANCH  71  92
ENDBRANCH  45  46
ENDBRANCH  37  40
ENDBRANCH  35  36
ENDBRANCH   1  35
TORSDOF 18
ENDMDL
MODEL 2
REMARK VINA RESULT:     -14.0      2.252      3.074
REMARK SMILES COc1cccc(-c2nn(-c3cc4c(cc3C(N)=O)OCO4)cc2C(=O)NCCCCNC(=O)c2ccc(-c3c4nc(c(-c5ccc(S(=O)(=O)[O-])cc5)c5ccc([nH]5)c(-c5ccc(S(=O)(=O)[O-])cc5)c5nc(c(-c6ccc(S(=O)(=O)[O-])cc6)c6ccc3[nH]6)C=C5)C=C4)cc2)c1
REMARK SMILES IDX 30 1 29 2 28 3 27 4 25 5 26 6 24 8 8 9 9 10 10 11 23 12 7 13
REMARK SMILES IDX 3 14 4 15 95 16 5 17 6 18 2 19 1 20 11 21 12 22 16 23 13 24
REMARK SMILES IDX 15 25 14 26 22 27 20 28 21 29 17 30 18 31 19 32 31 35 32 36
REMARK SMILES IDX 33 37 34 39 35 40 36 41 94 42 37 43 93 44 38 45 39 46 40 47
REMARK SMILES IDX 87 48 41 49 92 50 86 51 88 52 42 53 91 54 85 55 84 56 43 58
REMARK SMILES IDX 73 59 54 60 72 61 55 62 58 63 71 64 89 65 56 66 57 67 70 69
REMARK SMILES IDX 90 70 59 71 44 72 45 73 53 74 46 75 52 76 47 77 48 78 49 79
REMARK SMILES IDX 50 80 51 81 74 82 75 83 83 84 76 85 82 86 77 87 78 88 79 89
REMARK SMILES IDX 80 90 81 91 60 92 61 93 69 94 62 95 68 96 63 97 64 98 65 99
REMARK SMILES IDX 66 100 67 101
REMARK H PARENT 27 7 18 33 18 34 32 38 88 57 58 68
REMARK Flexibility Score: inf
ROOT
ATOM      1  C   UNL A   1      39.464  22.597  26.735  1.00  0.00     0.023 C 
ENDROOT
BRANCH   1   2
ATOM      2  C   UNL A   1      38.983  21.467  25.810  1.00  0.00     0.023 C 
BRANCH   2   3
ATOM      3  C   UNL A   1      37.489  21.499  25.473  1.00  0.00     0.116 C 
BRANCH   3   4
ATOM      4  N   UNL A   1      37.249  22.068  24.165  1.00  0.00    -0.352 N 
ATOM      5  C   UNL A   1      36.251  22.860  23.652  1.00  0.00     0.255 C 
ATOM      6  O   UNL A   1      36.375  23.153  22.462  1.00  0.00    -0.269 OA
ATOM      7  H   UNL A   1      37.945  21.842  23.507  1.00  0.00     0.163 HD
BRANCH   5   8
ATOM      8  C   UNL A   1      35.135  23.342  24.457  1.00  0.00     0.086 A 
ATOM      9  C   UNL A   1      33.847  22.723  24.664  1.00  0.00     0.106 A 
ATOM     10  N   UNL A   1      33.022  23.522  25.380  1.00  0.00    -0.167 NA
ATOM     11  N   UNL A   1      33.700  24.688  25.443  1.00  0.00    -0.239 N 
ATOM     12  C   UNL A   1      35.039  24.488  25.217  1.00  0.00     0.129 A 
BRANCH   9  13
ATOM     13  C   UNL A   1      33.413  21.396  24.213  1.00  0.00     0.007 A 
ATOM     14  C   UNL A   1      33.323  18.986  24.493  1.00  0.00     0.119 A 
ATOM     15  C   UNL A   1      32.481  18.892  23.383  1.00  0.00     0.046 A 
ATOM     16  C   UNL A   1      33.796  20.237  24.906  1.00  0.00     0.056 A 
ATOM     17  C   UNL A   1      32.105  20.036  22.683  1.00  0.00     0.005 A 
ATOM     18  C   UNL A   1      32.582  21.281  23.089  1.00  0.00     0.011 A 
BRANCH  14  19
ATOM     19  O   UNL A   1      33.667  17.787  25.057  1.00  0.00    -0.497 OA
ATOM     20  C   UNL A   1      34.793  17.135  24.479  1.00  0.00     0.278 C 
ENDBRANCH  14  19
ENDBRANCH   9  13
BRANCH  11  21
ATOM     21  C   UNL A   1      33.133  25.905  25.897  1.00  0.00     0.081 A 
ATOM     22  C   UNL A   1      34.005  26.953  26.243  1.00  0.00     0.079 A 
ATOM     23  C   UNL A   1      31.717  26.098  25.901  1.00  0.00     0.069 A 
ATOM     24  C   UNL A   1      33.441  28.187  26.497  1.00  0.00     0.167 A 
ATOM     25  C   UNL A   1      31.204  27.393  26.077  1.00  0.00     0.066 A 
ATOM     26  C   UNL A   1      32.087  28.402  26.385  1.00  0.00     0.166 A 
ATOM     27  O   UNL A   1      34.102  29.321  26.858  1.00  0.00    -0.454 OA
ATOM     28  O   UNL A   1      31.734  29.687  26.660  1.00  0.00    -0.454 OA
ATOM     29  C   UNL A   1      32.989  30.195  27.153  1.00  0.00     0.468 C 
BRANCH  23  30
ATOM     30  C   UNL A   1      30.750  24.948  25.920  1.00  0.00     0.251 C 
ATOM     31  N   UNL A   1      30.279  24.478  24.728  1.00  0.00    -0.366 N 
ATOM     32  O   UNL A   1      30.306  24.449  26.950  1.00  0.00    -0.269 OA
ATOM     33  H   UNL A   1      30.613  24.854  23.883  1.00  0.00     0.159 HD
ATOM     34  H   UNL A   1      29.604  23.760  24.714  1.00  0.00     0.159 HD
ENDBRANCH  23  30
ENDBRANCH  11  21
ENDBRANCH   5   8
ENDBRANCH   3   4
ENDBRANCH   2   3
ENDBRANCH   1   2
BRANCH   1  35
ATOM     35  C   UNL A   1      40.807  22.344  27.412  1.00  0.00     0.116 C 
BRANCH  35  36
ATOM     36  N   UNL A   1      41.922  22.242  26.467  1.00  0.00    -0.352 N 
ATOM     37  C   UNL A   1      42.509  23.255  25.723  1.00  0.00     0.251 C 
ATOM     38  H   UNL A   1      42.302  21.342  26.343  1.00  0.00     0.163 HD
ATOM     39  O   UNL A   1      43.133  23.006  24.701  1.00  0.00    -0.269 OA
BRANCH  37  40
ATOM     40  C   UNL A   1      42.388  24.639  26.213  1.00  0.00     0.039 A 
ATOM     41  C   UNL A   1      41.468  25.552  25.691  1.00  0.00     0.014 A 
ATOM     42  C   UNL A   1      43.215  24.992  27.272  1.00  0.00     0.014 A 
ATOM     43  C   UNL A   1      41.338  26.796  26.310  1.00  0.00     0.010 A 
ATOM     44  C   UNL A   1      42.945  26.119  27.996  1.00  0.00     0.010 A 
ATOM     45  C   UNL A   1      42.073  27.064  27.476  1.00  0.00    -0.014 A 
BRANCH  45  46
ATOM     46  C   UNL A   1      41.887  28.281  28.254  1.00  0.00     0.031 A 
ATOM     47  C   UNL A   1      42.929  29.316  28.031  1.00  0.00     0.074 A 
ATOM     48  C   UNL A   1      40.735  28.552  28.910  1.00  0.00     0.049 A 
ATOM     49  N   UNL A   1      43.866  29.672  28.844  1.00  0.00    -0.248 NA
ATOM     50  C   UNL A   1      43.051  29.913  26.689  1.00  0.00     0.031 C 
ATOM     51  C   UNL A   1      39.493  27.765  28.941  1.00  0.00     0.029 A 
ATOM     52  N   UNL A   1      40.382  29.671  29.594  1.00  0.00    -0.354 N 
ATOM     53  C   UNL A   1      44.534  30.717  28.218  1.00  0.00     0.074 A 
ATOM     54  C   UNL A   1      44.143  30.666  26.831  1.00  0.00     0.031 C 
ATOM     55  C   UNL A   1      38.473  28.538  29.379  1.00  0.00     0.029 A 
ATOM     56  C   UNL A   1      39.017  29.802  29.836  1.00  0.00     0.049 A 
ATOM     57  H   UNL A   1      41.041  30.338  29.895  1.00  0.00     0.167 HD
ATOM     58  C   UNL A   1      45.126  31.712  28.939  1.00  0.00     0.031 A 
ATOM     59  C   UNL A   1      38.382  30.882  30.359  1.00  0.00     0.031 A 
ATOM     60  C   UNL A   1      45.204  31.371  30.339  1.00  0.00     0.049 A 
ATOM     61  C   UNL A   1      39.413  31.671  31.077  1.00  0.00     0.074 A 
ATOM     62  C   UNL A   1      45.775  30.344  31.061  1.00  0.00     0.029 A 
ATOM     63  N   UNL A   1      44.256  31.934  31.164  1.00  0.00    -0.354 N 
ATOM     64  N   UNL A   1      40.045  31.228  32.129  1.00  0.00    -0.248 NA
ATOM     65  C   UNL A   1      40.084  32.735  30.349  1.00  0.00     0.031 C 
ATOM     66  C   UNL A   1      44.817  30.031  32.071  1.00  0.00     0.029 A 
ATOM     67  C   UNL A   1      43.760  30.940  31.968  1.00  0.00     0.049 A 
ATOM     68  H   UNL A   1      43.983  32.880  31.175  1.00  0.00     0.167 HD
ATOM     69  C   UNL A   1      41.362  31.621  31.941  1.00  0.00     0.074 A 
ATOM     70  C   UNL A   1      41.307  32.626  30.878  1.00  0.00     0.031 C 
ATOM     71  C   UNL A   1      42.398  30.895  32.459  1.00  0.00     0.031 A 
BRANCH  58  72
ATOM     72  C   UNL A   1      45.232  33.144  28.472  1.00  0.00    -0.014 A 
ATOM     73  C   UNL A   1      46.495  33.772  28.500  1.00  0.00     0.010 A 
ATOM     74  C   UNL A   1      44.110  33.975  28.273  1.00  0.00     0.010 A 
ATOM     75  C   UNL A   1      46.618  35.164  28.412  1.00  0.00     0.020 A 
ATOM     76  C   UNL A   1      44.226  35.360  28.140  1.00  0.00     0.020 A 
ATOM     77  C   UNL A   1      45.478  35.949  28.246  1.00  0.00     0.054 A 
BRANCH  77  78
ATOM     78  S   UNL A   1      45.638  37.751  28.233  1.00  0.00     0.124 S 
ATOM     79  O   UNL A   1      47.000  37.933  28.725  1.00  0.00    -0.237 OA
ATOM     80  O   UNL A   1      45.424  38.068  26.823  1.00  0.00    -0.237 OA
ATOM     81  O   UNL A   1      44.578  38.195  29.134  1.00  0.00    -0.744 OA
ENDBRANCH  77  78
ENDBRANCH  58  72
BRANCH  59  82
ATOM     82  C   UNL A   1      37.048  31.438  30.009  1.00  0.00    -0.014 A 
ATOM     83  C   UNL A   1      36.205  31.980  30.999  1.00  0.00     0.010 A 
ATOM     84  C   UNL A   1      36.731  31.715  28.663  1.00  0.00     0.010 A 
ATOM     85  C   UNL A   1      35.132  32.825  30.659  1.00  0.00     0.020 A 
ATOM     86  C   UNL A   1      35.662  32.552  28.316  1.00  0.00     0.020 A 
ATOM     87  C   UNL A   1      34.881  33.126  29.318  1.00  0.00     0.054 A 
BRANCH  87  88
ATOM     88  S   UNL A   1      33.617  34.366  28.898  1.00  0.00     0.124 S 
ATOM     89  O   UNL A   1      34.416  35.435  28.303  1.00  0.00    -0.237 OA
ATOM     90  O   UNL A   1      32.751  33.639  27.975  1.00  0.00    -0.237 OA
ATOM     91  O   UNL A   1      33.011  34.690  30.188  1.00  0.00    -0.744 OA
ENDBRANCH  87  88
ENDBRANCH  59  82
BRANCH  71  92
ATOM     92  C   UNL A   1      42.089  29.815  33.474  1.00  0.00    -0.014 A 
ATOM     93  C   UNL A   1      41.674  28.509  33.145  1.00  0.00     0.010 A 
ATOM     94  C   UNL A   1      42.381  30.103  34.819  1.00  0.00     0.010 A 
ATOM     95  C   UNL A   1      41.532  27.529  34.142  1.00  0.00     0.020 A 
ATOM     96  C   UNL A   1      42.260  29.129  35.811  1.00  0.00     0.020 A 
ATOM     97  C   UNL A   1      41.825  27.848  35.472  1.00  0.00     0.054 A 
BRANCH  97  98
ATOM     98  S   UNL A   1      41.672  26.575  36.758  1.00  0.00     0.124 S 
ATOM     99  O   UNL A   1      41.603  25.342  35.979  1.00  0.00    -0.237 OA
ATOM    100  O   UNL A   1      42.892  26.756  37.542  1.00  0.00    -0.237 OA
ATOM    101  O   UNL A   1      40.438  26.934  37.459  1.00  0.00    -0.744 OA
ENDBRANCH  97  98
ENDBRANCH  71  92
ENDBRANCH  45  46
ENDBRANCH  37  40
ENDBRANCH  35  36
ENDBRANCH   1  35
TORSDOF 18
ENDMDL
MODEL 3
REMARK VINA RESULT:     -13.6      2.716      9.737
REMARK SMILES COc1cccc(-c2nn(-c3cc4c(cc3C(N)=O)OCO4)cc2C(=O)NCCCCNC(=O)c2ccc(-c3c4nc(c(-c5ccc(S(=O)(=O)[O-])cc5)c5ccc([nH]5)c(-c5ccc(S(=O)(=O)[O-])cc5)c5nc(c(-c6ccc(S(=O)(=O)[O-])cc6)c6ccc3[nH]6)C=C5)C=C4)cc2)c1
REMARK SMILES IDX 30 1 29 2 28 3 27 4 25 5 26 6 24 8 8 9 9 10 10 11 23 12 7 13
REMARK SMILES IDX 3 14 4 15 95 16 5 17 6 18 2 19 1 20 11 21 12 22 16 23 13 24
REMARK SMILES IDX 15 25 14 26 22 27 20 28 21 29 17 30 18 31 19 32 31 35 32 36
REMARK SMILES IDX 33 37 34 39 35 40 36 41 94 42 37 43 93 44 38 45 39 46 40 47
REMARK SMILES IDX 87 48 41 49 92 50 86 51 88 52 42 53 91 54 85 55 84 56 43 58
REMARK SMILES IDX 73 59 54 60 72 61 55 62 58 63 71 64 89 65 56 66 57 67 70 69
REMARK SMILES IDX 90 70 59 71 44 72 45 73 53 74 46 75 52 76 47 77 48 78 49 79
REMARK SMILES IDX 50 80 51 81 74 82 75 83 83 84 76 85 82 86 77 87 78 88 79 89
REMARK SMILES IDX 80 90 81 91 60 92 61 93 69 94 62 95 68 96 63 97 64 98 65 99
REMARK SMILES IDX 66 100 67 101
REMARK H PARENT 27 7 18 33 18 34 32 38 88 57 58 68
REMARK Flexibility Score: inf
ROOT
ATOM      1  C   UNL A   1      33.832  29.769  27.437  1.00  0.00     0.023 C 
ENDROOT
BRANCH   1   2
ATOM      2  C   UNL A   1      32.558  30.297  26.757  1.00  0.00     0.023 C 
BRANCH   2   3
ATOM      3  C   UNL A   1      31.945  29.358  25.715  1.00  0.00     0.116 C 
BRANCH   3   4
ATOM      4  N   UNL A   1      32.669  29.405  24.463  1.00  0.00    -0.352 N 
ATOM      5  C   UNL A   1      32.756  28.548  23.393  1.00  0.00     0.255 C 
ATOM      6  O   UNL A   1      33.495  28.922  22.482  1.00  0.00    -0.269 OA
ATOM      7  H   UNL A   1      33.213  30.219  24.356  1.00  0.00     0.163 HD
BRANCH   5   8
ATOM      8  C   UNL A   1      32.011  27.297  23.323  1.00  0.00     0.086 A 
ATOM      9  C   UNL A   1      30.584  27.111  23.195  1.00  0.00     0.106 A 
ATOM     10  N   UNL A   1      30.246  25.803  23.281  1.00  0.00    -0.167 NA
ATOM     11  N   UNL A   1      31.399  25.209  23.656  1.00  0.00    -0.239 N 
ATOM     12  C   UNL A   1      32.478  26.001  23.350  1.00  0.00     0.129 A 
BRANCH   9  13
ATOM     13  C   UNL A   1      29.567  28.144  22.976  1.00  0.00     0.007 A 
ATOM     14  C   UNL A   1      28.891  30.301  22.088  1.00  0.00     0.119 A 
ATOM     15  C   UNL A   1      27.576  30.047  22.482  1.00  0.00     0.046 A 
ATOM     16  C   UNL A   1      29.890  29.353  22.339  1.00  0.00     0.056 A 
ATOM     17  C   UNL A   1      27.248  28.855  23.122  1.00  0.00     0.005 A 
ATOM     18  C   UNL A   1      28.243  27.914  23.381  1.00  0.00     0.011 A 
BRANCH  14  19
ATOM     19  O   UNL A   1      29.095  31.531  21.523  1.00  0.00    -0.497 OA
ATOM     20  C   UNL A   1      28.526  32.632  22.224  1.00  0.00     0.278 C 
ENDBRANCH  14  19
ENDBRANCH   9  13
BRANCH  11  21
ATOM     21  C   UNL A   1      31.486  23.867  24.100  1.00  0.00     0.081 A 
ATOM     22  C   UNL A   1      31.795  22.874  23.153  1.00  0.00     0.079 A 
ATOM     23  C   UNL A   1      31.368  23.545  25.487  1.00  0.00     0.069 A 
ATOM     24  C   UNL A   1      32.064  21.607  23.629  1.00  0.00     0.167 A 
ATOM     25  C   UNL A   1      31.741  22.264  25.926  1.00  0.00     0.066 A 
ATOM     26  C   UNL A   1      32.067  21.324  24.976  1.00  0.00     0.166 A 
ATOM     27  O   UNL A   1      32.369  20.509  22.885  1.00  0.00    -0.454 OA
ATOM     28  O   UNL A   1      32.372  20.025  25.239  1.00  0.00    -0.454 OA
ATOM     29  C   UNL A   1      32.357  19.485  23.903  1.00  0.00     0.468 C 
BRANCH  23  30
ATOM     30  C   UNL A   1      30.679  24.452  26.467  1.00  0.00     0.251 C 
ATOM     31  N   UNL A   1      29.410  24.138  26.861  1.00  0.00    -0.366 N 
ATOM     32  O   UNL A   1      31.168  25.498  26.885  1.00  0.00    -0.269 OA
ATOM     33  H   UNL A   1      28.988  23.308  26.545  1.00  0.00     0.159 HD
ATOM     34  H   UNL A   1      28.917  24.744  27.461  1.00  0.00     0.159 HD
ENDBRANCH  23  30
ENDBRANCH  11  21
ENDBRANCH   5   8
ENDBRANCH   3   4
ENDBRANCH   2   3
ENDBRANCH   1   2
BRANCH   1  35
ATOM     35  C   UNL A   1      34.953  30.793  27.586  1.00  0.00     0.116 C 
BRANCH  35  36
ATOM     36  N   UNL A   1      34.715  31.758  28.663  1.00  0.00    -0.352 N 
ATOM     37  C   UNL A   1      35.257  31.769  29.938  1.00  0.00     0.251 C 
ATOM     38  H   UNL A   1      34.091  32.492  28.454  1.00  0.00     0.163 HD
ATOM     39  O   UNL A   1      34.702  32.358  30.855  1.00  0.00    -0.269 OA
BRANCH  37  40
ATOM     40  C   UNL A   1      36.540  31.076  30.157  1.00  0.00     0.039 A 
ATOM     41  C   UNL A   1      36.652  29.685  30.207  1.00  0.00     0.014 A 
ATOM     42  C   UNL A   1      37.665  31.885  30.265  1.00  0.00     0.014 A 
ATOM     43  C   UNL A   1      37.927  29.122  30.285  1.00  0.00     0.010 A 
ATOM     44  C   UNL A   1      38.908  31.335  30.135  1.00  0.00     0.010 A 
ATOM     45  C   UNL A   1      39.053  29.959  30.232  1.00  0.00    -0.014 A 
BRANCH  45  46
ATOM     46  C   UNL A   1      40.411  29.437  30.166  1.00  0.00     0.031 A 
ATOM     47  C   UNL A   1      41.060  29.250  31.489  1.00  0.00     0.074 A 
ATOM     48  C   UNL A   1      40.934  28.920  29.030  1.00  0.00     0.049 A 
ATOM     49  N   UNL A   1      42.011  29.955  32.002  1.00  0.00    -0.248 NA
ATOM     50  C   UNL A   1      40.478  28.271  32.424  1.00  0.00     0.031 C 
ATOM     51  C   UNL A   1      40.283  28.736  27.724  1.00  0.00     0.029 A 
ATOM     52  N   UNL A   1      42.138  28.320  28.838  1.00  0.00    -0.354 N 
ATOM     53  C   UNL A   1      42.323  29.347  33.212  1.00  0.00     0.074 A 
ATOM     54  C   UNL A   1      41.217  28.475  33.517  1.00  0.00     0.031 C 
ATOM     55  C   UNL A   1      40.993  27.858  26.979  1.00  0.00     0.029 A 
ATOM     56  C   UNL A   1      42.235  27.568  27.670  1.00  0.00     0.049 A 
ATOM     57  H   UNL A   1      42.883  28.410  29.475  1.00  0.00     0.167 HD
ATOM     58  C   UNL A   1      43.588  29.391  33.721  1.00  0.00     0.031 A 
ATOM     59  C   UNL A   1      43.259  26.753  27.309  1.00  0.00     0.031 A 
ATOM     60  C   UNL A   1      44.407  30.346  33.014  1.00  0.00     0.049 A 
ATOM     61  C   UNL A   1      44.439  27.182  28.099  1.00  0.00     0.074 A 
ATOM     62  C   UNL A   1      44.330  31.702  32.768  1.00  0.00     0.029 A 
ATOM     63  N   UNL A   1      45.273  29.838  32.072  1.00  0.00    -0.354 N 
ATOM     64  N   UNL A   1      45.000  28.352  27.963  1.00  0.00    -0.248 NA
ATOM     65  C   UNL A   1      44.688  26.514  29.366  1.00  0.00     0.031 C 
ATOM     66  C   UNL A   1      44.751  31.851  31.413  1.00  0.00     0.029 A 
ATOM     67  C   UNL A   1      45.147  30.598  30.938  1.00  0.00     0.049 A 
ATOM     68  H   UNL A   1      45.874  29.067  32.191  1.00  0.00     0.167 HD
ATOM     69  C   UNL A   1      45.284  28.760  29.258  1.00  0.00     0.074 A 
ATOM     70  C   UNL A   1      45.157  27.549  30.071  1.00  0.00     0.031 C 
ATOM     71  C   UNL A   1      45.313  30.085  29.593  1.00  0.00     0.031 A 
BRANCH  58  72
ATOM     72  C   UNL A   1      44.204  28.286  34.545  1.00  0.00    -0.014 A 
ATOM     73  C   UNL A   1      44.592  27.096  33.896  1.00  0.00     0.010 A 
ATOM     74  C   UNL A   1      44.161  28.259  35.955  1.00  0.00     0.010 A 
ATOM     75  C   UNL A   1      44.847  25.923  34.617  1.00  0.00     0.020 A 
ATOM     76  C   UNL A   1      44.457  27.107  36.686  1.00  0.00     0.020 A 
ATOM     77  C   UNL A   1      44.764  25.935  36.009  1.00  0.00     0.054 A 
BRANCH  77  78
ATOM     78  S   UNL A   1      44.998  24.393  36.924  1.00  0.00     0.124 S 
ATOM     79  O   UNL A   1      46.452  24.273  36.940  1.00  0.00    -0.237 OA
ATOM     80  O   UNL A   1      44.372  24.700  38.208  1.00  0.00    -0.237 OA
ATOM     81  O   UNL A   1      44.294  23.404  36.113  1.00  0.00    -0.744 OA
ENDBRANCH  77  78
ENDBRANCH  58  72
BRANCH  59  82
ATOM     82  C   UNL A   1      43.205  25.449  26.594  1.00  0.00    -0.014 A 
ATOM     83  C   UNL A   1      43.747  25.308  25.301  1.00  0.00     0.010 A 
ATOM     84  C   UNL A   1      42.895  24.270  27.303  1.00  0.00     0.010 A 
ATOM     85  C   UNL A   1      44.035  24.038  24.768  1.00  0.00     0.020 A 
ATOM     86  C   UNL A   1      43.176  23.002  26.777  1.00  0.00     0.020 A 
ATOM     87  C   UNL A   1      43.770  22.891  25.521  1.00  0.00     0.054 A 
BRANCH  87  88
ATOM     88  S   UNL A   1      44.320  21.268  24.908  1.00  0.00     0.124 S 
ATOM     89  O   UNL A   1      44.451  21.506  23.473  1.00  0.00    -0.237 OA
ATOM     90  O   UNL A   1      45.573  21.063  25.629  1.00  0.00    -0.237 OA
ATOM     91  O   UNL A   1      43.234  20.368  25.291  1.00  0.00    -0.744 OA
ENDBRANCH  87  88
ENDBRANCH  59  82
BRANCH  71  92
ATOM     92  C   UNL A   1      45.311  31.112  28.481  1.00  0.00    -0.014 A 
ATOM     93  C   UNL A   1      44.145  31.647  27.895  1.00  0.00     0.010 A 
ATOM     94  C   UNL A   1      46.552  31.667  28.123  1.00  0.00     0.010 A 
ATOM     95  C   UNL A   1      44.228  32.691  26.958  1.00  0.00     0.020 A 
ATOM     96  C   UNL A   1      46.639  32.716  27.206  1.00  0.00     0.020 A 
ATOM     97  C   UNL A   1      45.478  33.217  26.618  1.00  0.00     0.054 A 
BRANCH  97  98
ATOM     98  S   UNL A   1      45.587  34.587  25.430  1.00  0.00     0.124 S 
ATOM     99  O   UNL A   1      45.064  35.715  26.196  1.00  0.00    -0.237 OA
ATOM    100  O   UNL A   1      47.015  34.641  25.125  1.00  0.00    -0.237 OA
ATOM    101  O   UNL A   1      44.742  34.151  24.317  1.00  0.00    -0.744 OA
ENDBRANCH  97  98
ENDBRANCH  71  92
ENDBRANCH  45  46
ENDBRANCH  37  40
ENDBRANCH  35  36
ENDBRANCH   1  35
TORSDOF 18
ENDMDL
