MODEL 1
REMARK VINA RESULT:     -10.5      0.000      0.000
REMARK SMILES C[C@@H]1CC[N@@H+]1CC1(CC(=O)NCCCCNC(=O)c2ccc(-c3c4nc(c(-c5ccc(S(=O)(=O)[O-])cc5)c5ccc([nH]5)c(-c5ccc(S(=O)(=O)[O-])cc5)c5nc(c(-c6ccc(S(=O)(=O)[O-])cc6)c6ccc3[nH]6)C=C5)C=C4)cc2)CCCCC1
REMARK SMILES IDX 13 1 12 2 11 3 9 4 10 5 8 7 7 8 79 9 83 10 80 11 82 12 81 13
REMARK SMILES IDX 6 14 5 15 1 16 2 17 3 18 4 19 14 21 15 22 16 23 17 24 18 26
REMARK SMILES IDX 19 27 20 28 78 29 21 30 77 31 22 32 23 33 24 34 71 35 25 36
REMARK SMILES IDX 76 37 70 38 72 39 26 40 75 41 69 42 68 43 27 45 57 46 38 47
REMARK SMILES IDX 56 48 39 49 42 50 55 51 73 52 40 53 41 54 54 56 74 57 43 58
REMARK SMILES IDX 28 59 29 60 37 61 30 62 36 63 31 64 32 65 33 66 34 67 35 68
REMARK SMILES IDX 58 69 59 70 67 71 60 72 66 73 61 74 62 75 63 76 64 77 65 78
REMARK SMILES IDX 44 79 45 80 53 81 46 82 52 83 47 84 48 85 49 86 50 87 51 88
REMARK H PARENT 11 6 5 20 16 25 72 44 42 55
REMARK Flexibility Score: inf
ROOT
ATOM      1  C   UNL A   1      35.079  22.264  24.227  1.00  0.00     0.023 C 
ENDROOT
BRANCH   1   2
ATOM      2  C   UNL A   1      33.821  22.887  23.618  1.00  0.00     0.116 C 
BRANCH   2   3
ATOM      3  N   UNL A   1      34.153  24.032  22.793  1.00  0.00    -0.356 N 
ATOM      4  C   UNL A   1      33.571  25.257  22.701  1.00  0.00     0.220 C 
ATOM      5  O   UNL A   1      34.035  26.056  21.885  1.00  0.00    -0.275 OA
ATOM      6  H   UNL A   1      34.929  23.901  22.202  1.00  0.00     0.163 HD
BRANCH   4   7
ATOM      7  C   UNL A   1      32.389  25.659  23.580  1.00  0.00     0.112 C 
BRANCH   7   8
ATOM      8  C   UNL A   1      32.670  26.223  25.034  1.00  0.00     0.028 C 
ATOM      9  C   UNL A   1      31.456  27.103  25.436  1.00  0.00     0.013 C 
ATOM     10  C   UNL A   1      33.887  27.172  25.029  1.00  0.00     0.013 C 
ATOM     11  C   UNL A   1      31.266  28.341  24.549  1.00  0.00     0.001 C 
ATOM     12  C   UNL A   1      33.752  28.412  24.143  1.00  0.00     0.001 C 
ATOM     13  C   UNL A   1      32.516  29.214  24.526  1.00  0.00     0.000 C 
BRANCH   8  14
ATOM     14  C   UNL A   1      32.843  24.980  26.007  1.00  0.00     0.269 C 
BRANCH  14  15
ATOM     15  N   UNL A   1      31.878  24.193  26.776  1.00  0.00    -0.332 N 
ATOM     16  C   UNL A   1      33.544  22.390  27.573  1.00  0.00     0.075 C 
ATOM     17  C   UNL A   1      32.128  22.852  27.316  1.00  0.00     0.186 C 
ATOM     18  C   UNL A   1      31.288  22.274  26.152  1.00  0.00     0.126 C 
ATOM     19  C   UNL A   1      30.707  23.703  26.040  1.00  0.00     0.268 C 
ATOM     20  H   UNL A   1      31.846  24.941  27.468  1.00  0.00     0.348 HD
ENDBRANCH  14  15
ENDBRANCH   8  14
ENDBRANCH   7   8
ENDBRANCH   4   7
ENDBRANCH   2   3
ENDBRANCH   1   2
BRANCH   1  21
ATOM     21  C   UNL A   1      36.327  23.131  24.183  1.00  0.00     0.023 C 
BRANCH  21  22
ATOM     22  C   UNL A   1      37.025  23.275  25.526  1.00  0.00     0.116 C 
BRANCH  22  23
ATOM     23  N   UNL A   1      38.272  22.524  25.643  1.00  0.00    -0.352 N 
ATOM     24  C   UNL A   1      39.465  22.948  26.196  1.00  0.00     0.251 C 
ATOM     25  H   UNL A   1      38.261  21.607  25.286  1.00  0.00     0.163 HD
ATOM     26  O   UNL A   1      40.454  22.237  26.191  1.00  0.00    -0.269 OA
BRANCH  24  27
ATOM     27  C   UNL A   1      39.512  24.320  26.742  1.00  0.00     0.039 A 
ATOM     28  C   UNL A   1      39.094  24.539  28.054  1.00  0.00     0.014 A 
ATOM     29  C   UNL A   1      40.124  25.335  26.003  1.00  0.00     0.014 A 
ATOM     30  C   UNL A   1      39.383  25.759  28.666  1.00  0.00     0.010 A 
ATOM     31  C   UNL A   1      40.496  26.506  26.645  1.00  0.00     0.010 A 
ATOM     32  C   UNL A   1      40.135  26.730  27.983  1.00  0.00    -0.014 A 
BRANCH  32  33
ATOM     33  C   UNL A   1      40.558  27.994  28.636  1.00  0.00     0.031 A 
ATOM     34  C   UNL A   1      41.941  28.099  29.215  1.00  0.00     0.074 A 
ATOM     35  C   UNL A   1      39.675  29.001  28.797  1.00  0.00     0.049 A 
ATOM     36  N   UNL A   1      42.464  29.055  29.936  1.00  0.00    -0.248 NA
ATOM     37  C   UNL A   1      42.840  26.953  28.991  1.00  0.00     0.031 C 
ATOM     38  C   UNL A   1      38.283  28.999  28.336  1.00  0.00     0.029 A 
ATOM     39  N   UNL A   1      39.818  30.223  29.405  1.00  0.00    -0.354 N 
ATOM     40  C   UNL A   1      43.733  28.608  30.287  1.00  0.00     0.074 A 
ATOM     41  C   UNL A   1      43.879  27.277  29.744  1.00  0.00     0.031 C 
ATOM     42  C   UNL A   1      37.715  30.176  28.645  1.00  0.00     0.029 A 
ATOM     43  C   UNL A   1      38.685  31.000  29.359  1.00  0.00     0.049 A 
ATOM     44  H   UNL A   1      40.654  30.515  29.833  1.00  0.00     0.167 HD
ATOM     45  C   UNL A   1      44.699  29.256  30.977  1.00  0.00     0.031 A 
ATOM     46  C   UNL A   1      38.455  32.238  29.837  1.00  0.00     0.031 A 
ATOM     47  C   UNL A   1      44.568  30.598  31.472  1.00  0.00     0.049 A 
ATOM     48  C   UNL A   1      39.563  32.965  30.549  1.00  0.00     0.074 A 
ATOM     49  C   UNL A   1      45.512  31.373  32.122  1.00  0.00     0.029 A 
ATOM     50  N   UNL A   1      43.424  31.371  31.354  1.00  0.00    -0.354 N 
ATOM     51  N   UNL A   1      40.775  32.545  30.826  1.00  0.00    -0.248 NA
ATOM     52  C   UNL A   1      39.277  34.333  31.000  1.00  0.00     0.031 C 
ATOM     53  C   UNL A   1      44.928  32.610  32.417  1.00  0.00     0.029 A 
ATOM     54  C   UNL A   1      43.635  32.616  31.918  1.00  0.00     0.049 A 
ATOM     55  H   UNL A   1      42.585  31.078  30.930  1.00  0.00     0.167 HD
ATOM     56  C   UNL A   1      41.405  33.608  31.463  1.00  0.00     0.074 A 
ATOM     57  C   UNL A   1      40.445  34.691  31.521  1.00  0.00     0.031 C 
ATOM     58  C   UNL A   1      42.666  33.681  31.955  1.00  0.00     0.031 A 
BRANCH  45  59
ATOM     59  C   UNL A   1      45.982  28.509  31.223  1.00  0.00    -0.014 A 
ATOM     60  C   UNL A   1      47.106  28.711  30.400  1.00  0.00     0.010 A 
ATOM     61  C   UNL A   1      46.063  27.585  32.279  1.00  0.00     0.010 A 
ATOM     62  C   UNL A   1      48.265  27.958  30.589  1.00  0.00     0.020 A 
ATOM     63  C   UNL A   1      47.233  26.850  32.490  1.00  0.00     0.020 A 
ATOM     64  C   UNL A   1      48.318  27.024  31.627  1.00  0.00     0.054 A 
BRANCH  64  65
ATOM     65  S   UNL A   1      49.831  26.048  31.848  1.00  0.00     0.124 S 
ATOM     66  O   UNL A   1      49.743  25.105  30.736  1.00  0.00    -0.237 OA
ATOM     67  O   UNL A   1      50.884  27.055  31.736  1.00  0.00    -0.237 OA
ATOM     68  O   UNL A   1      49.673  25.464  33.177  1.00  0.00    -0.744 OA
ENDBRANCH  64  65
ENDBRANCH  45  59
BRANCH  46  69
ATOM     69  C   UNL A   1      37.135  32.887  29.618  1.00  0.00    -0.014 A 
ATOM     70  C   UNL A   1      36.307  33.189  30.714  1.00  0.00     0.010 A 
ATOM     71  C   UNL A   1      36.706  33.226  28.323  1.00  0.00     0.010 A 
ATOM     72  C   UNL A   1      35.068  33.805  30.518  1.00  0.00     0.020 A 
ATOM     73  C   UNL A   1      35.476  33.861  28.125  1.00  0.00     0.020 A 
ATOM     74  C   UNL A   1      34.659  34.138  29.224  1.00  0.00     0.054 A 
BRANCH  74  75
ATOM     75  S   UNL A   1      33.075  34.992  28.998  1.00  0.00     0.124 S 
ATOM     76  O   UNL A   1      33.504  36.315  28.558  1.00  0.00    -0.237 OA
ATOM     77  O   UNL A   1      32.413  34.173  27.984  1.00  0.00    -0.237 OA
ATOM     78  O   UNL A   1      32.467  34.937  30.325  1.00  0.00    -0.744 OA
ENDBRANCH  74  75
ENDBRANCH  46  69
BRANCH  58  79
ATOM     79  C   UNL A   1      43.094  34.985  32.565  1.00  0.00    -0.014 A 
ATOM     80  C   UNL A   1      43.696  35.987  31.786  1.00  0.00     0.010 A 
ATOM     81  C   UNL A   1      42.826  35.235  33.924  1.00  0.00     0.010 A 
ATOM     82  C   UNL A   1      44.044  37.212  32.360  1.00  0.00     0.020 A 
ATOM     83  C   UNL A   1      43.153  36.466  34.496  1.00  0.00     0.020 A 
ATOM     84  C   UNL A   1      43.770  37.444  33.712  1.00  0.00     0.054 A 
BRANCH  84  85
ATOM     85  S   UNL A   1      44.177  39.061  34.424  1.00  0.00     0.124 S 
ATOM     86  O   UNL A   1      45.442  39.372  33.766  1.00  0.00    -0.237 OA
ATOM     87  O   UNL A   1      43.040  39.887  34.023  1.00  0.00    -0.237 OA
ATOM     88  O   UNL A   1      44.267  38.794  35.857  1.00  0.00    -0.744 OA
ENDBRANCH  84  85
ENDBRANCH  58  79
ENDBRANCH  32  33
ENDBRANCH  24  27
ENDBRANCH  22  23
ENDBRANCH  21  22
ENDBRANCH   1  21
TORSDOF 17
ENDMDL
MODEL 2
REMARK VINA RESULT:     -10.5      2.611      9.170
REMARK SMILES C[C@@H]1CC[N@@H+]1CC1(CC(=O)NCCCCNC(=O)c2ccc(-c3c4nc(c(-c5ccc(S(=O)(=O)[O-])cc5)c5ccc([nH]5)c(-c5ccc(S(=O)(=O)[O-])cc5)c5nc(c(-c6ccc(S(=O)(=O)[O-])cc6)c6ccc3[nH]6)C=C5)C=C4)cc2)CCCCC1
REMARK SMILES IDX 13 1 12 2 11 3 9 4 10 5 8 7 7 8 79 9 83 10 80 11 82 12 81 13
REMARK SMILES IDX 6 14 5 15 1 16 2 17 3 18 4 19 14 21 15 22 16 23 17 24 18 26
REMARK SMILES IDX 19 27 20 28 78 29 21 30 77 31 22 32 23 33 24 34 71 35 25 36
REMARK SMILES IDX 76 37 70 38 72 39 26 40 75 41 69 42 68 43 27 45 57 46 38 47
REMARK SMILES IDX 56 48 39 49 42 50 55 51 73 52 40 53 41 54 54 56 74 57 43 58
REMARK SMILES IDX 28 59 29 60 37 61 30 62 36 63 31 64 32 65 33 66 34 67 35 68
REMARK SMILES IDX 58 69 59 70 67 71 60 72 66 73 61 74 62 75 63 76 64 77 65 78
REMARK SMILES IDX 44 79 45 80 53 81 46 82 52 83 47 84 48 85 49 86 50 87 51 88
REMARK H PARENT 11 6 5 20 16 25 72 44 42 55
REMARK Flexibility Score: inf
ROOT
ATOM      1  C   UNL A   1      31.616  28.094  27.248  1.00  0.00     0.023 C 
ENDROOT
BRANCH   1   2
ATOM      2  C   UNL A   1      30.959  27.317  26.105  1.00  0.00     0.116 C 
BRANCH   2   3
ATOM      3  N   UNL A   1      30.754  25.929  26.468  1.00  0.00    -0.356 N 
ATOM      4  C   UNL A   1      30.875  24.793  25.732  1.00  0.00     0.220 C 
ATOM      5  O   UNL A   1      30.609  23.720  26.278  1.00  0.00    -0.275 OA
ATOM      6  H   UNL A   1      30.482  25.785  27.403  1.00  0.00     0.163 HD
BRANCH   4   7
ATOM      7  C   UNL A   1      31.340  24.817  24.278  1.00  0.00     0.112 C 
BRANCH   7   8
ATOM      8  C   UNL A   1      32.851  24.470  23.949  1.00  0.00     0.028 C 
ATOM      9  C   UNL A   1      33.710  25.699  24.353  1.00  0.00     0.013 C 
ATOM     10  C   UNL A   1      33.058  24.301  22.429  1.00  0.00     0.013 C 
ATOM     11  C   UNL A   1      33.399  26.966  23.545  1.00  0.00     0.001 C 
ATOM     12  C   UNL A   1      32.741  25.533  21.580  1.00  0.00     0.001 C 
ATOM     13  C   UNL A   1      33.555  26.732  22.047  1.00  0.00     0.000 C 
BRANCH   8  14
ATOM     14  C   UNL A   1      33.242  23.179  24.787  1.00  0.00     0.269 C 
BRANCH  14  15
ATOM     15  N   UNL A   1      34.347  22.901  25.704  1.00  0.00    -0.332 N 
ATOM     16  C   UNL A   1      34.748  20.467  24.946  1.00  0.00     0.075 C 
ATOM     17  C   UNL A   1      34.907  21.570  25.966  1.00  0.00     0.186 C 
ATOM     18  C   UNL A   1      34.128  21.553  27.303  1.00  0.00     0.126 C 
ATOM     19  C   UNL A   1      34.069  23.090  27.133  1.00  0.00     0.268 C 
ATOM     20  H   UNL A   1      34.939  23.520  25.151  1.00  0.00     0.348 HD
ENDBRANCH  14  15
ENDBRANCH   8  14
ENDBRANCH   7   8
ENDBRANCH   4   7
ENDBRANCH   2   3
ENDBRANCH   1   2
BRANCH   1  21
ATOM     21  C   UNL A   1      33.135  28.059  27.277  1.00  0.00     0.023 C 
BRANCH  21  22
ATOM     22  C   UNL A   1      33.792  29.284  26.660  1.00  0.00     0.116 C 
BRANCH  22  23
ATOM     23  N   UNL A   1      33.696  30.494  27.471  1.00  0.00    -0.352 N 
ATOM     24  C   UNL A   1      34.641  31.006  28.339  1.00  0.00     0.251 C 
ATOM     25  H   UNL A   1      32.860  31.006  27.389  1.00  0.00     0.163 HD
ATOM     26  O   UNL A   1      34.420  32.007  28.998  1.00  0.00    -0.269 OA
BRANCH  24  27
ATOM     27  C   UNL A   1      35.909  30.261  28.482  1.00  0.00     0.039 A 
ATOM     28  C   UNL A   1      36.862  30.350  27.467  1.00  0.00     0.014 A 
ATOM     29  C   UNL A   1      36.201  29.622  29.688  1.00  0.00     0.014 A 
ATOM     30  C   UNL A   1      38.154  29.880  27.705  1.00  0.00     0.010 A 
ATOM     31  C   UNL A   1      37.509  29.248  29.955  1.00  0.00     0.010 A 
ATOM     32  C   UNL A   1      38.501  29.377  28.970  1.00  0.00    -0.014 A 
BRANCH  32  33
ATOM     33  C   UNL A   1      39.890  28.971  29.297  1.00  0.00     0.031 A 
ATOM     34  C   UNL A   1      40.809  29.955  29.965  1.00  0.00     0.074 A 
ATOM     35  C   UNL A   1      40.352  27.765  28.907  1.00  0.00     0.049 A 
ATOM     36  N   UNL A   1      42.086  29.852  30.218  1.00  0.00    -0.248 NA
ATOM     37  C   UNL A   1      40.220  31.247  30.359  1.00  0.00     0.031 C 
ATOM     38  C   UNL A   1      39.579  26.743  28.196  1.00  0.00     0.029 A 
ATOM     39  N   UNL A   1      41.594  27.199  29.048  1.00  0.00    -0.354 N 
ATOM     40  C   UNL A   1      42.462  31.076  30.759  1.00  0.00     0.074 A 
ATOM     41  C   UNL A   1      41.290  31.922  30.748  1.00  0.00     0.031 C 
ATOM     42  C   UNL A   1      40.354  25.664  27.996  1.00  0.00     0.029 A 
ATOM     43  C   UNL A   1      41.687  25.930  28.529  1.00  0.00     0.049 A 
ATOM     44  H   UNL A   1      42.349  27.660  29.481  1.00  0.00     0.167 HD
ATOM     45  C   UNL A   1      43.666  31.456  31.244  1.00  0.00     0.031 A 
ATOM     46  C   UNL A   1      42.728  25.076  28.488  1.00  0.00     0.031 A 
ATOM     47  C   UNL A   1      44.815  30.596  31.299  1.00  0.00     0.049 A 
ATOM     48  C   UNL A   1      44.042  25.496  29.088  1.00  0.00     0.074 A 
ATOM     49  C   UNL A   1      46.063  30.859  31.835  1.00  0.00     0.029 A 
ATOM     50  N   UNL A   1      44.850  29.298  30.814  1.00  0.00    -0.354 N 
ATOM     51  N   UNL A   1      44.363  26.641  29.642  1.00  0.00    -0.248 NA
ATOM     52  C   UNL A   1      45.127  24.506  29.067  1.00  0.00     0.031 C 
ATOM     53  C   UNL A   1      46.860  29.723  31.654  1.00  0.00     0.029 A 
ATOM     54  C   UNL A   1      46.097  28.744  31.038  1.00  0.00     0.049 A 
ATOM     55  H   UNL A   1      44.097  28.838  30.376  1.00  0.00     0.167 HD
ATOM     56  C   UNL A   1      45.682  26.500  30.059  1.00  0.00     0.074 A 
ATOM     57  C   UNL A   1      46.093  25.158  29.702  1.00  0.00     0.031 C 
ATOM     58  C   UNL A   1      46.480  27.402  30.682  1.00  0.00     0.031 A 
BRANCH  45  59
ATOM     59  C   UNL A   1      43.784  32.866  31.758  1.00  0.00    -0.014 A 
ATOM     60  C   UNL A   1      43.599  33.155  33.123  1.00  0.00     0.010 A 
ATOM     61  C   UNL A   1      44.068  33.915  30.866  1.00  0.00     0.010 A 
ATOM     62  C   UNL A   1      43.634  34.475  33.576  1.00  0.00     0.020 A 
ATOM     63  C   UNL A   1      44.132  35.234  31.322  1.00  0.00     0.020 A 
ATOM     64  C   UNL A   1      43.890  35.508  32.670  1.00  0.00     0.054 A 
BRANCH  64  65
ATOM     65  S   UNL A   1      43.921  37.216  33.280  1.00  0.00     0.124 S 
ATOM     66  O   UNL A   1      42.711  37.263  34.098  1.00  0.00    -0.237 OA
ATOM     67  O   UNL A   1      45.180  37.273  34.018  1.00  0.00    -0.237 OA
ATOM     68  O   UNL A   1      43.882  38.018  32.060  1.00  0.00    -0.744 OA
ENDBRANCH  64  65
ENDBRANCH  45  59
BRANCH  46  69
ATOM     69  C   UNL A   1      42.557  23.721  27.898  1.00  0.00    -0.014 A 
ATOM     70  C   UNL A   1      42.090  22.660  28.694  1.00  0.00     0.010 A 
ATOM     71  C   UNL A   1      42.836  23.487  26.541  1.00  0.00     0.010 A 
ATOM     72  C   UNL A   1      41.919  21.385  28.146  1.00  0.00     0.020 A 
ATOM     73  C   UNL A   1      42.648  22.218  25.985  1.00  0.00     0.020 A 
ATOM     74  C   UNL A   1      42.199  21.171  26.794  1.00  0.00     0.054 A 
BRANCH  74  75
ATOM     75  S   UNL A   1      41.913  19.524  26.090  1.00  0.00     0.124 S 
ATOM     76  O   UNL A   1      42.339  18.651  27.178  1.00  0.00    -0.237 OA
ATOM     77  O   UNL A   1      40.478  19.540  25.816  1.00  0.00    -0.237 OA
ATOM     78  O   UNL A   1      42.764  19.510  24.903  1.00  0.00    -0.744 OA
ENDBRANCH  74  75
ENDBRANCH  46  69
BRANCH  58  79
ATOM     79  C   UNL A   1      47.866  26.956  31.052  1.00  0.00    -0.014 A 
ATOM     80  C   UNL A   1      48.942  27.118  30.162  1.00  0.00     0.010 A 
ATOM     81  C   UNL A   1      48.105  26.431  32.336  1.00  0.00     0.010 A 
ATOM     82  C   UNL A   1      50.232  26.741  30.543  1.00  0.00     0.020 A 
ATOM     83  C   UNL A   1      49.396  26.074  32.727  1.00  0.00     0.020 A 
ATOM     84  C   UNL A   1      50.451  26.221  31.823  1.00  0.00     0.054 A 
BRANCH  84  85
ATOM     85  S   UNL A   1      52.142  25.793  32.316  1.00  0.00     0.124 S 
ATOM     86  O   UNL A   1      52.143  26.145  33.733  1.00  0.00    -0.237 OA
ATOM     87  O   UNL A   1      52.212  24.362  32.024  1.00  0.00    -0.237 OA
ATOM     88  O   UNL A   1      52.975  26.636  31.462  1.00  0.00    -0.744 OA
ENDBRANCH  84  85
ENDBRANCH  58  79
ENDBRANCH  32  33
ENDBRANCH  24  27
ENDBRANCH  22  23
ENDBRANCH  21  22
ENDBRANCH   1  21
TORSDOF 17
ENDMDL
MODEL 3
REMARK VINA RESULT:     -10.2      2.637      9.272
REMARK SMILES C[C@@H]1CC[N@@H+]1CC1(CC(=O)NCCCCNC(=O)c2ccc(-c3c4nc(c(-c5ccc(S(=O)(=O)[O-])cc5)c5ccc([nH]5)c(-c5ccc(S(=O)(=O)[O-])cc5)c5nc(c(-c6ccc(S(=O)(=O)[O-])cc6)c6ccc3[nH]6)C=C5)C=C4)cc2)CCCCC1
REMARK SMILES IDX 13 1 12 2 11 3 9 4 10 5 8 7 7 8 79 9 83 10 80 11 82 12 81 13
REMARK SMILES IDX 6 14 5 15 1 16 2 17 3 18 4 19 14 21 15 22 16 23 17 24 18 26
REMARK SMILES IDX 19 27 20 28 78 29 21 30 77 31 22 32 23 33 24 34 71 35 25 36
REMARK SMILES IDX 76 37 70 38 72 39 26 40 75 41 69 42 68 43 27 45 57 46 38 47
REMARK SMILES IDX 56 48 39 49 42 50 55 51 73 52 40 53 41 54 54 56 74 57 43 58
REMARK SMILES IDX 28 59 29 60 37 61 30 62 36 63 31 64 32 65 33 66 34 67 35 68
REMARK SMILES IDX 58 69 59 70 67 71 60 72 66 73 61 74 62 75 63 76 64 77 65 78
REMARK SMILES IDX 44 79 45 80 53 81 46 82 52 83 47 84 48 85 49 86 50 87 51 88
REMARK H PARENT 11 6 5 20 16 25 72 44 42 55
REMARK Flexibility Score: inf
ROOT
ATOM      1  C   UNL A   1      31.627  27.657  26.717  1.00  0.00     0.023 C 
ENDROOT
BRANCH   1   2
ATOM      2  C   UNL A   1      31.256  26.336  26.037  1.00  0.00     0.116 C 
BRANCH   2   3
ATOM      3  N   UNL A   1      31.448  25.215  26.936  1.00  0.00    -0.356 N 
ATOM      4  C   UNL A   1      31.909  23.959  26.699  1.00  0.00     0.220 C 
ATOM      5  O   UNL A   1      31.947  23.171  27.647  1.00  0.00    -0.275 OA
ATOM      6  H   UNL A   1      31.204  25.394  27.873  1.00  0.00     0.163 HD
BRANCH   4   7
ATOM      7  C   UNL A   1      32.384  23.518  25.317  1.00  0.00     0.112 C 
BRANCH   7   8
ATOM      8  C   UNL A   1      33.799  24.009  24.800  1.00  0.00     0.028 C 
ATOM      9  C   UNL A   1      34.362  22.906  23.863  1.00  0.00     0.013 C 
ATOM     10  C   UNL A   1      34.805  24.116  25.966  1.00  0.00     0.013 C 
ATOM     11  C   UNL A   1      34.629  21.570  24.569  1.00  0.00     0.001 C 
ATOM     12  C   UNL A   1      35.087  22.812  26.713  1.00  0.00     0.001 C 
ATOM     13  C   UNL A   1      35.576  21.737  25.752  1.00  0.00     0.000 C 
BRANCH   8  14
ATOM     14  C   UNL A   1      33.580  25.380  24.027  1.00  0.00     0.269 C 
BRANCH  14  15
ATOM     15  N   UNL A   1      33.204  25.680  22.646  1.00  0.00    -0.332 N 
ATOM     16  C   UNL A   1      33.867  28.173  22.698  1.00  0.00     0.075 C 
ATOM     17  C   UNL A   1      33.103  27.028  22.076  1.00  0.00     0.186 C 
ATOM     18  C   UNL A   1      31.565  26.918  22.203  1.00  0.00     0.126 C 
ATOM     19  C   UNL A   1      31.814  25.393  22.274  1.00  0.00     0.268 C 
ATOM     20  H   UNL A   1      34.004  25.132  22.327  1.00  0.00     0.348 HD
ENDBRANCH  14  15
ENDBRANCH   8  14
ENDBRANCH   7   8
ENDBRANCH   4   7
ENDBRANCH   2   3
ENDBRANCH   1   2
BRANCH   1  21
ATOM     21  C   UNL A   1      33.113  27.881  26.944  1.00  0.00     0.023 C 
BRANCH  21  22
ATOM     22  C   UNL A   1      33.676  29.082  26.201  1.00  0.00     0.116 C 
BRANCH  22  23
ATOM     23  N   UNL A   1      33.506  30.356  26.894  1.00  0.00    -0.352 N 
ATOM     24  C   UNL A   1      34.355  30.936  27.816  1.00  0.00     0.251 C 
ATOM     25  H   UNL A   1      32.689  30.861  26.680  1.00  0.00     0.163 HD
ATOM     26  O   UNL A   1      34.075  31.988  28.363  1.00  0.00    -0.269 OA
BRANCH  24  27
ATOM     27  C   UNL A   1      35.592  30.202  28.159  1.00  0.00     0.039 A 
ATOM     28  C   UNL A   1      36.671  30.251  27.278  1.00  0.00     0.014 A 
ATOM     29  C   UNL A   1      35.718  29.616  29.420  1.00  0.00     0.014 A 
ATOM     30  C   UNL A   1      37.920  29.797  27.706  1.00  0.00     0.010 A 
ATOM     31  C   UNL A   1      36.979  29.259  29.875  1.00  0.00     0.010 A 
ATOM     32  C   UNL A   1      38.093  29.350  29.027  1.00  0.00    -0.014 A 
BRANCH  32  33
ATOM     33  C   UNL A   1      39.425  28.963  29.553  1.00  0.00     0.031 A 
ATOM     34  C   UNL A   1      40.163  29.908  30.460  1.00  0.00     0.074 A 
ATOM     35  C   UNL A   1      40.011  27.820  29.140  1.00  0.00     0.049 A 
ATOM     36  N   UNL A   1      41.382  29.826  30.923  1.00  0.00    -0.248 NA
ATOM     37  C   UNL A   1      39.448  31.132  30.862  1.00  0.00     0.031 C 
ATOM     38  C   UNL A   1      39.426  26.847  28.212  1.00  0.00     0.029 A 
ATOM     39  N   UNL A   1      41.239  27.288  29.443  1.00  0.00    -0.354 N 
ATOM     40  C   UNL A   1      41.594  31.003  31.632  1.00  0.00     0.074 A 
ATOM     41  C   UNL A   1      40.398  31.803  31.494  1.00  0.00     0.031 C 
ATOM     42  C   UNL A   1      40.280  25.823  28.053  1.00  0.00     0.029 A 
ATOM     43  C   UNL A   1      41.486  26.082  28.833  1.00  0.00     0.049 A 
ATOM     44  H   UNL A   1      41.883  27.730  30.043  1.00  0.00     0.167 HD
ATOM     45  C   UNL A   1      42.676  31.375  32.354  1.00  0.00     0.031 A 
ATOM     46  C   UNL A   1      42.562  25.274  28.896  1.00  0.00     0.031 A 
ATOM     47  C   UNL A   1      43.843  30.556  32.529  1.00  0.00     0.049 A 
ATOM     48  C   UNL A   1      43.730  25.679  29.754  1.00  0.00     0.074 A 
ATOM     49  C   UNL A   1      44.965  30.808  33.298  1.00  0.00     0.029 A 
ATOM     50  N   UNL A   1      44.028  29.315  31.940  1.00  0.00    -0.354 N 
ATOM     51  N   UNL A   1      43.891  26.773  30.459  1.00  0.00    -0.248 NA
ATOM     52  C   UNL A   1      44.854  24.736  29.832  1.00  0.00     0.031 C 
ATOM     53  C   UNL A   1      45.840  29.726  33.155  1.00  0.00     0.029 A 
ATOM     54  C   UNL A   1      45.246  28.786  32.326  1.00  0.00     0.049 A 
ATOM     55  H   UNL A   1      43.387  28.875  31.336  1.00  0.00     0.167 HD
ATOM     56  C   UNL A   1      45.124  26.639  31.087  1.00  0.00     0.074 A 
ATOM     57  C   UNL A   1      45.661  25.355  30.684  1.00  0.00     0.031 C 
ATOM     58  C   UNL A   1      45.755  27.502  31.920  1.00  0.00     0.031 A 
BRANCH  45  59
ATOM     59  C   UNL A   1      42.629  32.729  33.008  1.00  0.00    -0.014 A 
ATOM     60  C   UNL A   1      42.151  32.880  34.324  1.00  0.00     0.010 A 
ATOM     61  C   UNL A   1      43.054  33.866  32.298  1.00  0.00     0.010 A 
ATOM     62  C   UNL A   1      42.040  34.149  34.893  1.00  0.00     0.020 A 
ATOM     63  C   UNL A   1      42.971  35.135  32.877  1.00  0.00     0.020 A 
ATOM     64  C   UNL A   1      42.441  35.270  34.162  1.00  0.00     0.054 A 
BRANCH  64  65
ATOM     65  S   UNL A   1      42.278  36.910  34.920  1.00  0.00     0.124 S 
ATOM     66  O   UNL A   1      42.745  37.783  33.845  1.00  0.00    -0.237 OA
ATOM     67  O   UNL A   1      40.850  36.990  35.217  1.00  0.00    -0.237 OA
ATOM     68  O   UNL A   1      43.150  36.838  36.089  1.00  0.00    -0.744 OA
ENDBRANCH  64  65
ENDBRANCH  45  59
BRANCH  46  69
ATOM     69  C   UNL A   1      42.566  23.980  28.163  1.00  0.00    -0.014 A 
ATOM     70  C   UNL A   1      42.254  22.787  28.837  1.00  0.00     0.010 A 
ATOM     71  C   UNL A   1      42.860  23.934  26.789  1.00  0.00     0.010 A 
ATOM     72  C   UNL A   1      42.249  21.567  28.154  1.00  0.00     0.020 A 
ATOM     73  C   UNL A   1      42.836  22.718  26.098  1.00  0.00     0.020 A 
ATOM     74  C   UNL A   1      42.539  21.540  26.788  1.00  0.00     0.054 A 
BRANCH  74  75
ATOM     75  S   UNL A   1      42.467  19.955  25.908  1.00  0.00     0.124 S 
ATOM     76  O   UNL A   1      42.683  18.998  26.989  1.00  0.00    -0.237 OA
ATOM     77  O   UNL A   1      41.123  19.969  25.335  1.00  0.00    -0.237 OA
ATOM     78  O   UNL A   1      43.551  20.058  24.934  1.00  0.00    -0.744 OA
ENDBRANCH  74  75
ENDBRANCH  46  69
BRANCH  58  79
ATOM     79  C   UNL A   1      47.079  27.071  32.485  1.00  0.00    -0.014 A 
ATOM     80  C   UNL A   1      48.285  27.412  31.848  1.00  0.00     0.010 A 
ATOM     81  C   UNL A   1      47.117  26.375  33.707  1.00  0.00     0.010 A 
ATOM     82  C   UNL A   1      49.508  27.044  32.413  1.00  0.00     0.020 A 
ATOM     83  C   UNL A   1      48.338  26.025  34.286  1.00  0.00     0.020 A 
ATOM     84  C   UNL A   1      49.526  26.352  33.629  1.00  0.00     0.054 A 
BRANCH  84  85
ATOM     85  S   UNL A   1      51.126  25.935  34.375  1.00  0.00     0.124 S 
ATOM     86  O   UNL A   1      52.056  26.254  33.296  1.00  0.00    -0.237 OA
ATOM     87  O   UNL A   1      51.182  26.820  35.536  1.00  0.00    -0.237 OA
ATOM     88  O   UNL A   1      50.999  24.514  34.690  1.00  0.00    -0.744 OA
ENDBRANCH  84  85
ENDBRANCH  58  79
ENDBRANCH  32  33
ENDBRANCH  24  27
ENDBRANCH  22  23
ENDBRANCH  21  22
ENDBRANCH   1  21
TORSDOF 17
ENDMDL
