MODEL 1
REMARK VINA RESULT:     -11.4      0.000      0.000
REMARK SMILES Cc1cc2c(c(C)c1Br)C=C(C(=O)NCCCCNC(=O)c1ccc(-c3c4nc(c(-c5ccc(S(=O)(=O)[O-])cc5)c5ccc([nH]5)c(-c5ccc(S(=O)(=O)[O-])cc5)c5nc(c(-c6ccc(S(=O)(=O)[O-])cc6)c6ccc3[nH]6)C=C5)C=C4)cc1)[C@@H](C(F)(F)F)O2
REMARK SMILES IDX 17 1 16 2 15 3 14 4 12 5 13 6 11 8 1 9 2 10 3 11 8 12 4 13
REMARK SMILES IDX 6 14 9 15 5 16 87 17 7 18 10 19 82 20 83 21 84 22 85 23
REMARK SMILES IDX 86 24 18 25 19 26 20 27 21 29 22 30 23 31 81 32 24 33 80 34
REMARK SMILES IDX 25 35 26 36 27 37 74 38 28 39 79 40 73 41 75 42 29 43 78 44
REMARK SMILES IDX 72 45 71 46 30 48 60 49 41 50 59 51 42 52 45 53 58 54 76 55
REMARK SMILES IDX 43 56 44 57 57 59 77 60 46 61 31 62 32 63 40 64 33 65 39 66
REMARK SMILES IDX 34 67 35 68 36 69 37 70 38 71 61 72 62 73 70 74 63 75 69 76
REMARK SMILES IDX 64 77 65 78 66 79 67 80 68 81 47 82 48 83 56 84 49 85 55 86
REMARK SMILES IDX 50 87 51 88 52 89 53 90 54 91
REMARK H PARENT 14 7 19 28 75 47 45 58
REMARK Flexibility Score: inf
ROOT
ATOM      1  C   UNL A   1      33.967  27.972  25.672  1.00  0.00     0.023 C 
ENDROOT
BRANCH   1   2
ATOM      2  C   UNL A   1      32.865  28.192  24.631  1.00  0.00     0.023 C 
BRANCH   2   3
ATOM      3  C   UNL A   1      32.172  26.910  24.179  1.00  0.00     0.116 C 
BRANCH   3   4
ATOM      4  N   UNL A   1      31.415  26.296  25.257  1.00  0.00    -0.352 N 
ATOM      5  C   UNL A   1      31.378  25.097  25.881  1.00  0.00     0.251 C 
ATOM      6  O   UNL A   1      30.537  24.998  26.780  1.00  0.00    -0.270 OA
ATOM      7  H   UNL A   1      30.752  26.919  25.633  1.00  0.00     0.163 HD
BRANCH   5   8
ATOM      8  C   UNL A   1      32.259  23.930  25.568  1.00  0.00     0.067 C 
ATOM      9  C   UNL A   1      37.016  19.554  24.816  1.00  0.00     0.046 C 
ATOM     10  C   UNL A   1      36.206  20.791  25.096  1.00  0.00    -0.033 A 
ATOM     11  C   UNL A   1      34.819  20.686  24.941  1.00  0.00     0.051 A 
ATOM     12  C   UNL A   1      36.745  22.010  25.562  1.00  0.00     0.024 A 
ATOM     13  C   UNL A   1      33.988  21.769  25.202  1.00  0.00     0.128 A 
ATOM     14  C   UNL A   1      35.908  23.130  25.816  1.00  0.00    -0.026 A 
ATOM     15  Br  UNL A   1      38.629  22.113  25.884  1.00  0.00    -0.050 Br
ATOM     16  C   UNL A   1      34.507  22.988  25.640  1.00  0.00     0.021 A 
ATOM     17  O   UNL A   1      32.653  21.531  25.049  1.00  0.00    -0.475 OA
ATOM     18  C   UNL A   1      36.453  24.460  26.285  1.00  0.00     0.046 C 
ATOM     19  C   UNL A   1      33.547  24.056  25.941  1.00  0.00     0.026 C 
ATOM     20  C   UNL A   1      31.806  22.693  24.852  1.00  0.00     0.314 C 
BRANCH  20  21
ATOM     21  C   UNL A   1      31.596  22.917  23.343  1.00  0.00     0.429 C 
ATOM     22  F   UNL A   1      32.527  23.780  22.860  1.00  0.00    -0.167 F 
ATOM     23  F   UNL A   1      31.721  21.778  22.624  1.00  0.00    -0.167 F 
ATOM     24  F   UNL A   1      30.380  23.434  23.058  1.00  0.00    -0.167 F 
ENDBRANCH  20  21
ENDBRANCH   5   8
ENDBRANCH   3   4
ENDBRANCH   2   3
ENDBRANCH   1   2
BRANCH   1  25
ATOM     25  C   UNL A   1      33.570  28.262  27.119  1.00  0.00     0.116 C 
BRANCH  25  26
ATOM     26  N   UNL A   1      33.435  29.682  27.410  1.00  0.00    -0.352 N 
ATOM     27  C   UNL A   1      34.366  30.532  27.956  1.00  0.00     0.251 C 
ATOM     28  H   UNL A   1      32.564  30.084  27.188  1.00  0.00     0.163 HD
ATOM     29  O   UNL A   1      34.062  31.688  28.231  1.00  0.00    -0.269 OA
BRANCH  27  30
ATOM     30  C   UNL A   1      35.722  30.024  28.238  1.00  0.00     0.039 A 
ATOM     31  C   UNL A   1      36.689  30.096  27.234  1.00  0.00     0.014 A 
ATOM     32  C   UNL A   1      36.039  29.518  29.501  1.00  0.00     0.014 A 
ATOM     33  C   UNL A   1      38.001  29.713  27.516  1.00  0.00     0.010 A 
ATOM     34  C   UNL A   1      37.357  29.190  29.797  1.00  0.00     0.010 A 
ATOM     35  C   UNL A   1      38.347  29.284  28.807  1.00  0.00    -0.014 A 
BRANCH  35  36
ATOM     36  C   UNL A   1      39.739  28.896  29.141  1.00  0.00     0.031 A 
ATOM     37  C   UNL A   1      40.639  29.885  29.825  1.00  0.00     0.074 A 
ATOM     38  C   UNL A   1      40.203  27.683  28.782  1.00  0.00     0.049 A 
ATOM     39  N   UNL A   1      41.909  29.779  30.116  1.00  0.00    -0.248 NA
ATOM     40  C   UNL A   1      40.035  31.171  30.214  1.00  0.00     0.031 C 
ATOM     41  C   UNL A   1      39.427  26.644  28.100  1.00  0.00     0.029 A 
ATOM     42  N   UNL A   1      41.444  27.123  28.940  1.00  0.00    -0.354 N 
ATOM     43  C   UNL A   1      42.261  30.986  30.708  1.00  0.00     0.074 A 
ATOM     44  C   UNL A   1      41.082  31.826  30.694  1.00  0.00     0.031 C 
ATOM     45  C   UNL A   1      40.205  25.563  27.924  1.00  0.00     0.029 A 
ATOM     46  C   UNL A   1      41.539  25.846  28.442  1.00  0.00     0.049 A 
ATOM     47  H   UNL A   1      42.196  27.591  29.369  1.00  0.00     0.167 HD
ATOM     48  C   UNL A   1      43.452  31.356  31.235  1.00  0.00     0.031 A 
ATOM     49  C   UNL A   1      42.587  25.000  28.405  1.00  0.00     0.031 A 
ATOM     50  C   UNL A   1      44.618  30.516  31.258  1.00  0.00     0.049 A 
ATOM     51  C   UNL A   1      43.905  25.442  28.975  1.00  0.00     0.074 A 
ATOM     52  C   UNL A   1      45.866  30.788  31.789  1.00  0.00     0.029 A 
ATOM     53  N   UNL A   1      44.677  29.234  30.734  1.00  0.00    -0.354 N 
ATOM     54  N   UNL A   1      44.217  26.585  29.540  1.00  0.00    -0.248 NA
ATOM     55  C   UNL A   1      45.013  24.479  28.905  1.00  0.00     0.031 C 
ATOM     56  C   UNL A   1      46.690  29.681  31.556  1.00  0.00     0.029 A 
ATOM     57  C   UNL A   1      45.942  28.704  30.918  1.00  0.00     0.049 A 
ATOM     58  H   UNL A   1      43.929  28.767  30.295  1.00  0.00     0.167 HD
ATOM     59  C   UNL A   1      45.554  26.473  29.905  1.00  0.00     0.074 A 
ATOM     60  C   UNL A   1      45.985  25.145  29.515  1.00  0.00     0.031 C 
ATOM     61  C   UNL A   1      46.354  27.386  30.508  1.00  0.00     0.031 A 
BRANCH  48  62
ATOM     62  C   UNL A   1      43.541  32.734  31.828  1.00  0.00    -0.014 A 
ATOM     63  C   UNL A   1      43.395  32.933  33.214  1.00  0.00     0.010 A 
ATOM     64  C   UNL A   1      43.792  33.842  30.999  1.00  0.00     0.010 A 
ATOM     65  C   UNL A   1      43.457  34.219  33.754  1.00  0.00     0.020 A 
ATOM     66  C   UNL A   1      43.878  35.129  31.540  1.00  0.00     0.020 A 
ATOM     67  C   UNL A   1      43.693  35.310  32.912  1.00  0.00     0.054 A 
BRANCH  67  68
ATOM     68  S   UNL A   1      43.782  36.967  33.644  1.00  0.00     0.124 S 
ATOM     69  O   UNL A   1      44.130  37.789  32.488  1.00  0.00    -0.237 OA
ATOM     70  O   UNL A   1      42.433  37.159  34.169  1.00  0.00    -0.237 OA
ATOM     71  O   UNL A   1      44.829  36.842  34.656  1.00  0.00    -0.744 OA
ENDBRANCH  67  68
ENDBRANCH  48  62
BRANCH  49  72
ATOM     72  C   UNL A   1      42.424  23.641  27.823  1.00  0.00    -0.014 A 
ATOM     73  C   UNL A   1      42.693  23.420  26.461  1.00  0.00     0.010 A 
ATOM     74  C   UNL A   1      42.020  22.560  28.627  1.00  0.00     0.010 A 
ATOM     75  C   UNL A   1      42.555  22.142  25.910  1.00  0.00     0.020 A 
ATOM     76  C   UNL A   1      41.901  21.277  28.085  1.00  0.00     0.020 A 
ATOM     77  C   UNL A   1      42.163  21.078  26.728  1.00  0.00     0.054 A 
BRANCH  77  78
ATOM     78  S   UNL A   1      42.054  19.416  26.005  1.00  0.00     0.124 S 
ATOM     79  O   UNL A   1      42.597  18.584  27.073  1.00  0.00    -0.237 OA
ATOM     80  O   UNL A   1      40.621  19.273  25.758  1.00  0.00    -0.237 OA
ATOM     81  O   UNL A   1      42.879  19.513  24.803  1.00  0.00    -0.744 OA
ENDBRANCH  77  78
ENDBRANCH  49  72
BRANCH  61  82
ATOM     82  C   UNL A   1      47.772  26.975  30.790  1.00  0.00    -0.014 A 
ATOM     83  C   UNL A   1      48.803  27.268  29.881  1.00  0.00     0.010 A 
ATOM     84  C   UNL A   1      48.083  26.326  31.999  1.00  0.00     0.010 A 
ATOM     85  C   UNL A   1      50.118  26.890  30.161  1.00  0.00     0.020 A 
ATOM     86  C   UNL A   1      49.400  25.966  32.293  1.00  0.00     0.020 A 
ATOM     87  C   UNL A   1      50.407  26.238  31.364  1.00  0.00     0.054 A 
BRANCH  87  88
ATOM     88  S   UNL A   1      52.127  25.785  31.721  1.00  0.00     0.124 S 
ATOM     89  O   UNL A   1      52.780  26.045  30.440  1.00  0.00    -0.237 OA
ATOM     90  O   UNL A   1      52.483  26.697  32.804  1.00  0.00    -0.237 OA
ATOM     91  O   UNL A   1      52.042  24.377  32.103  1.00  0.00    -0.744 OA
ENDBRANCH  87  88
ENDBRANCH  61  82
ENDBRANCH  35  36
ENDBRANCH  27  30
ENDBRANCH  25  26
ENDBRANCH   1  25
TORSDOF 15
ENDMDL
MODEL 2
REMARK VINA RESULT:     -11.3      2.895      9.282
REMARK SMILES Cc1cc2c(c(C)c1Br)C=C(C(=O)NCCCCNC(=O)c1ccc(-c3c4nc(c(-c5ccc(S(=O)(=O)[O-])cc5)c5ccc([nH]5)c(-c5ccc(S(=O)(=O)[O-])cc5)c5nc(c(-c6ccc(S(=O)(=O)[O-])cc6)c6ccc3[nH]6)C=C5)C=C4)cc1)[C@@H](C(F)(F)F)O2
REMARK SMILES IDX 17 1 16 2 15 3 14 4 12 5 13 6 11 8 1 9 2 10 3 11 8 12 4 13
REMARK SMILES IDX 6 14 9 15 5 16 87 17 7 18 10 19 82 20 83 21 84 22 85 23
REMARK SMILES IDX 86 24 18 25 19 26 20 27 21 29 22 30 23 31 81 32 24 33 80 34
REMARK SMILES IDX 25 35 26 36 27 37 74 38 28 39 79 40 73 41 75 42 29 43 78 44
REMARK SMILES IDX 72 45 71 46 30 48 60 49 41 50 59 51 42 52 45 53 58 54 76 55
REMARK SMILES IDX 43 56 44 57 57 59 77 60 46 61 31 62 32 63 40 64 33 65 39 66
REMARK SMILES IDX 34 67 35 68 36 69 37 70 38 71 61 72 62 73 70 74 63 75 69 76
REMARK SMILES IDX 64 77 65 78 66 79 67 80 68 81 47 82 48 83 56 84 49 85 55 86
REMARK SMILES IDX 50 87 51 88 52 89 53 90 54 91
REMARK H PARENT 14 7 19 28 75 47 45 58
REMARK Flexibility Score: inf
ROOT
ATOM      1  C   UNL A   1      35.237  23.104  26.475  1.00  0.00     0.023 C 
ENDROOT
BRANCH   1   2
ATOM      2  C   UNL A   1      33.956  23.868  26.129  1.00  0.00     0.023 C 
BRANCH   2   3
ATOM      3  C   UNL A   1      33.116  23.211  25.039  1.00  0.00     0.116 C 
BRANCH   3   4
ATOM      4  N   UNL A   1      33.474  23.693  23.716  1.00  0.00    -0.352 N 
ATOM      5  C   UNL A   1      33.343  24.841  23.013  1.00  0.00     0.251 C 
ATOM      6  O   UNL A   1      33.805  24.811  21.867  1.00  0.00    -0.270 OA
ATOM      7  H   UNL A   1      33.935  22.999  23.191  1.00  0.00     0.163 HD
BRANCH   5   8
ATOM      8  C   UNL A   1      32.705  26.096  23.514  1.00  0.00     0.067 C 
ATOM      9  C   UNL A   1      31.088  31.766  26.268  1.00  0.00     0.046 C 
ATOM     10  C   UNL A   1      31.767  30.486  25.860  1.00  0.00    -0.033 A 
ATOM     11  C   UNL A   1      31.146  29.735  24.855  1.00  0.00     0.051 A 
ATOM     12  C   UNL A   1      33.004  30.039  26.373  1.00  0.00     0.024 A 
ATOM     13  C   UNL A   1      31.712  28.552  24.396  1.00  0.00     0.128 A 
ATOM     14  C   UNL A   1      33.585  28.823  25.924  1.00  0.00    -0.026 A 
ATOM     15  Br  UNL A   1      33.906  31.130  27.662  1.00  0.00    -0.050 Br
ATOM     16  C   UNL A   1      32.922  28.084  24.911  1.00  0.00     0.021 A 
ATOM     17  O   UNL A   1      31.031  27.930  23.391  1.00  0.00    -0.475 OA
ATOM     18  C   UNL A   1      34.891  28.298  26.474  1.00  0.00     0.046 C 
ATOM     19  C   UNL A   1      33.468  26.853  24.325  1.00  0.00     0.026 C 
ATOM     20  C   UNL A   1      31.300  26.516  23.204  1.00  0.00     0.314 C 
BRANCH  20  21
ATOM     21  C   UNL A   1      30.246  25.694  23.971  1.00  0.00     0.429 C 
ATOM     22  F   UNL A   1      29.045  26.326  23.944  1.00  0.00    -0.167 F 
ATOM     23  F   UNL A   1      30.047  24.469  23.432  1.00  0.00    -0.167 F 
ATOM     24  F   UNL A   1      30.575  25.507  25.269  1.00  0.00    -0.167 F 
ENDBRANCH  20  21
ENDBRANCH   5   8
ENDBRANCH   3   4
ENDBRANCH   2   3
ENDBRANCH   1   2
BRANCH   1  25
ATOM     25  C   UNL A   1      36.531  23.709  25.930  1.00  0.00     0.116 C 
BRANCH  25  26
ATOM     26  N   UNL A   1      37.652  22.782  25.933  1.00  0.00    -0.352 N 
ATOM     27  C   UNL A   1      38.942  23.006  26.351  1.00  0.00     0.251 C 
ATOM     28  H   UNL A   1      37.463  21.879  25.591  1.00  0.00     0.163 HD
ATOM     29  O   UNL A   1      39.801  22.144  26.197  1.00  0.00    -0.269 OA
BRANCH  27  30
ATOM     30  C   UNL A   1      39.283  24.308  26.954  1.00  0.00     0.039 A 
ATOM     31  C   UNL A   1      38.944  24.541  28.289  1.00  0.00     0.014 A 
ATOM     32  C   UNL A   1      39.970  25.273  26.212  1.00  0.00     0.014 A 
ATOM     33  C   UNL A   1      39.349  25.727  28.902  1.00  0.00     0.010 A 
ATOM     34  C   UNL A   1      40.421  26.428  26.840  1.00  0.00     0.010 A 
ATOM     35  C   UNL A   1      40.113  26.665  28.189  1.00  0.00    -0.014 A 
BRANCH  35  36
ATOM     36  C   UNL A   1      40.578  27.921  28.824  1.00  0.00     0.031 A 
ATOM     37  C   UNL A   1      41.983  28.011  29.346  1.00  0.00     0.074 A 
ATOM     38  C   UNL A   1      39.724  28.952  28.978  1.00  0.00     0.049 A 
ATOM     39  N   UNL A   1      42.554  28.977  30.016  1.00  0.00    -0.248 NA
ATOM     40  C   UNL A   1      42.856  26.850  29.099  1.00  0.00     0.031 C 
ATOM     41  C   UNL A   1      38.331  28.977  28.526  1.00  0.00     0.029 A 
ATOM     42  N   UNL A   1      39.906  30.178  29.564  1.00  0.00    -0.354 N 
ATOM     43  C   UNL A   1      43.844  28.539  30.283  1.00  0.00     0.074 A 
ATOM     44  C   UNL A   1      43.959  27.201  29.743  1.00  0.00     0.031 C 
ATOM     45  C   UNL A   1      37.795  30.172  28.827  1.00  0.00     0.029 A 
ATOM     46  C   UNL A   1      38.790  30.978  29.527  1.00  0.00     0.049 A 
ATOM     47  H   UNL A   1      40.757  30.459  29.973  1.00  0.00     0.167 HD
ATOM     48  C   UNL A   1      44.851  29.197  30.905  1.00  0.00     0.031 A 
ATOM     49  C   UNL A   1      38.590  32.221  30.006  1.00  0.00     0.031 A 
ATOM     50  C   UNL A   1      44.739  30.530  31.432  1.00  0.00     0.049 A 
ATOM     51  C   UNL A   1      39.717  32.923  30.713  1.00  0.00     0.074 A 
ATOM     52  C   UNL A   1      45.706  31.293  32.058  1.00  0.00     0.029 A 
ATOM     53  N   UNL A   1      43.588  31.301  31.383  1.00  0.00    -0.354 N 
ATOM     54  N   UNL A   1      40.934  32.495  30.949  1.00  0.00    -0.248 NA
ATOM     55  C   UNL A   1      39.441  34.275  31.217  1.00  0.00     0.031 C 
ATOM     56  C   UNL A   1      45.130  32.516  32.420  1.00  0.00     0.029 A 
ATOM     57  C   UNL A   1      43.816  32.529  31.979  1.00  0.00     0.049 A 
ATOM     58  H   UNL A   1      42.733  31.018  30.985  1.00  0.00     0.167 HD
ATOM     59  C   UNL A   1      41.576  33.532  31.617  1.00  0.00     0.074 A 
ATOM     60  C   UNL A   1      40.617  34.614  31.730  1.00  0.00     0.031 C 
ATOM     61  C   UNL A   1      42.843  33.585  32.095  1.00  0.00     0.031 A 
BRANCH  48  62
ATOM     62  C   UNL A   1      46.161  28.472  31.044  1.00  0.00    -0.014 A 
ATOM     63  C   UNL A   1      46.407  27.634  32.148  1.00  0.00     0.010 A 
ATOM     64  C   UNL A   1      47.151  28.612  30.056  1.00  0.00     0.010 A 
ATOM     65  C   UNL A   1      47.635  26.983  32.281  1.00  0.00     0.020 A 
ATOM     66  C   UNL A   1      48.373  27.942  30.173  1.00  0.00     0.020 A 
ATOM     67  C   UNL A   1      48.613  27.145  31.295  1.00  0.00     0.054 A 
BRANCH  67  68
ATOM     68  S   UNL A   1      50.192  26.274  31.487  1.00  0.00     0.124 S 
ATOM     69  O   UNL A   1      50.056  25.187  30.521  1.00  0.00    -0.237 OA
ATOM     70  O   UNL A   1      51.170  27.303  31.142  1.00  0.00    -0.237 OA
ATOM     71  O   UNL A   1      50.193  25.865  32.890  1.00  0.00    -0.744 OA
ENDBRANCH  67  68
ENDBRANCH  48  62
BRANCH  49  72
ATOM     72  C   UNL A   1      37.275  32.889  29.814  1.00  0.00    -0.014 A 
ATOM     73  C   UNL A   1      36.293  32.813  30.816  1.00  0.00     0.010 A 
ATOM     74  C   UNL A   1      37.006  33.619  28.643  1.00  0.00     0.010 A 
ATOM     75  C   UNL A   1      35.060  33.450  30.649  1.00  0.00     0.020 A 
ATOM     76  C   UNL A   1      35.782  34.274  28.480  1.00  0.00     0.020 A 
ATOM     77  C   UNL A   1      34.814  34.180  29.482  1.00  0.00     0.054 A 
BRANCH  77  78
ATOM     78  S   UNL A   1      33.231  35.052  29.315  1.00  0.00     0.124 S 
ATOM     79  O   UNL A   1      32.683  34.947  30.663  1.00  0.00    -0.237 OA
ATOM     80  O   UNL A   1      33.650  36.391  28.905  1.00  0.00    -0.237 OA
ATOM     81  O   UNL A   1      32.527  34.287  28.289  1.00  0.00    -0.744 OA
ENDBRANCH  77  78
ENDBRANCH  49  72
BRANCH  61  82
ATOM     82  C   UNL A   1      43.266  34.857  32.774  1.00  0.00    -0.014 A 
ATOM     83  C   UNL A   1      43.848  35.907  32.042  1.00  0.00     0.010 A 
ATOM     84  C   UNL A   1      43.040  35.022  34.152  1.00  0.00     0.010 A 
ATOM     85  C   UNL A   1      44.226  37.089  32.683  1.00  0.00     0.020 A 
ATOM     86  C   UNL A   1      43.396  36.210  34.793  1.00  0.00     0.020 A 
ATOM     87  C   UNL A   1      44.001  37.231  34.056  1.00  0.00     0.054 A 
BRANCH  87  88
ATOM     88  S   UNL A   1      44.471  38.787  34.862  1.00  0.00     0.124 S 
ATOM     89  O   UNL A   1      43.526  39.732  34.271  1.00  0.00    -0.237 OA
ATOM     90  O   UNL A   1      44.263  38.493  36.277  1.00  0.00    -0.237 OA
ATOM     91  O   UNL A   1      45.866  38.972  34.469  1.00  0.00    -0.744 OA
ENDBRANCH  87  88
ENDBRANCH  61  82
ENDBRANCH  35  36
ENDBRANCH  27  30
ENDBRANCH  25  26
ENDBRANCH   1  25
TORSDOF 15
ENDMDL
MODEL 3
REMARK VINA RESULT:     -10.7      1.290      2.110
REMARK SMILES Cc1cc2c(c(C)c1Br)C=C(C(=O)NCCCCNC(=O)c1ccc(-c3c4nc(c(-c5ccc(S(=O)(=O)[O-])cc5)c5ccc([nH]5)c(-c5ccc(S(=O)(=O)[O-])cc5)c5nc(c(-c6ccc(S(=O)(=O)[O-])cc6)c6ccc3[nH]6)C=C5)C=C4)cc1)[C@@H](C(F)(F)F)O2
REMARK SMILES IDX 17 1 16 2 15 3 14 4 12 5 13 6 11 8 1 9 2 10 3 11 8 12 4 13
REMARK SMILES IDX 6 14 9 15 5 16 87 17 7 18 10 19 82 20 83 21 84 22 85 23
REMARK SMILES IDX 86 24 18 25 19 26 20 27 21 29 22 30 23 31 81 32 24 33 80 34
REMARK SMILES IDX 25 35 26 36 27 37 74 38 28 39 79 40 73 41 75 42 29 43 78 44
REMARK SMILES IDX 72 45 71 46 30 48 60 49 41 50 59 51 42 52 45 53 58 54 76 55
REMARK SMILES IDX 43 56 44 57 57 59 77 60 46 61 31 62 32 63 40 64 33 65 39 66
REMARK SMILES IDX 34 67 35 68 36 69 37 70 38 71 61 72 62 73 70 74 63 75 69 76
REMARK SMILES IDX 64 77 65 78 66 79 67 80 68 81 47 82 48 83 56 84 49 85 55 86
REMARK SMILES IDX 50 87 51 88 52 89 53 90 54 91
REMARK H PARENT 14 7 19 28 75 47 45 58
REMARK Flexibility Score: inf
ROOT
ATOM      1  C   UNL A   1      34.439  28.290  25.049  1.00  0.00     0.023 C 
ENDROOT
BRANCH   1   2
ATOM      2  C   UNL A   1      33.600  29.239  24.188  1.00  0.00     0.023 C 
BRANCH   2   3
ATOM      3  C   UNL A   1      33.709  28.977  22.689  1.00  0.00     0.116 C 
BRANCH   3   4
ATOM      4  N   UNL A   1      32.509  28.352  22.161  1.00  0.00    -0.352 N 
ATOM      5  C   UNL A   1      31.742  27.277  22.456  1.00  0.00     0.251 C 
ATOM      6  O   UNL A   1      30.775  27.100  21.709  1.00  0.00    -0.270 OA
ATOM      7  H   UNL A   1      32.161  28.839  21.380  1.00  0.00     0.163 HD
BRANCH   5   8
ATOM      8  C   UNL A   1      31.979  26.329  23.587  1.00  0.00     0.067 C 
ATOM      9  C   UNL A   1      33.942  21.710  27.730  1.00  0.00     0.046 C 
ATOM     10  C   UNL A   1      33.707  22.584  26.527  1.00  0.00    -0.033 A 
ATOM     11  C   UNL A   1      32.903  23.714  26.714  1.00  0.00     0.051 A 
ATOM     12  C   UNL A   1      34.292  22.371  25.259  1.00  0.00     0.024 A 
ATOM     13  C   UNL A   1      32.651  24.592  25.667  1.00  0.00     0.128 A 
ATOM     14  C   UNL A   1      34.029  23.251  24.176  1.00  0.00    -0.026 A 
ATOM     15  Br  UNL A   1      35.484  20.890  25.040  1.00  0.00    -0.050 Br
ATOM     16  C   UNL A   1      33.202  24.382  24.401  1.00  0.00     0.021 A 
ATOM     17  O   UNL A   1      31.882  25.674  25.984  1.00  0.00    -0.475 OA
ATOM     18  C   UNL A   1      34.612  23.038  22.798  1.00  0.00     0.046 C 
ATOM     19  C   UNL A   1      32.922  25.392  23.374  1.00  0.00     0.026 C 
ATOM     20  C   UNL A   1      31.219  26.343  24.879  1.00  0.00     0.314 C 
BRANCH  20  21
ATOM     21  C   UNL A   1      29.788  25.791  24.739  1.00  0.00     0.429 C 
ATOM     22  F   UNL A   1      28.958  26.750  24.254  1.00  0.00    -0.167 F 
ATOM     23  F   UNL A   1      29.713  24.749  23.880  1.00  0.00    -0.167 F 
ATOM     24  F   UNL A   1      29.275  25.371  25.917  1.00  0.00    -0.167 F 
ENDBRANCH  20  21
ENDBRANCH   5   8
ENDBRANCH   3   4
ENDBRANCH   2   3
ENDBRANCH   1   2
BRANCH   1  25
ATOM     25  C   UNL A   1      34.064  28.243  26.530  1.00  0.00     0.116 C 
BRANCH  25  26
ATOM     26  N   UNL A   1      33.582  29.515  27.047  1.00  0.00    -0.352 N 
ATOM     27  C   UNL A   1      34.243  30.416  27.848  1.00  0.00     0.251 C 
ATOM     28  H   UNL A   1      32.665  29.763  26.791  1.00  0.00     0.163 HD
ATOM     29  O   UNL A   1      33.660  31.403  28.281  1.00  0.00    -0.269 OA
BRANCH  27  30
ATOM     30  C   UNL A   1      35.651  30.157  28.206  1.00  0.00     0.039 A 
ATOM     31  C   UNL A   1      35.941  29.651  29.474  1.00  0.00     0.014 A 
ATOM     32  C   UNL A   1      36.669  30.379  27.275  1.00  0.00     0.014 A 
ATOM     33  C   UNL A   1      37.255  29.307  29.791  1.00  0.00     0.010 A 
ATOM     34  C   UNL A   1      37.968  29.983  27.572  1.00  0.00     0.010 A 
ATOM     35  C   UNL A   1      38.272  29.446  28.833  1.00  0.00    -0.014 A 
BRANCH  35  36
ATOM     36  C   UNL A   1      39.671  29.064  29.135  1.00  0.00     0.031 A 
ATOM     37  C   UNL A   1      40.589  30.062  29.781  1.00  0.00     0.074 A 
ATOM     38  C   UNL A   1      40.127  27.846  28.782  1.00  0.00     0.049 A 
ATOM     39  N   UNL A   1      41.866  29.961  30.040  1.00  0.00    -0.248 NA
ATOM     40  C   UNL A   1      39.995  31.354  30.167  1.00  0.00     0.031 C 
ATOM     41  C   UNL A   1      39.334  26.797  28.136  1.00  0.00     0.029 A 
ATOM     42  N   UNL A   1      41.372  27.288  28.914  1.00  0.00    -0.354 N 
ATOM     43  C   UNL A   1      42.233  31.176  30.604  1.00  0.00     0.074 A 
ATOM     44  C   UNL A   1      41.053  32.016  30.610  1.00  0.00     0.031 C 
ATOM     45  C   UNL A   1      40.108  25.713  27.955  1.00  0.00     0.029 A 
ATOM     46  C   UNL A   1      41.455  26.004  28.433  1.00  0.00     0.049 A 
ATOM     47  H   UNL A   1      42.135  27.763  29.316  1.00  0.00     0.167 HD
ATOM     48  C   UNL A   1      43.437  31.554  31.094  1.00  0.00     0.031 A 
ATOM     49  C   UNL A   1      42.502  25.158  28.380  1.00  0.00     0.031 A 
ATOM     50  C   UNL A   1      44.604  30.716  31.098  1.00  0.00     0.049 A 
ATOM     51  C   UNL A   1      43.835  25.609  28.909  1.00  0.00     0.074 A 
ATOM     52  C   UNL A   1      45.866  30.996  31.592  1.00  0.00     0.029 A 
ATOM     53  N   UNL A   1      44.650  29.426  30.592  1.00  0.00    -0.354 N 
ATOM     54  N   UNL A   1      44.161  26.760  29.448  1.00  0.00    -0.248 NA
ATOM     55  C   UNL A   1      44.941  24.645  28.823  1.00  0.00     0.031 C 
ATOM     56  C   UNL A   1      46.684  29.886  31.353  1.00  0.00     0.029 A 
ATOM     57  C   UNL A   1      45.920  28.900  30.750  1.00  0.00     0.049 A 
ATOM     58  H   UNL A   1      43.891  28.953  30.179  1.00  0.00     0.167 HD
ATOM     59  C   UNL A   1      45.507  26.654  29.780  1.00  0.00     0.074 A 
ATOM     60  C   UNL A   1      45.929  25.320  29.397  1.00  0.00     0.031 C 
ATOM     61  C   UNL A   1      46.322  27.576  30.348  1.00  0.00     0.031 A 
BRANCH  48  62
ATOM     62  C   UNL A   1      43.541  32.942  31.665  1.00  0.00    -0.014 A 
ATOM     63  C   UNL A   1      43.858  34.038  30.841  1.00  0.00     0.010 A 
ATOM     64  C   UNL A   1      43.302  33.159  33.033  1.00  0.00     0.010 A 
ATOM     65  C   UNL A   1      43.975  35.319  31.383  1.00  0.00     0.020 A 
ATOM     66  C   UNL A   1      43.394  34.445  33.575  1.00  0.00     0.020 A 
ATOM     67  C   UNL A   1      43.746  35.514  32.749  1.00  0.00     0.054 A 
BRANCH  67  68
ATOM     68  S   UNL A   1      43.891  37.192  33.422  1.00  0.00     0.124 S 
ATOM     69  O   UNL A   1      42.701  37.282  34.263  1.00  0.00    -0.237 OA
ATOM     70  O   UNL A   1      45.164  37.143  34.136  1.00  0.00    -0.237 OA
ATOM     71  O   UNL A   1      43.879  38.043  32.234  1.00  0.00    -0.744 OA
ENDBRANCH  67  68
ENDBRANCH  48  62
BRANCH  49  72
ATOM     72  C   UNL A   1      42.324  23.791  27.822  1.00  0.00    -0.014 A 
ATOM     73  C   UNL A   1      42.610  23.538  26.469  1.00  0.00     0.010 A 
ATOM     74  C   UNL A   1      41.891  22.733  28.641  1.00  0.00     0.010 A 
ATOM     75  C   UNL A   1      42.458  22.252  25.941  1.00  0.00     0.020 A 
ATOM     76  C   UNL A   1      41.758  21.442  28.123  1.00  0.00     0.020 A 
ATOM     77  C   UNL A   1      42.036  21.211  26.774  1.00  0.00     0.054 A 
BRANCH  77  78
ATOM     78  S   UNL A   1      41.910  19.538  26.082  1.00  0.00     0.124 S 
ATOM     79  O   UNL A   1      40.484  19.436  25.793  1.00  0.00    -0.237 OA
ATOM     80  O   UNL A   1      42.789  19.611  24.917  1.00  0.00    -0.237 OA
ATOM     81  O   UNL A   1      42.394  18.684  27.165  1.00  0.00    -0.744 OA
ENDBRANCH  77  78
ENDBRANCH  49  72
BRANCH  61  82
ATOM     82  C   UNL A   1      47.747  27.169  30.598  1.00  0.00    -0.014 A 
ATOM     83  C   UNL A   1      48.760  27.484  29.676  1.00  0.00     0.010 A 
ATOM     84  C   UNL A   1      48.083  26.503  31.790  1.00  0.00     0.010 A 
ATOM     85  C   UNL A   1      50.082  27.110  29.926  1.00  0.00     0.020 A 
ATOM     86  C   UNL A   1      49.408  26.146  32.055  1.00  0.00     0.020 A 
ATOM     87  C   UNL A   1      50.397  26.440  31.113  1.00  0.00     0.054 A 
BRANCH  87  88
ATOM     88  S   UNL A   1      52.126  25.992  31.432  1.00  0.00     0.124 S 
ATOM     89  O   UNL A   1      52.720  26.117  30.103  1.00  0.00    -0.237 OA
ATOM     90  O   UNL A   1      52.545  26.998  32.404  1.00  0.00    -0.237 OA
ATOM     91  O   UNL A   1      52.040  24.630  31.952  1.00  0.00    -0.744 OA
ENDBRANCH  87  88
ENDBRANCH  61  82
ENDBRANCH  35  36
ENDBRANCH  27  30
ENDBRANCH  25  26
ENDBRANCH   1  25
TORSDOF 15
ENDMDL
