MODEL 1
REMARK VINA RESULT:     -12.0      0.000      0.000
REMARK SMILES COc1ccc2[nH]c(C(=O)c3cc(C)ccn3)c(CC(=O)NCCCCNC(=O)c3ccc(-c4c5nc(c(-c6ccc(S(=O)(=O)[O-])cc6)c6ccc([nH]6)c(-c6ccc(S(=O)(=O)[O-])cc6)c6nc(c(-c7ccc(S(=O)(=O)[O-])cc7)c7ccc4[nH]7)C=C6)C=C5)cc3)c2c1
REMARK SMILES IDX 24 1 23 2 22 3 20 4 21 5 19 7 18 8 3 9 4 10 91 11 5 12 90 13
REMARK SMILES IDX 6 14 7 15 8 16 2 18 1 19 9 20 10 21 11 22 12 23 17 24 13 25
REMARK SMILES IDX 16 26 14 27 15 28 25 29 26 30 27 31 28 32 29 34 30 35 31 36
REMARK SMILES IDX 89 37 32 38 88 39 33 40 34 41 35 42 82 43 36 44 87 45 81 46
REMARK SMILES IDX 83 47 37 48 86 49 80 50 79 51 38 53 68 54 49 55 67 56 50 57
REMARK SMILES IDX 53 58 66 59 84 60 51 61 52 62 65 64 85 65 54 66 39 67 40 68
REMARK SMILES IDX 48 69 41 70 47 71 42 72 43 73 44 74 45 75 46 76 69 77 70 78
REMARK SMILES IDX 78 79 71 80 77 81 72 82 73 83 74 84 75 85 76 86 55 87 56 88
REMARK SMILES IDX 64 89 57 90 63 91 58 92 59 93 60 94 61 95 62 96
REMARK H PARENT 22 6 7 17 27 33 83 52 53 63
REMARK Flexibility Score: inf
ROOT
ATOM      1  C   UNL A   1      31.580  27.751  26.736  1.00  0.00     0.023 C 
ENDROOT
BRANCH   1   2
ATOM      2  C   UNL A   1      31.036  26.409  26.249  1.00  0.00     0.116 C 
BRANCH   2   3
ATOM      3  N   UNL A   1      31.458  25.301  27.078  1.00  0.00    -0.356 N 
ATOM      4  C   UNL A   1      31.492  23.964  26.794  1.00  0.00     0.224 C 
ATOM      5  O   UNL A   1      32.107  23.241  27.582  1.00  0.00    -0.275 OA
ATOM      6  H   UNL A   1      31.767  25.546  27.979  1.00  0.00     0.163 HD
BRANCH   4   7
ATOM      7  C   UNL A   1      30.918  23.410  25.493  1.00  0.00     0.138 C 
BRANCH   7   8
ATOM      8  C   UNL A   1      31.858  23.441  24.317  1.00  0.00    -0.002 A 
ATOM      9  C   UNL A   1      31.405  26.421  21.950  1.00  0.00     0.119 A 
ATOM     10  C   UNL A   1      32.323  25.990  20.994  1.00  0.00     0.048 A 
ATOM     11  C   UNL A   1      31.207  25.682  23.120  1.00  0.00     0.057 A 
ATOM     12  C   UNL A   1      33.042  24.801  21.172  1.00  0.00     0.030 A 
ATOM     13  C   UNL A   1      31.897  24.467  23.311  1.00  0.00     0.008 A 
ATOM     14  C   UNL A   1      32.804  24.063  22.338  1.00  0.00     0.046 A 
ATOM     15  N   UNL A   1      33.341  22.870  22.760  1.00  0.00    -0.352 N 
ATOM     16  C   UNL A   1      32.857  22.517  24.004  1.00  0.00     0.093 A 
ATOM     17  H   UNL A   1      33.987  22.336  22.243  1.00  0.00     0.167 HD
BRANCH   9  18
ATOM     18  O   UNL A   1      30.680  27.579  21.854  1.00  0.00    -0.497 OA
ATOM     19  C   UNL A   1      29.802  27.813  22.952  1.00  0.00     0.278 C 
ENDBRANCH   9  18
BRANCH  16  20
ATOM     20  C   UNL A   1      33.308  21.374  24.792  1.00  0.00     0.227 C 
ATOM     21  O   UNL A   1      33.821  21.484  25.905  1.00  0.00    -0.285 OA
BRANCH  20  22
ATOM     22  C   UNL A   1      33.236  20.013  24.201  1.00  0.00     0.113 A 
ATOM     23  C   UNL A   1      34.046  19.000  24.706  1.00  0.00     0.036 A 
ATOM     24  N   UNL A   1      32.343  19.838  23.198  1.00  0.00    -0.253 NA
ATOM     25  C   UNL A   1      33.940  17.725  24.149  1.00  0.00    -0.047 A 
ATOM     26  C   UNL A   1      32.236  18.590  22.696  1.00  0.00     0.112 A 
ATOM     27  C   UNL A   1      34.783  16.589  24.641  1.00  0.00     0.044 C 
ATOM     28  C   UNL A   1      33.004  17.519  23.130  1.00  0.00     0.023 A 
ENDBRANCH  20  22
ENDBRANCH  16  20
ENDBRANCH   7   8
ENDBRANCH   4   7
ENDBRANCH   2   3
ENDBRANCH   1   2
BRANCH   1  29
ATOM     29  C   UNL A   1      33.103  27.818  26.870  1.00  0.00     0.023 C 
BRANCH  29  30
ATOM     30  C   UNL A   1      33.774  29.018  26.207  1.00  0.00     0.116 C 
BRANCH  30  31
ATOM     31  N   UNL A   1      33.656  30.245  26.983  1.00  0.00    -0.352 N 
ATOM     32  C   UNL A   1      34.525  30.764  27.914  1.00  0.00     0.251 C 
ATOM     33  H   UNL A   1      32.843  30.776  26.818  1.00  0.00     0.163 HD
ATOM     34  O   UNL A   1      34.215  31.763  28.559  1.00  0.00    -0.269 OA
BRANCH  32  35
ATOM     35  C   UNL A   1      35.813  30.084  28.168  1.00  0.00     0.039 A 
ATOM     36  C   UNL A   1      36.782  30.078  27.160  1.00  0.00     0.014 A 
ATOM     37  C   UNL A   1      36.083  29.505  29.410  1.00  0.00     0.014 A 
ATOM     38  C   UNL A   1      38.059  29.583  27.434  1.00  0.00     0.010 A 
ATOM     39  C   UNL A   1      37.373  29.067  29.700  1.00  0.00     0.010 A 
ATOM     40  C   UNL A   1      38.380  29.126  28.723  1.00  0.00    -0.014 A 
BRANCH  40  41
ATOM     41  C   UNL A   1      39.776  28.779  29.095  1.00  0.00     0.031 A 
ATOM     42  C   UNL A   1      40.678  29.804  29.719  1.00  0.00     0.074 A 
ATOM     43  C   UNL A   1      40.256  27.559  28.778  1.00  0.00     0.049 A 
ATOM     44  N   UNL A   1      41.949  29.708  30.019  1.00  0.00    -0.248 NA
ATOM     45  C   UNL A   1      40.083  31.114  30.029  1.00  0.00     0.031 C 
ATOM     46  C   UNL A   1      39.490  26.487  28.136  1.00  0.00     0.029 A 
ATOM     47  N   UNL A   1      41.508  27.019  28.935  1.00  0.00    -0.354 N 
ATOM     48  C   UNL A   1      42.309  30.944  30.541  1.00  0.00     0.074 A 
ATOM     49  C   UNL A   1      41.133  31.785  30.481  1.00  0.00     0.031 C 
ATOM     50  C   UNL A   1      40.282  25.417  27.971  1.00  0.00     0.029 A 
ATOM     51  C   UNL A   1      41.623  25.738  28.447  1.00  0.00     0.049 A 
ATOM     52  H   UNL A   1      42.254  27.503  29.359  1.00  0.00     0.167 HD
ATOM     53  C   UNL A   1      43.507  31.337  31.037  1.00  0.00     0.031 A 
ATOM     54  C   UNL A   1      42.691  24.919  28.367  1.00  0.00     0.031 A 
ATOM     55  C   UNL A   1      44.675  30.497  31.091  1.00  0.00     0.049 A 
ATOM     56  C   UNL A   1      44.021  25.396  28.879  1.00  0.00     0.074 A 
ATOM     57  C   UNL A   1      45.916  30.784  31.631  1.00  0.00     0.029 A 
ATOM     58  N   UNL A   1      44.753  29.212  30.573  1.00  0.00    -0.354 N 
ATOM     59  N   UNL A   1      44.324  26.542  29.441  1.00  0.00    -0.248 NA
ATOM     60  C   UNL A   1      45.155  24.471  28.745  1.00  0.00     0.031 C 
ATOM     61  C   UNL A   1      46.762  29.697  31.389  1.00  0.00     0.029 A 
ATOM     62  C   UNL A   1      46.031  28.709  30.746  1.00  0.00     0.049 A 
ATOM     63  H   UNL A   1      44.009  28.729  30.145  1.00  0.00     0.167 HD
ATOM     64  C   UNL A   1      45.679  26.472  29.736  1.00  0.00     0.074 A 
ATOM     65  C   UNL A   1      46.135  25.164  29.312  1.00  0.00     0.031 C 
ATOM     66  C   UNL A   1      46.475  27.409  30.307  1.00  0.00     0.031 A 
BRANCH  53  67
ATOM     67  C   UNL A   1      43.618  32.747  31.551  1.00  0.00    -0.014 A 
ATOM     68  C   UNL A   1      43.518  33.028  32.926  1.00  0.00     0.010 A 
ATOM     69  C   UNL A   1      43.868  33.802  30.653  1.00  0.00     0.010 A 
ATOM     70  C   UNL A   1      43.622  34.342  33.389  1.00  0.00     0.020 A 
ATOM     71  C   UNL A   1      44.000  35.114  31.116  1.00  0.00     0.020 A 
ATOM     72  C   UNL A   1      43.858  35.379  32.480  1.00  0.00     0.054 A 
BRANCH  72  73
ATOM     73  S   UNL A   1      44.003  37.073  33.113  1.00  0.00     0.124 S 
ATOM     74  O   UNL A   1      45.268  37.014  33.841  1.00  0.00    -0.237 OA
ATOM     75  O   UNL A   1      44.020  37.871  31.890  1.00  0.00    -0.237 OA
ATOM     76  O   UNL A   1      42.813  37.236  33.943  1.00  0.00    -0.744 OA
ENDBRANCH  72  73
ENDBRANCH  53  67
BRANCH  54  77
ATOM     77  C   UNL A   1      42.541  23.564  27.768  1.00  0.00    -0.014 A 
ATOM     78  C   UNL A   1      42.868  23.343  26.420  1.00  0.00     0.010 A 
ATOM     79  C   UNL A   1      42.097  22.484  28.552  1.00  0.00     0.010 A 
ATOM     80  C   UNL A   1      42.747  22.065  25.864  1.00  0.00     0.020 A 
ATOM     81  C   UNL A   1      42.000  21.201  28.006  1.00  0.00     0.020 A 
ATOM     82  C   UNL A   1      42.319  21.001  26.662  1.00  0.00     0.054 A 
BRANCH  82  83
ATOM     83  S   UNL A   1      42.237  19.340  25.936  1.00  0.00     0.124 S 
ATOM     84  O   UNL A   1      43.068  19.486  24.746  1.00  0.00    -0.237 OA
ATOM     85  O   UNL A   1      42.791  18.504  26.997  1.00  0.00    -0.237 OA
ATOM     86  O   UNL A   1      40.810  19.147  25.686  1.00  0.00    -0.744 OA
ENDBRANCH  82  83
ENDBRANCH  54  77
BRANCH  66  87
ATOM     87  C   UNL A   1      47.925  27.059  30.511  1.00  0.00    -0.014 A 
ATOM     88  C   UNL A   1      48.899  27.448  29.574  1.00  0.00     0.010 A 
ATOM     89  C   UNL A   1      48.326  26.403  31.688  1.00  0.00     0.010 A 
ATOM     90  C   UNL A   1      50.249  27.173  29.805  1.00  0.00     0.020 A 
ATOM     91  C   UNL A   1      49.680  26.148  31.934  1.00  0.00     0.020 A 
ATOM     92  C   UNL A   1      50.632  26.529  30.986  1.00  0.00     0.054 A 
BRANCH  92  93
ATOM     93  S   UNL A   1      52.397  26.248  31.294  1.00  0.00     0.124 S 
ATOM     94  O   UNL A   1      52.380  24.989  32.034  1.00  0.00    -0.237 OA
ATOM     95  O   UNL A   1      52.950  26.176  29.943  1.00  0.00    -0.237 OA
ATOM     96  O   UNL A   1      52.805  27.419  32.067  1.00  0.00    -0.744 OA
ENDBRANCH  92  93
ENDBRANCH  66  87
ENDBRANCH  40  41
ENDBRANCH  32  35
ENDBRANCH  30  31
ENDBRANCH  29  30
ENDBRANCH   1  29
TORSDOF 18
ENDMDL
MODEL 2
REMARK VINA RESULT:     -11.5      3.149      8.854
REMARK SMILES COc1ccc2[nH]c(C(=O)c3cc(C)ccn3)c(CC(=O)NCCCCNC(=O)c3ccc(-c4c5nc(c(-c6ccc(S(=O)(=O)[O-])cc6)c6ccc([nH]6)c(-c6ccc(S(=O)(=O)[O-])cc6)c6nc(c(-c7ccc(S(=O)(=O)[O-])cc7)c7ccc4[nH]7)C=C6)C=C5)cc3)c2c1
REMARK SMILES IDX 24 1 23 2 22 3 20 4 21 5 19 7 18 8 3 9 4 10 91 11 5 12 90 13
REMARK SMILES IDX 6 14 7 15 8 16 2 18 1 19 9 20 10 21 11 22 12 23 17 24 13 25
REMARK SMILES IDX 16 26 14 27 15 28 25 29 26 30 27 31 28 32 29 34 30 35 31 36
REMARK SMILES IDX 89 37 32 38 88 39 33 40 34 41 35 42 82 43 36 44 87 45 81 46
REMARK SMILES IDX 83 47 37 48 86 49 80 50 79 51 38 53 68 54 49 55 67 56 50 57
REMARK SMILES IDX 53 58 66 59 84 60 51 61 52 62 65 64 85 65 54 66 39 67 40 68
REMARK SMILES IDX 48 69 41 70 47 71 42 72 43 73 44 74 45 75 46 76 69 77 70 78
REMARK SMILES IDX 78 79 71 80 77 81 72 82 73 83 74 84 75 85 76 86 55 87 56 88
REMARK SMILES IDX 64 89 57 90 63 91 58 92 59 93 60 94 61 95 62 96
REMARK H PARENT 22 6 7 17 27 33 83 52 53 63
REMARK Flexibility Score: inf
ROOT
ATOM      1  C   UNL A   1      37.247  19.968  24.957  1.00  0.00     0.023 C 
ENDROOT
BRANCH   1   2
ATOM      2  C   UNL A   1      37.383  21.490  24.950  1.00  0.00     0.116 C 
BRANCH   2   3
ATOM      3  N   UNL A   1      36.641  22.112  23.875  1.00  0.00    -0.356 N 
ATOM      4  C   UNL A   1      35.858  23.233  23.891  1.00  0.00     0.224 C 
ATOM      5  O   UNL A   1      35.516  23.692  22.798  1.00  0.00    -0.275 OA
ATOM      6  H   UNL A   1      36.712  21.663  23.002  1.00  0.00     0.163 HD
BRANCH   4   7
ATOM      7  C   UNL A   1      35.537  23.962  25.192  1.00  0.00     0.138 C 
BRANCH   7   8
ATOM      8  C   UNL A   1      34.072  24.031  25.541  1.00  0.00    -0.002 A 
ATOM      9  C   UNL A   1      32.472  27.493  25.173  1.00  0.00     0.119 A 
ATOM     10  C   UNL A   1      31.234  27.140  25.706  1.00  0.00     0.048 A 
ATOM     11  C   UNL A   1      33.474  26.530  25.020  1.00  0.00     0.057 A 
ATOM     12  C   UNL A   1      30.978  25.826  26.122  1.00  0.00     0.030 A 
ATOM     13  C   UNL A   1      33.253  25.207  25.457  1.00  0.00     0.008 A 
ATOM     14  C   UNL A   1      32.008  24.887  25.987  1.00  0.00     0.046 A 
ATOM     15  N   UNL A   1      32.045  23.555  26.323  1.00  0.00    -0.352 N 
ATOM     16  C   UNL A   1      33.254  22.986  25.974  1.00  0.00     0.093 A 
ATOM     17  H   UNL A   1      31.307  23.070  26.758  1.00  0.00     0.167 HD
BRANCH   9  18
ATOM     18  O   UNL A   1      32.788  28.749  24.728  1.00  0.00    -0.497 OA
ATOM     19  C   UNL A   1      32.083  29.799  25.386  1.00  0.00     0.278 C 
ENDBRANCH   9  18
BRANCH  16  20
ATOM     20  C   UNL A   1      33.582  21.568  26.082  1.00  0.00     0.227 C 
ATOM     21  O   UNL A   1      34.197  21.090  27.033  1.00  0.00    -0.285 OA
BRANCH  20  22
ATOM     22  C   UNL A   1      33.243  20.659  24.956  1.00  0.00     0.113 A 
ATOM     23  C   UNL A   1      33.663  19.332  24.995  1.00  0.00     0.036 A 
ATOM     24  N   UNL A   1      32.507  21.190  23.952  1.00  0.00    -0.253 NA
ATOM     25  C   UNL A   1      33.310  18.494  23.937  1.00  0.00    -0.047 A 
ATOM     26  C   UNL A   1      32.152  20.353  22.956  1.00  0.00     0.112 A 
ATOM     27  C   UNL A   1      33.730  17.056  23.909  1.00  0.00     0.044 C 
ATOM     28  C   UNL A   1      32.527  19.019  22.904  1.00  0.00     0.023 A 
ENDBRANCH  20  22
ENDBRANCH  16  20
ENDBRANCH   7   8
ENDBRANCH   4   7
ENDBRANCH   2   3
ENDBRANCH   1   2
BRANCH   1  29
ATOM     29  C   UNL A   1      38.553  19.205  25.188  1.00  0.00     0.023 C 
BRANCH  29  30
ATOM     30  C   UNL A   1      39.591  19.916  26.052  1.00  0.00     0.116 C 
BRANCH  30  31
ATOM     31  N   UNL A   1      40.861  19.207  26.128  1.00  0.00    -0.352 N 
ATOM     32  C   UNL A   1      42.121  19.714  26.341  1.00  0.00     0.251 C 
ATOM     33  H   UNL A   1      40.809  18.230  26.012  1.00  0.00     0.163 HD
ATOM     34  O   UNL A   1      43.104  18.979  26.267  1.00  0.00    -0.269 OA
BRANCH  32  35
ATOM     35  C   UNL A   1      42.289  21.158  26.612  1.00  0.00     0.039 A 
ATOM     36  C   UNL A   1      42.631  21.565  27.905  1.00  0.00     0.014 A 
ATOM     37  C   UNL A   1      42.166  22.097  25.585  1.00  0.00     0.014 A 
ATOM     38  C   UNL A   1      42.950  22.904  28.144  1.00  0.00     0.010 A 
ATOM     39  C   UNL A   1      42.542  23.419  25.812  1.00  0.00     0.010 A 
ATOM     40  C   UNL A   1      42.962  23.829  27.087  1.00  0.00    -0.014 A 
BRANCH  40  41
ATOM     41  C   UNL A   1      43.483  25.208  27.272  1.00  0.00     0.031 A 
ATOM     42  C   UNL A   1      44.936  25.514  27.039  1.00  0.00     0.074 A 
ATOM     43  C   UNL A   1      42.659  26.164  27.745  1.00  0.00     0.049 A 
ATOM     44  N   UNL A   1      45.583  26.633  27.244  1.00  0.00    -0.248 NA
ATOM     45  C   UNL A   1      45.773  24.417  26.529  1.00  0.00     0.031 C 
ATOM     46  C   UNL A   1      41.236  25.983  28.047  1.00  0.00     0.029 A 
ATOM     47  N   UNL A   1      42.900  27.475  28.074  1.00  0.00    -0.354 N 
ATOM     48  C   UNL A   1      46.904  26.374  26.900  1.00  0.00     0.074 A 
ATOM     49  C   UNL A   1      46.973  24.981  26.511  1.00  0.00     0.031 C 
ATOM     50  C   UNL A   1      40.730  27.141  28.498  1.00  0.00     0.029 A 
ATOM     51  C   UNL A   1      41.797  28.133  28.568  1.00  0.00     0.049 A 
ATOM     52  H   UNL A   1      43.780  27.904  27.966  1.00  0.00     0.167 HD
ATOM     53  C   UNL A   1      47.960  27.222  26.897  1.00  0.00     0.031 A 
ATOM     54  C   UNL A   1      41.661  29.386  29.045  1.00  0.00     0.031 A 
ATOM     55  C   UNL A   1      47.887  28.605  27.289  1.00  0.00     0.049 A 
ATOM     56  C   UNL A   1      42.859  30.293  29.077  1.00  0.00     0.074 A 
ATOM     57  C   UNL A   1      48.888  29.561  27.260  1.00  0.00     0.029 A 
ATOM     58  N   UNL A   1      46.756  29.228  27.795  1.00  0.00    -0.354 N 
ATOM     59  N   UNL A   1      44.084  30.053  28.675  1.00  0.00    -0.248 NA
ATOM     60  C   UNL A   1      42.658  31.640  29.630  1.00  0.00     0.031 C 
ATOM     61  C   UNL A   1      48.380  30.744  27.804  1.00  0.00     0.029 A 
ATOM     62  C   UNL A   1      47.045  30.543  28.119  1.00  0.00     0.049 A 
ATOM     63  H   UNL A   1      45.877  28.799  27.907  1.00  0.00     0.167 HD
ATOM     64  C   UNL A   1      44.796  31.221  28.916  1.00  0.00     0.074 A 
ATOM     65  C   UNL A   1      43.863  32.175  29.479  1.00  0.00     0.031 C 
ATOM     66  C   UNL A   1      46.108  31.479  28.692  1.00  0.00     0.031 A 
BRANCH  53  67
ATOM     67  C   UNL A   1      49.293  26.672  26.466  1.00  0.00    -0.014 A 
ATOM     68  C   UNL A   1      49.727  26.783  25.133  1.00  0.00     0.010 A 
ATOM     69  C   UNL A   1      50.143  26.072  27.414  1.00  0.00     0.010 A 
ATOM     70  C   UNL A   1      50.967  26.267  24.746  1.00  0.00     0.020 A 
ATOM     71  C   UNL A   1      51.395  25.579  27.037  1.00  0.00     0.020 A 
ATOM     72  C   UNL A   1      51.792  25.663  25.701  1.00  0.00     0.054 A 
BRANCH  72  73
ATOM     73  S   UNL A   1      53.402  25.015  25.172  1.00  0.00     0.124 S 
ATOM     74  O   UNL A   1      53.526  25.579  23.830  1.00  0.00    -0.237 OA
ATOM     75  O   UNL A   1      54.312  25.567  26.171  1.00  0.00    -0.237 OA
ATOM     76  O   UNL A   1      53.227  23.566  25.226  1.00  0.00    -0.744 OA
ENDBRANCH  72  73
ENDBRANCH  53  67
BRANCH  54  77
ATOM     77  C   UNL A   1      40.335  29.849  29.540  1.00  0.00    -0.014 A 
ATOM     78  C   UNL A   1      40.013  29.756  30.904  1.00  0.00     0.010 A 
ATOM     79  C   UNL A   1      39.400  30.412  28.652  1.00  0.00     0.010 A 
ATOM     80  C   UNL A   1      38.776  30.210  31.372  1.00  0.00     0.020 A 
ATOM     81  C   UNL A   1      38.173  30.891  29.120  1.00  0.00     0.020 A 
ATOM     82  C   UNL A   1      37.865  30.780  30.477  1.00  0.00     0.054 A 
BRANCH  82  83
ATOM     83  S   UNL A   1      36.295  31.426  31.118  1.00  0.00     0.124 S 
ATOM     84  O   UNL A   1      36.694  32.726  31.645  1.00  0.00    -0.237 OA
ATOM     85  O   UNL A   1      35.456  31.457  29.923  1.00  0.00    -0.237 OA
ATOM     86  O   UNL A   1      35.901  30.436  32.119  1.00  0.00    -0.744 OA
ENDBRANCH  82  83
ENDBRANCH  54  77
BRANCH  66  87
ATOM     87  C   UNL A   1      46.620  32.848  29.053  1.00  0.00    -0.014 A 
ATOM     88  C   UNL A   1      46.545  33.911  28.135  1.00  0.00     0.010 A 
ATOM     89  C   UNL A   1      47.109  33.092  30.348  1.00  0.00     0.010 A 
ATOM     90  C   UNL A   1      46.964  35.191  28.503  1.00  0.00     0.020 A 
ATOM     91  C   UNL A   1      47.506  34.378  30.728  1.00  0.00     0.020 A 
ATOM     92  C   UNL A   1      47.437  35.418  29.799  1.00  0.00     0.054 A 
BRANCH  92  93
ATOM     93  S   UNL A   1      47.908  37.105  30.273  1.00  0.00     0.124 S 
ATOM     94  O   UNL A   1      47.299  37.901  29.210  1.00  0.00    -0.237 OA
ATOM     95  O   UNL A   1      47.300  37.248  31.593  1.00  0.00    -0.237 OA
ATOM     96  O   UNL A   1      49.369  37.072  30.266  1.00  0.00    -0.744 OA
ENDBRANCH  92  93
ENDBRANCH  66  87
ENDBRANCH  40  41
ENDBRANCH  32  35
ENDBRANCH  30  31
ENDBRANCH  29  30
ENDBRANCH   1  29
TORSDOF 18
ENDMDL
MODEL 3
REMARK VINA RESULT:     -11.5      3.499      8.509
REMARK SMILES COc1ccc2[nH]c(C(=O)c3cc(C)ccn3)c(CC(=O)NCCCCNC(=O)c3ccc(-c4c5nc(c(-c6ccc(S(=O)(=O)[O-])cc6)c6ccc([nH]6)c(-c6ccc(S(=O)(=O)[O-])cc6)c6nc(c(-c7ccc(S(=O)(=O)[O-])cc7)c7ccc4[nH]7)C=C6)C=C5)cc3)c2c1
REMARK SMILES IDX 24 1 23 2 22 3 20 4 21 5 19 7 18 8 3 9 4 10 91 11 5 12 90 13
REMARK SMILES IDX 6 14 7 15 8 16 2 18 1 19 9 20 10 21 11 22 12 23 17 24 13 25
REMARK SMILES IDX 16 26 14 27 15 28 25 29 26 30 27 31 28 32 29 34 30 35 31 36
REMARK SMILES IDX 89 37 32 38 88 39 33 40 34 41 35 42 82 43 36 44 87 45 81 46
REMARK SMILES IDX 83 47 37 48 86 49 80 50 79 51 38 53 68 54 49 55 67 56 50 57
REMARK SMILES IDX 53 58 66 59 84 60 51 61 52 62 65 64 85 65 54 66 39 67 40 68
REMARK SMILES IDX 48 69 41 70 47 71 42 72 43 73 44 74 45 75 46 76 69 77 70 78
REMARK SMILES IDX 78 79 71 80 77 81 72 82 73 83 74 84 75 85 76 86 55 87 56 88
REMARK SMILES IDX 64 89 57 90 63 91 58 92 59 93 60 94 61 95 62 96
REMARK H PARENT 22 6 7 17 27 33 83 52 53 63
REMARK Flexibility Score: inf
ROOT
ATOM      1  C   UNL A   1      37.721  21.925  24.767  1.00  0.00     0.023 C 
ENDROOT
BRANCH   1   2
ATOM      2  C   UNL A   1      37.618  23.119  25.715  1.00  0.00     0.116 C 
BRANCH   2   3
ATOM      3  N   UNL A   1      36.576  24.048  25.332  1.00  0.00    -0.356 N 
ATOM      4  C   UNL A   1      35.259  24.079  25.698  1.00  0.00     0.224 C 
ATOM      5  O   UNL A   1      34.627  25.102  25.422  1.00  0.00    -0.275 OA
ATOM      6  H   UNL A   1      36.858  24.764  24.719  1.00  0.00     0.163 HD
BRANCH   4   7
ATOM      7  C   UNL A   1      34.636  22.962  26.531  1.00  0.00     0.138 C 
BRANCH   7   8
ATOM      8  C   UNL A   1      33.477  22.253  25.882  1.00  0.00    -0.002 A 
ATOM      9  C   UNL A   1      34.290  18.802  24.428  1.00  0.00     0.119 A 
ATOM     10  C   UNL A   1      33.045  18.594  23.838  1.00  0.00     0.048 A 
ATOM     11  C   UNL A   1      34.531  19.957  25.177  1.00  0.00     0.057 A 
ATOM     12  C   UNL A   1      32.023  19.545  23.960  1.00  0.00     0.030 A 
ATOM     13  C   UNL A   1      33.530  20.944  25.292  1.00  0.00     0.008 A 
ATOM     14  C   UNL A   1      32.299  20.708  24.689  1.00  0.00     0.046 A 
ATOM     15  N   UNL A   1      31.508  21.801  24.952  1.00  0.00    -0.352 N 
ATOM     16  C   UNL A   1      32.165  22.711  25.756  1.00  0.00     0.093 A 
ATOM     17  H   UNL A   1      30.592  21.920  24.611  1.00  0.00     0.167 HD
BRANCH   9  18
ATOM     18  O   UNL A   1      35.328  17.911  24.367  1.00  0.00    -0.497 OA
ATOM     19  C   UNL A   1      35.057  16.652  24.978  1.00  0.00     0.278 C 
ENDBRANCH   9  18
BRANCH  16  20
ATOM     20  C   UNL A   1      31.573  23.921  26.319  1.00  0.00     0.227 C 
ATOM     21  O   UNL A   1      31.303  24.047  27.512  1.00  0.00    -0.285 OA
BRANCH  20  22
ATOM     22  C   UNL A   1      31.188  25.031  25.408  1.00  0.00     0.113 A 
ATOM     23  C   UNL A   1      31.457  26.346  25.776  1.00  0.00     0.036 A 
ATOM     24  N   UNL A   1      30.608  24.676  24.237  1.00  0.00    -0.253 NA
ATOM     25  C   UNL A   1      31.108  27.366  24.890  1.00  0.00    -0.047 A 
ATOM     26  C   UNL A   1      30.308  25.677  23.385  1.00  0.00     0.112 A 
ATOM     27  C   UNL A   1      31.363  28.805  25.221  1.00  0.00     0.044 C 
ATOM     28  C   UNL A   1      30.532  27.017  23.664  1.00  0.00     0.023 A 
ENDBRANCH  20  22
ENDBRANCH  16  20
ENDBRANCH   7   8
ENDBRANCH   4   7
ENDBRANCH   2   3
ENDBRANCH   1   2
BRANCH   1  29
ATOM     29  C   UNL A   1      38.188  20.623  25.421  1.00  0.00     0.023 C 
BRANCH  29  30
ATOM     30  C   UNL A   1      39.487  20.711  26.218  1.00  0.00     0.116 C 
BRANCH  30  31
ATOM     31  N   UNL A   1      40.327  19.529  26.081  1.00  0.00    -0.352 N 
ATOM     32  C   UNL A   1      41.698  19.433  26.146  1.00  0.00     0.251 C 
ATOM     33  H   UNL A   1      39.849  18.683  25.921  1.00  0.00     0.163 HD
ATOM     34  O   UNL A   1      42.255  18.366  25.899  1.00  0.00    -0.269 OA
BRANCH  32  35
ATOM     35  C   UNL A   1      42.498  20.634  26.469  1.00  0.00     0.039 A 
ATOM     36  C   UNL A   1      43.163  21.298  25.435  1.00  0.00     0.014 A 
ATOM     37  C   UNL A   1      42.544  21.132  27.773  1.00  0.00     0.014 A 
ATOM     38  C   UNL A   1      43.790  22.520  25.691  1.00  0.00     0.010 A 
ATOM     39  C   UNL A   1      43.118  22.378  28.014  1.00  0.00     0.010 A 
ATOM     40  C   UNL A   1      43.723  23.096  26.971  1.00  0.00    -0.014 A 
BRANCH  40  41
ATOM     41  C   UNL A   1      44.209  24.476  27.223  1.00  0.00     0.031 A 
ATOM     42  C   UNL A   1      43.246  25.571  27.586  1.00  0.00     0.074 A 
ATOM     43  C   UNL A   1      45.513  24.760  27.030  1.00  0.00     0.049 A 
ATOM     44  N   UNL A   1      43.478  26.850  27.747  1.00  0.00    -0.248 NA
ATOM     45  C   UNL A   1      41.839  25.185  27.773  1.00  0.00     0.031 C 
ATOM     46  C   UNL A   1      46.542  23.792  26.641  1.00  0.00     0.029 A 
ATOM     47  N   UNL A   1      46.195  25.948  27.116  1.00  0.00    -0.354 N 
ATOM     48  C   UNL A   1      42.247  27.423  28.042  1.00  0.00     0.074 A 
ATOM     49  C   UNL A   1      41.266  26.359  27.999  1.00  0.00     0.031 C 
ATOM     50  C   UNL A   1      47.724  24.420  26.539  1.00  0.00     0.029 A 
ATOM     51  C   UNL A   1      47.532  25.842  26.805  1.00  0.00     0.049 A 
ATOM     52  H   UNL A   1      45.769  26.797  27.377  1.00  0.00     0.167 HD
ATOM     53  C   UNL A   1      41.962  28.715  28.334  1.00  0.00     0.031 A 
ATOM     54  C   UNL A   1      48.492  26.783  26.719  1.00  0.00     0.031 A 
ATOM     55  C   UNL A   1      42.941  29.769  28.370  1.00  0.00     0.049 A 
ATOM     56  C   UNL A   1      48.141  28.218  27.000  1.00  0.00     0.074 A 
ATOM     57  C   UNL A   1      42.761  31.097  28.717  1.00  0.00     0.029 A 
ATOM     58  N   UNL A   1      44.279  29.623  28.036  1.00  0.00    -0.354 N 
ATOM     59  N   UNL A   1      46.986  28.728  27.353  1.00  0.00    -0.248 NA
ATOM     60  C   UNL A   1      49.223  29.204  26.868  1.00  0.00     0.031 C 
ATOM     61  C   UNL A   1      43.975  31.766  28.535  1.00  0.00     0.029 A 
ATOM     62  C   UNL A   1      44.926  30.843  28.129  1.00  0.00     0.049 A 
ATOM     63  H   UNL A   1      44.705  28.776  27.771  1.00  0.00     0.167 HD
ATOM     64  C   UNL A   1      47.204  30.093  27.496  1.00  0.00     0.074 A 
ATOM     65  C   UNL A   1      48.605  30.327  27.212  1.00  0.00     0.031 C 
ATOM     66  C   UNL A   1      46.321  31.065  27.831  1.00  0.00     0.031 A 
BRANCH  53  67
ATOM     67  C   UNL A   1      40.527  29.062  28.625  1.00  0.00    -0.014 A 
ATOM     68  C   UNL A   1      39.621  29.334  27.585  1.00  0.00     0.010 A 
ATOM     69  C   UNL A   1      40.066  29.075  29.955  1.00  0.00     0.010 A 
ATOM     70  C   UNL A   1      38.291  29.655  27.870  1.00  0.00     0.020 A 
ATOM     71  C   UNL A   1      38.730  29.370  30.243  1.00  0.00     0.020 A 
ATOM     72  C   UNL A   1      37.855  29.676  29.198  1.00  0.00     0.054 A 
BRANCH  72  73
ATOM     73  S   UNL A   1      36.119  30.082  29.537  1.00  0.00     0.124 S 
ATOM     74  O   UNL A   1      35.433  29.402  28.441  1.00  0.00    -0.237 OA
ATOM     75  O   UNL A   1      35.909  29.508  30.863  1.00  0.00    -0.237 OA
ATOM     76  O   UNL A   1      36.088  31.541  29.482  1.00  0.00    -0.744 OA
ENDBRANCH  72  73
ENDBRANCH  53  67
BRANCH  54  77
ATOM     77  C   UNL A   1      49.879  26.393  26.341  1.00  0.00    -0.014 A 
ATOM     78  C   UNL A   1      50.298  26.467  25.003  1.00  0.00     0.010 A 
ATOM     79  C   UNL A   1      50.794  25.972  27.323  1.00  0.00     0.010 A 
ATOM     80  C   UNL A   1      51.607  26.121  24.651  1.00  0.00     0.020 A 
ATOM     81  C   UNL A   1      52.109  25.650  26.980  1.00  0.00     0.020 A 
ATOM     82  C   UNL A   1      52.506  25.719  25.643  1.00  0.00     0.054 A 
BRANCH  82  83
ATOM     83  S   UNL A   1      54.217  25.341  25.172  1.00  0.00     0.124 S 
ATOM     84  O   UNL A   1      54.166  23.898  24.969  1.00  0.00    -0.237 OA
ATOM     85  O   UNL A   1      54.398  26.145  23.966  1.00  0.00    -0.237 OA
ATOM     86  O   UNL A   1      54.995  25.786  26.327  1.00  0.00    -0.744 OA
ENDBRANCH  82  83
ENDBRANCH  54  77
BRANCH  66  87
ATOM     87  C   UNL A   1      46.837  32.476  27.913  1.00  0.00    -0.014 A 
ATOM     88  C   UNL A   1      47.400  32.970  29.103  1.00  0.00     0.010 A 
ATOM     89  C   UNL A   1      46.830  33.290  26.766  1.00  0.00     0.010 A 
ATOM     90  C   UNL A   1      47.934  34.260  29.149  1.00  0.00     0.020 A 
ATOM     91  C   UNL A   1      47.386  34.573  26.802  1.00  0.00     0.020 A 
ATOM     92  C   UNL A   1      47.928  35.052  27.997  1.00  0.00     0.054 A 
BRANCH  92  93
ATOM     93  S   UNL A   1      48.692  36.696  28.064  1.00  0.00     0.124 S 
ATOM     94  O   UNL A   1      47.873  37.371  29.068  1.00  0.00    -0.237 OA
ATOM     95  O   UNL A   1      50.063  36.396  28.469  1.00  0.00    -0.237 OA
ATOM     96  O   UNL A   1      48.547  37.202  26.701  1.00  0.00    -0.744 OA
ENDBRANCH  92  93
ENDBRANCH  66  87
ENDBRANCH  40  41
ENDBRANCH  32  35
ENDBRANCH  30  31
ENDBRANCH  29  30
ENDBRANCH   1  29
TORSDOF 18
ENDMDL
