MODEL 1
REMARK VINA RESULT:     -10.8      0.000      0.000
REMARK SMILES C[C@@H](Oc1ccc(/C=C2\C(=O)[NH+]=C(NCCCCNC(=O)c3ccc(-c4c5nc(c(-c6ccc(S(=O)(=O)[O-])cc6)c6ccc([nH]6)c(-c6ccc(S(=O)(=O)[O-])cc6)c6nc(c(-c7ccc(S(=O)(=O)[O-])cc7)c7ccc4[nH]7)C=C6)C=C5)cc3)N(c3ccc4c(c3)OCO4)C2=O)cc1)C(=O)[O-]
REMARK SMILES IDX 16 1 15 2 14 3 8 4 9 5 10 6 92 7 11 8 12 9 82 10 93 11 13 12
REMARK SMILES IDX 7 15 4 16 5 17 95 18 6 19 94 20 3 21 2 22 1 23 96 24 97 25
REMARK SMILES IDX 98 26 83 27 84 28 88 29 85 30 87 31 86 32 89 33 91 34 90 35
REMARK SMILES IDX 17 36 18 37 19 38 20 39 21 41 22 42 23 43 81 44 24 45 80 46
REMARK SMILES IDX 25 47 26 48 27 49 74 50 28 51 79 52 73 53 75 54 29 55 78 56
REMARK SMILES IDX 72 57 71 58 30 60 60 61 41 62 59 63 42 64 45 65 58 66 76 67
REMARK SMILES IDX 43 68 44 69 57 71 77 72 46 73 31 74 32 75 40 76 33 77 39 78
REMARK SMILES IDX 34 79 35 80 36 81 37 82 38 83 61 84 62 85 70 86 63 87 69 88
REMARK SMILES IDX 64 89 65 90 66 91 67 92 68 93 47 94 48 95 56 96 49 97 55 98
REMARK SMILES IDX 50 99 51 100 52 101 53 102 54 103
REMARK H PARENT 12 13 14 14 19 40 75 59 45 70
REMARK Flexibility Score: inf
ROOT
ATOM      1  C   UNL A   1      43.786  25.146  25.165  1.00  0.00     0.039 C 
ENDROOT
BRANCH   1   2
ATOM      2  C   UNL A   1      42.523  24.805  25.950  1.00  0.00     0.197 C 
BRANCH   2   3
ATOM      3  N   UNL A   1      42.325  23.369  25.998  1.00  0.00    -0.277 N 
ATOM      4  C   UNL A   1      37.609  21.110  25.003  1.00  0.00     0.031 C 
ATOM      5  C   UNL A   1      38.664  21.608  25.678  1.00  0.00     0.138 C 
ATOM      6  C   UNL A   1      38.790  22.944  26.279  1.00  0.00     0.321 C 
ATOM      7  C   UNL A   1      39.824  20.710  25.831  1.00  0.00     0.328 C 
ATOM      8  O   UNL A   1      37.841  23.519  26.801  1.00  0.00    -0.250 OA
ATOM      9  N   UNL A   1      40.033  23.496  26.187  1.00  0.00    -0.210 N 
ATOM     10  N   UNL A   1      41.027  21.373  26.044  1.00  0.00    -0.162 N 
ATOM     11  O   UNL A   1      39.694  19.488  25.746  1.00  0.00    -0.249 OA
ATOM     12  C   UNL A   1      41.098  22.760  26.095  1.00  0.00     0.366 C 
ATOM     13  H   UNL A   1      40.125  24.476  26.191  1.00  0.00     0.270 HD
ATOM     14  H   UNL A   1      43.122  22.794  25.959  1.00  0.00     0.260 HD
BRANCH   4  15
ATOM     15  C   UNL A   1      36.328  21.714  24.607  1.00  0.00    -0.024 A 
ATOM     16  C   UNL A   1      34.003  23.084  23.803  1.00  0.00     0.120 A 
ATOM     17  C   UNL A   1      33.971  22.237  24.907  1.00  0.00     0.047 A 
ATOM     18  C   UNL A   1      35.201  23.288  23.128  1.00  0.00     0.047 A 
ATOM     19  C   UNL A   1      35.130  21.566  25.315  1.00  0.00     0.012 A 
ATOM     20  C   UNL A   1      36.348  22.596  23.517  1.00  0.00     0.012 A 
BRANCH  16  21
ATOM     21  O   UNL A   1      32.880  23.805  23.514  1.00  0.00    -0.485 OA
BRANCH  21  22
ATOM     22  C   UNL A   1      33.061  25.227  23.570  1.00  0.00     0.216 C 
ATOM     23  C   UNL A   1      33.392  25.708  24.980  1.00  0.00     0.059 C 
BRANCH  22  24
ATOM     24  C   UNL A   1      31.750  25.888  23.157  1.00  0.00     0.082 C 
ATOM     25  O   UNL A   1      30.684  25.798  23.748  1.00  0.00    -0.546 OA
ATOM     26  O   UNL A   1      31.811  26.548  21.980  1.00  0.00    -0.546 OA
ENDBRANCH  22  24
ENDBRANCH  21  22
ENDBRANCH  16  21
ENDBRANCH   4  15
BRANCH  10  27
ATOM     27  C   UNL A   1      42.187  20.556  26.096  1.00  0.00     0.115 A 
ATOM     28  C   UNL A   1      42.115  19.271  26.677  1.00  0.00     0.048 A 
ATOM     29  C   UNL A   1      43.332  20.966  25.400  1.00  0.00     0.094 A 
ATOM     30  C   UNL A   1      43.169  18.366  26.507  1.00  0.00     0.054 A 
ATOM     31  C   UNL A   1      44.337  20.045  25.237  1.00  0.00     0.169 A 
ATOM     32  C   UNL A   1      44.251  18.775  25.757  1.00  0.00     0.166 A 
ATOM     33  O   UNL A   1      45.467  20.234  24.503  1.00  0.00    -0.453 OA
ATOM     34  O   UNL A   1      45.312  18.005  25.392  1.00  0.00    -0.454 OA
ATOM     35  C   UNL A   1      45.956  18.878  24.440  1.00  0.00     0.468 C 
ENDBRANCH  10  27
ENDBRANCH   2   3
ENDBRANCH   1   2
BRANCH   1  36
ATOM     36  C   UNL A   1      44.794  24.000  25.054  1.00  0.00     0.024 C 
BRANCH  36  37
ATOM     37  C   UNL A   1      45.962  24.060  26.034  1.00  0.00     0.116 C 
BRANCH  37  38
ATOM     38  N   UNL A   1      47.236  24.326  25.386  1.00  0.00    -0.352 N 
ATOM     39  C   UNL A   1      47.907  25.519  25.248  1.00  0.00     0.251 C 
ATOM     40  H   UNL A   1      47.681  23.543  24.990  1.00  0.00     0.163 HD
ATOM     41  O   UNL A   1      48.911  25.578  24.546  1.00  0.00    -0.269 OA
BRANCH  39  42
ATOM     42  C   UNL A   1      47.397  26.734  25.920  1.00  0.00     0.039 A 
ATOM     43  C   UNL A   1      47.766  26.977  27.245  1.00  0.00     0.014 A 
ATOM     44  C   UNL A   1      46.572  27.639  25.245  1.00  0.00     0.014 A 
ATOM     45  C   UNL A   1      47.367  28.161  27.870  1.00  0.00     0.010 A 
ATOM     46  C   UNL A   1      46.238  28.852  25.842  1.00  0.00     0.010 A 
ATOM     47  C   UNL A   1      46.634  29.128  27.161  1.00  0.00    -0.014 A 
BRANCH  47  48
ATOM     48  C   UNL A   1      46.282  30.434  27.778  1.00  0.00     0.031 A 
ATOM     49  C   UNL A   1      45.000  30.588  28.553  1.00  0.00     0.074 A 
ATOM     50  C   UNL A   1      47.088  31.500  27.593  1.00  0.00     0.049 A 
ATOM     51  N   UNL A   1      44.492  31.663  29.101  1.00  0.00    -0.248 NA
ATOM     52  C   UNL A   1      44.170  29.382  28.715  1.00  0.00     0.031 C 
ATOM     53  C   UNL A   1      48.338  31.495  26.828  1.00  0.00     0.029 A 
ATOM     54  N   UNL A   1      46.972  32.798  28.026  1.00  0.00    -0.354 N 
ATOM     55  C   UNL A   1      43.286  31.264  29.667  1.00  0.00     0.074 A 
ATOM     56  C   UNL A   1      43.109  29.865  29.345  1.00  0.00     0.031 C 
ATOM     57  C   UNL A   1      48.879  32.724  26.861  1.00  0.00     0.029 A 
ATOM     58  C   UNL A   1      47.999  33.614  27.610  1.00  0.00     0.049 A 
ATOM     59  H   UNL A   1      46.224  33.115  28.581  1.00  0.00     0.167 HD
ATOM     60  C   UNL A   1      42.418  31.989  30.412  1.00  0.00     0.031 A 
ATOM     61  C   UNL A   1      48.203  34.934  27.795  1.00  0.00     0.031 A 
ATOM     62  C   UNL A   1      42.593  33.381  30.733  1.00  0.00     0.049 A 
ATOM     63  C   UNL A   1      47.209  35.724  28.602  1.00  0.00     0.074 A 
ATOM     64  C   UNL A   1      41.782  34.195  31.505  1.00  0.00     0.029 A 
ATOM     65  N   UNL A   1      43.654  34.166  30.305  1.00  0.00    -0.354 N 
ATOM     66  N   UNL A   1      46.101  35.315  29.173  1.00  0.00    -0.248 NA
ATOM     67  C   UNL A   1      47.499  37.150  28.803  1.00  0.00     0.031 C 
ATOM     68  C   UNL A   1      42.325  35.483  31.502  1.00  0.00     0.029 A 
ATOM     69  C   UNL A   1      43.509  35.458  30.782  1.00  0.00     0.049 A 
ATOM     70  H   UNL A   1      44.400  33.851  29.744  1.00  0.00     0.167 HD
ATOM     71  C   UNL A   1      45.578  36.428  29.824  1.00  0.00     0.074 A 
ATOM     72  C   UNL A   1      46.501  37.520  29.592  1.00  0.00     0.031 C 
ATOM     73  C   UNL A   1      44.436  36.535  30.548  1.00  0.00     0.031 A 
BRANCH  60  74
ATOM     74  C   UNL A   1      41.195  31.284  30.941  1.00  0.00    -0.014 A 
ATOM     75  C   UNL A   1      41.206  30.678  32.210  1.00  0.00     0.010 A 
ATOM     76  C   UNL A   1      40.006  31.272  30.188  1.00  0.00     0.010 A 
ATOM     77  C   UNL A   1      40.064  30.043  32.703  1.00  0.00     0.020 A 
ATOM     78  C   UNL A   1      38.852  30.663  30.690  1.00  0.00     0.020 A 
ATOM     79  C   UNL A   1      38.893  30.041  31.939  1.00  0.00     0.054 A 
BRANCH  79  80
ATOM     80  S   UNL A   1      37.417  29.238  32.621  1.00  0.00     0.124 S 
ATOM     81  O   UNL A   1      37.807  27.830  32.611  1.00  0.00    -0.237 OA
ATOM     82  O   UNL A   1      37.304  29.848  33.944  1.00  0.00    -0.237 OA
ATOM     83  O   UNL A   1      36.359  29.598  31.680  1.00  0.00    -0.744 OA
ENDBRANCH  79  80
ENDBRANCH  60  74
BRANCH  61  84
ATOM     84  C   UNL A   1      49.395  35.596  27.194  1.00  0.00    -0.014 A 
ATOM     85  C   UNL A   1      50.617  35.652  27.888  1.00  0.00     0.010 A 
ATOM     86  C   UNL A   1      49.307  36.187  25.919  1.00  0.00     0.010 A 
ATOM     87  C   UNL A   1      51.718  36.313  27.334  1.00  0.00     0.020 A 
ATOM     88  C   UNL A   1      50.414  36.819  25.348  1.00  0.00     0.020 A 
ATOM     89  C   UNL A   1      51.609  36.893  26.067  1.00  0.00     0.054 A 
BRANCH  89  90
ATOM     90  S   UNL A   1      53.058  37.721  25.353  1.00  0.00     0.124 S 
ATOM     91  O   UNL A   1      52.922  39.075  25.881  1.00  0.00    -0.237 OA
ATOM     92  O   UNL A   1      54.166  36.937  25.893  1.00  0.00    -0.237 OA
ATOM     93  O   UNL A   1      52.852  37.585  23.912  1.00  0.00    -0.744 OA
ENDBRANCH  89  90
ENDBRANCH  61  84
BRANCH  73  94
ATOM     94  C   UNL A   1      44.136  37.869  31.178  1.00  0.00    -0.014 A 
ATOM     95  C   UNL A   1      44.367  38.103  32.545  1.00  0.00     0.010 A 
ATOM     96  C   UNL A   1      43.666  38.925  30.373  1.00  0.00     0.010 A 
ATOM     97  C   UNL A   1      44.103  39.357  33.102  1.00  0.00     0.020 A 
ATOM     98  C   UNL A   1      43.430  40.188  30.920  1.00  0.00     0.020 A 
ATOM     99  C   UNL A   1      43.637  40.392  32.285  1.00  0.00     0.054 A 
BRANCH  99 100
ATOM    100  S   UNL A   1      43.345  42.023  33.025  1.00  0.00     0.124 S 
ATOM    101  O   UNL A   1      44.602  42.267  33.727  1.00  0.00    -0.237 OA
ATOM    102  O   UNL A   1      43.106  42.866  31.856  1.00  0.00    -0.237 OA
ATOM    103  O   UNL A   1      42.182  41.812  33.883  1.00  0.00    -0.744 OA
ENDBRANCH  99 100
ENDBRANCH  73  94
ENDBRANCH  47  48
ENDBRANCH  39  42
ENDBRANCH  37  38
ENDBRANCH  36  37
ENDBRANCH   1  36
TORSDOF 18
ENDMDL
MODEL 2
REMARK VINA RESULT:     -10.7      4.976     11.579
REMARK SMILES C[C@@H](Oc1ccc(/C=C2\C(=O)[NH+]=C(NCCCCNC(=O)c3ccc(-c4c5nc(c(-c6ccc(S(=O)(=O)[O-])cc6)c6ccc([nH]6)c(-c6ccc(S(=O)(=O)[O-])cc6)c6nc(c(-c7ccc(S(=O)(=O)[O-])cc7)c7ccc4[nH]7)C=C6)C=C5)cc3)N(c3ccc4c(c3)OCO4)C2=O)cc1)C(=O)[O-]
REMARK SMILES IDX 16 1 15 2 14 3 8 4 9 5 10 6 92 7 11 8 12 9 82 10 93 11 13 12
REMARK SMILES IDX 7 15 4 16 5 17 95 18 6 19 94 20 3 21 2 22 1 23 96 24 97 25
REMARK SMILES IDX 98 26 83 27 84 28 88 29 85 30 87 31 86 32 89 33 91 34 90 35
REMARK SMILES IDX 17 36 18 37 19 38 20 39 21 41 22 42 23 43 81 44 24 45 80 46
REMARK SMILES IDX 25 47 26 48 27 49 74 50 28 51 79 52 73 53 75 54 29 55 78 56
REMARK SMILES IDX 72 57 71 58 30 60 60 61 41 62 59 63 42 64 45 65 58 66 76 67
REMARK SMILES IDX 43 68 44 69 57 71 77 72 46 73 31 74 32 75 40 76 33 77 39 78
REMARK SMILES IDX 34 79 35 80 36 81 37 82 38 83 61 84 62 85 70 86 63 87 69 88
REMARK SMILES IDX 64 89 65 90 66 91 67 92 68 93 47 94 48 95 56 96 49 97 55 98
REMARK SMILES IDX 50 99 51 100 52 101 53 102 54 103
REMARK H PARENT 12 13 14 14 19 40 75 59 45 70
REMARK Flexibility Score: inf
ROOT
ATOM      1  C   UNL A   1      34.931  26.064  25.560  1.00  0.00     0.039 C 
ENDROOT
BRANCH   1   2
ATOM      2  C   UNL A   1      34.776  24.708  26.242  1.00  0.00     0.197 C 
BRANCH   2   3
ATOM      3  N   UNL A   1      33.833  23.877  25.516  1.00  0.00    -0.277 N 
ATOM      4  C   UNL A   1      29.465  25.868  23.218  1.00  0.00     0.031 C 
ATOM      5  C   UNL A   1      30.264  25.254  24.112  1.00  0.00     0.138 C 
ATOM      6  C   UNL A   1      30.849  25.830  25.331  1.00  0.00     0.321 C 
ATOM      7  C   UNL A   1      30.589  23.841  23.835  1.00  0.00     0.328 C 
ATOM      8  O   UNL A   1      30.249  26.645  26.023  1.00  0.00    -0.250 OA
ATOM      9  N   UNL A   1      32.114  25.405  25.614  1.00  0.00    -0.210 N 
ATOM     10  N   UNL A   1      31.767  23.405  24.432  1.00  0.00    -0.162 N 
ATOM     11  O   UNL A   1      29.865  23.154  23.113  1.00  0.00    -0.249 OA
ATOM     12  C   UNL A   1      32.549  24.252  25.208  1.00  0.00     0.366 C 
ATOM     13  H   UNL A   1      32.710  25.987  26.137  1.00  0.00     0.270 HD
ATOM     14  H   UNL A   1      34.135  22.987  25.225  1.00  0.00     0.260 HD
BRANCH   4  15
ATOM     15  C   UNL A   1      28.984  27.254  23.126  1.00  0.00    -0.024 A 
ATOM     16  C   UNL A   1      28.285  29.981  23.050  1.00  0.00     0.120 A 
ATOM     17  C   UNL A   1      27.352  29.029  23.453  1.00  0.00     0.047 A 
ATOM     18  C   UNL A   1      29.578  29.584  22.733  1.00  0.00     0.047 A 
ATOM     19  C   UNL A   1      27.703  27.675  23.502  1.00  0.00     0.012 A 
ATOM     20  C   UNL A   1      29.919  28.231  22.755  1.00  0.00     0.012 A 
BRANCH  16  21
ATOM     21  O   UNL A   1      27.933  31.298  23.129  1.00  0.00    -0.485 OA
BRANCH  21  22
ATOM     22  C   UNL A   1      28.739  32.173  22.328  1.00  0.00     0.216 C 
ATOM     23  C   UNL A   1      29.062  33.477  23.053  1.00  0.00     0.059 C 
BRANCH  22  24
ATOM     24  C   UNL A   1      27.949  32.531  21.074  1.00  0.00     0.082 C 
ATOM     25  O   UNL A   1      27.793  31.816  20.096  1.00  0.00    -0.546 OA
ATOM     26  O   UNL A   1      27.474  33.795  21.063  1.00  0.00    -0.546 OA
ENDBRANCH  22  24
ENDBRANCH  21  22
ENDBRANCH  16  21
ENDBRANCH   4  15
BRANCH  10  27
ATOM     27  C   UNL A   1      32.174  22.084  24.112  1.00  0.00     0.115 A 
ATOM     28  C   UNL A   1      32.423  21.156  25.148  1.00  0.00     0.048 A 
ATOM     29  C   UNL A   1      32.136  21.672  22.773  1.00  0.00     0.094 A 
ATOM     30  C   UNL A   1      32.572  19.797  24.850  1.00  0.00     0.054 A 
ATOM     31  C   UNL A   1      32.268  20.329  22.520  1.00  0.00     0.169 A 
ATOM     32  C   UNL A   1      32.460  19.414  23.530  1.00  0.00     0.166 A 
ATOM     33  O   UNL A   1      32.150  19.742  21.299  1.00  0.00    -0.453 OA
ATOM     34  O   UNL A   1      32.464  18.137  23.062  1.00  0.00    -0.454 OA
ATOM     35  C   UNL A   1      32.065  18.356  21.692  1.00  0.00     0.468 C 
ENDBRANCH  10  27
ENDBRANCH   2   3
ENDBRANCH   1   2
BRANCH   1  36
ATOM     36  C   UNL A   1      34.325  27.237  26.334  1.00  0.00     0.024 C 
BRANCH  36  37
ATOM     37  C   UNL A   1      34.435  28.597  25.650  1.00  0.00     0.116 C 
BRANCH  37  38
ATOM     38  N   UNL A   1      33.806  29.667  26.408  1.00  0.00    -0.352 N 
ATOM     39  C   UNL A   1      34.288  30.358  27.495  1.00  0.00     0.251 C 
ATOM     40  H   UNL A   1      32.911  29.934  26.100  1.00  0.00     0.163 HD
ATOM     41  O   UNL A   1      33.556  31.140  28.095  1.00  0.00    -0.269 OA
BRANCH  39  42
ATOM     42  C   UNL A   1      35.674  30.132  27.959  1.00  0.00     0.039 A 
ATOM     43  C   UNL A   1      35.879  29.584  29.227  1.00  0.00     0.014 A 
ATOM     44  C   UNL A   1      36.767  30.443  27.145  1.00  0.00     0.014 A 
ATOM     45  C   UNL A   1      37.176  29.281  29.650  1.00  0.00     0.010 A 
ATOM     46  C   UNL A   1      38.051  30.073  27.536  1.00  0.00     0.010 A 
ATOM     47  C   UNL A   1      38.271  29.485  28.793  1.00  0.00    -0.014 A 
BRANCH  47  48
ATOM     48  C   UNL A   1      39.646  29.082  29.188  1.00  0.00     0.031 A 
ATOM     49  C   UNL A   1      40.562  30.068  29.863  1.00  0.00     0.074 A 
ATOM     50  C   UNL A   1      40.091  27.844  28.889  1.00  0.00     0.049 A 
ATOM     51  N   UNL A   1      41.814  29.921  30.216  1.00  0.00    -0.248 NA
ATOM     52  C   UNL A   1      40.008  31.399  30.158  1.00  0.00     0.031 C 
ATOM     53  C   UNL A   1      39.317  26.807  28.201  1.00  0.00     0.029 A 
ATOM     54  N   UNL A   1      41.309  27.250  29.117  1.00  0.00    -0.354 N 
ATOM     55  C   UNL A   1      42.196  31.137  30.770  1.00  0.00     0.074 A 
ATOM     56  C   UNL A   1      41.064  32.030  30.652  1.00  0.00     0.031 C 
ATOM     57  C   UNL A   1      40.072  25.703  28.079  1.00  0.00     0.029 A 
ATOM     58  C   UNL A   1      41.393  25.963  28.639  1.00  0.00     0.049 A 
ATOM     59  H   UNL A   1      42.050  27.703  29.578  1.00  0.00     0.167 HD
ATOM     60  C   UNL A   1      43.372  31.474  31.351  1.00  0.00     0.031 A 
ATOM     61  C   UNL A   1      42.424  25.093  28.636  1.00  0.00     0.031 A 
ATOM     62  C   UNL A   1      44.499  30.586  31.470  1.00  0.00     0.049 A 
ATOM     63  C   UNL A   1      43.730  25.500  29.262  1.00  0.00     0.074 A 
ATOM     64  C   UNL A   1      45.724  30.826  32.067  1.00  0.00     0.029 A 
ATOM     65  N   UNL A   1      44.538  29.287  30.987  1.00  0.00    -0.354 N 
ATOM     66  N   UNL A   1      44.052  26.638  29.828  1.00  0.00    -0.248 NA
ATOM     67  C   UNL A   1      44.807  24.500  29.263  1.00  0.00     0.031 C 
ATOM     68  C   UNL A   1      46.522  29.690  31.901  1.00  0.00     0.029 A 
ATOM     69  C   UNL A   1      45.773  28.719  31.257  1.00  0.00     0.049 A 
ATOM     70  H   UNL A   1      43.799  28.834  30.520  1.00  0.00     0.167 HD
ATOM     71  C   UNL A   1      45.360  26.481  30.277  1.00  0.00     0.074 A 
ATOM     72  C   UNL A   1      45.759  25.132  29.933  1.00  0.00     0.031 C 
ATOM     73  C   UNL A   1      46.157  27.374  30.915  1.00  0.00     0.031 A 
BRANCH  60  74
ATOM     74  C   UNL A   1      43.499  32.866  31.914  1.00  0.00    -0.014 A 
ATOM     75  C   UNL A   1      44.096  33.895  31.163  1.00  0.00     0.010 A 
ATOM     76  C   UNL A   1      42.968  33.166  33.182  1.00  0.00     0.010 A 
ATOM     77  C   UNL A   1      44.193  35.188  31.682  1.00  0.00     0.020 A 
ATOM     78  C   UNL A   1      43.035  34.466  33.693  1.00  0.00     0.020 A 
ATOM     79  C   UNL A   1      43.660  35.465  32.945  1.00  0.00     0.054 A 
BRANCH  79  80
ATOM     80  S   UNL A   1      43.771  37.161  33.577  1.00  0.00     0.124 S 
ATOM     81  O   UNL A   1      42.626  37.220  34.483  1.00  0.00    -0.237 OA
ATOM     82  O   UNL A   1      45.082  37.177  34.221  1.00  0.00    -0.237 OA
ATOM     83  O   UNL A   1      43.659  37.988  32.377  1.00  0.00    -0.744 OA
ENDBRANCH  79  80
ENDBRANCH  60  74
BRANCH  61  84
ATOM     84  C   UNL A   1      42.265  23.752  28.007  1.00  0.00    -0.014 A 
ATOM     85  C   UNL A   1      41.867  22.639  28.769  1.00  0.00     0.010 A 
ATOM     86  C   UNL A   1      42.526  23.579  26.634  1.00  0.00     0.010 A 
ATOM     87  C   UNL A   1      41.762  21.375  28.179  1.00  0.00     0.020 A 
ATOM     88  C   UNL A   1      42.390  22.325  26.034  1.00  0.00     0.020 A 
ATOM     89  C   UNL A   1      42.025  21.227  26.814  1.00  0.00     0.054 A 
BRANCH  89  90
ATOM     90  S   UNL A   1      41.856  19.584  26.062  1.00  0.00     0.124 S 
ATOM     91  O   UNL A   1      40.424  19.525  25.784  1.00  0.00    -0.237 OA
ATOM     92  O   UNL A   1      42.726  19.682  24.893  1.00  0.00    -0.237 OA
ATOM     93  O   UNL A   1      42.330  18.679  27.108  1.00  0.00    -0.744 OA
ENDBRANCH  89  90
ENDBRANCH  61  84
BRANCH  73  94
ATOM     94  C   UNL A   1      47.531  26.911  31.322  1.00  0.00    -0.014 A 
ATOM     95  C   UNL A   1      48.644  27.090  30.481  1.00  0.00     0.010 A 
ATOM     96  C   UNL A   1      47.720  26.336  32.593  1.00  0.00     0.010 A 
ATOM     97  C   UNL A   1      49.913  26.674  30.891  1.00  0.00     0.020 A 
ATOM     98  C   UNL A   1      48.992  25.947  33.018  1.00  0.00     0.020 A 
ATOM     99  C   UNL A   1      50.079  26.106  32.158  1.00  0.00     0.054 A 
BRANCH  99 100
ATOM    100  S   UNL A   1      51.745  25.615  32.683  1.00  0.00     0.124 S 
ATOM    101  O   UNL A   1      51.927  24.352  31.974  1.00  0.00    -0.237 OA
ATOM    102  O   UNL A   1      52.569  26.725  32.210  1.00  0.00    -0.237 OA
ATOM    103  O   UNL A   1      51.633  25.505  34.135  1.00  0.00    -0.744 OA
ENDBRANCH  99 100
ENDBRANCH  73  94
ENDBRANCH  47  48
ENDBRANCH  39  42
ENDBRANCH  37  38
ENDBRANCH  36  37
ENDBRANCH   1  36
TORSDOF 18
ENDMDL
MODEL 3
REMARK VINA RESULT:     -10.7      5.929     17.368
REMARK SMILES C[C@@H](Oc1ccc(/C=C2\C(=O)[NH+]=C(NCCCCNC(=O)c3ccc(-c4c5nc(c(-c6ccc(S(=O)(=O)[O-])cc6)c6ccc([nH]6)c(-c6ccc(S(=O)(=O)[O-])cc6)c6nc(c(-c7ccc(S(=O)(=O)[O-])cc7)c7ccc4[nH]7)C=C6)C=C5)cc3)N(c3ccc4c(c3)OCO4)C2=O)cc1)C(=O)[O-]
REMARK SMILES IDX 16 1 15 2 14 3 8 4 9 5 10 6 92 7 11 8 12 9 82 10 93 11 13 12
REMARK SMILES IDX 7 15 4 16 5 17 95 18 6 19 94 20 3 21 2 22 1 23 96 24 97 25
REMARK SMILES IDX 98 26 83 27 84 28 88 29 85 30 87 31 86 32 89 33 91 34 90 35
REMARK SMILES IDX 17 36 18 37 19 38 20 39 21 41 22 42 23 43 81 44 24 45 80 46
REMARK SMILES IDX 25 47 26 48 27 49 74 50 28 51 79 52 73 53 75 54 29 55 78 56
REMARK SMILES IDX 72 57 71 58 30 60 60 61 41 62 59 63 42 64 45 65 58 66 76 67
REMARK SMILES IDX 43 68 44 69 57 71 77 72 46 73 31 74 32 75 40 76 33 77 39 78
REMARK SMILES IDX 34 79 35 80 36 81 37 82 38 83 61 84 62 85 70 86 63 87 69 88
REMARK SMILES IDX 64 89 65 90 66 91 67 92 68 93 47 94 48 95 56 96 49 97 55 98
REMARK SMILES IDX 50 99 51 100 52 101 53 102 54 103
REMARK H PARENT 12 13 14 14 19 40 75 59 45 70
REMARK Flexibility Score: inf
ROOT
ATOM      1  C   UNL A   1      43.509  38.793  29.304  1.00  0.00     0.039 C 
ENDROOT
BRANCH   1   2
ATOM      2  C   UNL A   1      42.698  40.005  28.857  1.00  0.00     0.197 C 
BRANCH   2   3
ATOM      3  N   UNL A   1      43.489  41.216  28.964  1.00  0.00    -0.277 N 
ATOM      4  C   UNL A   1      44.550  44.307  24.764  1.00  0.00     0.031 C 
ATOM      5  C   UNL A   1      44.701  43.386  25.735  1.00  0.00     0.138 C 
ATOM      6  C   UNL A   1      44.523  41.931  25.622  1.00  0.00     0.321 C 
ATOM      7  C   UNL A   1      45.089  43.896  27.065  1.00  0.00     0.328 C 
ATOM      8  O   UNL A   1      44.836  41.310  24.612  1.00  0.00    -0.250 OA
ATOM      9  N   UNL A   1      43.964  41.337  26.715  1.00  0.00    -0.210 N 
ATOM     10  N   UNL A   1      44.739  43.056  28.115  1.00  0.00    -0.162 N 
ATOM     11  O   UNL A   1      45.649  44.986  27.186  1.00  0.00    -0.249 OA
ATOM     12  C   UNL A   1      44.078  41.853  27.900  1.00  0.00     0.366 C 
ATOM     13  H   UNL A   1      43.462  40.498  26.601  1.00  0.00     0.270 HD
ATOM     14  H   UNL A   1      43.611  41.606  29.859  1.00  0.00     0.260 HD
BRANCH   4  15
ATOM     15  C   UNL A   1      44.124  44.189  23.362  1.00  0.00    -0.024 A 
ATOM     16  C   UNL A   1      43.169  43.761  20.747  1.00  0.00     0.120 A 
ATOM     17  C   UNL A   1      44.502  44.102  20.960  1.00  0.00     0.047 A 
ATOM     18  C   UNL A   1      42.323  43.585  21.835  1.00  0.00     0.047 A 
ATOM     19  C   UNL A   1      44.979  44.303  22.260  1.00  0.00     0.012 A 
ATOM     20  C   UNL A   1      42.792  43.813  23.129  1.00  0.00     0.012 A 
BRANCH  16  21
ATOM     21  O   UNL A   1      42.778  43.463  19.474  1.00  0.00    -0.485 OA
BRANCH  21  22
ATOM     22  C   UNL A   1      42.370  44.600  18.700  1.00  0.00     0.216 C 
ATOM     23  C   UNL A   1      40.853  44.758  18.671  1.00  0.00     0.059 C 
BRANCH  22  24
ATOM     24  C   UNL A   1      42.835  44.387  17.263  1.00  0.00     0.082 C 
ATOM     25  O   UNL A   1      43.468  43.427  16.849  1.00  0.00    -0.546 OA
ATOM     26  O   UNL A   1      42.570  45.422  16.438  1.00  0.00    -0.546 OA
ENDBRANCH  22  24
ENDBRANCH  21  22
ENDBRANCH  16  21
ENDBRANCH   4  15
BRANCH  10  27
ATOM     27  C   UNL A   1      45.001  43.550  29.420  1.00  0.00     0.115 A 
ATOM     28  C   UNL A   1      44.063  44.397  30.051  1.00  0.00     0.048 A 
ATOM     29  C   UNL A   1      46.093  43.033  30.130  1.00  0.00     0.094 A 
ATOM     30  C   UNL A   1      44.183  44.679  31.417  1.00  0.00     0.054 A 
ATOM     31  C   UNL A   1      46.167  43.316  31.472  1.00  0.00     0.169 A 
ATOM     32  C   UNL A   1      45.229  44.099  32.103  1.00  0.00     0.166 A 
ATOM     33  O   UNL A   1      47.094  42.814  32.332  1.00  0.00    -0.453 OA
ATOM     34  O   UNL A   1      45.444  44.165  33.444  1.00  0.00    -0.454 OA
ATOM     35  C   UNL A   1      46.496  43.188  33.592  1.00  0.00     0.468 C 
ENDBRANCH  10  27
ENDBRANCH   2   3
ENDBRANCH   1   2
BRANCH   1  36
ATOM     36  C   UNL A   1      44.351  38.148  28.201  1.00  0.00     0.024 C 
BRANCH  36  37
ATOM     37  C   UNL A   1      43.623  37.902  26.883  1.00  0.00     0.116 C 
BRANCH  37  38
ATOM     38  N   UNL A   1      42.301  37.321  27.062  1.00  0.00    -0.352 N 
ATOM     39  C   UNL A   1      41.930  35.997  27.071  1.00  0.00     0.251 C 
ATOM     40  H   UNL A   1      41.570  37.966  27.195  1.00  0.00     0.163 HD
ATOM     41  O   UNL A   1      40.741  35.696  27.098  1.00  0.00    -0.269 OA
BRANCH  39  42
ATOM     42  C   UNL A   1      42.964  34.940  27.014  1.00  0.00     0.039 A 
ATOM     43  C   UNL A   1      43.424  34.515  25.765  1.00  0.00     0.014 A 
ATOM     44  C   UNL A   1      43.489  34.380  28.182  1.00  0.00     0.014 A 
ATOM     45  C   UNL A   1      44.461  33.582  25.690  1.00  0.00     0.010 A 
ATOM     46  C   UNL A   1      44.571  33.507  28.107  1.00  0.00     0.010 A 
ATOM     47  C   UNL A   1      45.072  33.099  26.860  1.00  0.00    -0.014 A 
BRANCH  47  48
ATOM     48  C   UNL A   1      46.237  32.179  26.798  1.00  0.00     0.031 A 
ATOM     49  C   UNL A   1      47.634  32.728  26.677  1.00  0.00     0.074 A 
ATOM     50  C   UNL A   1      46.035  30.845  26.794  1.00  0.00     0.049 A 
ATOM     51  N   UNL A   1      48.764  32.082  26.540  1.00  0.00    -0.248 NA
ATOM     52  C   UNL A   1      47.778  34.193  26.689  1.00  0.00     0.031 C 
ATOM     53  C   UNL A   1      44.729  30.184  26.865  1.00  0.00     0.029 A 
ATOM     54  N   UNL A   1      46.928  29.804  26.716  1.00  0.00    -0.354 N 
ATOM     55  C   UNL A   1      49.749  33.059  26.446  1.00  0.00     0.074 A 
ATOM     56  C   UNL A   1      49.078  34.340  26.481  1.00  0.00     0.031 C 
ATOM     57  C   UNL A   1      44.908  28.853  26.845  1.00  0.00     0.029 A 
ATOM     58  C   UNL A   1      46.331  28.563  26.717  1.00  0.00     0.049 A 
ATOM     59  H   UNL A   1      47.902  29.932  26.665  1.00  0.00     0.167 HD
ATOM     60  C   UNL A   1      51.092  32.905  26.367  1.00  0.00     0.031 A 
ATOM     61  C   UNL A   1      46.867  27.331  26.610  1.00  0.00     0.031 A 
ATOM     62  C   UNL A   1      51.760  31.631  26.333  1.00  0.00     0.049 A 
ATOM     63  C   UNL A   1      48.361  27.187  26.494  1.00  0.00     0.074 A 
ATOM     64  C   UNL A   1      53.120  31.373  26.281  1.00  0.00     0.029 A 
ATOM     65  N   UNL A   1      51.121  30.401  26.351  1.00  0.00    -0.354 N 
ATOM     66  N   UNL A   1      49.278  28.124  26.461  1.00  0.00    -0.248 NA
ATOM     67  C   UNL A   1      48.893  25.820  26.417  1.00  0.00     0.031 C 
ATOM     68  C   UNL A   1      53.300  29.988  26.218  1.00  0.00     0.029 A 
ATOM     69  C   UNL A   1      52.057  29.381  26.295  1.00  0.00     0.049 A 
ATOM     70  H   UNL A   1      50.146  30.270  26.397  1.00  0.00     0.167 HD
ATOM     71  C   UNL A   1      50.497  27.458  26.387  1.00  0.00     0.074 A 
ATOM     72  C   UNL A   1      50.200  26.040  26.401  1.00  0.00     0.031 C 
ATOM     73  C   UNL A   1      51.749  27.974  26.314  1.00  0.00     0.031 A 
BRANCH  60  74
ATOM     74  C   UNL A   1      51.935  34.154  26.320  1.00  0.00    -0.014 A 
ATOM     75  C   UNL A   1      52.241  34.771  25.093  1.00  0.00     0.010 A 
ATOM     76  C   UNL A   1      52.381  34.750  27.514  1.00  0.00     0.010 A 
ATOM     77  C   UNL A   1      53.006  35.939  25.058  1.00  0.00     0.020 A 
ATOM     78  C   UNL A   1      53.121  35.936  27.485  1.00  0.00     0.020 A 
ATOM     79  C   UNL A   1      53.441  36.515  26.255  1.00  0.00     0.054 A 
BRANCH  79  80
ATOM     80  S   UNL A   1      54.403  38.050  26.177  1.00  0.00     0.124 S 
ATOM     81  O   UNL A   1      55.456  37.698  25.228  1.00  0.00    -0.237 OA
ATOM     82  O   UNL A   1      53.420  39.018  25.695  1.00  0.00    -0.237 OA
ATOM     83  O   UNL A   1      54.847  38.252  27.555  1.00  0.00    -0.744 OA
ENDBRANCH  79  80
ENDBRANCH  60  74
BRANCH  61  84
ATOM     84  C   UNL A   1      45.983  26.132  26.596  1.00  0.00    -0.014 A 
ATOM     85  C   UNL A   1      45.548  25.540  27.795  1.00  0.00     0.010 A 
ATOM     86  C   UNL A   1      45.578  25.567  25.372  1.00  0.00     0.010 A 
ATOM     87  C   UNL A   1      44.754  24.389  27.772  1.00  0.00     0.020 A 
ATOM     88  C   UNL A   1      44.757  24.437  25.344  1.00  0.00     0.020 A 
ATOM     89  C   UNL A   1      44.363  23.845  26.545  1.00  0.00     0.054 A 
BRANCH  89  90
ATOM     90  S   UNL A   1      43.308  22.368  26.537  1.00  0.00     0.124 S 
ATOM     91  O   UNL A   1      42.096  22.867  25.894  1.00  0.00    -0.237 OA
ATOM     92  O   UNL A   1      44.098  21.421  25.754  1.00  0.00    -0.237 OA
ATOM     93  O   UNL A   1      43.176  22.036  27.954  1.00  0.00    -0.744 OA
ENDBRANCH  89  90
ENDBRANCH  61  84
BRANCH  73  94
ATOM     94  C   UNL A   1      52.900  27.003  26.283  1.00  0.00    -0.014 A 
ATOM     95  C   UNL A   1      53.528  26.573  27.465  1.00  0.00     0.010 A 
ATOM     96  C   UNL A   1      53.322  26.468  25.050  1.00  0.00     0.010 A 
ATOM     97  C   UNL A   1      54.578  25.653  27.413  1.00  0.00     0.020 A 
ATOM     98  C   UNL A   1      54.351  25.526  24.997  1.00  0.00     0.020 A 
ATOM     99  C   UNL A   1      54.983  25.134  26.178  1.00  0.00     0.054 A 
BRANCH  99 100
ATOM    100  S   UNL A   1      56.319  23.907  26.143  1.00  0.00     0.124 S 
ATOM    101  O   UNL A   1      57.121  24.299  27.298  1.00  0.00    -0.237 OA
ATOM    102  O   UNL A   1      55.597  22.645  26.279  1.00  0.00    -0.237 OA
ATOM    103  O   UNL A   1      56.951  24.121  24.843  1.00  0.00    -0.744 OA
ENDBRANCH  99 100
ENDBRANCH  73  94
ENDBRANCH  47  48
ENDBRANCH  39  42
ENDBRANCH  37  38
ENDBRANCH  36  37
ENDBRANCH   1  36
TORSDOF 18
ENDMDL
