MODEL 1
REMARK VINA RESULT:     -11.5      0.000      0.000
REMARK SMILES O=C(NCCCCNC(=O)[C@H]1CC=CC[C@H]1C(=O)N[C@@H]1CCN(c2cccc(Cl)c2)C1)c1ccc(-c2c3nc(c(-c4ccc(S(=O)(=O)[O-])cc4)c4ccc([nH]4)c(-c4ccc(S(=O)(=O)[O-])cc4)c4nc(c(-c5ccc(S(=O)(=O)[O-])cc5)c5ccc2[nH]5)C=C4)C=C3)cc1
REMARK SMILES IDX 5 1 4 2 3 3 1 4 2 5 32 7 33 8 91 9 34 10 90 11 35 12 36 13
REMARK SMILES IDX 37 14 84 15 38 16 89 17 83 18 85 19 39 20 88 21 82 22 81 23
REMARK SMILES IDX 40 25 70 26 51 27 69 28 52 29 55 30 68 31 86 32 53 33 54 34
REMARK SMILES IDX 67 36 87 37 56 38 41 39 42 40 50 41 43 42 49 43 44 44 45 45
REMARK SMILES IDX 46 46 47 47 48 48 71 49 72 50 80 51 73 52 79 53 74 54 75 55
REMARK SMILES IDX 76 56 77 57 78 58 57 59 58 60 66 61 59 62 65 63 60 64 61 65
REMARK SMILES IDX 62 66 63 67 64 68 6 69 7 70 8 71 9 72 10 74 11 75 12 76
REMARK SMILES IDX 16 77 13 78 15 79 14 80 17 81 18 82 19 83 20 85 21 86 31 87
REMARK SMILES IDX 22 88 23 89 24 90 25 91 30 92 26 93 28 94 27 95 29 96
REMARK H PARENT 3 6 85 24 55 35 8 73 19 84
REMARK Flexibility Score: inf
ROOT
ATOM      1  C   UNL A   1      32.260  27.468  27.410  1.00  0.00     0.023 C 
ENDROOT
BRANCH   1   2
ATOM      2  C   UNL A   1      33.505  28.299  27.138  1.00  0.00     0.116 C 
BRANCH   2   3
ATOM      3  N   UNL A   1      33.342  29.708  27.443  1.00  0.00    -0.352 N 
ATOM      4  O   UNL A   1      33.901  31.738  28.250  1.00  0.00    -0.269 OA
ATOM      5  C   UNL A   1      34.250  30.598  27.976  1.00  0.00     0.251 C 
ATOM      6  H   UNL A   1      32.455  30.083  27.240  1.00  0.00     0.163 HD
BRANCH   5   7
ATOM      7  C   UNL A   1      35.633  30.150  28.251  1.00  0.00     0.039 A 
ATOM      8  C   UNL A   1      36.000  29.706  29.522  1.00  0.00     0.014 A 
ATOM      9  C   UNL A   1      36.584  30.203  27.226  1.00  0.00     0.014 A 
ATOM     10  C   UNL A   1      37.339  29.492  29.815  1.00  0.00     0.010 A 
ATOM     11  C   UNL A   1      37.918  29.878  27.498  1.00  0.00     0.010 A 
ATOM     12  C   UNL A   1      38.315  29.556  28.804  1.00  0.00    -0.014 A 
BRANCH  12  13
ATOM     13  C   UNL A   1      39.717  29.206  29.147  1.00  0.00     0.031 A 
ATOM     14  C   UNL A   1      40.309  27.867  28.798  1.00  0.00     0.074 A 
ATOM     15  C   UNL A   1      40.483  30.154  29.724  1.00  0.00     0.049 A 
ATOM     16  N   UNL A   1      41.541  27.451  28.955  1.00  0.00    -0.248 NA
ATOM     17  C   UNL A   1      39.412  26.864  28.205  1.00  0.00     0.031 C 
ATOM     18  C   UNL A   1      40.012  31.484  30.130  1.00  0.00     0.029 A 
ATOM     19  N   UNL A   1      41.818  30.170  30.033  1.00  0.00    -0.354 N 
ATOM     20  C   UNL A   1      41.568  26.140  28.494  1.00  0.00     0.074 A 
ATOM     21  C   UNL A   1      40.219  25.817  28.076  1.00  0.00     0.031 C 
ATOM     22  C   UNL A   1      41.051  32.206  30.565  1.00  0.00     0.029 A 
ATOM     23  C   UNL A   1      42.248  31.375  30.537  1.00  0.00     0.049 A 
ATOM     24  H   UNL A   1      42.410  29.395  29.907  1.00  0.00     0.167 HD
ATOM     25  C   UNL A   1      42.619  25.288  28.418  1.00  0.00     0.031 A 
ATOM     26  C   UNL A   1      43.468  31.772  30.944  1.00  0.00     0.031 A 
ATOM     27  C   UNL A   1      43.958  25.614  28.843  1.00  0.00     0.049 A 
ATOM     28  C   UNL A   1      44.611  30.808  30.849  1.00  0.00     0.074 A 
ATOM     29  C   UNL A   1      45.091  24.819  28.806  1.00  0.00     0.029 A 
ATOM     30  N   UNL A   1      44.347  26.833  29.377  1.00  0.00    -0.354 N 
ATOM     31  N   UNL A   1      44.614  29.578  30.395  1.00  0.00    -0.248 NA
ATOM     32  C   UNL A   1      45.917  31.286  31.317  1.00  0.00     0.031 C 
ATOM     33  C   UNL A   1      46.155  25.543  29.355  1.00  0.00     0.029 A 
ATOM     34  C   UNL A   1      45.698  26.808  29.685  1.00  0.00     0.049 A 
ATOM     35  H   UNL A   1      43.750  27.605  29.517  1.00  0.00     0.167 HD
ATOM     36  C   UNL A   1      45.921  29.131  30.525  1.00  0.00     0.074 A 
ATOM     37  C   UNL A   1      46.689  30.238  31.062  1.00  0.00     0.031 C 
ATOM     38  C   UNL A   1      46.440  27.912  30.237  1.00  0.00     0.031 A 
BRANCH  25  39
ATOM     39  C   UNL A   1      42.367  23.909  27.866  1.00  0.00    -0.014 A 
ATOM     40  C   UNL A   1      42.459  23.654  26.485  1.00  0.00     0.010 A 
ATOM     41  C   UNL A   1      42.103  22.839  28.741  1.00  0.00     0.010 A 
ATOM     42  C   UNL A   1      42.263  22.362  25.989  1.00  0.00     0.020 A 
ATOM     43  C   UNL A   1      41.930  21.540  28.250  1.00  0.00     0.020 A 
ATOM     44  C   UNL A   1      41.998  21.313  26.874  1.00  0.00     0.054 A 
BRANCH  44  45
ATOM     45  S   UNL A   1      41.785  19.640  26.203  1.00  0.00     0.124 S 
ATOM     46  O   UNL A   1      42.322  18.814  27.282  1.00  0.00    -0.237 OA
ATOM     47  O   UNL A   1      40.340  19.554  26.010  1.00  0.00    -0.237 OA
ATOM     48  O   UNL A   1      42.576  19.654  24.975  1.00  0.00    -0.744 OA
ENDBRANCH  44  45
ENDBRANCH  25  39
BRANCH  26  49
ATOM     49  C   UNL A   1      43.650  33.138  31.502  1.00  0.00    -0.014 A 
ATOM     50  C   UNL A   1      43.507  33.384  32.878  1.00  0.00     0.010 A 
ATOM     51  C   UNL A   1      43.996  34.203  30.648  1.00  0.00     0.010 A 
ATOM     52  C   UNL A   1      43.687  34.673  33.387  1.00  0.00     0.020 A 
ATOM     53  C   UNL A   1      44.208  35.485  31.158  1.00  0.00     0.020 A 
ATOM     54  C   UNL A   1      44.037  35.715  32.522  1.00  0.00     0.054 A 
BRANCH  54  55
ATOM     55  S   UNL A   1      44.313  37.373  33.205  1.00  0.00     0.124 S 
ATOM     56  O   UNL A   1      44.303  38.200  32.004  1.00  0.00    -0.237 OA
ATOM     57  O   UNL A   1      43.172  37.542  34.101  1.00  0.00    -0.237 OA
ATOM     58  O   UNL A   1      45.606  37.252  33.875  1.00  0.00    -0.744 OA
ENDBRANCH  54  55
ENDBRANCH  26  49
BRANCH  38  59
ATOM     59  C   UNL A   1      47.910  27.726  30.495  1.00  0.00    -0.014 A 
ATOM     60  C   UNL A   1      48.861  28.000  29.496  1.00  0.00     0.010 A 
ATOM     61  C   UNL A   1      48.346  27.273  31.753  1.00  0.00     0.010 A 
ATOM     62  C   UNL A   1      50.219  27.776  29.733  1.00  0.00     0.020 A 
ATOM     63  C   UNL A   1      49.706  27.074  32.003  1.00  0.00     0.020 A 
ATOM     64  C   UNL A   1      50.632  27.306  30.984  1.00  0.00     0.054 A 
BRANCH  64  65
ATOM     65  S   UNL A   1      52.400  27.027  31.272  1.00  0.00     0.124 S 
ATOM     66  O   UNL A   1      53.003  27.672  30.109  1.00  0.00    -0.237 OA
ATOM     67  O   UNL A   1      52.629  27.694  32.551  1.00  0.00    -0.237 OA
ATOM     68  O   UNL A   1      52.518  25.570  31.307  1.00  0.00    -0.744 OA
ENDBRANCH  64  65
ENDBRANCH  38  59
ENDBRANCH  12  13
ENDBRANCH   5   7
ENDBRANCH   2   3
ENDBRANCH   1   2
BRANCH   1  69
ATOM     69  C   UNL A   1      31.954  26.371  26.397  1.00  0.00     0.023 C 
BRANCH  69  70
ATOM     70  C   UNL A   1      33.149  25.578  25.877  1.00  0.00     0.116 C 
BRANCH  70  71
ATOM     71  N   UNL A   1      33.309  24.276  26.496  1.00  0.00    -0.356 N 
ATOM     72  C   UNL A   1      34.412  23.484  26.517  1.00  0.00     0.224 C 
ATOM     73  H   UNL A   1      32.516  23.921  26.961  1.00  0.00     0.163 HD
ATOM     74  O   UNL A   1      34.520  22.711  27.470  1.00  0.00    -0.275 OA
BRANCH  72  75
ATOM     75  C   UNL A   1      35.444  23.572  25.395  1.00  0.00     0.095 C 
ATOM     76  C   UNL A   1      36.783  24.153  25.909  1.00  0.00     0.041 C 
ATOM     77  C   UNL A   1      35.579  22.313  24.496  1.00  0.00     0.095 C 
ATOM     78  C   UNL A   1      37.931  23.204  26.026  1.00  0.00    -0.030 C 
ATOM     79  C   UNL A   1      36.933  21.578  24.430  1.00  0.00     0.041 C 
ATOM     80  C   UNL A   1      38.004  22.056  25.348  1.00  0.00    -0.030 C 
BRANCH  77  81
ATOM     81  C   UNL A   1      34.451  21.278  24.449  1.00  0.00     0.224 C 
ATOM     82  O   UNL A   1      34.628  20.205  25.047  1.00  0.00    -0.275 OA
ATOM     83  N   UNL A   1      33.206  21.455  23.945  1.00  0.00    -0.351 N 
ATOM     84  H   UNL A   1      32.536  20.948  24.458  1.00  0.00     0.163 HD
BRANCH  83  85
ATOM     85  C   UNL A   1      32.581  22.202  22.837  1.00  0.00     0.103 C 
ATOM     86  C   UNL A   1      33.417  23.206  22.068  1.00  0.00     0.048 C 
ATOM     87  C   UNL A   1      31.331  23.043  23.293  1.00  0.00     0.141 C 
ATOM     88  C   UNL A   1      33.053  24.554  22.625  1.00  0.00     0.119 C 
ATOM     89  N   UNL A   1      31.633  24.411  22.869  1.00  0.00    -0.369 N 
BRANCH  89  90
ATOM     90  C   UNL A   1      30.909  25.558  23.078  1.00  0.00     0.038 A 
ATOM     91  C   UNL A   1      29.690  25.480  23.779  1.00  0.00     0.026 A 
ATOM     92  C   UNL A   1      31.281  26.801  22.568  1.00  0.00     0.046 A 
ATOM     93  C   UNL A   1      28.832  26.571  23.906  1.00  0.00     0.004 A 
ATOM     94  C   UNL A   1      30.416  27.897  22.681  1.00  0.00     0.043 A 
ATOM     95  C   UNL A   1      29.190  27.783  23.336  1.00  0.00     0.020 A 
ATOM     96  Cl  UNL A   1      30.845  29.402  21.961  1.00  0.00    -0.084 Cl
ENDBRANCH  89  90
ENDBRANCH  83  85
ENDBRANCH  77  81
ENDBRANCH  72  75
ENDBRANCH  70  71
ENDBRANCH  69  70
ENDBRANCH   1  69
TORSDOF 17
ENDMDL
MODEL 2
REMARK VINA RESULT:     -11.3      4.443      9.225
REMARK SMILES O=C(NCCCCNC(=O)[C@H]1CC=CC[C@H]1C(=O)N[C@@H]1CCN(c2cccc(Cl)c2)C1)c1ccc(-c2c3nc(c(-c4ccc(S(=O)(=O)[O-])cc4)c4ccc([nH]4)c(-c4ccc(S(=O)(=O)[O-])cc4)c4nc(c(-c5ccc(S(=O)(=O)[O-])cc5)c5ccc2[nH]5)C=C4)C=C3)cc1
REMARK SMILES IDX 5 1 4 2 3 3 1 4 2 5 32 7 33 8 91 9 34 10 90 11 35 12 36 13
REMARK SMILES IDX 37 14 84 15 38 16 89 17 83 18 85 19 39 20 88 21 82 22 81 23
REMARK SMILES IDX 40 25 70 26 51 27 69 28 52 29 55 30 68 31 86 32 53 33 54 34
REMARK SMILES IDX 67 36 87 37 56 38 41 39 42 40 50 41 43 42 49 43 44 44 45 45
REMARK SMILES IDX 46 46 47 47 48 48 71 49 72 50 80 51 73 52 79 53 74 54 75 55
REMARK SMILES IDX 76 56 77 57 78 58 57 59 58 60 66 61 59 62 65 63 60 64 61 65
REMARK SMILES IDX 62 66 63 67 64 68 6 69 7 70 8 71 9 72 10 74 11 75 12 76
REMARK SMILES IDX 16 77 13 78 15 79 14 80 17 81 18 82 19 83 20 85 21 86 31 87
REMARK SMILES IDX 22 88 23 89 24 90 25 91 30 92 26 93 28 94 27 95 29 96
REMARK H PARENT 3 6 85 24 55 35 8 73 19 84
REMARK Flexibility Score: inf
ROOT
ATOM      1  C   UNL A   1      39.295  22.235  26.549  1.00  0.00     0.023 C 
ENDROOT
BRANCH   1   2
ATOM      2  C   UNL A   1      39.565  23.705  26.827  1.00  0.00     0.116 C 
BRANCH   2   3
ATOM      3  N   UNL A   1      40.530  24.302  25.922  1.00  0.00    -0.352 N 
ATOM      4  O   UNL A   1      41.871  25.904  25.076  1.00  0.00    -0.269 OA
ATOM      5  C   UNL A   1      41.145  25.534  25.987  1.00  0.00     0.251 C 
ATOM      6  H   UNL A   1      40.783  23.746  25.150  1.00  0.00     0.163 HD
BRANCH   5   7
ATOM      7  C   UNL A   1      40.887  26.416  27.147  1.00  0.00     0.039 A 
ATOM      8  C   UNL A   1      41.535  27.646  27.265  1.00  0.00     0.014 A 
ATOM      9  C   UNL A   1      40.003  25.991  28.144  1.00  0.00     0.014 A 
ATOM     10  C   UNL A   1      41.443  28.359  28.452  1.00  0.00     0.010 A 
ATOM     11  C   UNL A   1      39.826  26.769  29.294  1.00  0.00     0.010 A 
ATOM     12  C   UNL A   1      40.573  27.942  29.476  1.00  0.00    -0.014 A 
BRANCH  12  13
ATOM     13  C   UNL A   1      40.426  28.802  30.678  1.00  0.00     0.031 A 
ATOM     14  C   UNL A   1      41.358  28.688  31.854  1.00  0.00     0.074 A 
ATOM     15  C   UNL A   1      39.468  29.751  30.663  1.00  0.00     0.049 A 
ATOM     16  N   UNL A   1      41.406  29.427  32.934  1.00  0.00    -0.248 NA
ATOM     17  C   UNL A   1      42.357  27.608  31.824  1.00  0.00     0.031 C 
ATOM     18  C   UNL A   1      38.489  29.942  29.586  1.00  0.00     0.029 A 
ATOM     19  N   UNL A   1      39.180  30.755  31.551  1.00  0.00    -0.354 N 
ATOM     20  C   UNL A   1      42.428  28.901  33.716  1.00  0.00     0.074 A 
ATOM     21  C   UNL A   1      42.956  27.759  33.000  1.00  0.00     0.031 C 
ATOM     22  C   UNL A   1      37.761  31.036  29.842  1.00  0.00     0.029 A 
ATOM     23  C   UNL A   1      38.168  31.585  31.129  1.00  0.00     0.049 A 
ATOM     24  H   UNL A   1      39.651  30.870  32.407  1.00  0.00     0.167 HD
ATOM     25  C   UNL A   1      42.888  29.334  34.915  1.00  0.00     0.031 A 
ATOM     26  C   UNL A   1      37.616  32.664  31.713  1.00  0.00     0.031 A 
ATOM     27  C   UNL A   1      42.353  30.469  35.627  1.00  0.00     0.049 A 
ATOM     28  C   UNL A   1      38.145  33.120  33.039  1.00  0.00     0.074 A 
ATOM     29  C   UNL A   1      42.751  30.987  36.847  1.00  0.00     0.029 A 
ATOM     30  N   UNL A   1      41.308  31.264  35.181  1.00  0.00    -0.354 N 
ATOM     31  N   UNL A   1      39.122  32.613  33.752  1.00  0.00    -0.248 NA
ATOM     32  C   UNL A   1      37.500  34.294  33.638  1.00  0.00     0.031 C 
ATOM     33  C   UNL A   1      41.921  32.069  37.158  1.00  0.00     0.029 A 
ATOM     34  C   UNL A   1      41.040  32.259  36.107  1.00  0.00     0.049 A 
ATOM     35  H   UNL A   1      40.827  31.140  34.330  1.00  0.00     0.167 HD
ATOM     36  C   UNL A   1      39.209  33.405  34.888  1.00  0.00     0.074 A 
ATOM     37  C   UNL A   1      38.212  34.449  34.746  1.00  0.00     0.031 C 
ATOM     38  C   UNL A   1      40.031  33.277  35.958  1.00  0.00     0.031 A 
BRANCH  25  39
ATOM     39  C   UNL A   1      44.022  28.572  35.549  1.00  0.00    -0.014 A 
ATOM     40  C   UNL A   1      45.361  28.939  35.316  1.00  0.00     0.010 A 
ATOM     41  C   UNL A   1      43.751  27.520  36.443  1.00  0.00     0.010 A 
ATOM     42  C   UNL A   1      46.404  28.250  35.942  1.00  0.00     0.020 A 
ATOM     43  C   UNL A   1      44.791  26.843  37.089  1.00  0.00     0.020 A 
ATOM     44  C   UNL A   1      46.113  27.206  36.824  1.00  0.00     0.054 A 
BRANCH  44  45
ATOM     45  S   UNL A   1      47.487  26.354  37.649  1.00  0.00     0.124 S 
ATOM     46  O   UNL A   1      48.124  25.661  36.532  1.00  0.00    -0.237 OA
ATOM     47  O   UNL A   1      48.252  27.459  38.220  1.00  0.00    -0.237 OA
ATOM     48  O   UNL A   1      46.825  25.489  38.623  1.00  0.00    -0.744 OA
ENDBRANCH  44  45
ENDBRANCH  25  39
BRANCH  26  49
ATOM     49  C   UNL A   1      36.482  33.361  31.049  1.00  0.00    -0.014 A 
ATOM     50  C   UNL A   1      35.239  33.495  31.690  1.00  0.00     0.010 A 
ATOM     51  C   UNL A   1      36.658  33.921  29.769  1.00  0.00     0.010 A 
ATOM     52  C   UNL A   1      34.186  34.158  31.053  1.00  0.00     0.020 A 
ATOM     53  C   UNL A   1      35.618  34.611  29.145  1.00  0.00     0.020 A 
ATOM     54  C   UNL A   1      34.382  34.712  29.785  1.00  0.00     0.054 A 
BRANCH  54  55
ATOM     55  S   UNL A   1      33.020  35.610  28.993  1.00  0.00     0.124 S 
ATOM     56  O   UNL A   1      33.732  36.629  28.230  1.00  0.00    -0.237 OA
ATOM     57  O   UNL A   1      32.367  34.568  28.205  1.00  0.00    -0.237 OA
ATOM     58  O   UNL A   1      32.238  36.104  30.125  1.00  0.00    -0.744 OA
ENDBRANCH  54  55
ENDBRANCH  26  49
BRANCH  38  59
ATOM     59  C   UNL A   1      39.883  34.300  37.051  1.00  0.00    -0.014 A 
ATOM     60  C   UNL A   1      39.129  34.022  38.205  1.00  0.00     0.010 A 
ATOM     61  C   UNL A   1      40.505  35.554  36.922  1.00  0.00     0.010 A 
ATOM     62  C   UNL A   1      38.958  34.998  39.189  1.00  0.00     0.020 A 
ATOM     63  C   UNL A   1      40.360  36.524  37.918  1.00  0.00     0.020 A 
ATOM     64  C   UNL A   1      39.569  36.246  39.035  1.00  0.00     0.054 A 
BRANCH  64  65
ATOM     65  S   UNL A   1      39.338  37.498  40.326  1.00  0.00     0.124 S 
ATOM     66  O   UNL A   1      38.624  36.746  41.354  1.00  0.00    -0.237 OA
ATOM     67  O   UNL A   1      40.710  37.874  40.661  1.00  0.00    -0.237 OA
ATOM     68  O   UNL A   1      38.559  38.540  39.661  1.00  0.00    -0.744 OA
ENDBRANCH  64  65
ENDBRANCH  38  59
ENDBRANCH  12  13
ENDBRANCH   5   7
ENDBRANCH   2   3
ENDBRANCH   1   2
BRANCH   1  69
ATOM     69  C   UNL A   1      38.035  21.925  25.751  1.00  0.00     0.023 C 
BRANCH  69  70
ATOM     70  C   UNL A   1      36.966  23.012  25.725  1.00  0.00     0.116 C 
BRANCH  70  71
ATOM     71  N   UNL A   1      35.807  22.722  26.546  1.00  0.00    -0.356 N 
ATOM     72  C   UNL A   1      34.852  21.776  26.350  1.00  0.00     0.224 C 
ATOM     73  H   UNL A   1      35.697  23.284  27.347  1.00  0.00     0.163 HD
ATOM     74  O   UNL A   1      34.278  21.353  27.355  1.00  0.00    -0.275 OA
BRANCH  72  75
ATOM     75  C   UNL A   1      34.531  21.286  24.940  1.00  0.00     0.095 C 
ATOM     76  C   UNL A   1      35.251  19.951  24.632  1.00  0.00     0.041 C 
ATOM     77  C   UNL A   1      33.035  21.333  24.530  1.00  0.00     0.095 C 
ATOM     78  C   UNL A   1      34.400  18.725  24.563  1.00  0.00    -0.030 C 
ATOM     79  C   UNL A   1      32.317  20.021  24.151  1.00  0.00     0.041 C 
ATOM     80  C   UNL A   1      33.086  18.757  24.331  1.00  0.00    -0.030 C 
BRANCH  77  81
ATOM     81  C   UNL A   1      32.056  22.228  25.294  1.00  0.00     0.224 C 
ATOM     82  O   UNL A   1      31.179  21.673  25.977  1.00  0.00    -0.275 OA
ATOM     83  N   UNL A   1      32.122  23.575  25.431  1.00  0.00    -0.351 N 
ATOM     84  H   UNL A   1      31.790  23.862  26.313  1.00  0.00     0.163 HD
BRANCH  83  85
ATOM     85  C   UNL A   1      32.559  24.727  24.619  1.00  0.00     0.103 C 
ATOM     86  C   UNL A   1      34.044  24.987  24.458  1.00  0.00     0.048 C 
ATOM     87  C   UNL A   1      32.004  26.099  25.155  1.00  0.00     0.141 C 
ATOM     88  C   UNL A   1      34.375  26.084  25.432  1.00  0.00     0.119 C 
ATOM     89  N   UNL A   1      33.196  26.923  25.361  1.00  0.00    -0.369 N 
BRANCH  89  90
ATOM     90  C   UNL A   1      33.290  28.189  25.881  1.00  0.00     0.038 A 
ATOM     91  C   UNL A   1      34.382  28.508  26.713  1.00  0.00     0.026 A 
ATOM     92  C   UNL A   1      32.320  29.170  25.688  1.00  0.00     0.046 A 
ATOM     93  C   UNL A   1      34.473  29.721  27.391  1.00  0.00     0.004 A 
ATOM     94  C   UNL A   1      32.399  30.387  26.379  1.00  0.00     0.043 A 
ATOM     95  C   UNL A   1      33.464  30.660  27.237  1.00  0.00     0.020 A 
ATOM     96  Cl  UNL A   1      31.141  31.550  26.206  1.00  0.00    -0.084 Cl
ENDBRANCH  89  90
ENDBRANCH  83  85
ENDBRANCH  77  81
ENDBRANCH  72  75
ENDBRANCH  70  71
ENDBRANCH  69  70
ENDBRANCH   1  69
TORSDOF 17
ENDMDL
MODEL 3
REMARK VINA RESULT:     -11.0      4.452      9.102
REMARK SMILES O=C(NCCCCNC(=O)[C@H]1CC=CC[C@H]1C(=O)N[C@@H]1CCN(c2cccc(Cl)c2)C1)c1ccc(-c2c3nc(c(-c4ccc(S(=O)(=O)[O-])cc4)c4ccc([nH]4)c(-c4ccc(S(=O)(=O)[O-])cc4)c4nc(c(-c5ccc(S(=O)(=O)[O-])cc5)c5ccc2[nH]5)C=C4)C=C3)cc1
REMARK SMILES IDX 5 1 4 2 3 3 1 4 2 5 32 7 33 8 91 9 34 10 90 11 35 12 36 13
REMARK SMILES IDX 37 14 84 15 38 16 89 17 83 18 85 19 39 20 88 21 82 22 81 23
REMARK SMILES IDX 40 25 70 26 51 27 69 28 52 29 55 30 68 31 86 32 53 33 54 34
REMARK SMILES IDX 67 36 87 37 56 38 41 39 42 40 50 41 43 42 49 43 44 44 45 45
REMARK SMILES IDX 46 46 47 47 48 48 71 49 72 50 80 51 73 52 79 53 74 54 75 55
REMARK SMILES IDX 76 56 77 57 78 58 57 59 58 60 66 61 59 62 65 63 60 64 61 65
REMARK SMILES IDX 62 66 63 67 64 68 6 69 7 70 8 71 9 72 10 74 11 75 12 76
REMARK SMILES IDX 16 77 13 78 15 79 14 80 17 81 18 82 19 83 20 85 21 86 31 87
REMARK SMILES IDX 22 88 23 89 24 90 25 91 30 92 26 93 28 94 27 95 29 96
REMARK H PARENT 3 6 85 24 55 35 8 73 19 84
REMARK Flexibility Score: inf
ROOT
ATOM      1  C   UNL A   1      39.238  22.304  26.452  1.00  0.00     0.023 C 
ENDROOT
BRANCH   1   2
ATOM      2  C   UNL A   1      39.707  23.678  26.903  1.00  0.00     0.116 C 
BRANCH   2   3
ATOM      3  N   UNL A   1      40.571  24.343  25.944  1.00  0.00    -0.352 N 
ATOM      4  O   UNL A   1      41.734  26.039  25.022  1.00  0.00    -0.269 OA
ATOM      5  C   UNL A   1      41.091  25.618  25.974  1.00  0.00     0.251 C 
ATOM      6  H   UNL A   1      40.822  23.804  25.160  1.00  0.00     0.163 HD
BRANCH   5   7
ATOM      7  C   UNL A   1      40.831  26.485  27.145  1.00  0.00     0.039 A 
ATOM      8  C   UNL A   1      41.415  27.748  27.241  1.00  0.00     0.014 A 
ATOM      9  C   UNL A   1      40.012  26.012  28.175  1.00  0.00     0.014 A 
ATOM     10  C   UNL A   1      41.331  28.454  28.433  1.00  0.00     0.010 A 
ATOM     11  C   UNL A   1      39.839  26.778  29.333  1.00  0.00     0.010 A 
ATOM     12  C   UNL A   1      40.527  27.990  29.489  1.00  0.00    -0.014 A 
BRANCH  12  13
ATOM     13  C   UNL A   1      40.380  28.840  30.698  1.00  0.00     0.031 A 
ATOM     14  C   UNL A   1      41.297  28.698  31.882  1.00  0.00     0.074 A 
ATOM     15  C   UNL A   1      39.438  29.804  30.683  1.00  0.00     0.049 A 
ATOM     16  N   UNL A   1      41.346  29.426  32.971  1.00  0.00    -0.248 NA
ATOM     17  C   UNL A   1      42.279  27.603  31.853  1.00  0.00     0.031 C 
ATOM     18  C   UNL A   1      38.474  30.022  29.598  1.00  0.00     0.029 A 
ATOM     19  N   UNL A   1      39.156  30.803  31.578  1.00  0.00    -0.354 N 
ATOM     20  C   UNL A   1      42.350  28.875  33.759  1.00  0.00     0.074 A 
ATOM     21  C   UNL A   1      42.868  27.732  33.036  1.00  0.00     0.031 C 
ATOM     22  C   UNL A   1      37.761  31.125  29.857  1.00  0.00     0.029 A 
ATOM     23  C   UNL A   1      38.163  31.654  31.154  1.00  0.00     0.049 A 
ATOM     24  H   UNL A   1      39.620  30.902  32.440  1.00  0.00     0.167 HD
ATOM     25  C   UNL A   1      42.804  29.288  34.967  1.00  0.00     0.031 A 
ATOM     26  C   UNL A   1      37.622  32.736  31.743  1.00  0.00     0.031 A 
ATOM     27  C   UNL A   1      42.280  30.424  35.684  1.00  0.00     0.049 A 
ATOM     28  C   UNL A   1      38.144  33.169  33.079  1.00  0.00     0.074 A 
ATOM     29  C   UNL A   1      42.673  30.923  36.914  1.00  0.00     0.029 A 
ATOM     30  N   UNL A   1      41.252  31.241  35.236  1.00  0.00    -0.354 N 
ATOM     31  N   UNL A   1      39.105  32.640  33.797  1.00  0.00    -0.248 NA
ATOM     32  C   UNL A   1      37.511  34.347  33.684  1.00  0.00     0.031 C 
ATOM     33  C   UNL A   1      41.857  32.016  37.228  1.00  0.00     0.029 A 
ATOM     34  C   UNL A   1      40.991  32.231  36.169  1.00  0.00     0.049 A 
ATOM     35  H   UNL A   1      40.779  31.133  34.379  1.00  0.00     0.167 HD
ATOM     36  C   UNL A   1      39.192  33.419  34.943  1.00  0.00     0.074 A 
ATOM     37  C   UNL A   1      38.214  34.480  34.801  1.00  0.00     0.031 C 
ATOM     38  C   UNL A   1      40.000  33.266  36.020  1.00  0.00     0.031 A 
BRANCH  25  39
ATOM     39  C   UNL A   1      43.920  28.502  35.605  1.00  0.00    -0.014 A 
ATOM     40  C   UNL A   1      43.664  27.282  36.259  1.00  0.00     0.010 A 
ATOM     41  C   UNL A   1      45.249  28.948  35.492  1.00  0.00     0.010 A 
ATOM     42  C   UNL A   1      44.712  26.541  36.812  1.00  0.00     0.020 A 
ATOM     43  C   UNL A   1      46.303  28.197  36.023  1.00  0.00     0.020 A 
ATOM     44  C   UNL A   1      46.026  27.003  36.692  1.00  0.00     0.054 A 
BRANCH  44  45
ATOM     45  S   UNL A   1      47.369  26.001  37.388  1.00  0.00     0.124 S 
ATOM     46  O   UNL A   1      47.512  26.577  38.723  1.00  0.00    -0.237 OA
ATOM     47  O   UNL A   1      46.817  24.650  37.344  1.00  0.00    -0.237 OA
ATOM     48  O   UNL A   1      48.489  26.243  36.481  1.00  0.00    -0.744 OA
ENDBRANCH  44  45
ENDBRANCH  25  39
BRANCH  26  49
ATOM     49  C   UNL A   1      36.506  33.458  31.075  1.00  0.00    -0.014 A 
ATOM     50  C   UNL A   1      36.631  33.920  29.754  1.00  0.00     0.010 A 
ATOM     51  C   UNL A   1      35.294  33.661  31.762  1.00  0.00     0.010 A 
ATOM     52  C   UNL A   1      35.569  34.591  29.139  1.00  0.00     0.020 A 
ATOM     53  C   UNL A   1      34.222  34.303  31.139  1.00  0.00     0.020 A 
ATOM     54  C   UNL A   1      34.372  34.778  29.837  1.00  0.00     0.054 A 
BRANCH  54  55
ATOM     55  S   UNL A   1      32.988  35.609  29.008  1.00  0.00     0.124 S 
ATOM     56  O   UNL A   1      33.664  36.696  28.309  1.00  0.00    -0.237 OA
ATOM     57  O   UNL A   1      32.443  34.552  28.161  1.00  0.00    -0.237 OA
ATOM     58  O   UNL A   1      32.125  36.014  30.115  1.00  0.00    -0.744 OA
ENDBRANCH  54  55
ENDBRANCH  26  49
BRANCH  38  59
ATOM     59  C   UNL A   1      39.856  34.280  37.122  1.00  0.00    -0.014 A 
ATOM     60  C   UNL A   1      39.042  34.024  38.240  1.00  0.00     0.010 A 
ATOM     61  C   UNL A   1      40.544  35.504  37.039  1.00  0.00     0.010 A 
ATOM     62  C   UNL A   1      38.879  34.994  39.231  1.00  0.00     0.020 A 
ATOM     63  C   UNL A   1      40.404  36.466  38.042  1.00  0.00     0.020 A 
ATOM     64  C   UNL A   1      39.555  36.212  39.121  1.00  0.00     0.054 A 
BRANCH  64  65
ATOM     65  S   UNL A   1      39.332  37.456  40.422  1.00  0.00     0.124 S 
ATOM     66  O   UNL A   1      40.678  38.006  40.551  1.00  0.00    -0.237 OA
ATOM     67  O   UNL A   1      38.338  38.356  39.841  1.00  0.00    -0.237 OA
ATOM     68  O   UNL A   1      38.863  36.678  41.567  1.00  0.00    -0.744 OA
ENDBRANCH  64  65
ENDBRANCH  38  59
ENDBRANCH  12  13
ENDBRANCH   5   7
ENDBRANCH   2   3
ENDBRANCH   1   2
BRANCH   1  69
ATOM     69  C   UNL A   1      38.067  22.283  25.477  1.00  0.00     0.023 C 
BRANCH  69  70
ATOM     70  C   UNL A   1      37.033  23.392  25.638  1.00  0.00     0.116 C 
BRANCH  70  71
ATOM     71  N   UNL A   1      35.985  23.090  26.592  1.00  0.00    -0.356 N 
ATOM     72  C   UNL A   1      34.993  22.166  26.491  1.00  0.00     0.224 C 
ATOM     73  H   UNL A   1      35.992  23.623  27.420  1.00  0.00     0.163 HD
ATOM     74  O   UNL A   1      34.546  21.716  27.546  1.00  0.00    -0.275 OA
BRANCH  72  75
ATOM     75  C   UNL A   1      34.481  21.735  25.118  1.00  0.00     0.095 C 
ATOM     76  C   UNL A   1      34.905  20.282  24.792  1.00  0.00     0.041 C 
ATOM     77  C   UNL A   1      32.997  22.068  24.812  1.00  0.00     0.095 C 
ATOM     78  C   UNL A   1      33.831  19.244  24.812  1.00  0.00    -0.030 C 
ATOM     79  C   UNL A   1      32.014  20.917  24.515  1.00  0.00     0.041 C 
ATOM     80  C   UNL A   1      32.535  19.530  24.671  1.00  0.00    -0.030 C 
BRANCH  77  81
ATOM     81  C   UNL A   1      32.268  23.144  25.621  1.00  0.00     0.224 C 
ATOM     82  O   UNL A   1      31.780  22.813  26.713  1.00  0.00    -0.275 OA
ATOM     83  N   UNL A   1      32.216  24.471  25.348  1.00  0.00    -0.351 N 
ATOM     84  H   UNL A   1      32.200  25.006  26.175  1.00  0.00     0.163 HD
BRANCH  83  85
ATOM     85  C   UNL A   1      32.178  25.331  24.150  1.00  0.00     0.103 C 
ATOM     86  C   UNL A   1      32.937  26.643  24.167  1.00  0.00     0.048 C 
ATOM     87  C   UNL A   1      30.718  25.760  23.750  1.00  0.00     0.141 C 
ATOM     88  C   UNL A   1      31.911  27.706  24.448  1.00  0.00     0.119 C 
ATOM     89  N   UNL A   1      30.761  27.223  23.712  1.00  0.00    -0.369 N 
BRANCH  89  90
ATOM     90  C   UNL A   1      29.741  28.110  23.482  1.00  0.00     0.038 A 
ATOM     91  C   UNL A   1      28.412  27.644  23.497  1.00  0.00     0.026 A 
ATOM     92  C   UNL A   1      29.949  29.450  23.159  1.00  0.00     0.046 A 
ATOM     93  C   UNL A   1      27.334  28.449  23.133  1.00  0.00     0.004 A 
ATOM     94  C   UNL A   1      28.871  30.260  22.779  1.00  0.00     0.043 A 
ATOM     95  C   UNL A   1      27.569  29.762  22.753  1.00  0.00     0.020 A 
ATOM     96  Cl  UNL A   1      29.157  31.887  22.289  1.00  0.00    -0.084 Cl
ENDBRANCH  89  90
ENDBRANCH  83  85
ENDBRANCH  77  81
ENDBRANCH  72  75
ENDBRANCH  70  71
ENDBRANCH  69  70
ENDBRANCH   1  69
TORSDOF 17
ENDMDL
