MODEL 1
REMARK VINA RESULT:      -8.9      0.000      0.000
REMARK SMILES C[C@@H](C(=O)NCCCCNC(=O)c1ccc(-c2c3nc(c(-c4ccc(S(=O)(=O)[O-])cc4)c4ccc([nH]4)c(-c4ccc(S(=O)(=O)[O-])cc4)c4nc(c(-c5ccc(S(=O)(=O)[O-])cc5)c5ccc2[nH]5)C=C4)C=C3)cc1)c1ccc(C[C@H]2CCC[C@H]2O)cc1
REMARK SMILES IDX 7 1 6 2 5 3 3 4 4 5 2 7 1 8 73 9 74 10 85 11 75 12 84 13
REMARK SMILES IDX 76 14 77 15 78 16 79 17 82 18 80 19 81 20 83 21 8 23 9 24
REMARK SMILES IDX 10 25 11 26 12 28 13 29 14 30 72 31 15 32 71 33 16 34 17 35
REMARK SMILES IDX 18 36 65 37 19 38 70 39 64 40 66 41 20 42 69 43 63 44 62 45
REMARK SMILES IDX 21 47 51 48 32 49 50 50 33 51 36 52 49 53 67 54 34 55 35 56
REMARK SMILES IDX 48 58 68 59 37 60 22 61 23 62 31 63 24 64 30 65 25 66 26 67
REMARK SMILES IDX 27 68 28 69 29 70 52 71 53 72 61 73 54 74 60 75 55 76 56 77
REMARK SMILES IDX 57 78 58 79 59 80 38 81 39 82 47 83 40 84 46 85 41 86 42 87
REMARK SMILES IDX 43 88 44 89 45 90
REMARK H PARENT 5 6 83 22 10 27 66 46 36 57
REMARK Flexibility Score: inf
ROOT
ATOM      1  C   UNL A   1      34.125  35.320  28.955  1.00  0.00     0.023 C 
ENDROOT
BRANCH   1   2
ATOM      2  C   UNL A   1      33.341  35.001  30.229  1.00  0.00     0.116 C 
BRANCH   2   3
ATOM      3  N   UNL A   1      33.923  35.662  31.374  1.00  0.00    -0.356 N 
ATOM      4  C   UNL A   1      34.873  35.222  32.249  1.00  0.00     0.227 C 
ATOM      5  O   UNL A   1      35.152  35.983  33.179  1.00  0.00    -0.274 OA
ATOM      6  H   UNL A   1      33.583  36.570  31.551  1.00  0.00     0.163 HD
BRANCH   4   7
ATOM      7  C   UNL A   1      35.576  33.867  32.017  1.00  0.00     0.105 C 
ATOM      8  C   UNL A   1      35.681  33.006  33.279  1.00  0.00     0.023 C 
BRANCH   7   9
ATOM      9  C   UNL A   1      36.977  34.048  31.444  1.00  0.00    -0.036 A 
ATOM     10  C   UNL A   1      37.233  33.751  30.097  1.00  0.00     0.005 A 
ATOM     11  C   UNL A   1      38.030  34.501  32.246  1.00  0.00     0.005 A 
ATOM     12  C   UNL A   1      38.517  33.857  29.578  1.00  0.00     0.004 A 
ATOM     13  C   UNL A   1      39.325  34.578  31.729  1.00  0.00     0.004 A 
ATOM     14  C   UNL A   1      39.588  34.203  30.404  1.00  0.00    -0.048 A 
BRANCH  14  15
ATOM     15  C   UNL A   1      40.998  34.096  29.886  1.00  0.00     0.041 C 
BRANCH  15  16
ATOM     16  C   UNL A   1      41.950  33.161  30.657  1.00  0.00     0.022 C 
ATOM     17  C   UNL A   1      42.454  31.930  29.886  1.00  0.00     0.007 C 
ATOM     18  C   UNL A   1      43.212  33.756  31.308  1.00  0.00     0.117 C 
ATOM     19  C   UNL A   1      43.830  31.595  30.468  1.00  0.00     0.003 C 
ATOM     20  C   UNL A   1      44.016  32.514  31.670  1.00  0.00     0.032 C 
BRANCH  18  21
ATOM     21  O   UNL A   1      44.004  34.574  30.470  1.00  0.00    -0.393 OA
ATOM     22  H   UNL A   1      44.508  34.017  29.856  1.00  0.00     0.210 HD
ENDBRANCH  18  21
ENDBRANCH  15  16
ENDBRANCH  14  15
ENDBRANCH   7   9
ENDBRANCH   4   7
ENDBRANCH   2   3
ENDBRANCH   1   2
BRANCH   1  23
ATOM     23  C   UNL A   1      34.281  34.143  27.991  1.00  0.00     0.023 C 
BRANCH  23  24
ATOM     24  C   UNL A   1      34.311  32.772  28.651  1.00  0.00     0.116 C 
BRANCH  24  25
ATOM     25  N   UNL A   1      33.842  31.716  27.769  1.00  0.00    -0.352 N 
ATOM     26  C   UNL A   1      34.475  30.556  27.395  1.00  0.00     0.251 C 
ATOM     27  H   UNL A   1      32.944  31.851  27.388  1.00  0.00     0.163 HD
ATOM     28  O   UNL A   1      33.986  29.855  26.517  1.00  0.00    -0.269 OA
BRANCH  26  29
ATOM     29  C   UNL A   1      35.751  30.172  28.039  1.00  0.00     0.039 A 
ATOM     30  C   UNL A   1      35.711  29.514  29.270  1.00  0.00     0.014 A 
ATOM     31  C   UNL A   1      36.979  30.474  27.444  1.00  0.00     0.014 A 
ATOM     32  C   UNL A   1      36.903  29.137  29.890  1.00  0.00     0.010 A 
ATOM     33  C   UNL A   1      38.160  30.015  28.019  1.00  0.00     0.010 A 
ATOM     34  C   UNL A   1      38.137  29.371  29.263  1.00  0.00    -0.014 A 
BRANCH  34  35
ATOM     35  C   UNL A   1      39.413  29.002  29.928  1.00  0.00     0.031 A 
ATOM     36  C   UNL A   1      39.840  29.716  31.185  1.00  0.00     0.074 A 
ATOM     37  C   UNL A   1      40.198  28.046  29.392  1.00  0.00     0.049 A 
ATOM     38  N   UNL A   1      40.905  29.528  31.919  1.00  0.00    -0.248 NA
ATOM     39  C   UNL A   1      38.968  30.802  31.667  1.00  0.00     0.031 C 
ATOM     40  C   UNL A   1      39.917  27.312  28.156  1.00  0.00     0.029 A 
ATOM     41  N   UNL A   1      41.389  27.521  29.826  1.00  0.00    -0.354 N 
ATOM     42  C   UNL A   1      40.842  30.479  32.932  1.00  0.00     0.074 A 
ATOM     43  C   UNL A   1      39.666  31.282  32.685  1.00  0.00     0.031 C 
ATOM     44  C   UNL A   1      40.884  26.402  27.956  1.00  0.00     0.029 A 
ATOM     45  C   UNL A   1      41.871  26.512  29.026  1.00  0.00     0.049 A 
ATOM     46  H   UNL A   1      41.855  27.837  30.633  1.00  0.00     0.167 HD
ATOM     47  C   UNL A   1      41.670  30.652  33.990  1.00  0.00     0.031 A 
ATOM     48  C   UNL A   1      42.979  25.756  29.145  1.00  0.00     0.031 A 
ATOM     49  C   UNL A   1      42.830  29.840  34.241  1.00  0.00     0.049 A 
ATOM     50  C   UNL A   1      43.883  25.964  30.331  1.00  0.00     0.074 A 
ATOM     51  C   UNL A   1      43.702  29.894  35.314  1.00  0.00     0.029 A 
ATOM     52  N   UNL A   1      43.282  28.827  33.409  1.00  0.00    -0.354 N 
ATOM     53  N   UNL A   1      43.766  26.821  31.317  1.00  0.00    -0.248 NA
ATOM     54  C   UNL A   1      45.057  25.088  30.428  1.00  0.00     0.031 C 
ATOM     55  C   UNL A   1      44.714  28.954  35.100  1.00  0.00     0.029 A 
ATOM     56  C   UNL A   1      44.432  28.263  33.932  1.00  0.00     0.049 A 
ATOM     57  H   UNL A   1      42.847  28.550  32.569  1.00  0.00     0.167 HD
ATOM     58  C   UNL A   1      44.828  26.556  32.176  1.00  0.00     0.074 A 
ATOM     59  C   UNL A   1      45.567  25.454  31.595  1.00  0.00     0.031 C 
ATOM     60  C   UNL A   1      45.157  27.165  33.344  1.00  0.00     0.031 A 
BRANCH  47  61
ATOM     61  C   UNL A   1      41.354  31.774  34.947  1.00  0.00    -0.014 A 
ATOM     62  C   UNL A   1      41.758  33.097  34.684  1.00  0.00     0.010 A 
ATOM     63  C   UNL A   1      40.613  31.508  36.113  1.00  0.00     0.010 A 
ATOM     64  C   UNL A   1      41.470  34.121  35.591  1.00  0.00     0.020 A 
ATOM     65  C   UNL A   1      40.293  32.535  37.006  1.00  0.00     0.020 A 
ATOM     66  C   UNL A   1      40.741  33.833  36.748  1.00  0.00     0.054 A 
BRANCH  66  67
ATOM     67  S   UNL A   1      40.363  35.184  37.897  1.00  0.00     0.124 S 
ATOM     68  O   UNL A   1      38.908  35.262  37.802  1.00  0.00    -0.237 OA
ATOM     69  O   UNL A   1      40.884  34.680  39.165  1.00  0.00    -0.237 OA
ATOM     70  O   UNL A   1      41.085  36.326  37.340  1.00  0.00    -0.744 OA
ENDBRANCH  66  67
ENDBRANCH  47  61
BRANCH  48  71
ATOM     71  C   UNL A   1      43.275  24.700  28.135  1.00  0.00    -0.014 A 
ATOM     72  C   UNL A   1      44.042  24.996  26.994  1.00  0.00     0.010 A 
ATOM     73  C   UNL A   1      42.792  23.391  28.311  1.00  0.00     0.010 A 
ATOM     74  C   UNL A   1      44.298  24.012  26.035  1.00  0.00     0.020 A 
ATOM     75  C   UNL A   1      43.073  22.395  27.370  1.00  0.00     0.020 A 
ATOM     76  C   UNL A   1      43.813  22.716  26.230  1.00  0.00     0.054 A 
BRANCH  76  77
ATOM     77  S   UNL A   1      44.194  21.444  24.994  1.00  0.00     0.124 S 
ATOM     78  O   UNL A   1      43.109  20.490  25.195  1.00  0.00    -0.237 OA
ATOM     79  O   UNL A   1      44.153  22.199  23.744  1.00  0.00    -0.237 OA
ATOM     80  O   UNL A   1      45.521  20.974  25.385  1.00  0.00    -0.744 OA
ENDBRANCH  76  77
ENDBRANCH  48  71
BRANCH  60  81
ATOM     81  C   UNL A   1      46.334  26.612  34.105  1.00  0.00    -0.014 A 
ATOM     82  C   UNL A   1      47.634  27.116  33.927  1.00  0.00     0.010 A 
ATOM     83  C   UNL A   1      46.121  25.584  35.044  1.00  0.00     0.010 A 
ATOM     84  C   UNL A   1      48.707  26.564  34.633  1.00  0.00     0.020 A 
ATOM     85  C   UNL A   1      47.184  25.057  35.779  1.00  0.00     0.020 A 
ATOM     86  C   UNL A   1      48.476  25.536  35.551  1.00  0.00     0.054 A 
BRANCH  86  87
ATOM     87  S   UNL A   1      49.881  24.846  36.466  1.00  0.00     0.124 S 
ATOM     88  O   UNL A   1      49.245  24.384  37.696  1.00  0.00    -0.237 OA
ATOM     89  O   UNL A   1      50.358  23.794  35.572  1.00  0.00    -0.237 OA
ATOM     90  O   UNL A   1      50.786  25.981  36.620  1.00  0.00    -0.744 OA
ENDBRANCH  86  87
ENDBRANCH  60  81
ENDBRANCH  34  35
ENDBRANCH  26  29
ENDBRANCH  24  25
ENDBRANCH  23  24
ENDBRANCH   1  23
TORSDOF 18
ENDMDL
MODEL 2
REMARK VINA RESULT:      -8.9      4.182      7.784
REMARK SMILES C[C@@H](C(=O)NCCCCNC(=O)c1ccc(-c2c3nc(c(-c4ccc(S(=O)(=O)[O-])cc4)c4ccc([nH]4)c(-c4ccc(S(=O)(=O)[O-])cc4)c4nc(c(-c5ccc(S(=O)(=O)[O-])cc5)c5ccc2[nH]5)C=C4)C=C3)cc1)c1ccc(C[C@H]2CCC[C@H]2O)cc1
REMARK SMILES IDX 7 1 6 2 5 3 3 4 4 5 2 7 1 8 73 9 74 10 85 11 75 12 84 13
REMARK SMILES IDX 76 14 77 15 78 16 79 17 82 18 80 19 81 20 83 21 8 23 9 24
REMARK SMILES IDX 10 25 11 26 12 28 13 29 14 30 72 31 15 32 71 33 16 34 17 35
REMARK SMILES IDX 18 36 65 37 19 38 70 39 64 40 66 41 20 42 69 43 63 44 62 45
REMARK SMILES IDX 21 47 51 48 32 49 50 50 33 51 36 52 49 53 67 54 34 55 35 56
REMARK SMILES IDX 48 58 68 59 37 60 22 61 23 62 31 63 24 64 30 65 25 66 26 67
REMARK SMILES IDX 27 68 28 69 29 70 52 71 53 72 61 73 54 74 60 75 55 76 56 77
REMARK SMILES IDX 57 78 58 79 59 80 38 81 39 82 47 83 40 84 46 85 41 86 42 87
REMARK SMILES IDX 43 88 44 89 45 90
REMARK H PARENT 5 6 83 22 10 27 66 46 36 57
REMARK Flexibility Score: inf
ROOT
ATOM      1  C   UNL A   1      32.492  26.417  26.483  1.00  0.00     0.023 C 
ENDROOT
BRANCH   1   2
ATOM      2  C   UNL A   1      33.374  25.421  25.730  1.00  0.00     0.116 C 
BRANCH   2   3
ATOM      3  N   UNL A   1      32.674  24.178  25.502  1.00  0.00    -0.356 N 
ATOM      4  C   UNL A   1      32.004  23.741  24.397  1.00  0.00     0.227 C 
ATOM      5  O   UNL A   1      31.447  22.645  24.495  1.00  0.00    -0.274 OA
ATOM      6  H   UNL A   1      32.682  23.549  26.261  1.00  0.00     0.163 HD
BRANCH   4   7
ATOM      7  C   UNL A   1      32.017  24.576  23.099  1.00  0.00     0.105 C 
ATOM      8  C   UNL A   1      33.405  25.100  22.719  1.00  0.00     0.023 C 
BRANCH   7   9
ATOM      9  C   UNL A   1      31.064  25.763  23.180  1.00  0.00    -0.036 A 
ATOM     10  C   UNL A   1      29.798  25.614  23.764  1.00  0.00     0.005 A 
ATOM     11  C   UNL A   1      31.427  27.014  22.667  1.00  0.00     0.005 A 
ATOM     12  C   UNL A   1      28.900  26.674  23.792  1.00  0.00     0.004 A 
ATOM     13  C   UNL A   1      30.511  28.068  22.670  1.00  0.00     0.004 A 
ATOM     14  C   UNL A   1      29.219  27.889  23.184  1.00  0.00    -0.048 A 
BRANCH  14  15
ATOM     15  C   UNL A   1      28.160  28.948  23.023  1.00  0.00     0.041 C 
BRANCH  15  16
ATOM     16  C   UNL A   1      28.631  30.330  22.531  1.00  0.00     0.022 C 
ATOM     17  C   UNL A   1      28.189  30.724  21.111  1.00  0.00     0.007 C 
ATOM     18  C   UNL A   1      28.326  31.569  23.391  1.00  0.00     0.117 C 
ATOM     19  C   UNL A   1      28.094  32.252  21.102  1.00  0.00     0.003 C 
ATOM     20  C   UNL A   1      28.649  32.718  22.444  1.00  0.00     0.032 C 
BRANCH  18  21
ATOM     21  O   UNL A   1      26.985  31.703  23.818  1.00  0.00    -0.393 OA
ATOM     22  H   UNL A   1      26.442  32.029  23.082  1.00  0.00     0.210 HD
ENDBRANCH  18  21
ENDBRANCH  15  16
ENDBRANCH  14  15
ENDBRANCH   7   9
ENDBRANCH   4   7
ENDBRANCH   2   3
ENDBRANCH   1   2
BRANCH   1  23
ATOM     23  C   UNL A   1      32.775  27.887  26.166  1.00  0.00     0.023 C 
BRANCH  23  24
ATOM     24  C   UNL A   1      33.993  28.471  26.868  1.00  0.00     0.116 C 
BRANCH  24  25
ATOM     25  N   UNL A   1      33.748  29.801  27.400  1.00  0.00    -0.352 N 
ATOM     26  C   UNL A   1      34.569  30.590  28.167  1.00  0.00     0.251 C 
ATOM     27  H   UNL A   1      32.871  30.190  27.178  1.00  0.00     0.163 HD
ATOM     28  O   UNL A   1      34.130  31.625  28.655  1.00  0.00    -0.269 OA
BRANCH  26  29
ATOM     29  C   UNL A   1      35.967  30.176  28.416  1.00  0.00     0.039 A 
ATOM     30  C   UNL A   1      36.297  29.639  29.662  1.00  0.00     0.014 A 
ATOM     31  C   UNL A   1      36.952  30.332  27.437  1.00  0.00     0.014 A 
ATOM     32  C   UNL A   1      37.609  29.236  29.915  1.00  0.00     0.010 A 
ATOM     33  C   UNL A   1      38.236  29.844  27.659  1.00  0.00     0.010 A 
ATOM     34  C   UNL A   1      38.587  29.321  28.911  1.00  0.00    -0.014 A 
BRANCH  34  35
ATOM     35  C   UNL A   1      39.993  28.925  29.179  1.00  0.00     0.031 A 
ATOM     36  C   UNL A   1      40.928  29.887  29.865  1.00  0.00     0.074 A 
ATOM     37  C   UNL A   1      40.435  27.714  28.787  1.00  0.00     0.049 A 
ATOM     38  N   UNL A   1      42.181  29.723  30.200  1.00  0.00    -0.248 NA
ATOM     39  C   UNL A   1      40.394  31.221  30.194  1.00  0.00     0.031 C 
ATOM     40  C   UNL A   1      39.640  26.708  28.077  1.00  0.00     0.029 A 
ATOM     41  N   UNL A   1      41.661  27.118  28.940  1.00  0.00    -0.354 N 
ATOM     42  C   UNL A   1      42.588  30.930  30.759  1.00  0.00     0.074 A 
ATOM     43  C   UNL A   1      41.467  31.838  30.662  1.00  0.00     0.031 C 
ATOM     44  C   UNL A   1      40.385  25.606  27.896  1.00  0.00     0.029 A 
ATOM     45  C   UNL A   1      41.718  25.837  28.443  1.00  0.00     0.049 A 
ATOM     46  H   UNL A   1      42.428  27.565  29.365  1.00  0.00     0.167 HD
ATOM     47  C   UNL A   1      43.775  31.248  31.326  1.00  0.00     0.031 A 
ATOM     48  C   UNL A   1      42.729  24.946  28.435  1.00  0.00     0.031 A 
ATOM     49  C   UNL A   1      44.881  30.335  31.435  1.00  0.00     0.049 A 
ATOM     50  C   UNL A   1      44.040  25.321  29.075  1.00  0.00     0.074 A 
ATOM     51  C   UNL A   1      46.107  30.539  32.044  1.00  0.00     0.029 A 
ATOM     52  N   UNL A   1      44.898  29.047  30.922  1.00  0.00    -0.354 N 
ATOM     53  N   UNL A   1      44.379  26.444  29.663  1.00  0.00    -0.248 NA
ATOM     54  C   UNL A   1      45.094  24.299  29.069  1.00  0.00     0.031 C 
ATOM     55  C   UNL A   1      46.886  29.395  31.847  1.00  0.00     0.029 A 
ATOM     56  C   UNL A   1      46.119  28.451  31.180  1.00  0.00     0.049 A 
ATOM     57  H   UNL A   1      44.149  28.621  30.444  1.00  0.00     0.167 HD
ATOM     58  C   UNL A   1      45.673  26.246  30.136  1.00  0.00     0.074 A 
ATOM     59  C   UNL A   1      46.046  24.894  29.773  1.00  0.00     0.031 C 
ATOM     60  C   UNL A   1      46.476  27.103  30.815  1.00  0.00     0.031 A 
BRANCH  47  61
ATOM     61  C   UNL A   1      43.940  32.648  31.861  1.00  0.00    -0.014 A 
ATOM     62  C   UNL A   1      43.641  32.961  33.201  1.00  0.00     0.010 A 
ATOM     63  C   UNL A   1      44.433  33.663  31.020  1.00  0.00     0.010 A 
ATOM     64  C   UNL A   1      43.786  34.268  33.674  1.00  0.00     0.020 A 
ATOM     65  C   UNL A   1      44.613  34.963  31.499  1.00  0.00     0.020 A 
ATOM     66  C   UNL A   1      44.269  35.262  32.819  1.00  0.00     0.054 A 
BRANCH  66  67
ATOM     67  S   UNL A   1      44.467  36.945  33.466  1.00  0.00     0.124 S 
ATOM     68  O   UNL A   1      43.228  37.583  33.030  1.00  0.00    -0.237 OA
ATOM     69  O   UNL A   1      44.585  36.721  34.905  1.00  0.00    -0.237 OA
ATOM     70  O   UNL A   1      45.681  37.429  32.811  1.00  0.00    -0.744 OA
ENDBRANCH  66  67
ENDBRANCH  47  61
BRANCH  48  71
ATOM     71  C   UNL A   1      42.530  23.596  27.837  1.00  0.00    -0.014 A 
ATOM     72  C   UNL A   1      42.114  22.515  28.634  1.00  0.00     0.010 A 
ATOM     73  C   UNL A   1      42.754  23.384  26.465  1.00  0.00     0.010 A 
ATOM     74  C   UNL A   1      41.951  21.243  28.077  1.00  0.00     0.020 A 
ATOM     75  C   UNL A   1      42.561  22.120  25.897  1.00  0.00     0.020 A 
ATOM     76  C   UNL A   1      42.174  21.054  26.711  1.00  0.00     0.054 A 
BRANCH  76  77
ATOM     77  S   UNL A   1      41.915  19.404  26.003  1.00  0.00     0.124 S 
ATOM     78  O   UNL A   1      42.326  18.534  27.101  1.00  0.00    -0.237 OA
ATOM     79  O   UNL A   1      40.486  19.413  25.701  1.00  0.00    -0.237 OA
ATOM     80  O   UNL A   1      42.791  19.392  24.834  1.00  0.00    -0.744 OA
ENDBRANCH  76  77
ENDBRANCH  48  71
BRANCH  60  81
ATOM     81  C   UNL A   1      47.817  26.585  31.267  1.00  0.00    -0.014 A 
ATOM     82  C   UNL A   1      48.963  26.692  30.460  1.00  0.00     0.010 A 
ATOM     83  C   UNL A   1      47.932  26.005  32.545  1.00  0.00     0.010 A 
ATOM     84  C   UNL A   1      50.187  26.180  30.901  1.00  0.00     0.020 A 
ATOM     85  C   UNL A   1      49.160  25.526  33.004  1.00  0.00     0.020 A 
ATOM     86  C   UNL A   1      50.277  25.597  32.168  1.00  0.00     0.054 A 
BRANCH  86  87
ATOM     87  S   UNL A   1      51.877  24.952  32.724  1.00  0.00     0.124 S 
ATOM     88  O   UNL A   1      51.819  25.195  34.163  1.00  0.00    -0.237 OA
ATOM     89  O   UNL A   1      51.815  23.550  32.320  1.00  0.00    -0.237 OA
ATOM     90  O   UNL A   1      52.850  25.761  31.995  1.00  0.00    -0.744 OA
ENDBRANCH  86  87
ENDBRANCH  60  81
ENDBRANCH  34  35
ENDBRANCH  26  29
ENDBRANCH  24  25
ENDBRANCH  23  24
ENDBRANCH   1  23
TORSDOF 18
ENDMDL
MODEL 3
REMARK VINA RESULT:      -8.8      2.465      3.991
REMARK SMILES C[C@@H](C(=O)NCCCCNC(=O)c1ccc(-c2c3nc(c(-c4ccc(S(=O)(=O)[O-])cc4)c4ccc([nH]4)c(-c4ccc(S(=O)(=O)[O-])cc4)c4nc(c(-c5ccc(S(=O)(=O)[O-])cc5)c5ccc2[nH]5)C=C4)C=C3)cc1)c1ccc(C[C@H]2CCC[C@H]2O)cc1
REMARK SMILES IDX 7 1 6 2 5 3 3 4 4 5 2 7 1 8 73 9 74 10 85 11 75 12 84 13
REMARK SMILES IDX 76 14 77 15 78 16 79 17 82 18 80 19 81 20 83 21 8 23 9 24
REMARK SMILES IDX 10 25 11 26 12 28 13 29 14 30 72 31 15 32 71 33 16 34 17 35
REMARK SMILES IDX 18 36 65 37 19 38 70 39 64 40 66 41 20 42 69 43 63 44 62 45
REMARK SMILES IDX 21 47 51 48 32 49 50 50 33 51 36 52 49 53 67 54 34 55 35 56
REMARK SMILES IDX 48 58 68 59 37 60 22 61 23 62 31 63 24 64 30 65 25 66 26 67
REMARK SMILES IDX 27 68 28 69 29 70 52 71 53 72 61 73 54 74 60 75 55 76 56 77
REMARK SMILES IDX 57 78 58 79 59 80 38 81 39 82 47 83 40 84 46 85 41 86 42 87
REMARK SMILES IDX 43 88 44 89 45 90
REMARK H PARENT 5 6 83 22 10 27 66 46 36 57
REMARK Flexibility Score: inf
ROOT
ATOM      1  C   UNL A   1      34.986  34.166  30.584  1.00  0.00     0.023 C 
ENDROOT
BRANCH   1   2
ATOM      2  C   UNL A   1      36.411  33.616  30.642  1.00  0.00     0.116 C 
BRANCH   2   3
ATOM      3  N   UNL A   1      37.236  34.405  31.527  1.00  0.00    -0.356 N 
ATOM      4  C   UNL A   1      37.483  34.252  32.860  1.00  0.00     0.227 C 
ATOM      5  O   UNL A   1      38.195  35.113  33.384  1.00  0.00    -0.274 OA
ATOM      6  H   UNL A   1      37.688  35.171  31.104  1.00  0.00     0.163 HD
BRANCH   4   7
ATOM      7  C   UNL A   1      36.934  33.024  33.617  1.00  0.00     0.105 C 
ATOM      8  C   UNL A   1      36.836  33.230  35.132  1.00  0.00     0.023 C 
BRANCH   7   9
ATOM      9  C   UNL A   1      37.771  31.777  33.357  1.00  0.00    -0.036 A 
ATOM     10  C   UNL A   1      37.152  30.575  32.987  1.00  0.00     0.005 A 
ATOM     11  C   UNL A   1      39.164  31.805  33.491  1.00  0.00     0.005 A 
ATOM     12  C   UNL A   1      37.899  29.419  32.803  1.00  0.00     0.004 A 
ATOM     13  C   UNL A   1      39.909  30.634  33.334  1.00  0.00     0.004 A 
ATOM     14  C   UNL A   1      39.275  29.419  33.042  1.00  0.00    -0.048 A 
BRANCH  14  15
ATOM     15  C   UNL A   1      40.033  28.117  33.059  1.00  0.00     0.041 C 
BRANCH  15  16
ATOM     16  C   UNL A   1      41.408  28.125  33.754  1.00  0.00     0.022 C 
ATOM     17  C   UNL A   1      41.719  26.909  34.642  1.00  0.00     0.007 C 
ATOM     18  C   UNL A   1      42.672  28.315  32.897  1.00  0.00     0.117 C 
ATOM     19  C   UNL A   1      43.240  26.738  34.615  1.00  0.00     0.003 C 
ATOM     20  C   UNL A   1      43.789  27.949  33.868  1.00  0.00     0.032 C 
BRANCH  18  21
ATOM     21  O   UNL A   1      42.774  27.479  31.762  1.00  0.00    -0.393 OA
ATOM     22  H   UNL A   1      42.891  26.559  32.047  1.00  0.00     0.210 HD
ENDBRANCH  18  21
ENDBRANCH  15  16
ENDBRANCH  14  15
ENDBRANCH   7   9
ENDBRANCH   4   7
ENDBRANCH   2   3
ENDBRANCH   1   2
BRANCH   1  23
ATOM     23  C   UNL A   1      34.046  33.407  29.645  1.00  0.00     0.023 C 
BRANCH  23  24
ATOM     24  C   UNL A   1      34.739  32.628  28.536  1.00  0.00     0.116 C 
BRANCH  24  25
ATOM     25  N   UNL A   1      34.002  31.439  28.142  1.00  0.00    -0.352 N 
ATOM     26  C   UNL A   1      34.473  30.175  27.887  1.00  0.00     0.251 C 
ATOM     27  H   UNL A   1      33.029  31.557  28.045  1.00  0.00     0.163 HD
ATOM     28  O   UNL A   1      33.720  29.332  27.414  1.00  0.00    -0.269 OA
BRANCH  26  29
ATOM     29  C   UNL A   1      35.888  29.846  28.165  1.00  0.00     0.039 A 
ATOM     30  C   UNL A   1      36.832  30.032  27.153  1.00  0.00     0.014 A 
ATOM     31  C   UNL A   1      36.282  29.339  29.406  1.00  0.00     0.014 A 
ATOM     32  C   UNL A   1      38.174  29.734  27.397  1.00  0.00     0.010 A 
ATOM     33  C   UNL A   1      37.631  29.131  29.676  1.00  0.00     0.010 A 
ATOM     34  C   UNL A   1      38.587  29.295  28.665  1.00  0.00    -0.014 A 
BRANCH  34  35
ATOM     35  C   UNL A   1      40.007  28.945  28.926  1.00  0.00     0.031 A 
ATOM     36  C   UNL A   1      40.924  29.954  29.567  1.00  0.00     0.074 A 
ATOM     37  C   UNL A   1      40.476  27.733  28.568  1.00  0.00     0.049 A 
ATOM     38  N   UNL A   1      42.186  29.834  29.890  1.00  0.00    -0.248 NA
ATOM     39  C   UNL A   1      40.359  31.284  29.859  1.00  0.00     0.031 C 
ATOM     40  C   UNL A   1      39.700  26.684  27.903  1.00  0.00     0.029 A 
ATOM     41  N   UNL A   1      41.721  27.176  28.724  1.00  0.00    -0.354 N 
ATOM     42  C   UNL A   1      42.567  31.070  30.403  1.00  0.00     0.074 A 
ATOM     43  C   UNL A   1      41.421  31.944  30.291  1.00  0.00     0.031 C 
ATOM     44  C   UNL A   1      40.472  25.597  27.748  1.00  0.00     0.029 A 
ATOM     45  C   UNL A   1      41.806  25.881  28.269  1.00  0.00     0.049 A 
ATOM     46  H   UNL A   1      42.481  27.657  29.123  1.00  0.00     0.167 HD
ATOM     47  C   UNL A   1      43.752  31.438  30.943  1.00  0.00     0.031 A 
ATOM     48  C   UNL A   1      42.840  25.018  28.276  1.00  0.00     0.031 A 
ATOM     49  C   UNL A   1      44.884  30.559  31.067  1.00  0.00     0.049 A 
ATOM     50  C   UNL A   1      44.148  25.449  28.885  1.00  0.00     0.074 A 
ATOM     51  C   UNL A   1      46.112  30.815  31.652  1.00  0.00     0.029 A 
ATOM     52  N   UNL A   1      44.929  29.256  30.596  1.00  0.00    -0.354 N 
ATOM     53  N   UNL A   1      44.465  26.599  29.431  1.00  0.00    -0.248 NA
ATOM     54  C   UNL A   1      45.229  24.456  28.898  1.00  0.00     0.031 C 
ATOM     55  C   UNL A   1      46.919  29.687  31.482  1.00  0.00     0.029 A 
ATOM     56  C   UNL A   1      46.169  28.701  30.857  1.00  0.00     0.049 A 
ATOM     57  H   UNL A   1      44.186  28.794  30.143  1.00  0.00     0.167 HD
ATOM     58  C   UNL A   1      45.769  26.451  29.892  1.00  0.00     0.074 A 
ATOM     59  C   UNL A   1      46.174  25.099  29.568  1.00  0.00     0.031 C 
ATOM     60  C   UNL A   1      46.558  27.352  30.532  1.00  0.00     0.031 A 
BRANCH  47  61
ATOM     61  C   UNL A   1      43.886  32.860  31.430  1.00  0.00    -0.014 A 
ATOM     62  C   UNL A   1      43.579  33.212  32.757  1.00  0.00     0.010 A 
ATOM     63  C   UNL A   1      44.358  33.855  30.554  1.00  0.00     0.010 A 
ATOM     64  C   UNL A   1      43.695  34.537  33.185  1.00  0.00     0.020 A 
ATOM     65  C   UNL A   1      44.509  35.175  30.987  1.00  0.00     0.020 A 
ATOM     66  C   UNL A   1      44.158  35.511  32.296  1.00  0.00     0.054 A 
BRANCH  66  67
ATOM     67  S   UNL A   1      44.318  37.219  32.884  1.00  0.00     0.124 S 
ATOM     68  O   UNL A   1      44.291  37.972  31.634  1.00  0.00    -0.237 OA
ATOM     69  O   UNL A   1      43.142  37.375  33.737  1.00  0.00    -0.237 OA
ATOM     70  O   UNL A   1      45.599  37.226  33.588  1.00  0.00    -0.744 OA
ENDBRANCH  66  67
ENDBRANCH  47  61
BRANCH  48  71
ATOM     71  C   UNL A   1      42.670  23.644  27.725  1.00  0.00    -0.014 A 
ATOM     72  C   UNL A   1      42.145  22.613  28.525  1.00  0.00     0.010 A 
ATOM     73  C   UNL A   1      43.031  23.359  26.396  1.00  0.00     0.010 A 
ATOM     74  C   UNL A   1      42.008  21.318  28.016  1.00  0.00     0.020 A 
ATOM     75  C   UNL A   1      42.866  22.072  25.873  1.00  0.00     0.020 A 
ATOM     76  C   UNL A   1      42.368  21.056  26.691  1.00  0.00     0.054 A 
BRANCH  76  77
ATOM     77  S   UNL A   1      42.142  19.378  26.039  1.00  0.00     0.124 S 
ATOM     78  O   UNL A   1      42.623  18.556  27.145  1.00  0.00    -0.237 OA
ATOM     79  O   UNL A   1      40.704  19.329  25.790  1.00  0.00    -0.237 OA
ATOM     80  O   UNL A   1      42.976  19.362  24.840  1.00  0.00    -0.744 OA
ENDBRANCH  76  77
ENDBRANCH  48  71
BRANCH  60  81
ATOM     81  C   UNL A   1      47.918  26.885  30.982  1.00  0.00    -0.014 A 
ATOM     82  C   UNL A   1      48.125  26.327  32.256  1.00  0.00     0.010 A 
ATOM     83  C   UNL A   1      49.005  26.981  30.091  1.00  0.00     0.010 A 
ATOM     84  C   UNL A   1      49.405  25.924  32.649  1.00  0.00     0.020 A 
ATOM     85  C   UNL A   1      50.277  26.546  30.468  1.00  0.00     0.020 A 
ATOM     86  C   UNL A   1      50.473  26.040  31.754  1.00  0.00     0.054 A 
BRANCH  86  87
ATOM     87  S   UNL A   1      52.121  25.499  32.283  1.00  0.00     0.124 S 
ATOM     88  O   UNL A   1      52.964  25.988  31.195  1.00  0.00    -0.237 OA
ATOM     89  O   UNL A   1      52.287  26.183  33.562  1.00  0.00    -0.237 OA
ATOM     90  O   UNL A   1      51.998  24.046  32.370  1.00  0.00    -0.744 OA
ENDBRANCH  86  87
ENDBRANCH  60  81
ENDBRANCH  34  35
ENDBRANCH  26  29
ENDBRANCH  24  25
ENDBRANCH  23  24
ENDBRANCH   1  23
TORSDOF 18
ENDMDL
