MODEL 1
REMARK VINA RESULT:     -10.5      0.000      0.000
REMARK SMILES CCC[C@H](C)C[N@H+]1[C@@H]2CC[C@H]1C[C@H](CC(=O)NCCCCNC(=O)c1ccc(-c3c4nc(c(-c5ccc(S(=O)(=O)[O-])cc5)c5ccc([nH]5)c(-c5ccc(S(=O)(=O)[O-])cc5)c5nc(c(-c6ccc(S(=O)(=O)[O-])cc6)c6ccc3[nH]6)C=C5)C=C4)cc1)C2
REMARK SMILES IDX 18 1 17 2 15 3 16 4 14 6 13 7 7 8 8 9 11 10 9 12 85 13 10 14
REMARK SMILES IDX 12 15 6 16 4 17 5 18 3 19 2 20 1 21 19 22 20 23 21 24 22 25
REMARK SMILES IDX 23 26 24 28 25 29 26 30 84 31 27 32 83 33 28 34 29 35 30 36
REMARK SMILES IDX 77 37 31 38 82 39 76 40 78 41 32 42 81 43 75 44 74 45 33 47
REMARK SMILES IDX 63 48 44 49 62 50 45 51 48 52 61 53 79 54 46 55 47 56 60 58
REMARK SMILES IDX 80 59 49 60 34 61 35 62 43 63 36 64 42 65 37 66 38 67 39 68
REMARK SMILES IDX 40 69 41 70 64 71 65 72 73 73 66 74 72 75 67 76 68 77 69 78
REMARK SMILES IDX 70 79 71 80 50 81 51 82 59 83 52 84 58 85 53 86 54 87 55 88
REMARK SMILES IDX 56 89 57 90
REMARK H PARENT 17 5 7 11 22 27 78 46 48 57
REMARK Flexibility Score: inf
ROOT
ATOM      1  C   UNL A   1      32.985  28.602  23.088  1.00  0.00     0.116 C 
ENDROOT
BRANCH   1   2
ATOM      2  N   UNL A   1      33.472  27.447  22.351  1.00  0.00    -0.356 N 
ATOM      3  C   UNL A   1      32.894  26.237  22.101  1.00  0.00     0.220 C 
ATOM      4  O   UNL A   1      33.565  25.376  21.531  1.00  0.00    -0.275 OA
ATOM      5  H   UNL A   1      34.372  27.558  21.965  1.00  0.00     0.163 HD
BRANCH   3   6
ATOM      6  C   UNL A   1      31.455  25.951  22.499  1.00  0.00     0.104 C 
BRANCH   6   7
ATOM      7  C   UNL A   1      31.310  25.071  23.761  1.00  0.00     0.010 C 
ATOM      8  N   UNL A   1      33.177  23.036  24.923  1.00  0.00    -0.330 N 
ATOM      9  C   UNL A   1      32.815  24.242  25.702  1.00  0.00     0.184 C 
ATOM     10  C   UNL A   1      31.865  22.610  24.426  1.00  0.00     0.184 C 
ATOM     11  H   UNL A   1      33.627  22.283  25.443  1.00  0.00     0.348 HD
ATOM     12  C   UNL A   1      31.627  23.742  26.535  1.00  0.00     0.071 C 
ATOM     13  C   UNL A   1      32.406  25.423  24.794  1.00  0.00     0.069 C 
ATOM     14  C   UNL A   1      31.014  22.631  25.695  1.00  0.00     0.071 C 
ATOM     15  C   UNL A   1      31.309  23.582  23.386  1.00  0.00     0.069 C 
BRANCH   8  16
ATOM     16  C   UNL A   1      34.244  23.291  23.938  1.00  0.00     0.265 C 
BRANCH  16  17
ATOM     17  C   UNL A   1      35.474  22.341  23.894  1.00  0.00     0.041 C 
ATOM     18  C   UNL A   1      36.820  23.068  23.826  1.00  0.00     0.013 C 
BRANCH  17  19
ATOM     19  C   UNL A   1      35.494  21.464  25.178  1.00  0.00     0.009 C 
BRANCH  19  20
ATOM     20  C   UNL A   1      35.370  19.956  24.942  1.00  0.00    -0.003 C 
ATOM     21  C   UNL A   1      33.932  19.519  24.707  1.00  0.00     0.004 C 
ENDBRANCH  19  20
ENDBRANCH  17  19
ENDBRANCH  16  17
ENDBRANCH   8  16
ENDBRANCH   6   7
ENDBRANCH   3   6
ENDBRANCH   1   2
BRANCH   1  22
ATOM     22  C   UNL A   1      33.728  28.757  24.419  1.00  0.00     0.023 C 
BRANCH  22  23
ATOM     23  C   UNL A   1      32.878  29.140  25.615  1.00  0.00     0.023 C 
BRANCH  23  24
ATOM     24  C   UNL A   1      33.609  29.088  26.943  1.00  0.00     0.116 C 
BRANCH  24  25
ATOM     25  N   UNL A   1      33.631  30.355  27.666  1.00  0.00    -0.352 N 
ATOM     26  C   UNL A   1      34.668  30.888  28.404  1.00  0.00     0.251 C 
ATOM     27  H   UNL A   1      32.807  30.895  27.623  1.00  0.00     0.163 HD
ATOM     28  O   UNL A   1      34.541  31.944  29.008  1.00  0.00    -0.269 OA
BRANCH  26  29
ATOM     29  C   UNL A   1      35.922  30.110  28.489  1.00  0.00     0.039 A 
ATOM     30  C   UNL A   1      36.822  30.153  27.423  1.00  0.00     0.014 A 
ATOM     31  C   UNL A   1      36.267  29.495  29.694  1.00  0.00     0.014 A 
ATOM     32  C   UNL A   1      38.120  29.675  27.607  1.00  0.00     0.010 A 
ATOM     33  C   UNL A   1      37.586  29.118  29.904  1.00  0.00     0.010 A 
ATOM     34  C   UNL A   1      38.529  29.213  28.867  1.00  0.00    -0.014 A 
BRANCH  34  35
ATOM     35  C   UNL A   1      39.932  28.816  29.153  1.00  0.00     0.031 A 
ATOM     36  C   UNL A   1      40.876  29.835  29.731  1.00  0.00     0.074 A 
ATOM     37  C   UNL A   1      40.387  27.601  28.786  1.00  0.00     0.049 A 
ATOM     38  N   UNL A   1      42.175  29.776  29.865  1.00  0.00    -0.248 NA
ATOM     39  C   UNL A   1      40.283  31.111  30.167  1.00  0.00     0.031 C 
ATOM     40  C   UNL A   1      39.589  26.538  28.169  1.00  0.00     0.029 A 
ATOM     41  N   UNL A   1      41.648  27.063  28.861  1.00  0.00    -0.354 N 
ATOM     42  C   UNL A   1      42.557  31.021  30.347  1.00  0.00     0.074 A 
ATOM     43  C   UNL A   1      41.361  31.827  30.444  1.00  0.00     0.031 C 
ATOM     44  C   UNL A   1      40.372  25.469  27.948  1.00  0.00     0.029 A 
ATOM     45  C   UNL A   1      41.735  25.784  28.361  1.00  0.00     0.049 A 
ATOM     46  H   UNL A   1      42.418  27.547  29.237  1.00  0.00     0.167 HD
ATOM     47  C   UNL A   1      43.792  31.452  30.695  1.00  0.00     0.031 A 
ATOM     48  C   UNL A   1      42.796  24.961  28.240  1.00  0.00     0.031 A 
ATOM     49  C   UNL A   1      44.969  30.631  30.654  1.00  0.00     0.049 A 
ATOM     50  C   UNL A   1      44.148  25.438  28.694  1.00  0.00     0.074 A 
ATOM     51  C   UNL A   1      46.256  30.950  31.049  1.00  0.00     0.029 A 
ATOM     52  N   UNL A   1      44.996  29.317  30.211  1.00  0.00    -0.354 N 
ATOM     53  N   UNL A   1      44.485  26.610  29.179  1.00  0.00    -0.248 NA
ATOM     54  C   UNL A   1      45.260  24.483  28.594  1.00  0.00     0.031 C 
ATOM     55  C   UNL A   1      47.067  29.832  30.828  1.00  0.00     0.029 A 
ATOM     56  C   UNL A   1      46.276  28.809  30.327  1.00  0.00     0.049 A 
ATOM     57  H   UNL A   1      44.220  28.822  29.865  1.00  0.00     0.167 HD
ATOM     58  C   UNL A   1      45.843  26.523  29.466  1.00  0.00     0.074 A 
ATOM     59  C   UNL A   1      46.263  25.184  29.107  1.00  0.00     0.031 C 
ATOM     60  C   UNL A   1      46.667  27.466  29.982  1.00  0.00     0.031 A 
BRANCH  47  61
ATOM     61  C   UNL A   1      43.918  32.879  31.153  1.00  0.00    -0.014 A 
ATOM     62  C   UNL A   1      44.218  33.186  32.493  1.00  0.00     0.010 A 
ATOM     63  C   UNL A   1      43.735  33.927  30.234  1.00  0.00     0.010 A 
ATOM     64  C   UNL A   1      44.277  34.514  32.918  1.00  0.00     0.020 A 
ATOM     65  C   UNL A   1      43.822  35.259  30.650  1.00  0.00     0.020 A 
ATOM     66  C   UNL A   1      44.069  35.542  31.995  1.00  0.00     0.054 A 
BRANCH  66  67
ATOM     67  S   UNL A   1      44.151  37.261  32.568  1.00  0.00     0.124 S 
ATOM     68  O   UNL A   1      42.978  37.342  33.437  1.00  0.00    -0.237 OA
ATOM     69  O   UNL A   1      45.442  37.314  33.250  1.00  0.00    -0.237 OA
ATOM     70  O   UNL A   1      44.069  38.041  31.336  1.00  0.00    -0.744 OA
ENDBRANCH  66  67
ENDBRANCH  47  61
BRANCH  48  71
ATOM     71  C   UNL A   1      42.618  23.591  27.690  1.00  0.00    -0.014 A 
ATOM     72  C   UNL A   1      42.910  23.329  26.340  1.00  0.00     0.010 A 
ATOM     73  C   UNL A   1      42.175  22.539  28.511  1.00  0.00     0.010 A 
ATOM     74  C   UNL A   1      42.746  22.044  25.815  1.00  0.00     0.020 A 
ATOM     75  C   UNL A   1      42.031  21.247  27.994  1.00  0.00     0.020 A 
ATOM     76  C   UNL A   1      42.308  21.010  26.646  1.00  0.00     0.054 A 
BRANCH  76  77
ATOM     77  S   UNL A   1      42.158  19.336  25.960  1.00  0.00     0.124 S 
ATOM     78  O   UNL A   1      40.726  19.245  25.693  1.00  0.00    -0.237 OA
ATOM     79  O   UNL A   1      43.019  19.396  24.782  1.00  0.00    -0.237 OA
ATOM     80  O   UNL A   1      42.651  18.482  27.038  1.00  0.00    -0.744 OA
ENDBRANCH  76  77
ENDBRANCH  48  71
BRANCH  60  81
ATOM     81  C   UNL A   1      48.094  27.078  30.238  1.00  0.00    -0.014 A 
ATOM     82  C   UNL A   1      49.111  27.410  29.327  1.00  0.00     0.010 A 
ATOM     83  C   UNL A   1      48.431  26.454  31.453  1.00  0.00     0.010 A 
ATOM     84  C   UNL A   1      50.444  27.113  29.623  1.00  0.00     0.020 A 
ATOM     85  C   UNL A   1      49.764  26.172  31.759  1.00  0.00     0.020 A 
ATOM     86  C   UNL A   1      50.762  26.498  30.838  1.00  0.00     0.054 A 
BRANCH  86  87
ATOM     87  S   UNL A   1      52.506  26.191  31.235  1.00  0.00     0.124 S 
ATOM     88  O   UNL A   1      53.111  26.125  29.909  1.00  0.00    -0.237 OA
ATOM     89  O   UNL A   1      52.865  27.361  32.033  1.00  0.00    -0.237 OA
ATOM     90  O   UNL A   1      52.474  24.930  31.971  1.00  0.00    -0.744 OA
ENDBRANCH  86  87
ENDBRANCH  60  81
ENDBRANCH  34  35
ENDBRANCH  26  29
ENDBRANCH  24  25
ENDBRANCH  23  24
ENDBRANCH  22  23
ENDBRANCH   1  22
TORSDOF 19
ENDMDL
MODEL 2
REMARK VINA RESULT:     -10.2      2.735      9.516
REMARK SMILES CCC[C@H](C)C[N@H+]1[C@@H]2CC[C@H]1C[C@H](CC(=O)NCCCCNC(=O)c1ccc(-c3c4nc(c(-c5ccc(S(=O)(=O)[O-])cc5)c5ccc([nH]5)c(-c5ccc(S(=O)(=O)[O-])cc5)c5nc(c(-c6ccc(S(=O)(=O)[O-])cc6)c6ccc3[nH]6)C=C5)C=C4)cc1)C2
REMARK SMILES IDX 18 1 17 2 15 3 16 4 14 6 13 7 7 8 8 9 11 10 9 12 85 13 10 14
REMARK SMILES IDX 12 15 6 16 4 17 5 18 3 19 2 20 1 21 19 22 20 23 21 24 22 25
REMARK SMILES IDX 23 26 24 28 25 29 26 30 84 31 27 32 83 33 28 34 29 35 30 36
REMARK SMILES IDX 77 37 31 38 82 39 76 40 78 41 32 42 81 43 75 44 74 45 33 47
REMARK SMILES IDX 63 48 44 49 62 50 45 51 48 52 61 53 79 54 46 55 47 56 60 58
REMARK SMILES IDX 80 59 49 60 34 61 35 62 43 63 36 64 42 65 37 66 38 67 39 68
REMARK SMILES IDX 40 69 41 70 64 71 65 72 73 73 66 74 72 75 67 76 68 77 69 78
REMARK SMILES IDX 70 79 71 80 50 81 51 82 59 83 52 84 58 85 53 86 54 87 55 88
REMARK SMILES IDX 56 89 57 90
REMARK H PARENT 17 5 7 11 22 27 78 46 48 57
REMARK Flexibility Score: inf
ROOT
ATOM      1  C   UNL A   1      33.466  22.382  25.278  1.00  0.00     0.116 C 
ENDROOT
BRANCH   1   2
ATOM      2  N   UNL A   1      32.226  22.596  26.008  1.00  0.00    -0.356 N 
ATOM      3  C   UNL A   1      31.724  23.712  26.610  1.00  0.00     0.220 C 
ATOM      4  O   UNL A   1      30.685  23.607  27.263  1.00  0.00    -0.275 OA
ATOM      5  H   UNL A   1      31.651  21.799  26.081  1.00  0.00     0.163 HD
BRANCH   3   6
ATOM      6  C   UNL A   1      32.411  25.062  26.472  1.00  0.00     0.104 C 
BRANCH   6   7
ATOM      7  C   UNL A   1      32.454  25.605  25.027  1.00  0.00     0.010 C 
ATOM      8  N   UNL A   1      31.590  28.256  23.931  1.00  0.00    -0.330 N 
ATOM      9  C   UNL A   1      33.008  27.839  23.834  1.00  0.00     0.184 C 
ATOM     10  C   UNL A   1      30.901  27.038  23.496  1.00  0.00     0.184 C 
ATOM     11  H   UNL A   1      31.316  29.051  23.354  1.00  0.00     0.348 HD
ATOM     12  C   UNL A   1      33.058  27.193  22.443  1.00  0.00     0.071 C 
ATOM     13  C   UNL A   1      33.396  26.828  24.936  1.00  0.00     0.069 C 
ATOM     14  C   UNL A   1      31.642  26.687  22.207  1.00  0.00     0.071 C 
ATOM     15  C   UNL A   1      31.037  25.912  24.521  1.00  0.00     0.069 C 
BRANCH   8  16
ATOM     16  C   UNL A   1      31.249  28.815  25.251  1.00  0.00     0.265 C 
BRANCH  16  17
ATOM     17  C   UNL A   1      31.958  30.113  25.729  1.00  0.00     0.041 C 
ATOM     18  C   UNL A   1      31.072  31.362  25.676  1.00  0.00     0.013 C 
BRANCH  17  19
ATOM     19  C   UNL A   1      32.413  29.939  27.205  1.00  0.00     0.009 C 
BRANCH  19  20
ATOM     20  C   UNL A   1      33.854  30.364  27.500  1.00  0.00    -0.003 C 
ATOM     21  C   UNL A   1      34.875  29.363  26.980  1.00  0.00     0.004 C 
ENDBRANCH  19  20
ENDBRANCH  17  19
ENDBRANCH  16  17
ENDBRANCH   8  16
ENDBRANCH   6   7
ENDBRANCH   3   6
ENDBRANCH   1   2
BRANCH   1  22
ATOM     22  C   UNL A   1      34.681  22.706  26.153  1.00  0.00     0.023 C 
BRANCH  22  23
ATOM     23  C   UNL A   1      36.002  22.112  25.703  1.00  0.00     0.023 C 
BRANCH  23  24
ATOM     24  C   UNL A   1      37.174  23.072  25.773  1.00  0.00     0.116 C 
BRANCH  24  25
ATOM     25  N   UNL A   1      38.481  22.422  25.801  1.00  0.00    -0.352 N 
ATOM     26  C   UNL A   1      39.668  22.935  26.284  1.00  0.00     0.251 C 
ATOM     27  H   UNL A   1      38.521  21.510  25.432  1.00  0.00     0.163 HD
ATOM     28  O   UNL A   1      40.712  22.304  26.203  1.00  0.00    -0.269 OA
BRANCH  26  29
ATOM     29  C   UNL A   1      39.647  24.300  26.851  1.00  0.00     0.039 A 
ATOM     30  C   UNL A   1      39.192  24.486  28.157  1.00  0.00     0.014 A 
ATOM     31  C   UNL A   1      40.245  25.345  26.145  1.00  0.00     0.014 A 
ATOM     32  C   UNL A   1      39.441  25.700  28.800  1.00  0.00     0.010 A 
ATOM     33  C   UNL A   1      40.582  26.509  26.821  1.00  0.00     0.010 A 
ATOM     34  C   UNL A   1      40.194  26.696  28.158  1.00  0.00    -0.014 A 
BRANCH  34  35
ATOM     35  C   UNL A   1      40.600  27.950  28.841  1.00  0.00     0.031 A 
ATOM     36  C   UNL A   1      41.947  28.016  29.508  1.00  0.00     0.074 A 
ATOM     37  C   UNL A   1      39.729  28.971  28.970  1.00  0.00     0.049 A 
ATOM     38  N   UNL A   1      42.421  28.918  30.327  1.00  0.00    -0.248 NA
ATOM     39  C   UNL A   1      42.861  26.888  29.260  1.00  0.00     0.031 C 
ATOM     40  C   UNL A   1      38.374  29.016  28.415  1.00  0.00     0.029 A 
ATOM     41  N   UNL A   1      39.851  30.168  29.633  1.00  0.00    -0.354 N 
ATOM     42  C   UNL A   1      43.660  28.439  30.733  1.00  0.00     0.074 A 
ATOM     43  C   UNL A   1      43.847  27.151  30.103  1.00  0.00     0.031 C 
ATOM     44  C   UNL A   1      37.802  30.189  28.737  1.00  0.00     0.029 A 
ATOM     45  C   UNL A   1      38.728  30.959  29.560  1.00  0.00     0.049 A 
ATOM     46  H   UNL A   1      40.667  30.434  30.115  1.00  0.00     0.167 HD
ATOM     47  C   UNL A   1      44.571  29.026  31.544  1.00  0.00     0.031 A 
ATOM     48  C   UNL A   1      38.471  32.166  30.103  1.00  0.00     0.031 A 
ATOM     49  C   UNL A   1      44.408  30.331  32.121  1.00  0.00     0.049 A 
ATOM     50  C   UNL A   1      39.523  32.829  30.948  1.00  0.00     0.074 A 
ATOM     51  C   UNL A   1      45.299  31.045  32.901  1.00  0.00     0.029 A 
ATOM     52  N   UNL A   1      43.285  31.127  31.958  1.00  0.00    -0.354 N 
ATOM     53  N   UNL A   1      40.704  32.375  31.295  1.00  0.00    -0.248 NA
ATOM     54  C   UNL A   1      39.213  34.167  31.469  1.00  0.00     0.031 C 
ATOM     55  C   UNL A   1      44.706  32.270  33.227  1.00  0.00     0.029 A 
ATOM     56  C   UNL A   1      43.461  32.328  32.620  1.00  0.00     0.049 A 
ATOM     57  H   UNL A   1      42.482  30.875  31.449  1.00  0.00     0.167 HD
ATOM     58  C   UNL A   1      41.289  33.384  32.051  1.00  0.00     0.074 A 
ATOM     59  C   UNL A   1      40.335  34.472  32.107  1.00  0.00     0.031 C 
ATOM     60  C   UNL A   1      42.506  33.406  32.645  1.00  0.00     0.031 A 
BRANCH  47  61
ATOM     61  C   UNL A   1      45.824  28.251  31.845  1.00  0.00    -0.014 A 
ATOM     62  C   UNL A   1      46.985  28.421  31.069  1.00  0.00     0.010 A 
ATOM     63  C   UNL A   1      45.842  27.341  32.917  1.00  0.00     0.010 A 
ATOM     64  C   UNL A   1      48.124  27.655  31.324  1.00  0.00     0.020 A 
ATOM     65  C   UNL A   1      46.990  26.592  33.193  1.00  0.00     0.020 A 
ATOM     66  C   UNL A   1      48.115  26.738  32.379  1.00  0.00     0.054 A 
BRANCH  66  67
ATOM     67  S   UNL A   1      49.606  25.754  32.692  1.00  0.00     0.124 S 
ATOM     68  O   UNL A   1      50.595  26.791  32.973  1.00  0.00    -0.237 OA
ATOM     69  O   UNL A   1      49.217  24.931  33.835  1.00  0.00    -0.237 OA
ATOM     70  O   UNL A   1      49.806  25.023  31.444  1.00  0.00    -0.744 OA
ENDBRANCH  66  67
ENDBRANCH  47  61
BRANCH  48  71
ATOM     71  C   UNL A   1      37.170  32.838  29.841  1.00  0.00    -0.014 A 
ATOM     72  C   UNL A   1      36.249  33.026  30.887  1.00  0.00     0.010 A 
ATOM     73  C   UNL A   1      36.851  33.310  28.555  1.00  0.00     0.010 A 
ATOM     74  C   UNL A   1      35.025  33.658  30.649  1.00  0.00     0.020 A 
ATOM     75  C   UNL A   1      35.636  33.962  28.319  1.00  0.00     0.020 A 
ATOM     76  C   UNL A   1      34.726  34.123  29.366  1.00  0.00     0.054 A 
BRANCH  76  77
ATOM     77  S   UNL A   1      33.156  34.992  29.092  1.00  0.00     0.124 S 
ATOM     78  O   UNL A   1      32.553  34.199  28.026  1.00  0.00    -0.237 OA
ATOM     79  O   UNL A   1      32.508  34.898  30.397  1.00  0.00    -0.237 OA
ATOM     80  O   UNL A   1      33.578  36.339  28.711  1.00  0.00    -0.744 OA
ENDBRANCH  76  77
ENDBRANCH  48  71
BRANCH  60  81
ATOM     81  C   UNL A   1      42.905  34.661  33.366  1.00  0.00    -0.014 A 
ATOM     82  C   UNL A   1      42.723  34.789  34.753  1.00  0.00     0.010 A 
ATOM     83  C   UNL A   1      43.555  35.688  32.657  1.00  0.00     0.010 A 
ATOM     84  C   UNL A   1      43.175  35.931  35.419  1.00  0.00     0.020 A 
ATOM     85  C   UNL A   1      44.024  36.821  33.323  1.00  0.00     0.020 A 
ATOM     86  C   UNL A   1      43.825  36.939  34.700  1.00  0.00     0.054 A 
BRANCH  86  87
ATOM     87  S   UNL A   1      44.473  38.378  35.596  1.00  0.00     0.124 S 
ATOM     88  O   UNL A   1      43.900  38.190  36.925  1.00  0.00    -0.237 OA
ATOM     89  O   UNL A   1      45.919  38.191  35.502  1.00  0.00    -0.237 OA
ATOM     90  O   UNL A   1      43.950  39.516  34.844  1.00  0.00    -0.744 OA
ENDBRANCH  86  87
ENDBRANCH  60  81
ENDBRANCH  34  35
ENDBRANCH  26  29
ENDBRANCH  24  25
ENDBRANCH  23  24
ENDBRANCH  22  23
ENDBRANCH   1  22
TORSDOF 19
ENDMDL
MODEL 3
REMARK VINA RESULT:      -9.8      0.760      8.267
REMARK SMILES CCC[C@H](C)C[N@H+]1[C@@H]2CC[C@H]1C[C@H](CC(=O)NCCCCNC(=O)c1ccc(-c3c4nc(c(-c5ccc(S(=O)(=O)[O-])cc5)c5ccc([nH]5)c(-c5ccc(S(=O)(=O)[O-])cc5)c5nc(c(-c6ccc(S(=O)(=O)[O-])cc6)c6ccc3[nH]6)C=C5)C=C4)cc1)C2
REMARK SMILES IDX 18 1 17 2 15 3 16 4 14 6 13 7 7 8 8 9 11 10 9 12 85 13 10 14
REMARK SMILES IDX 12 15 6 16 4 17 5 18 3 19 2 20 1 21 19 22 20 23 21 24 22 25
REMARK SMILES IDX 23 26 24 28 25 29 26 30 84 31 27 32 83 33 28 34 29 35 30 36
REMARK SMILES IDX 77 37 31 38 82 39 76 40 78 41 32 42 81 43 75 44 74 45 33 47
REMARK SMILES IDX 63 48 44 49 62 50 45 51 48 52 61 53 79 54 46 55 47 56 60 58
REMARK SMILES IDX 80 59 49 60 34 61 35 62 43 63 36 64 42 65 37 66 38 67 39 68
REMARK SMILES IDX 40 69 41 70 64 71 65 72 73 73 66 74 72 75 67 76 68 77 69 78
REMARK SMILES IDX 70 79 71 80 50 81 51 82 59 83 52 84 58 85 53 86 54 87 55 88
REMARK SMILES IDX 56 89 57 90
REMARK H PARENT 17 5 7 11 22 27 78 46 48 57
REMARK Flexibility Score: inf
ROOT
ATOM      1  C   UNL A   1      32.677  28.427  23.030  1.00  0.00     0.116 C 
ENDROOT
BRANCH   1   2
ATOM      2  N   UNL A   1      33.282  27.359  22.250  1.00  0.00    -0.356 N 
ATOM      3  C   UNL A   1      32.841  26.100  21.965  1.00  0.00     0.220 C 
ATOM      4  O   UNL A   1      33.598  25.339  21.359  1.00  0.00    -0.275 OA
ATOM      5  H   UNL A   1      34.159  27.583  21.860  1.00  0.00     0.163 HD
BRANCH   3   6
ATOM      6  C   UNL A   1      31.448  25.640  22.364  1.00  0.00     0.104 C 
BRANCH   6   7
ATOM      7  C   UNL A   1      31.423  24.679  23.574  1.00  0.00     0.010 C 
ATOM      8  N   UNL A   1      33.675  23.344  25.030  1.00  0.00    -0.330 N 
ATOM      9  C   UNL A   1      32.788  24.291  25.743  1.00  0.00     0.184 C 
ATOM     10  C   UNL A   1      32.698  22.524  24.306  1.00  0.00     0.184 C 
ATOM     11  H   UNL A   1      34.272  22.760  25.615  1.00  0.00     0.348 HD
ATOM     12  C   UNL A   1      31.736  23.352  26.349  1.00  0.00     0.071 C 
ATOM     13  C   UNL A   1      32.139  25.317  24.787  1.00  0.00     0.069 C 
ATOM     14  C   UNL A   1      31.701  22.159  25.405  1.00  0.00     0.071 C 
ATOM     15  C   UNL A   1      32.010  23.312  23.192  1.00  0.00     0.069 C 
BRANCH   8  16
ATOM     16  C   UNL A   1      34.726  24.022  24.251  1.00  0.00     0.265 C 
BRANCH  16  17
ATOM     17  C   UNL A   1      36.206  23.584  24.438  1.00  0.00     0.041 C 
ATOM     18  C   UNL A   1      36.748  23.811  25.853  1.00  0.00     0.013 C 
BRANCH  17  19
ATOM     19  C   UNL A   1      36.336  22.064  24.139  1.00  0.00     0.009 C 
BRANCH  19  20
ATOM     20  C   UNL A   1      37.451  21.341  24.899  1.00  0.00    -0.003 C 
ATOM     21  C   UNL A   1      37.359  19.828  24.769  1.00  0.00     0.004 C 
ENDBRANCH  19  20
ENDBRANCH  17  19
ENDBRANCH  16  17
ENDBRANCH   8  16
ENDBRANCH   6   7
ENDBRANCH   3   6
ENDBRANCH   1   2
BRANCH   1  22
ATOM     22  C   UNL A   1      33.583  28.834  24.198  1.00  0.00     0.023 C 
BRANCH  22  23
ATOM     23  C   UNL A   1      32.976  28.715  25.582  1.00  0.00     0.023 C 
BRANCH  23  24
ATOM     24  C   UNL A   1      33.981  28.810  26.714  1.00  0.00     0.116 C 
BRANCH  24  25
ATOM     25  N   UNL A   1      33.829  29.995  27.553  1.00  0.00    -0.352 N 
ATOM     26  C   UNL A   1      34.776  30.575  28.372  1.00  0.00     0.251 C 
ATOM     27  H   UNL A   1      32.946  30.432  27.533  1.00  0.00     0.163 HD
ATOM     28  O   UNL A   1      34.506  31.544  29.068  1.00  0.00    -0.269 OA
BRANCH  26  29
ATOM     29  C   UNL A   1      36.114  29.950  28.426  1.00  0.00     0.039 A 
ATOM     30  C   UNL A   1      36.973  30.087  27.333  1.00  0.00     0.014 A 
ATOM     31  C   UNL A   1      36.564  29.393  29.624  1.00  0.00     0.014 A 
ATOM     32  C   UNL A   1      38.323  29.767  27.482  1.00  0.00     0.010 A 
ATOM     33  C   UNL A   1      37.923  29.175  29.799  1.00  0.00     0.010 A 
ATOM     34  C   UNL A   1      38.819  29.369  28.734  1.00  0.00    -0.014 A 
BRANCH  34  35
ATOM     35  C   UNL A   1      40.266  29.143  28.980  1.00  0.00     0.031 A 
ATOM     36  C   UNL A   1      40.872  27.817  28.607  1.00  0.00     0.074 A 
ATOM     37  C   UNL A   1      40.999  30.062  29.640  1.00  0.00     0.049 A 
ATOM     38  N   UNL A   1      42.045  27.328  28.914  1.00  0.00    -0.248 NA
ATOM     39  C   UNL A   1      40.022  26.899  27.829  1.00  0.00     0.031 C 
ATOM     40  C   UNL A   1      40.521  31.367  30.103  1.00  0.00     0.029 A 
ATOM     41  N   UNL A   1      42.307  30.025  30.057  1.00  0.00    -0.354 N 
ATOM     42  C   UNL A   1      42.051  26.031  28.416  1.00  0.00     0.074 A 
ATOM     43  C   UNL A   1      40.753  25.796  27.823  1.00  0.00     0.031 C 
ATOM     44  C   UNL A   1      41.527  32.015  30.714  1.00  0.00     0.029 A 
ATOM     45  C   UNL A   1      42.706  31.157  30.730  1.00  0.00     0.049 A 
ATOM     46  H   UNL A   1      42.904  29.260  29.890  1.00  0.00     0.167 HD
ATOM     47  C   UNL A   1      43.052  25.121  28.434  1.00  0.00     0.031 A 
ATOM     48  C   UNL A   1      43.887  31.463  31.303  1.00  0.00     0.031 A 
ATOM     49  C   UNL A   1      44.359  25.378  28.971  1.00  0.00     0.049 A 
ATOM     50  C   UNL A   1      45.008  30.462  31.255  1.00  0.00     0.074 A 
ATOM     51  C   UNL A   1      45.466  24.549  28.978  1.00  0.00     0.029 A 
ATOM     52  N   UNL A   1      44.741  26.566  29.576  1.00  0.00    -0.354 N 
ATOM     53  N   UNL A   1      45.005  29.251  30.749  1.00  0.00    -0.248 NA
ATOM     54  C   UNL A   1      46.291  30.868  31.844  1.00  0.00     0.031 C 
ATOM     55  C   UNL A   1      46.515  25.229  29.605  1.00  0.00     0.029 A 
ATOM     56  C   UNL A   1      46.068  26.494  29.957  1.00  0.00     0.049 A 
ATOM     57  H   UNL A   1      44.154  27.344  29.715  1.00  0.00     0.167 HD
ATOM     58  C   UNL A   1      46.294  28.762  30.936  1.00  0.00     0.074 A 
ATOM     59  C   UNL A   1      47.048  29.808  31.595  1.00  0.00     0.031 C 
ATOM     60  C   UNL A   1      46.804  27.555  30.592  1.00  0.00     0.031 A 
BRANCH  47  61
ATOM     61  C   UNL A   1      42.761  23.767  27.850  1.00  0.00    -0.014 A 
ATOM     62  C   UNL A   1      42.088  22.784  28.598  1.00  0.00     0.010 A 
ATOM     63  C   UNL A   1      43.167  23.471  26.537  1.00  0.00     0.010 A 
ATOM     64  C   UNL A   1      41.875  21.512  28.064  1.00  0.00     0.020 A 
ATOM     65  C   UNL A   1      42.930  22.207  25.988  1.00  0.00     0.020 A 
ATOM     66  C   UNL A   1      42.306  21.229  26.765  1.00  0.00     0.054 A 
BRANCH  66  67
ATOM     67  S   UNL A   1      42.018  19.570  26.091  1.00  0.00     0.124 S 
ATOM     68  O   UNL A   1      42.856  19.585  24.894  1.00  0.00    -0.237 OA
ATOM     69  O   UNL A   1      42.479  18.698  27.168  1.00  0.00    -0.237 OA
ATOM     70  O   UNL A   1      40.579  19.543  25.845  1.00  0.00    -0.744 OA
ENDBRANCH  66  67
ENDBRANCH  47  61
BRANCH  48  71
ATOM     71  C   UNL A   1      44.079  32.790  31.949  1.00  0.00    -0.014 A 
ATOM     72  C   UNL A   1      44.563  33.876  31.200  1.00  0.00     0.010 A 
ATOM     73  C   UNL A   1      43.765  32.981  33.307  1.00  0.00     0.010 A 
ATOM     74  C   UNL A   1      44.746  35.126  31.798  1.00  0.00     0.020 A 
ATOM     75  C   UNL A   1      43.926  34.236  33.903  1.00  0.00     0.020 A 
ATOM     76  C   UNL A   1      44.426  35.298  33.147  1.00  0.00     0.054 A 
BRANCH  76  77
ATOM     77  S   UNL A   1      44.615  36.943  33.891  1.00  0.00     0.124 S 
ATOM     78  O   UNL A   1      44.496  37.817  32.728  1.00  0.00    -0.237 OA
ATOM     79  O   UNL A   1      43.506  36.995  34.839  1.00  0.00    -0.237 OA
ATOM     80  O   UNL A   1      45.942  36.888  34.501  1.00  0.00    -0.744 OA
ENDBRANCH  76  77
ENDBRANCH  48  71
BRANCH  60  81
ATOM     81  C   UNL A   1      48.259  27.311  30.873  1.00  0.00    -0.014 A 
ATOM     82  C   UNL A   1      48.669  26.619  32.025  1.00  0.00     0.010 A 
ATOM     83  C   UNL A   1      49.220  27.701  29.922  1.00  0.00     0.010 A 
ATOM     84  C   UNL A   1      50.021  26.329  32.226  1.00  0.00     0.020 A 
ATOM     85  C   UNL A   1      50.569  27.397  30.112  1.00  0.00     0.020 A 
ATOM     86  C   UNL A   1      50.962  26.718  31.267  1.00  0.00     0.054 A 
BRANCH  86  87
ATOM     87  S   UNL A   1      52.702  26.264  31.512  1.00  0.00     0.124 S 
ATOM     88  O   UNL A   1      52.587  25.021  32.268  1.00  0.00    -0.237 OA
ATOM     89  O   UNL A   1      53.193  26.125  30.143  1.00  0.00    -0.237 OA
ATOM     90  O   UNL A   1      53.252  27.397  32.252  1.00  0.00    -0.744 OA
ENDBRANCH  86  87
ENDBRANCH  60  81
ENDBRANCH  34  35
ENDBRANCH  26  29
ENDBRANCH  24  25
ENDBRANCH  23  24
ENDBRANCH  22  23
ENDBRANCH   1  22
TORSDOF 19
ENDMDL
