MODEL 1
REMARK VINA RESULT:     -11.4      0.000      0.000
REMARK SMILES Cn1ncc(C(=O)NCCCCNC(=O)c2ccc(-c3c4nc(c(-c5ccc(S(=O)(=O)[O-])cc5)c5ccc([nH]5)c(-c5ccc(S(=O)(=O)[O-])cc5)c5nc(c(-c6ccc(S(=O)(=O)[O-])cc6)c6ccc3[nH]6)C=C5)C=C4)cc2)c1C(=O)Nc1ccccn1
REMARK SMILES IDX 11 1 10 2 9 3 8 4 6 5 7 6 5 8 1 9 2 10 3 11 76 12 4 13 77 14
REMARK SMILES IDX 78 15 79 16 80 18 81 19 85 20 82 21 84 22 83 23 12 24 13 25
REMARK SMILES IDX 14 26 15 28 16 29 17 30 75 31 18 32 74 33 19 34 20 35 21 36
REMARK SMILES IDX 68 37 22 38 73 39 67 40 69 41 23 42 72 43 66 44 65 45 24 47
REMARK SMILES IDX 54 48 35 49 53 50 36 51 39 52 52 53 70 54 37 55 38 56 51 58
REMARK SMILES IDX 71 59 40 60 25 61 26 62 34 63 27 64 33 65 28 66 29 67 30 68
REMARK SMILES IDX 31 69 32 70 55 71 56 72 64 73 57 74 63 75 58 76 59 77 60 78
REMARK SMILES IDX 61 79 62 80 41 81 42 82 50 83 43 84 49 85 44 86 45 87 46 88
REMARK SMILES IDX 47 89 48 90
REMARK H PARENT 8 7 79 17 13 27 69 46 39 57
REMARK Flexibility Score: inf
ROOT
ATOM      1  C   UNL A   1      31.979  28.088  27.335  1.00  0.00     0.023 C 
ENDROOT
BRANCH   1   2
ATOM      2  C   UNL A   1      31.622  27.137  26.197  1.00  0.00     0.023 C 
BRANCH   2   3
ATOM      3  C   UNL A   1      32.269  25.758  26.234  1.00  0.00     0.116 C 
BRANCH   3   4
ATOM      4  N   UNL A   1      31.414  24.719  26.758  1.00  0.00    -0.352 N 
ATOM      5  C   UNL A   1      31.631  23.383  26.968  1.00  0.00     0.255 C 
ATOM      6  O   UNL A   1      30.671  22.730  27.385  1.00  0.00    -0.269 OA
ATOM      7  H   UNL A   1      30.513  25.027  27.010  1.00  0.00     0.163 HD
BRANCH   5   8
ATOM      8  C   UNL A   1      32.888  22.706  26.666  1.00  0.00     0.090 A 
ATOM      9  C   UNL A   1      35.533  21.135  24.792  1.00  0.00     0.174 C 
ATOM     10  N   UNL A   1      34.619  21.689  25.766  1.00  0.00    -0.262 N 
ATOM     11  N   UNL A   1      35.161  22.423  26.754  1.00  0.00    -0.180 NA
ATOM     12  C   UNL A   1      33.240  21.702  25.756  1.00  0.00     0.139 A 
ATOM     13  C   UNL A   1      34.123  23.105  27.232  1.00  0.00     0.149 A 
BRANCH  12  14
ATOM     14  C   UNL A   1      32.384  21.035  24.811  1.00  0.00     0.275 C 
ATOM     15  O   UNL A   1      31.889  19.937  25.070  1.00  0.00    -0.267 OA
ATOM     16  N   UNL A   1      32.096  21.545  23.568  1.00  0.00    -0.305 N 
ATOM     17  H   UNL A   1      31.860  20.867  22.894  1.00  0.00     0.171 HD
BRANCH  16  18
ATOM     18  C   UNL A   1      32.083  22.850  23.101  1.00  0.00     0.132 A 
ATOM     19  C   UNL A   1      33.148  23.503  22.501  1.00  0.00     0.047 A 
ATOM     20  N   UNL A   1      30.906  23.455  23.362  1.00  0.00    -0.239 NA
ATOM     21  C   UNL A   1      33.006  24.868  22.229  1.00  0.00     0.005 A 
ATOM     22  C   UNL A   1      30.808  24.776  23.129  1.00  0.00     0.113 A 
ATOM     23  C   UNL A   1      31.827  25.525  22.576  1.00  0.00     0.020 A 
ENDBRANCH  16  18
ENDBRANCH  12  14
ENDBRANCH   5   8
ENDBRANCH   3   4
ENDBRANCH   2   3
ENDBRANCH   1   2
BRANCH   1  24
ATOM     24  C   UNL A   1      33.387  28.674  27.319  1.00  0.00     0.116 C 
BRANCH  24  25
ATOM     25  N   UNL A   1      33.450  30.073  27.719  1.00  0.00    -0.352 N 
ATOM     26  C   UNL A   1      34.497  30.790  28.251  1.00  0.00     0.251 C 
ATOM     27  H   UNL A   1      32.617  30.582  27.591  1.00  0.00     0.163 HD
ATOM     28  O   UNL A   1      34.328  31.956  28.602  1.00  0.00    -0.269 OA
BRANCH  26  29
ATOM     29  C   UNL A   1      35.814  30.143  28.441  1.00  0.00     0.039 A 
ATOM     30  C   UNL A   1      36.743  30.182  27.399  1.00  0.00     0.014 A 
ATOM     31  C   UNL A   1      36.148  29.549  29.659  1.00  0.00     0.014 A 
ATOM     32  C   UNL A   1      38.043  29.716  27.615  1.00  0.00     0.010 A 
ATOM     33  C   UNL A   1      37.464  29.166  29.900  1.00  0.00     0.010 A 
ATOM     34  C   UNL A   1      38.430  29.256  28.884  1.00  0.00    -0.014 A 
BRANCH  34  35
ATOM     35  C   UNL A   1      39.838  28.885  29.181  1.00  0.00     0.031 A 
ATOM     36  C   UNL A   1      40.774  29.891  29.792  1.00  0.00     0.074 A 
ATOM     37  C   UNL A   1      40.299  27.669  28.821  1.00  0.00     0.049 A 
ATOM     38  N   UNL A   1      42.053  29.780  30.048  1.00  0.00    -0.248 NA
ATOM     39  C   UNL A   1      40.207  31.206  30.130  1.00  0.00     0.031 C 
ATOM     40  C   UNL A   1      39.510  26.620  28.169  1.00  0.00     0.029 A 
ATOM     41  N   UNL A   1      41.549  27.112  28.943  1.00  0.00    -0.354 N 
ATOM     42  C   UNL A   1      42.445  31.013  30.555  1.00  0.00     0.074 A 
ATOM     43  C   UNL A   1      41.284  31.873  30.519  1.00  0.00     0.031 C 
ATOM     44  C   UNL A   1      40.286  25.541  27.974  1.00  0.00     0.029 A 
ATOM     45  C   UNL A   1      41.636  25.832  28.448  1.00  0.00     0.049 A 
ATOM     46  H   UNL A   1      42.312  27.586  29.347  1.00  0.00     0.167 HD
ATOM     47  C   UNL A   1      43.657  31.392  31.028  1.00  0.00     0.031 A 
ATOM     48  C   UNL A   1      42.682  24.986  28.378  1.00  0.00     0.031 A 
ATOM     49  C   UNL A   1      44.809  30.531  31.076  1.00  0.00     0.049 A 
ATOM     50  C   UNL A   1      44.016  25.423  28.918  1.00  0.00     0.074 A 
ATOM     51  C   UNL A   1      46.065  30.802  31.591  1.00  0.00     0.029 A 
ATOM     52  N   UNL A   1      44.846  29.232  30.591  1.00  0.00    -0.354 N 
ATOM     53  N   UNL A   1      44.349  26.571  29.457  1.00  0.00    -0.248 NA
ATOM     54  C   UNL A   1      45.111  24.443  28.855  1.00  0.00     0.031 C 
ATOM     55  C   UNL A   1      46.875  29.680  31.378  1.00  0.00     0.029 A 
ATOM     56  C   UNL A   1      46.107  28.694  30.778  1.00  0.00     0.049 A 
ATOM     57  H   UNL A   1      44.087  28.763  30.175  1.00  0.00     0.167 HD
ATOM     58  C   UNL A   1      45.686  26.445  29.818  1.00  0.00     0.074 A 
ATOM     59  C   UNL A   1      46.095  25.105  29.450  1.00  0.00     0.031 C 
ATOM     60  C   UNL A   1      46.500  27.358  30.405  1.00  0.00     0.031 A 
BRANCH  47  61
ATOM     61  C   UNL A   1      43.790  32.806  31.529  1.00  0.00    -0.014 A 
ATOM     62  C   UNL A   1      43.557  33.121  32.881  1.00  0.00     0.010 A 
ATOM     63  C   UNL A   1      44.162  33.832  30.642  1.00  0.00     0.010 A 
ATOM     64  C   UNL A   1      43.637  34.443  33.325  1.00  0.00     0.020 A 
ATOM     65  C   UNL A   1      44.274  35.153  31.089  1.00  0.00     0.020 A 
ATOM     66  C   UNL A   1      43.987  35.452  32.423  1.00  0.00     0.054 A 
BRANCH  66  67
ATOM     67  S   UNL A   1      44.084  37.161  33.025  1.00  0.00     0.124 S 
ATOM     68  O   UNL A   1      42.871  37.264  33.832  1.00  0.00    -0.237 OA
ATOM     69  O   UNL A   1      45.338  37.166  33.775  1.00  0.00    -0.237 OA
ATOM     70  O   UNL A   1      44.090  37.960  31.803  1.00  0.00    -0.744 OA
ENDBRANCH  66  67
ENDBRANCH  47  61
BRANCH  48  71
ATOM     71  C   UNL A   1      42.499  23.631  27.792  1.00  0.00    -0.014 A 
ATOM     72  C   UNL A   1      42.938  23.355  26.485  1.00  0.00     0.010 A 
ATOM     73  C   UNL A   1      41.911  22.598  28.547  1.00  0.00     0.010 A 
ATOM     74  C   UNL A   1      42.786  22.077  25.939  1.00  0.00     0.020 A 
ATOM     75  C   UNL A   1      41.781  21.313  28.015  1.00  0.00     0.020 A 
ATOM     76  C   UNL A   1      42.212  21.062  26.710  1.00  0.00     0.054 A 
BRANCH  76  77
ATOM     77  S   UNL A   1      42.090  19.393  26.008  1.00  0.00     0.124 S 
ATOM     78  O   UNL A   1      42.652  18.572  27.076  1.00  0.00    -0.237 OA
ATOM     79  O   UNL A   1      40.653  19.248  25.787  1.00  0.00    -0.237 OA
ATOM     80  O   UNL A   1      42.893  19.475  24.790  1.00  0.00    -0.744 OA
ENDBRANCH  76  77
ENDBRANCH  48  71
BRANCH  60  81
ATOM     81  C   UNL A   1      47.909  26.930  30.715  1.00  0.00    -0.014 A 
ATOM     82  C   UNL A   1      48.953  27.137  29.796  1.00  0.00     0.010 A 
ATOM     83  C   UNL A   1      48.202  26.368  31.971  1.00  0.00     0.010 A 
ATOM     84  C   UNL A   1      50.260  26.762  30.118  1.00  0.00     0.020 A 
ATOM     85  C   UNL A   1      49.511  26.016  32.306  1.00  0.00     0.020 A 
ATOM     86  C   UNL A   1      50.531  26.203  31.371  1.00  0.00     0.054 A 
BRANCH  86  87
ATOM     87  S   UNL A   1      52.243  25.769  31.783  1.00  0.00     0.124 S 
ATOM     88  O   UNL A   1      52.122  24.359  32.141  1.00  0.00    -0.237 OA
ATOM     89  O   UNL A   1      52.953  26.042  30.536  1.00  0.00    -0.237 OA
ATOM     90  O   UNL A   1      52.572  26.666  32.888  1.00  0.00    -0.744 OA
ENDBRANCH  86  87
ENDBRANCH  60  81
ENDBRANCH  34  35
ENDBRANCH  26  29
ENDBRANCH  24  25
ENDBRANCH   1  24
TORSDOF 16
ENDMDL
MODEL 2
REMARK VINA RESULT:     -10.9      0.863      2.146
REMARK SMILES Cn1ncc(C(=O)NCCCCNC(=O)c2ccc(-c3c4nc(c(-c5ccc(S(=O)(=O)[O-])cc5)c5ccc([nH]5)c(-c5ccc(S(=O)(=O)[O-])cc5)c5nc(c(-c6ccc(S(=O)(=O)[O-])cc6)c6ccc3[nH]6)C=C5)C=C4)cc2)c1C(=O)Nc1ccccn1
REMARK SMILES IDX 11 1 10 2 9 3 8 4 6 5 7 6 5 8 1 9 2 10 3 11 76 12 4 13 77 14
REMARK SMILES IDX 78 15 79 16 80 18 81 19 85 20 82 21 84 22 83 23 12 24 13 25
REMARK SMILES IDX 14 26 15 28 16 29 17 30 75 31 18 32 74 33 19 34 20 35 21 36
REMARK SMILES IDX 68 37 22 38 73 39 67 40 69 41 23 42 72 43 66 44 65 45 24 47
REMARK SMILES IDX 54 48 35 49 53 50 36 51 39 52 52 53 70 54 37 55 38 56 51 58
REMARK SMILES IDX 71 59 40 60 25 61 26 62 34 63 27 64 33 65 28 66 29 67 30 68
REMARK SMILES IDX 31 69 32 70 55 71 56 72 64 73 57 74 63 75 58 76 59 77 60 78
REMARK SMILES IDX 61 79 62 80 41 81 42 82 50 83 43 84 49 85 44 86 45 87 46 88
REMARK SMILES IDX 47 89 48 90
REMARK H PARENT 8 7 79 17 13 27 69 46 39 57
REMARK Flexibility Score: inf
ROOT
ATOM      1  C   UNL A   1      32.222  28.410  26.546  1.00  0.00     0.023 C 
ENDROOT
BRANCH   1   2
ATOM      2  C   UNL A   1      31.419  27.191  26.989  1.00  0.00     0.023 C 
BRANCH   2   3
ATOM      3  C   UNL A   1      31.675  25.895  26.229  1.00  0.00     0.116 C 
BRANCH   3   4
ATOM      4  N   UNL A   1      31.283  24.704  26.946  1.00  0.00    -0.352 N 
ATOM      5  C   UNL A   1      31.210  23.393  26.558  1.00  0.00     0.255 C 
ATOM      6  O   UNL A   1      30.779  22.596  27.395  1.00  0.00    -0.269 OA
ATOM      7  H   UNL A   1      31.022  24.864  27.882  1.00  0.00     0.163 HD
BRANCH   5   8
ATOM      8  C   UNL A   1      31.544  22.921  25.218  1.00  0.00     0.090 A 
ATOM      9  C   UNL A   1      32.118  20.690  22.448  1.00  0.00     0.174 C 
ATOM     10  N   UNL A   1      31.980  21.782  23.387  1.00  0.00    -0.262 N 
ATOM     11  N   UNL A   1      31.387  22.899  22.932  1.00  0.00    -0.180 NA
ATOM     12  C   UNL A   1      32.236  21.801  24.742  1.00  0.00     0.139 A 
ATOM     13  C   UNL A   1      31.043  23.539  24.046  1.00  0.00     0.149 A 
BRANCH  12  14
ATOM     14  C   UNL A   1      32.836  20.746  25.515  1.00  0.00     0.275 C 
ATOM     15  O   UNL A   1      32.278  19.654  25.636  1.00  0.00    -0.267 OA
ATOM     16  N   UNL A   1      34.025  20.889  26.187  1.00  0.00    -0.305 N 
ATOM     17  H   UNL A   1      34.129  20.294  26.964  1.00  0.00     0.171 HD
BRANCH  16  18
ATOM     18  C   UNL A   1      35.103  21.731  25.959  1.00  0.00     0.132 A 
ATOM     19  C   UNL A   1      35.175  23.066  26.322  1.00  0.00     0.047 A 
ATOM     20  N   UNL A   1      36.076  21.107  25.265  1.00  0.00    -0.239 NA
ATOM     21  C   UNL A   1      36.277  23.804  25.877  1.00  0.00     0.005 A 
ATOM     22  C   UNL A   1      37.106  21.846  24.814  1.00  0.00     0.113 A 
ATOM     23  C   UNL A   1      37.245  23.193  25.083  1.00  0.00     0.020 A 
ENDBRANCH  16  18
ENDBRANCH  12  14
ENDBRANCH   5   8
ENDBRANCH   3   4
ENDBRANCH   2   3
ENDBRANCH   1   2
BRANCH   1  24
ATOM     24  C   UNL A   1      33.425  28.784  27.406  1.00  0.00     0.116 C 
BRANCH  24  25
ATOM     25  N   UNL A   1      33.572  30.217  27.628  1.00  0.00    -0.352 N 
ATOM     26  C   UNL A   1      34.661  30.933  28.065  1.00  0.00     0.251 C 
ATOM     27  H   UNL A   1      32.768  30.753  27.437  1.00  0.00     0.163 HD
ATOM     28  O   UNL A   1      34.561  32.141  28.268  1.00  0.00    -0.269 OA
BRANCH  26  29
ATOM     29  C   UNL A   1      35.940  30.240  28.334  1.00  0.00     0.039 A 
ATOM     30  C   UNL A   1      36.919  30.215  27.338  1.00  0.00     0.014 A 
ATOM     31  C   UNL A   1      36.192  29.666  29.582  1.00  0.00     0.014 A 
ATOM     32  C   UNL A   1      38.187  29.704  27.628  1.00  0.00     0.010 A 
ATOM     33  C   UNL A   1      37.479  29.239  29.895  1.00  0.00     0.010 A 
ATOM     34  C   UNL A   1      38.494  29.263  28.925  1.00  0.00    -0.014 A 
BRANCH  34  35
ATOM     35  C   UNL A   1      39.871  28.845  29.299  1.00  0.00     0.031 A 
ATOM     36  C   UNL A   1      40.790  29.806  30.003  1.00  0.00     0.074 A 
ATOM     37  C   UNL A   1      40.325  27.630  28.928  1.00  0.00     0.049 A 
ATOM     38  N   UNL A   1      42.047  29.652  30.336  1.00  0.00    -0.248 NA
ATOM     39  C   UNL A   1      40.235  31.124  30.349  1.00  0.00     0.031 C 
ATOM     40  C   UNL A   1      39.554  26.624  28.191  1.00  0.00     0.029 A 
ATOM     41  N   UNL A   1      41.550  27.037  29.110  1.00  0.00    -0.354 N 
ATOM     42  C   UNL A   1      42.435  30.857  30.908  1.00  0.00     0.074 A 
ATOM     43  C   UNL A   1      41.300  31.749  30.828  1.00  0.00     0.031 C 
ATOM     44  C   UNL A   1      40.314  25.532  28.009  1.00  0.00     0.029 A 
ATOM     45  C   UNL A   1      41.637  25.772  28.578  1.00  0.00     0.049 A 
ATOM     46  H   UNL A   1      42.296  27.476  29.578  1.00  0.00     0.167 HD
ATOM     47  C   UNL A   1      43.623  31.188  31.471  1.00  0.00     0.031 A 
ATOM     48  C   UNL A   1      42.665  24.901  28.546  1.00  0.00     0.031 A 
ATOM     49  C   UNL A   1      44.747  30.296  31.563  1.00  0.00     0.049 A 
ATOM     50  C   UNL A   1      43.971  25.283  29.185  1.00  0.00     0.074 A 
ATOM     51  C   UNL A   1      45.974  30.516  32.167  1.00  0.00     0.029 A 
ATOM     52  N   UNL A   1      44.784  29.013  31.037  1.00  0.00    -0.354 N 
ATOM     53  N   UNL A   1      44.297  26.404  29.783  1.00  0.00    -0.248 NA
ATOM     54  C   UNL A   1      45.043  24.278  29.159  1.00  0.00     0.031 C 
ATOM     55  C   UNL A   1      46.768  29.381  31.967  1.00  0.00     0.029 A 
ATOM     56  C   UNL A   1      46.017  28.435  31.286  1.00  0.00     0.049 A 
ATOM     57  H   UNL A   1      44.043  28.578  30.558  1.00  0.00     0.167 HD
ATOM     58  C   UNL A   1      45.604  26.231  30.225  1.00  0.00     0.074 A 
ATOM     59  C   UNL A   1      46.003  24.893  29.838  1.00  0.00     0.031 C 
ATOM     60  C   UNL A   1      46.400  27.102  30.893  1.00  0.00     0.031 A 
BRANCH  47  61
ATOM     61  C   UNL A   1      43.757  32.581  32.027  1.00  0.00    -0.014 A 
ATOM     62  C   UNL A   1      44.327  33.616  31.261  1.00  0.00     0.010 A 
ATOM     63  C   UNL A   1      43.300  32.865  33.327  1.00  0.00     0.010 A 
ATOM     64  C   UNL A   1      44.489  34.893  31.804  1.00  0.00     0.020 A 
ATOM     65  C   UNL A   1      43.433  34.149  33.863  1.00  0.00     0.020 A 
ATOM     66  C   UNL A   1      44.048  35.149  33.106  1.00  0.00     0.054 A 
BRANCH  66  67
ATOM     67  S   UNL A   1      44.271  36.815  33.787  1.00  0.00     0.124 S 
ATOM     68  O   UNL A   1      43.956  36.606  35.198  1.00  0.00    -0.237 OA
ATOM     69  O   UNL A   1      45.674  37.097  33.494  1.00  0.00    -0.237 OA
ATOM     70  O   UNL A   1      43.308  37.625  33.047  1.00  0.00    -0.744 OA
ENDBRANCH  66  67
ENDBRANCH  47  61
BRANCH  48  71
ATOM     71  C   UNL A   1      42.487  23.570  27.904  1.00  0.00    -0.014 A 
ATOM     72  C   UNL A   1      42.903  23.359  26.577  1.00  0.00     0.010 A 
ATOM     73  C   UNL A   1      41.927  22.497  28.623  1.00  0.00     0.010 A 
ATOM     74  C   UNL A   1      42.757  22.104  25.978  1.00  0.00     0.020 A 
ATOM     75  C   UNL A   1      41.802  21.235  28.036  1.00  0.00     0.020 A 
ATOM     76  C   UNL A   1      42.211  21.048  26.713  1.00  0.00     0.054 A 
BRANCH  76  77
ATOM     77  S   UNL A   1      42.095  19.411  25.939  1.00  0.00     0.124 S 
ATOM     78  O   UNL A   1      40.662  19.295  25.688  1.00  0.00    -0.237 OA
ATOM     79  O   UNL A   1      42.936  19.561  24.754  1.00  0.00    -0.237 OA
ATOM     80  O   UNL A   1      42.628  18.512  26.961  1.00  0.00    -0.744 OA
ENDBRANCH  76  77
ENDBRANCH  48  71
BRANCH  60  81
ATOM     81  C   UNL A   1      47.776  26.627  31.278  1.00  0.00    -0.014 A 
ATOM     82  C   UNL A   1      47.986  25.877  32.449  1.00  0.00     0.010 A 
ATOM     83  C   UNL A   1      48.862  26.886  30.423  1.00  0.00     0.010 A 
ATOM     84  C   UNL A   1      49.267  25.419  32.771  1.00  0.00     0.020 A 
ATOM     85  C   UNL A   1      50.138  26.407  30.729  1.00  0.00     0.020 A 
ATOM     86  C   UNL A   1      50.335  25.687  31.909  1.00  0.00     0.054 A 
BRANCH  86  87
ATOM     87  S   UNL A   1      51.977  25.040  32.325  1.00  0.00     0.124 S 
ATOM     88  O   UNL A   1      52.236  25.671  33.615  1.00  0.00    -0.237 OA
ATOM     89  O   UNL A   1      51.754  23.597  32.365  1.00  0.00    -0.237 OA
ATOM     90  O   UNL A   1      52.821  25.503  31.225  1.00  0.00    -0.744 OA
ENDBRANCH  86  87
ENDBRANCH  60  81
ENDBRANCH  34  35
ENDBRANCH  26  29
ENDBRANCH  24  25
ENDBRANCH   1  24
TORSDOF 16
ENDMDL
MODEL 3
REMARK VINA RESULT:     -10.9      1.240      2.334
REMARK SMILES Cn1ncc(C(=O)NCCCCNC(=O)c2ccc(-c3c4nc(c(-c5ccc(S(=O)(=O)[O-])cc5)c5ccc([nH]5)c(-c5ccc(S(=O)(=O)[O-])cc5)c5nc(c(-c6ccc(S(=O)(=O)[O-])cc6)c6ccc3[nH]6)C=C5)C=C4)cc2)c1C(=O)Nc1ccccn1
REMARK SMILES IDX 11 1 10 2 9 3 8 4 6 5 7 6 5 8 1 9 2 10 3 11 76 12 4 13 77 14
REMARK SMILES IDX 78 15 79 16 80 18 81 19 85 20 82 21 84 22 83 23 12 24 13 25
REMARK SMILES IDX 14 26 15 28 16 29 17 30 75 31 18 32 74 33 19 34 20 35 21 36
REMARK SMILES IDX 68 37 22 38 73 39 67 40 69 41 23 42 72 43 66 44 65 45 24 47
REMARK SMILES IDX 54 48 35 49 53 50 36 51 39 52 52 53 70 54 37 55 38 56 51 58
REMARK SMILES IDX 71 59 40 60 25 61 26 62 34 63 27 64 33 65 28 66 29 67 30 68
REMARK SMILES IDX 31 69 32 70 55 71 56 72 64 73 57 74 63 75 58 76 59 77 60 78
REMARK SMILES IDX 61 79 62 80 41 81 42 82 50 83 43 84 49 85 44 86 45 87 46 88
REMARK SMILES IDX 47 89 48 90
REMARK H PARENT 8 7 79 17 13 27 69 46 39 57
REMARK Flexibility Score: inf
ROOT
ATOM      1  C   UNL A   1      32.164  28.337  26.273  1.00  0.00     0.023 C 
ENDROOT
BRANCH   1   2
ATOM      2  C   UNL A   1      31.698  26.908  26.540  1.00  0.00     0.023 C 
BRANCH   2   3
ATOM      3  C   UNL A   1      32.280  25.824  25.643  1.00  0.00     0.116 C 
BRANCH   3   4
ATOM      4  N   UNL A   1      33.463  25.190  26.175  1.00  0.00    -0.352 N 
ATOM      5  C   UNL A   1      34.173  24.094  25.761  1.00  0.00     0.255 C 
ATOM      6  O   UNL A   1      35.125  23.757  26.467  1.00  0.00    -0.269 OA
ATOM      7  H   UNL A   1      33.824  25.623  26.982  1.00  0.00     0.163 HD
BRANCH   5   8
ATOM      8  C   UNL A   1      33.822  23.293  24.592  1.00  0.00     0.090 A 
ATOM      9  C   UNL A   1      31.854  21.421  22.225  1.00  0.00     0.174 C 
ATOM     10  N   UNL A   1      32.860  22.089  23.021  1.00  0.00    -0.262 N 
ATOM     11  N   UNL A   1      33.785  22.801  22.354  1.00  0.00    -0.180 NA
ATOM     12  C   UNL A   1      32.931  22.232  24.391  1.00  0.00     0.139 A 
ATOM     13  C   UNL A   1      34.298  23.592  23.292  1.00  0.00     0.149 A 
BRANCH  12  14
ATOM     14  C   UNL A   1      32.065  21.618  25.362  1.00  0.00     0.275 C 
ATOM     15  O   UNL A   1      31.074  22.211  25.792  1.00  0.00    -0.267 OA
ATOM     16  N   UNL A   1      32.294  20.372  25.893  1.00  0.00    -0.305 N 
ATOM     17  H   UNL A   1      31.904  20.230  26.786  1.00  0.00     0.171 HD
BRANCH  16  18
ATOM     18  C   UNL A   1      32.983  19.280  25.387  1.00  0.00     0.132 A 
ATOM     19  C   UNL A   1      34.262  19.309  24.855  1.00  0.00     0.047 A 
ATOM     20  N   UNL A   1      32.223  18.166  25.408  1.00  0.00    -0.239 NA
ATOM     21  C   UNL A   1      34.743  18.142  24.250  1.00  0.00     0.005 A 
ATOM     22  C   UNL A   1      32.691  17.069  24.785  1.00  0.00     0.113 A 
ATOM     23  C   UNL A   1      33.933  17.011  24.186  1.00  0.00     0.020 A 
ENDBRANCH  16  18
ENDBRANCH  12  14
ENDBRANCH   5   8
ENDBRANCH   3   4
ENDBRANCH   2   3
ENDBRANCH   1   2
BRANCH   1  24
ATOM     24  C   UNL A   1      33.491  28.750  26.903  1.00  0.00     0.116 C 
BRANCH  24  25
ATOM     25  N   UNL A   1      33.496  30.106  27.435  1.00  0.00    -0.352 N 
ATOM     26  C   UNL A   1      34.486  30.784  28.107  1.00  0.00     0.251 C 
ATOM     27  H   UNL A   1      32.663  30.613  27.294  1.00  0.00     0.163 HD
ATOM     28  O   UNL A   1      34.268  31.910  28.552  1.00  0.00    -0.269 OA
BRANCH  26  29
ATOM     29  C   UNL A   1      35.799  30.142  28.332  1.00  0.00     0.039 A 
ATOM     30  C   UNL A   1      36.762  30.197  27.322  1.00  0.00     0.014 A 
ATOM     31  C   UNL A   1      36.096  29.534  29.554  1.00  0.00     0.014 A 
ATOM     32  C   UNL A   1      38.056  29.734  27.575  1.00  0.00     0.010 A 
ATOM     33  C   UNL A   1      37.405  29.154  29.833  1.00  0.00     0.010 A 
ATOM     34  C   UNL A   1      38.403  29.261  28.851  1.00  0.00    -0.014 A 
BRANCH  34  35
ATOM     35  C   UNL A   1      39.803  28.892  29.190  1.00  0.00     0.031 A 
ATOM     36  C   UNL A   1      40.716  29.897  29.838  1.00  0.00     0.074 A 
ATOM     37  C   UNL A   1      40.280  27.681  28.836  1.00  0.00     0.049 A 
ATOM     38  N   UNL A   1      41.986  29.788  30.133  1.00  0.00    -0.248 NA
ATOM     39  C   UNL A   1      40.133  31.208  30.167  1.00  0.00     0.031 C 
ATOM     40  C   UNL A   1      39.516  26.634  28.152  1.00  0.00     0.029 A 
ATOM     41  N   UNL A   1      41.527  27.128  28.993  1.00  0.00    -0.354 N 
ATOM     42  C   UNL A   1      42.357  31.019  30.661  1.00  0.00     0.074 A 
ATOM     43  C   UNL A   1      41.194  31.876  30.595  1.00  0.00     0.031 C 
ATOM     44  C   UNL A   1      40.302  25.559  27.973  1.00  0.00     0.029 A 
ATOM     45  C   UNL A   1      41.634  25.852  28.491  1.00  0.00     0.049 A 
ATOM     46  H   UNL A   1      42.275  27.601  29.424  1.00  0.00     0.167 HD
ATOM     47  C   UNL A   1      43.552  31.399  31.175  1.00  0.00     0.031 A 
ATOM     48  C   UNL A   1      42.686  25.010  28.449  1.00  0.00     0.031 A 
ATOM     49  C   UNL A   1      44.705  30.542  31.254  1.00  0.00     0.049 A 
ATOM     50  C   UNL A   1      44.000  25.447  29.034  1.00  0.00     0.074 A 
ATOM     51  C   UNL A   1      45.943  30.813  31.810  1.00  0.00     0.029 A 
ATOM     52  N   UNL A   1      44.762  29.247  30.760  1.00  0.00    -0.354 N 
ATOM     53  N   UNL A   1      44.312  26.592  29.591  1.00  0.00    -0.248 NA
ATOM     54  C   UNL A   1      45.100  24.472  28.999  1.00  0.00     0.031 C 
ATOM     55  C   UNL A   1      46.763  29.696  31.614  1.00  0.00     0.029 A 
ATOM     56  C   UNL A   1      46.019  28.711  30.984  1.00  0.00     0.049 A 
ATOM     57  H   UNL A   1      44.019  28.778  30.317  1.00  0.00     0.167 HD
ATOM     58  C   UNL A   1      45.637  26.468  29.994  1.00  0.00     0.074 A 
ATOM     59  C   UNL A   1      46.062  25.132  29.630  1.00  0.00     0.031 C 
ATOM     60  C   UNL A   1      46.429  27.380  30.613  1.00  0.00     0.031 A 
BRANCH  47  61
ATOM     61  C   UNL A   1      43.664  32.810  31.690  1.00  0.00    -0.014 A 
ATOM     62  C   UNL A   1      43.272  33.135  33.002  1.00  0.00     0.010 A 
ATOM     63  C   UNL A   1      44.176  33.822  30.859  1.00  0.00     0.010 A 
ATOM     64  C   UNL A   1      43.335  34.455  33.455  1.00  0.00     0.020 A 
ATOM     65  C   UNL A   1      44.270  35.139  31.318  1.00  0.00     0.020 A 
ATOM     66  C   UNL A   1      43.827  35.451  32.606  1.00  0.00     0.054 A 
BRANCH  66  67
ATOM     67  S   UNL A   1      43.899  37.157  33.217  1.00  0.00     0.124 S 
ATOM     68  O   UNL A   1      43.839  37.924  31.975  1.00  0.00    -0.237 OA
ATOM     69  O   UNL A   1      42.713  37.245  34.065  1.00  0.00    -0.237 OA
ATOM     70  O   UNL A   1      45.174  37.219  33.927  1.00  0.00    -0.744 OA
ENDBRANCH  66  67
ENDBRANCH  47  61
BRANCH  48  71
ATOM     71  C   UNL A   1      42.526  23.658  27.847  1.00  0.00    -0.014 A 
ATOM     72  C   UNL A   1      42.941  23.413  26.526  1.00  0.00     0.010 A 
ATOM     73  C   UNL A   1      41.986  22.599  28.600  1.00  0.00     0.010 A 
ATOM     74  C   UNL A   1      42.812  22.139  25.966  1.00  0.00     0.020 A 
ATOM     75  C   UNL A   1      41.878  21.318  28.053  1.00  0.00     0.020 A 
ATOM     76  C   UNL A   1      42.285  21.097  26.735  1.00  0.00     0.054 A 
BRANCH  76  77
ATOM     77  S   UNL A   1      42.192  19.436  26.011  1.00  0.00     0.124 S 
ATOM     78  O   UNL A   1      42.738  18.608  27.081  1.00  0.00    -0.237 OA
ATOM     79  O   UNL A   1      40.762  19.281  25.757  1.00  0.00    -0.237 OA
ATOM     80  O   UNL A   1      43.022  19.539  24.812  1.00  0.00    -0.744 OA
ENDBRANCH  76  77
ENDBRANCH  48  71
BRANCH  60  81
ATOM     81  C   UNL A   1      47.829  26.955  30.965  1.00  0.00    -0.014 A 
ATOM     82  C   UNL A   1      48.098  26.234  32.142  1.00  0.00     0.010 A 
ATOM     83  C   UNL A   1      48.881  27.231  30.073  1.00  0.00     0.010 A 
ATOM     84  C   UNL A   1      49.401  25.821  32.433  1.00  0.00     0.020 A 
ATOM     85  C   UNL A   1      50.180  26.797  30.349  1.00  0.00     0.020 A 
ATOM     86  C   UNL A   1      50.434  26.106  31.534  1.00  0.00     0.054 A 
BRANCH  86  87
ATOM     87  S   UNL A   1      52.108  25.518  31.912  1.00  0.00     0.124 S 
ATOM     88  O   UNL A   1      52.485  26.372  33.034  1.00  0.00    -0.237 OA
ATOM     89  O   UNL A   1      51.888  24.111  32.240  1.00  0.00    -0.237 OA
ATOM     90  O   UNL A   1      52.846  25.754  30.673  1.00  0.00    -0.744 OA
ENDBRANCH  86  87
ENDBRANCH  60  81
ENDBRANCH  34  35
ENDBRANCH  26  29
ENDBRANCH  24  25
ENDBRANCH   1  24
TORSDOF 16
ENDMDL
