MODEL 1
REMARK VINA RESULT:     -11.7      0.000      0.000
REMARK SMILES O=C(N/N=C/c1ccc(C(=O)NCCCCNC(=O)c2ccc(-c3c4nc(c(-c5ccc(S(=O)(=O)[O-])cc5)c5ccc([nH]5)c(-c5ccc(S(=O)(=O)[O-])cc5)c5nc(c(-c6ccc(S(=O)(=O)[O-])cc6)c6ccc3[nH]6)C=C5)C=C4)cc2)cc1)C(=O)Nc1cccc(Br)c1
REMARK SMILES IDX 14 1 13 2 12 3 10 4 11 5 9 7 6 8 7 9 81 10 8 11 80 12 5 13
REMARK SMILES IDX 4 14 3 15 1 16 2 17 82 19 83 20 84 21 85 23 86 24 91 25
REMARK SMILES IDX 87 26 89 27 88 28 90 29 15 30 16 31 17 32 18 33 19 35 20 36
REMARK SMILES IDX 21 37 79 38 22 39 78 40 23 41 24 42 25 43 72 44 26 45 77 46
REMARK SMILES IDX 71 47 73 48 27 49 76 50 70 51 69 52 28 54 58 55 39 56 57 57
REMARK SMILES IDX 40 58 43 59 56 60 74 61 41 62 42 63 55 65 75 66 44 67 29 68
REMARK SMILES IDX 30 69 38 70 31 71 37 72 32 73 33 74 34 75 35 76 36 77 59 78
REMARK SMILES IDX 60 79 68 80 61 81 67 82 62 83 63 84 64 85 65 86 66 87 45 88
REMARK SMILES IDX 46 89 54 90 47 91 53 92 48 93 49 94 50 95 51 96 52 97
REMARK H PARENT 12 6 3 18 84 22 17 34 73 53 43 64
REMARK Flexibility Score: inf
ROOT
ATOM      1  C   UNL A   1      36.809  20.812  25.207  1.00  0.00     0.023 C 
ENDROOT
BRANCH   1   2
ATOM      2  C   UNL A   1      35.543  21.411  25.816  1.00  0.00     0.116 C 
BRANCH   2   3
ATOM      3  N   UNL A   1      34.434  20.490  25.652  1.00  0.00    -0.352 N 
ATOM      4  C   UNL A   1      33.100  20.740  25.449  1.00  0.00     0.251 C 
ATOM      5  O   UNL A   1      32.314  19.799  25.377  1.00  0.00    -0.269 OA
ATOM      6  H   UNL A   1      34.676  19.537  25.692  1.00  0.00     0.163 HD
BRANCH   4   7
ATOM      7  C   UNL A   1      32.624  22.112  25.161  1.00  0.00     0.039 A 
ATOM      8  C   UNL A   1      30.837  24.550  24.616  1.00  0.00    -0.005 A 
ATOM      9  C   UNL A   1      31.300  23.978  25.938  1.00  0.00     0.010 A 
ATOM     10  C   UNL A   1      31.857  23.906  23.712  1.00  0.00     0.010 A 
ATOM     11  C   UNL A   1      32.096  22.835  26.197  1.00  0.00     0.014 A 
ATOM     12  C   UNL A   1      32.648  22.746  23.944  1.00  0.00     0.014 A 
BRANCH   8  13
ATOM     13  C   UNL A   1      29.197  25.842  24.190  1.00  0.00     0.141 C 
ATOM     14  N   UNL A   1      28.870  26.747  23.203  1.00  0.00    -0.180 NA
BRANCH  14  15
ATOM     15  N   UNL A   1      28.151  27.807  23.628  1.00  0.00    -0.239 N 
ATOM     16  O   UNL A   1      27.273  29.809  23.134  1.00  0.00    -0.262 OA
ATOM     17  C   UNL A   1      28.255  29.065  23.037  1.00  0.00     0.329 C 
ATOM     18  H   UNL A   1      27.531  27.687  24.382  1.00  0.00     0.194 HD
BRANCH  17  19
ATOM     19  C   UNL A   1      29.512  29.631  22.303  1.00  0.00     0.315 C 
ATOM     20  O   UNL A   1      29.318  30.188  21.215  1.00  0.00    -0.263 OA
ATOM     21  N   UNL A   1      30.810  29.698  22.786  1.00  0.00    -0.318 N 
ATOM     22  H   UNL A   1      31.442  30.232  22.253  1.00  0.00     0.170 HD
BRANCH  21  23
ATOM     23  C   UNL A   1      31.330  29.105  23.929  1.00  0.00     0.042 A 
ATOM     24  C   UNL A   1      32.322  27.608  23.623  1.00  0.00     0.026 A 
ATOM     25  C   UNL A   1      31.696  30.198  25.343  1.00  0.00     0.041 A 
ATOM     26  C   UNL A   1      33.670  27.165  24.793  1.00  0.00     0.003 A 
ATOM     27  C   UNL A   1      33.160  29.826  26.399  1.00  0.00     0.020 A 
ATOM     28  C   UNL A   1      34.097  28.295  26.146  1.00  0.00     0.016 A 
ATOM     29  Br  UNL A   1      33.787  31.111  27.648  1.00  0.00    -0.051 Br
ENDBRANCH  21  23
ENDBRANCH  17  19
ENDBRANCH  14  15
ENDBRANCH   8  13
ENDBRANCH   4   7
ENDBRANCH   2   3
ENDBRANCH   1   2
BRANCH   1  30
ATOM     30  C   UNL A   1      37.952  21.812  25.060  1.00  0.00     0.023 C 
BRANCH  30  31
ATOM     31  C   UNL A   1      39.020  21.703  26.135  1.00  0.00     0.116 C 
BRANCH  31  32
ATOM     32  N   UNL A   1      39.732  20.432  26.102  1.00  0.00    -0.352 N 
ATOM     33  C   UNL A   1      41.087  20.228  26.202  1.00  0.00     0.251 C 
ATOM     34  H   UNL A   1      39.178  19.625  25.995  1.00  0.00     0.163 HD
ATOM     35  O   UNL A   1      41.574  19.116  26.041  1.00  0.00    -0.269 OA
BRANCH  33  36
ATOM     36  C   UNL A   1      41.939  21.401  26.466  1.00  0.00     0.039 A 
ATOM     37  C   UNL A   1      42.305  22.225  25.401  1.00  0.00     0.014 A 
ATOM     38  C   UNL A   1      42.245  21.746  27.785  1.00  0.00     0.014 A 
ATOM     39  C   UNL A   1      42.914  23.450  25.671  1.00  0.00     0.010 A 
ATOM     40  C   UNL A   1      42.778  23.000  28.052  1.00  0.00     0.010 A 
ATOM     41  C   UNL A   1      43.109  23.867  26.998  1.00  0.00    -0.014 A 
BRANCH  41  42
ATOM     42  C   UNL A   1      43.636  25.215  27.317  1.00  0.00     0.031 A 
ATOM     43  C   UNL A   1      45.090  25.520  27.090  1.00  0.00     0.074 A 
ATOM     44  C   UNL A   1      42.827  26.130  27.888  1.00  0.00     0.049 A 
ATOM     45  N   UNL A   1      45.759  26.603  27.387  1.00  0.00    -0.248 NA
ATOM     46  C   UNL A   1      45.903  24.458  26.473  1.00  0.00     0.031 C 
ATOM     47  C   UNL A   1      41.407  25.934  28.198  1.00  0.00     0.029 A 
ATOM     48  N   UNL A   1      43.086  27.405  28.324  1.00  0.00    -0.354 N 
ATOM     49  C   UNL A   1      47.071  26.348  27.011  1.00  0.00     0.074 A 
ATOM     50  C   UNL A   1      47.116  24.991  26.512  1.00  0.00     0.031 C 
ATOM     51  C   UNL A   1      40.918  27.056  28.748  1.00  0.00     0.029 A 
ATOM     52  C   UNL A   1      41.994  28.033  28.876  1.00  0.00     0.049 A 
ATOM     53  H   UNL A   1      43.971  27.831  28.247  1.00  0.00     0.167 HD
ATOM     54  C   UNL A   1      48.141  27.176  27.057  1.00  0.00     0.031 A 
ATOM     55  C   UNL A   1      41.876  29.254  29.435  1.00  0.00     0.031 A 
ATOM     56  C   UNL A   1      48.087  28.527  27.546  1.00  0.00     0.049 A 
ATOM     57  C   UNL A   1      43.084  30.146  29.501  1.00  0.00     0.074 A 
ATOM     58  C   UNL A   1      49.100  29.469  27.578  1.00  0.00     0.029 A 
ATOM     59  N   UNL A   1      46.963  29.127  28.093  1.00  0.00    -0.354 N 
ATOM     60  N   UNL A   1      44.302  29.915  29.069  1.00  0.00    -0.248 NA
ATOM     61  C   UNL A   1      42.905  31.465  30.124  1.00  0.00     0.031 C 
ATOM     62  C   UNL A   1      48.603  30.619  28.198  1.00  0.00     0.029 A 
ATOM     63  C   UNL A   1      47.265  30.415  28.497  1.00  0.00     0.049 A 
ATOM     64  H   UNL A   1      46.081  28.699  28.181  1.00  0.00     0.167 HD
ATOM     65  C   UNL A   1      45.028  31.066  29.352  1.00  0.00     0.074 A 
ATOM     66  C   UNL A   1      44.110  31.998  29.974  1.00  0.00     0.031 C 
ATOM     67  C   UNL A   1      46.338  31.328  29.118  1.00  0.00     0.031 A 
BRANCH  54  68
ATOM     68  C   UNL A   1      49.460  26.638  26.571  1.00  0.00    -0.014 A 
ATOM     69  C   UNL A   1      50.299  25.897  27.422  1.00  0.00     0.010 A 
ATOM     70  C   UNL A   1      49.850  26.845  25.234  1.00  0.00     0.010 A 
ATOM     71  C   UNL A   1      51.523  25.409  26.958  1.00  0.00     0.020 A 
ATOM     72  C   UNL A   1      51.059  26.333  24.759  1.00  0.00     0.020 A 
ATOM     73  C   UNL A   1      51.896  25.632  25.629  1.00  0.00     0.054 A 
BRANCH  73  74
ATOM     74  S   UNL A   1      53.481  24.966  25.050  1.00  0.00     0.124 S 
ATOM     75  O   UNL A   1      54.423  25.579  25.982  1.00  0.00    -0.237 OA
ATOM     76  O   UNL A   1      53.296  23.525  25.201  1.00  0.00    -0.237 OA
ATOM     77  O   UNL A   1      53.573  25.437  23.671  1.00  0.00    -0.744 OA
ENDBRANCH  73  74
ENDBRANCH  54  68
BRANCH  55  78
ATOM     78  C   UNL A   1      40.563  29.702  29.975  1.00  0.00    -0.014 A 
ATOM     79  C   UNL A   1      40.289  29.610  31.352  1.00  0.00     0.010 A 
ATOM     80  C   UNL A   1      39.584  30.240  29.119  1.00  0.00     0.010 A 
ATOM     81  C   UNL A   1      39.056  30.031  31.859  1.00  0.00     0.020 A 
ATOM     82  C   UNL A   1      38.361  30.687  29.627  1.00  0.00     0.020 A 
ATOM     83  C   UNL A   1      38.100  30.569  30.993  1.00  0.00     0.054 A 
BRANCH  83  84
ATOM     84  S   UNL A   1      36.529  31.159  31.682  1.00  0.00     0.124 S 
ATOM     85  O   UNL A   1      36.934  31.630  33.003  1.00  0.00    -0.237 OA
ATOM     86  O   UNL A   1      36.138  32.197  30.732  1.00  0.00    -0.237 OA
ATOM     87  O   UNL A   1      35.683  29.967  31.673  1.00  0.00    -0.744 OA
ENDBRANCH  83  84
ENDBRANCH  55  78
BRANCH  67  88
ATOM     88  C   UNL A   1      46.861  32.681  29.519  1.00  0.00    -0.014 A 
ATOM     89  C   UNL A   1      47.443  32.886  30.782  1.00  0.00     0.010 A 
ATOM     90  C   UNL A   1      46.843  33.736  28.589  1.00  0.00     0.010 A 
ATOM     91  C   UNL A   1      47.987  34.130  31.112  1.00  0.00     0.020 A 
ATOM     92  C   UNL A   1      47.411  34.973  28.906  1.00  0.00     0.020 A 
ATOM     93  C   UNL A   1      47.973  35.164  30.169  1.00  0.00     0.054 A 
BRANCH  93  94
ATOM     94  S   UNL A   1      48.752  36.744  30.599  1.00  0.00     0.124 S 
ATOM     95  O   UNL A   1      47.601  37.638  30.686  1.00  0.00    -0.237 OA
ATOM     96  O   UNL A   1      49.411  36.441  31.867  1.00  0.00    -0.237 OA
ATOM     97  O   UNL A   1      49.656  37.001  29.480  1.00  0.00    -0.744 OA
ENDBRANCH  93  94
ENDBRANCH  67  88
ENDBRANCH  41  42
ENDBRANCH  33  36
ENDBRANCH  31  32
ENDBRANCH  30  31
ENDBRANCH   1  30
TORSDOF 18
ENDMDL
MODEL 2
REMARK VINA RESULT:     -11.6      0.460      7.978
REMARK SMILES O=C(N/N=C/c1ccc(C(=O)NCCCCNC(=O)c2ccc(-c3c4nc(c(-c5ccc(S(=O)(=O)[O-])cc5)c5ccc([nH]5)c(-c5ccc(S(=O)(=O)[O-])cc5)c5nc(c(-c6ccc(S(=O)(=O)[O-])cc6)c6ccc3[nH]6)C=C5)C=C4)cc2)cc1)C(=O)Nc1cccc(Br)c1
REMARK SMILES IDX 14 1 13 2 12 3 10 4 11 5 9 7 6 8 7 9 81 10 8 11 80 12 5 13
REMARK SMILES IDX 4 14 3 15 1 16 2 17 82 19 83 20 84 21 85 23 86 24 91 25
REMARK SMILES IDX 87 26 89 27 88 28 90 29 15 30 16 31 17 32 18 33 19 35 20 36
REMARK SMILES IDX 21 37 79 38 22 39 78 40 23 41 24 42 25 43 72 44 26 45 77 46
REMARK SMILES IDX 71 47 73 48 27 49 76 50 70 51 69 52 28 54 58 55 39 56 57 57
REMARK SMILES IDX 40 58 43 59 56 60 74 61 41 62 42 63 55 65 75 66 44 67 29 68
REMARK SMILES IDX 30 69 38 70 31 71 37 72 32 73 33 74 34 75 35 76 36 77 59 78
REMARK SMILES IDX 60 79 68 80 61 81 67 82 62 83 63 84 64 85 65 86 66 87 45 88
REMARK SMILES IDX 46 89 54 90 47 91 53 92 48 93 49 94 50 95 51 96 52 97
REMARK H PARENT 12 6 3 18 84 22 17 34 73 53 43 64
REMARK Flexibility Score: inf
ROOT
ATOM      1  C   UNL A   1      36.522  21.446  25.271  1.00  0.00     0.023 C 
ENDROOT
BRANCH   1   2
ATOM      2  C   UNL A   1      35.346  21.575  26.237  1.00  0.00     0.116 C 
BRANCH   2   3
ATOM      3  N   UNL A   1      34.300  20.641  25.866  1.00  0.00    -0.352 N 
ATOM      4  C   UNL A   1      32.994  20.871  25.512  1.00  0.00     0.251 C 
ATOM      5  O   UNL A   1      32.257  19.919  25.272  1.00  0.00    -0.269 OA
ATOM      6  H   UNL A   1      34.568  19.694  25.869  1.00  0.00     0.163 HD
BRANCH   4   7
ATOM      7  C   UNL A   1      32.511  22.249  25.264  1.00  0.00     0.039 A 
ATOM      8  C   UNL A   1      30.713  24.683  24.737  1.00  0.00    -0.005 A 
ATOM      9  C   UNL A   1      31.113  24.054  26.055  1.00  0.00     0.010 A 
ATOM     10  C   UNL A   1      31.792  24.099  23.862  1.00  0.00     0.010 A 
ATOM     11  C   UNL A   1      31.914  22.912  26.303  1.00  0.00     0.014 A 
ATOM     12  C   UNL A   1      32.589  22.941  24.082  1.00  0.00     0.014 A 
BRANCH   8  13
ATOM     13  C   UNL A   1      29.077  25.970  24.284  1.00  0.00     0.141 C 
ATOM     14  N   UNL A   1      28.734  26.825  23.258  1.00  0.00    -0.180 NA
BRANCH  14  15
ATOM     15  N   UNL A   1      28.036  27.914  23.644  1.00  0.00    -0.239 N 
ATOM     16  O   UNL A   1      27.169  29.898  23.066  1.00  0.00    -0.262 OA
ATOM     17  C   UNL A   1      28.140  29.138  22.986  1.00  0.00     0.329 C 
ATOM     18  H   UNL A   1      27.434  27.841  24.418  1.00  0.00     0.194 HD
BRANCH  17  19
ATOM     19  C   UNL A   1      29.385  29.649  22.193  1.00  0.00     0.315 C 
ATOM     20  O   UNL A   1      29.167  30.203  21.108  1.00  0.00    -0.263 OA
ATOM     21  N   UNL A   1      30.704  29.672  22.621  1.00  0.00    -0.318 N 
ATOM     22  H   UNL A   1      31.332  30.177  22.056  1.00  0.00     0.170 HD
BRANCH  21  23
ATOM     23  C   UNL A   1      31.249  29.071  23.748  1.00  0.00     0.042 A 
ATOM     24  C   UNL A   1      32.329  27.646  23.400  1.00  0.00     0.026 A 
ATOM     25  C   UNL A   1      31.541  30.134  25.202  1.00  0.00     0.041 A 
ATOM     26  C   UNL A   1      33.693  27.241  24.567  1.00  0.00     0.003 A 
ATOM     27  C   UNL A   1      33.016  29.812  26.258  1.00  0.00     0.020 A 
ATOM     28  C   UNL A   1      34.043  28.348  25.962  1.00  0.00     0.016 A 
ATOM     29  Br  UNL A   1      33.557  31.087  27.555  1.00  0.00    -0.051 Br
ENDBRANCH  21  23
ENDBRANCH  17  19
ENDBRANCH  14  15
ENDBRANCH   8  13
ENDBRANCH   4   7
ENDBRANCH   2   3
ENDBRANCH   1   2
BRANCH   1  30
ATOM     30  C   UNL A   1      37.464  22.647  25.286  1.00  0.00     0.023 C 
BRANCH  30  31
ATOM     31  C   UNL A   1      38.702  22.459  26.147  1.00  0.00     0.116 C 
BRANCH  31  32
ATOM     32  N   UNL A   1      39.234  21.103  26.089  1.00  0.00    -0.352 N 
ATOM     33  C   UNL A   1      40.543  20.710  26.231  1.00  0.00     0.251 C 
ATOM     34  H   UNL A   1      38.579  20.385  25.930  1.00  0.00     0.163 HD
ATOM     35  O   UNL A   1      40.878  19.547  26.044  1.00  0.00    -0.269 OA
BRANCH  33  36
ATOM     36  C   UNL A   1      41.536  21.744  26.574  1.00  0.00     0.039 A 
ATOM     37  C   UNL A   1      41.989  22.603  25.574  1.00  0.00     0.014 A 
ATOM     38  C   UNL A   1      41.895  21.936  27.910  1.00  0.00     0.014 A 
ATOM     39  C   UNL A   1      42.747  23.718  25.931  1.00  0.00     0.010 A 
ATOM     40  C   UNL A   1      42.582  23.088  28.269  1.00  0.00     0.010 A 
ATOM     41  C   UNL A   1      43.006  23.993  27.284  1.00  0.00    -0.014 A 
BRANCH  41  42
ATOM     42  C   UNL A   1      43.699  25.235  27.703  1.00  0.00     0.031 A 
ATOM     43  C   UNL A   1      42.913  26.353  28.330  1.00  0.00     0.074 A 
ATOM     44  C   UNL A   1      45.012  25.387  27.441  1.00  0.00     0.049 A 
ATOM     45  N   UNL A   1      43.316  27.546  28.679  1.00  0.00    -0.248 NA
ATOM     46  C   UNL A   1      41.480  26.105  28.568  1.00  0.00     0.031 C 
ATOM     47  C   UNL A   1      45.872  24.389  26.797  1.00  0.00     0.029 A 
ATOM     48  N   UNL A   1      45.854  26.447  27.672  1.00  0.00    -0.354 N 
ATOM     49  C   UNL A   1      42.187  28.196  29.162  1.00  0.00     0.074 A 
ATOM     50  C   UNL A   1      41.074  27.285  29.012  1.00  0.00     0.031 C 
ATOM     51  C   UNL A   1      47.120  24.875  26.709  1.00  0.00     0.029 A 
ATOM     52  C   UNL A   1      47.144  26.232  27.244  1.00  0.00     0.049 A 
ATOM     53  H   UNL A   1      45.562  27.281  28.104  1.00  0.00     0.167 HD
ATOM     54  C   UNL A   1      42.090  29.433  29.701  1.00  0.00     0.031 A 
ATOM     55  C   UNL A   1      48.219  27.043  27.266  1.00  0.00     0.031 A 
ATOM     56  C   UNL A   1      43.203  30.330  29.855  1.00  0.00     0.049 A 
ATOM     57  C   UNL A   1      48.081  28.424  27.844  1.00  0.00     0.074 A 
ATOM     58  C   UNL A   1      43.222  31.581  30.445  1.00  0.00     0.029 A 
ATOM     59  N   UNL A   1      44.492  30.075  29.412  1.00  0.00    -0.354 N 
ATOM     60  N   UNL A   1      47.020  28.994  28.366  1.00  0.00    -0.248 NA
ATOM     61  C   UNL A   1      49.282  29.271  27.840  1.00  0.00     0.031 C 
ATOM     62  C   UNL A   1      44.510  32.107  30.307  1.00  0.00     0.029 A 
ATOM     63  C   UNL A   1      45.308  31.159  29.685  1.00  0.00     0.049 A 
ATOM     64  H   UNL A   1      44.783  29.246  28.969  1.00  0.00     0.167 HD
ATOM     65  C   UNL A   1      47.432  30.259  28.770  1.00  0.00     0.074 A 
ATOM     66  C   UNL A   1      48.841  30.364  28.449  1.00  0.00     0.031 C 
ATOM     67  C   UNL A   1      46.708  31.246  29.354  1.00  0.00     0.031 A 
BRANCH  54  68
ATOM     68  C   UNL A   1      40.730  29.889  30.157  1.00  0.00    -0.014 A 
ATOM     69  C   UNL A   1      39.870  30.588  29.290  1.00  0.00     0.010 A 
ATOM     70  C   UNL A   1      40.290  29.583  31.459  1.00  0.00     0.010 A 
ATOM     71  C   UNL A   1      38.613  31.010  29.730  1.00  0.00     0.020 A 
ATOM     72  C   UNL A   1      39.021  29.978  31.891  1.00  0.00     0.020 A 
ATOM     73  C   UNL A   1      38.197  30.703  31.029  1.00  0.00     0.054 A 
BRANCH  73  74
ATOM     74  S   UNL A   1      36.550  31.244  31.563  1.00  0.00     0.124 S 
ATOM     75  O   UNL A   1      36.854  32.496  32.249  1.00  0.00    -0.237 OA
ATOM     76  O   UNL A   1      35.833  31.380  30.298  1.00  0.00    -0.237 OA
ATOM     77  O   UNL A   1      36.089  30.158  32.423  1.00  0.00    -0.744 OA
ENDBRANCH  73  74
ENDBRANCH  54  68
BRANCH  55  78
ATOM     78  C   UNL A   1      49.522  26.567  26.724  1.00  0.00    -0.014 A 
ATOM     79  C   UNL A   1      50.396  25.813  27.527  1.00  0.00     0.010 A 
ATOM     80  C   UNL A   1      49.889  26.850  25.395  1.00  0.00     0.010 A 
ATOM     81  C   UNL A   1      51.620  25.367  27.018  1.00  0.00     0.020 A 
ATOM     82  C   UNL A   1      51.099  26.381  24.874  1.00  0.00     0.020 A 
ATOM     83  C   UNL A   1      51.962  25.651  25.694  1.00  0.00     0.054 A 
BRANCH  83  84
ATOM     84  S   UNL A   1      53.530  25.015  25.039  1.00  0.00     0.124 S 
ATOM     85  O   UNL A   1      53.497  25.490  23.659  1.00  0.00    -0.237 OA
ATOM     86  O   UNL A   1      54.516  25.655  25.905  1.00  0.00    -0.237 OA
ATOM     87  O   UNL A   1      53.409  23.568  25.207  1.00  0.00    -0.744 OA
ENDBRANCH  83  84
ENDBRANCH  55  78
BRANCH  67  88
ATOM     88  C   UNL A   1      47.425  32.523  29.702  1.00  0.00    -0.014 A 
ATOM     89  C   UNL A   1      47.448  33.607  28.807  1.00  0.00     0.010 A 
ATOM     90  C   UNL A   1      48.009  32.667  30.974  1.00  0.00     0.010 A 
ATOM     91  C   UNL A   1      48.057  34.809  29.174  1.00  0.00     0.020 A 
ATOM     92  C   UNL A   1      48.594  33.877  31.354  1.00  0.00     0.020 A 
ATOM     93  C   UNL A   1      48.621  34.939  30.448  1.00  0.00     0.054 A 
BRANCH  93  94
ATOM     94  S   UNL A   1      49.338  36.536  30.923  1.00  0.00     0.124 S 
ATOM     95  O   UNL A   1      48.270  37.466  30.571  1.00  0.00    -0.237 OA
ATOM     96  O   UNL A   1      49.578  36.365  32.354  1.00  0.00    -0.237 OA
ATOM     97  O   UNL A   1      50.543  36.632  30.102  1.00  0.00    -0.744 OA
ENDBRANCH  93  94
ENDBRANCH  67  88
ENDBRANCH  41  42
ENDBRANCH  33  36
ENDBRANCH  31  32
ENDBRANCH  30  31
ENDBRANCH   1  30
TORSDOF 18
ENDMDL
MODEL 3
REMARK VINA RESULT:     -11.6      5.682     10.295
REMARK SMILES O=C(N/N=C/c1ccc(C(=O)NCCCCNC(=O)c2ccc(-c3c4nc(c(-c5ccc(S(=O)(=O)[O-])cc5)c5ccc([nH]5)c(-c5ccc(S(=O)(=O)[O-])cc5)c5nc(c(-c6ccc(S(=O)(=O)[O-])cc6)c6ccc3[nH]6)C=C5)C=C4)cc2)cc1)C(=O)Nc1cccc(Br)c1
REMARK SMILES IDX 14 1 13 2 12 3 10 4 11 5 9 7 6 8 7 9 81 10 8 11 80 12 5 13
REMARK SMILES IDX 4 14 3 15 1 16 2 17 82 19 83 20 84 21 85 23 86 24 91 25
REMARK SMILES IDX 87 26 89 27 88 28 90 29 15 30 16 31 17 32 18 33 19 35 20 36
REMARK SMILES IDX 21 37 79 38 22 39 78 40 23 41 24 42 25 43 72 44 26 45 77 46
REMARK SMILES IDX 71 47 73 48 27 49 76 50 70 51 69 52 28 54 58 55 39 56 57 57
REMARK SMILES IDX 40 58 43 59 56 60 74 61 41 62 42 63 55 65 75 66 44 67 29 68
REMARK SMILES IDX 30 69 38 70 31 71 37 72 32 73 33 74 34 75 35 76 36 77 59 78
REMARK SMILES IDX 60 79 68 80 61 81 67 82 62 83 63 84 64 85 65 86 66 87 45 88
REMARK SMILES IDX 46 89 54 90 47 91 53 92 48 93 49 94 50 95 51 96 52 97
REMARK H PARENT 12 6 3 18 84 22 17 34 73 53 43 64
REMARK Flexibility Score: inf
ROOT
ATOM      1  C   UNL A   1      38.006  24.143  26.482  1.00  0.00     0.023 C 
ENDROOT
BRANCH   1   2
ATOM      2  C   UNL A   1      36.741  23.419  26.023  1.00  0.00     0.116 C 
BRANCH   2   3
ATOM      3  N   UNL A   1      37.032  22.016  25.796  1.00  0.00    -0.352 N 
ATOM      4  C   UNL A   1      36.276  21.043  25.191  1.00  0.00     0.251 C 
ATOM      5  O   UNL A   1      36.702  19.892  25.140  1.00  0.00    -0.269 OA
ATOM      6  H   UNL A   1      37.908  21.714  26.128  1.00  0.00     0.163 HD
BRANCH   4   7
ATOM      7  C   UNL A   1      35.035  21.395  24.463  1.00  0.00     0.039 A 
ATOM      8  C   UNL A   1      32.411  22.742  23.606  1.00  0.00    -0.005 A 
ATOM      9  C   UNL A   1      33.837  23.113  23.259  1.00  0.00     0.010 A 
ATOM     10  C   UNL A   1      32.642  21.321  24.053  1.00  0.00     0.010 A 
ATOM     11  C   UNL A   1      35.052  22.516  23.678  1.00  0.00     0.014 A 
ATOM     12  C   UNL A   1      33.846  20.711  24.499  1.00  0.00     0.014 A 
BRANCH   8  13
ATOM     13  C   UNL A   1      30.638  23.921  23.521  1.00  0.00     0.141 C 
ATOM     14  N   UNL A   1      30.287  25.161  23.034  1.00  0.00    -0.180 NA
BRANCH  14  15
ATOM     15  N   UNL A   1      29.343  25.802  23.755  1.00  0.00    -0.239 N 
ATOM     16  O   UNL A   1      27.861  27.480  23.850  1.00  0.00    -0.262 OA
ATOM     17  C   UNL A   1      28.999  27.132  23.520  1.00  0.00     0.329 C 
ATOM     18  H   UNL A   1      28.881  25.312  24.472  1.00  0.00     0.194 HD
BRANCH  17  19
ATOM     19  C   UNL A   1      29.936  28.227  22.918  1.00  0.00     0.315 C 
ATOM     20  O   UNL A   1      29.640  28.658  21.797  1.00  0.00    -0.263 OA
ATOM     21  N   UNL A   1      30.992  28.871  23.546  1.00  0.00    -0.318 N 
ATOM     22  H   UNL A   1      31.367  29.647  23.073  1.00  0.00     0.170 HD
BRANCH  21  23
ATOM     23  C   UNL A   1      31.584  28.557  24.762  1.00  0.00     0.042 A 
ATOM     24  C   UNL A   1      32.573  27.026  24.750  1.00  0.00     0.026 A 
ATOM     25  C   UNL A   1      32.021  29.945  25.862  1.00  0.00     0.041 A 
ATOM     26  C   UNL A   1      33.993  26.861  25.908  1.00  0.00     0.003 A 
ATOM     27  C   UNL A   1      33.548  29.823  26.886  1.00  0.00     0.020 A 
ATOM     28  C   UNL A   1      34.486  28.273  26.936  1.00  0.00     0.016 A 
ATOM     29  Br  UNL A   1      34.232  31.359  27.765  1.00  0.00    -0.051 Br
ENDBRANCH  21  23
ENDBRANCH  17  19
ENDBRANCH  14  15
ENDBRANCH   8  13
ENDBRANCH   4   7
ENDBRANCH   2   3
ENDBRANCH   1   2
BRANCH   1  30
ATOM     30  C   UNL A   1      39.207  23.220  26.670  1.00  0.00     0.023 C 
BRANCH  30  31
ATOM     31  C   UNL A   1      40.497  23.940  27.026  1.00  0.00     0.116 C 
BRANCH  31  32
ATOM     32  N   UNL A   1      40.930  24.875  25.995  1.00  0.00    -0.352 N 
ATOM     33  C   UNL A   1      41.238  26.205  26.147  1.00  0.00     0.251 C 
ATOM     34  H   UNL A   1      41.011  24.510  25.084  1.00  0.00     0.163 HD
ATOM     35  O   UNL A   1      41.477  26.914  25.177  1.00  0.00    -0.269 OA
BRANCH  33  36
ATOM     36  C   UNL A   1      41.228  26.760  27.512  1.00  0.00     0.039 A 
ATOM     37  C   UNL A   1      42.246  27.633  27.894  1.00  0.00     0.014 A 
ATOM     38  C   UNL A   1      40.134  26.517  28.346  1.00  0.00     0.014 A 
ATOM     39  C   UNL A   1      42.123  28.334  29.093  1.00  0.00     0.010 A 
ATOM     40  C   UNL A   1      39.977  27.275  29.499  1.00  0.00     0.010 A 
ATOM     41  C   UNL A   1      40.966  28.196  29.878  1.00  0.00    -0.014 A 
BRANCH  41  42
ATOM     42  C   UNL A   1      40.749  29.021  31.090  1.00  0.00     0.031 A 
ATOM     43  C   UNL A   1      39.681  30.078  31.092  1.00  0.00     0.074 A 
ATOM     44  C   UNL A   1      41.567  28.876  32.151  1.00  0.00     0.049 A 
ATOM     45  N   UNL A   1      39.396  30.959  32.015  1.00  0.00    -0.248 NA
ATOM     46  C   UNL A   1      38.841  30.176  29.886  1.00  0.00     0.031 C 
ATOM     47  C   UNL A   1      42.669  27.913  32.250  1.00  0.00     0.029 A 
ATOM     48  N   UNL A   1      41.610  29.547  33.348  1.00  0.00    -0.354 N 
ATOM     49  C   UNL A   1      38.359  31.724  31.497  1.00  0.00     0.074 A 
ATOM     50  C   UNL A   1      38.100  31.239  30.159  1.00  0.00     0.031 C 
ATOM     51  C   UNL A   1      43.258  28.040  33.449  1.00  0.00     0.029 A 
ATOM     52  C   UNL A   1      42.613  29.121  34.186  1.00  0.00     0.049 A 
ATOM     53  H   UNL A   1      40.980  30.266  33.583  1.00  0.00     0.167 HD
ATOM     54  C   UNL A   1      37.671  32.727  32.090  1.00  0.00     0.031 A 
ATOM     55  C   UNL A   1      42.981  29.561  35.405  1.00  0.00     0.031 A 
ATOM     56  C   UNL A   1      37.929  33.197  33.423  1.00  0.00     0.049 A 
ATOM     57  C   UNL A   1      42.220  30.696  36.032  1.00  0.00     0.074 A 
ATOM     58  C   UNL A   1      37.249  34.166  34.139  1.00  0.00     0.029 A 
ATOM     59  N   UNL A   1      38.952  32.738  34.241  1.00  0.00    -0.354 N 
ATOM     60  N   UNL A   1      41.191  31.358  35.557  1.00  0.00    -0.248 NA
ATOM     61  C   UNL A   1      42.664  31.142  37.360  1.00  0.00     0.031 C 
ATOM     62  C   UNL A   1      37.895  34.334  35.367  1.00  0.00     0.029 A 
ATOM     63  C   UNL A   1      38.941  33.427  35.440  1.00  0.00     0.049 A 
ATOM     64  H   UNL A   1      39.589  32.028  34.002  1.00  0.00     0.167 HD
ATOM     65  C   UNL A   1      40.853  32.285  36.535  1.00  0.00     0.074 A 
ATOM     66  C   UNL A   1      41.774  32.088  37.636  1.00  0.00     0.031 C 
ATOM     67  C   UNL A   1      39.869  33.218  36.524  1.00  0.00     0.031 A 
BRANCH  54  68
ATOM     68  C   UNL A   1      36.577  33.386  31.293  1.00  0.00    -0.014 A 
ATOM     69  C   UNL A   1      35.259  33.445  31.782  1.00  0.00     0.010 A 
ATOM     70  C   UNL A   1      36.877  33.986  30.056  1.00  0.00     0.010 A 
ATOM     71  C   UNL A   1      34.253  34.056  31.029  1.00  0.00     0.020 A 
ATOM     72  C   UNL A   1      35.879  34.623  29.315  1.00  0.00     0.020 A 
ATOM     73  C   UNL A   1      34.569  34.640  29.799  1.00  0.00     0.054 A 
BRANCH  73  74
ATOM     74  S   UNL A   1      33.246  35.444  28.855  1.00  0.00     0.124 S 
ATOM     75  O   UNL A   1      33.999  36.362  28.005  1.00  0.00    -0.237 OA
ATOM     76  O   UNL A   1      32.619  34.321  28.163  1.00  0.00    -0.237 OA
ATOM     77  O   UNL A   1      32.423  36.079  29.880  1.00  0.00    -0.744 OA
ENDBRANCH  73  74
ENDBRANCH  54  68
BRANCH  55  78
ATOM     78  C   UNL A   1      44.127  28.925  36.112  1.00  0.00    -0.014 A 
ATOM     79  C   UNL A   1      43.923  27.801  36.933  1.00  0.00     0.010 A 
ATOM     80  C   UNL A   1      45.432  29.428  35.956  1.00  0.00     0.010 A 
ATOM     81  C   UNL A   1      44.999  27.204  37.598  1.00  0.00     0.020 A 
ATOM     82  C   UNL A   1      46.514  28.816  36.596  1.00  0.00     0.020 A 
ATOM     83  C   UNL A   1      46.288  27.714  37.423  1.00  0.00     0.054 A 
BRANCH  83  84
ATOM     84  S   UNL A   1      47.676  26.889  38.252  1.00  0.00     0.124 S 
ATOM     85  O   UNL A   1      47.989  27.828  39.325  1.00  0.00    -0.237 OA
ATOM     86  O   UNL A   1      47.083  25.622  38.672  1.00  0.00    -0.237 OA
ATOM     87  O   UNL A   1      48.685  26.778  37.200  1.00  0.00    -0.744 OA
ENDBRANCH  83  84
ENDBRANCH  55  78
BRANCH  67  88
ATOM     88  C   UNL A   1      39.721  34.090  37.742  1.00  0.00    -0.014 A 
ATOM     89  C   UNL A   1      38.970  33.662  38.851  1.00  0.00     0.010 A 
ATOM     90  C   UNL A   1      40.410  35.315  37.808  1.00  0.00     0.010 A 
ATOM     91  C   UNL A   1      38.900  34.453  40.000  1.00  0.00     0.020 A 
ATOM     92  C   UNL A   1      40.365  36.094  38.966  1.00  0.00     0.020 A 
ATOM     93  C   UNL A   1      39.603  35.661  40.053  1.00  0.00     0.054 A 
BRANCH  93  94
ATOM     94  S   UNL A   1      39.554  36.631  41.585  1.00  0.00     0.124 S 
ATOM     95  O   UNL A   1      39.197  37.958  41.094  1.00  0.00    -0.237 OA
ATOM     96  O   UNL A   1      38.522  35.948  42.362  1.00  0.00    -0.237 OA
ATOM     97  O   UNL A   1      40.910  36.508  42.117  1.00  0.00    -0.744 OA
ENDBRANCH  93  94
ENDBRANCH  67  88
ENDBRANCH  41  42
ENDBRANCH  33  36
ENDBRANCH  31  32
ENDBRANCH  30  31
ENDBRANCH   1  30
TORSDOF 18
ENDMDL
