MODEL 1
REMARK VINA RESULT:     -11.3      0.000      0.000
REMARK SMILES O=C(NCCCCNC(=O)[C@H]1CCCN(C(=O)CCOc2ccc(F)cc2)C1)c1ccc(-c2c3nc(c(-c4ccc(S(=O)(=O)[O-])cc4)c4ccc([nH]4)c(-c4ccc(S(=O)(=O)[O-])cc4)c4nc(c(-c5ccc(S(=O)(=O)[O-])cc5)c5ccc2[nH]5)C=C4)C=C3)cc1
REMARK SMILES IDX 6 1 5 2 4 3 3 4 1 5 2 6 29 8 30 9 88 10 31 11 87 12 32 13
REMARK SMILES IDX 33 14 34 15 81 16 35 17 86 18 80 19 82 20 36 21 85 22 79 23
REMARK SMILES IDX 78 24 37 26 67 27 48 28 66 29 49 30 52 31 65 32 83 33 50 34
REMARK SMILES IDX 51 35 64 37 84 38 53 39 38 40 39 41 47 42 40 43 46 44 41 45
REMARK SMILES IDX 42 46 43 47 44 48 45 49 68 50 69 51 77 52 70 53 76 54 71 55
REMARK SMILES IDX 72 56 73 57 74 58 75 59 54 60 55 61 63 62 56 63 62 64 57 65
REMARK SMILES IDX 58 66 59 67 60 68 61 69 7 70 8 71 9 72 10 74 11 75 12 76
REMARK SMILES IDX 28 77 13 78 15 79 14 80 16 81 17 82 18 83 19 84 20 85 21 86
REMARK SMILES IDX 22 87 27 88 23 89 26 90 24 91 25 92
REMARK H PARENT 3 7 82 25 52 36 8 73
REMARK Flexibility Score: inf
ROOT
ATOM      1  C   UNL A   1      31.993  30.641  26.494  1.00  0.00     0.023 C 
ENDROOT
BRANCH   1   2
ATOM      2  C   UNL A   1      31.739  32.120  26.785  1.00  0.00     0.023 C 
BRANCH   2   3
ATOM      3  C   UNL A   1      32.824  32.847  27.575  1.00  0.00     0.116 C 
BRANCH   3   4
ATOM      4  N   UNL A   1      32.517  34.244  27.845  1.00  0.00    -0.352 N 
ATOM      5  O   UNL A   1      32.713  36.223  28.933  1.00  0.00    -0.269 OA
ATOM      6  C   UNL A   1      33.135  35.087  28.744  1.00  0.00     0.251 C 
ATOM      7  H   UNL A   1      31.778  34.633  27.323  1.00  0.00     0.163 HD
BRANCH   6   8
ATOM      8  C   UNL A   1      34.299  34.583  29.507  1.00  0.00     0.039 A 
ATOM      9  C   UNL A   1      35.577  34.619  28.943  1.00  0.00     0.014 A 
ATOM     10  C   UNL A   1      34.095  34.003  30.762  1.00  0.00     0.014 A 
ATOM     11  C   UNL A   1      36.624  33.951  29.570  1.00  0.00     0.010 A 
ATOM     12  C   UNL A   1      35.166  33.392  31.422  1.00  0.00     0.010 A 
ATOM     13  C   UNL A   1      36.432  33.334  30.818  1.00  0.00    -0.014 A 
BRANCH  13  14
ATOM     14  C   UNL A   1      37.584  32.704  31.513  1.00  0.00     0.031 A 
ATOM     15  C   UNL A   1      38.275  31.492  30.950  1.00  0.00     0.074 A 
ATOM     16  C   UNL A   1      37.995  33.239  32.679  1.00  0.00     0.049 A 
ATOM     17  N   UNL A   1      39.261  30.800  31.463  1.00  0.00    -0.248 NA
ATOM     18  C   UNL A   1      37.801  30.984  29.652  1.00  0.00     0.031 C 
ATOM     19  C   UNL A   1      37.393  34.408  33.327  1.00  0.00     0.029 A 
ATOM     20  N   UNL A   1      39.007  32.874  33.528  1.00  0.00    -0.354 N 
ATOM     21  C   UNL A   1      39.507  29.761  30.572  1.00  0.00     0.074 A 
ATOM     22  C   UNL A   1      38.566  29.910  29.483  1.00  0.00     0.031 C 
ATOM     23  C   UNL A   1      38.057  34.673  34.462  1.00  0.00     0.029 A 
ATOM     24  C   UNL A   1      39.086  33.659  34.654  1.00  0.00     0.049 A 
ATOM     25  H   UNL A   1      39.618  32.123  33.350  1.00  0.00     0.167 HD
ATOM     26  C   UNL A   1      40.430  28.773  30.662  1.00  0.00     0.031 A 
ATOM     27  C   UNL A   1      39.867  33.555  35.745  1.00  0.00     0.031 A 
ATOM     28  C   UNL A   1      41.377  28.646  31.740  1.00  0.00     0.049 A 
ATOM     29  C   UNL A   1      40.858  32.433  35.830  1.00  0.00     0.074 A 
ATOM     30  C   UNL A   1      42.407  27.729  31.875  1.00  0.00     0.029 A 
ATOM     31  N   UNL A   1      41.404  29.444  32.872  1.00  0.00    -0.354 N 
ATOM     32  N   UNL A   1      41.115  31.500  34.946  1.00  0.00    -0.248 NA
ATOM     33  C   UNL A   1      41.651  32.341  37.062  1.00  0.00     0.031 C 
ATOM     34  C   UNL A   1      43.020  27.937  33.115  1.00  0.00     0.029 A 
ATOM     35  C   UNL A   1      42.400  29.012  33.732  1.00  0.00     0.049 A 
ATOM     36  H   UNL A   1      40.804  30.206  33.041  1.00  0.00     0.167 HD
ATOM     37  C   UNL A   1      42.098  30.703  35.518  1.00  0.00     0.074 A 
ATOM     38  C   UNL A   1      42.409  31.281  36.810  1.00  0.00     0.031 C 
ATOM     39  C   UNL A   1      42.684  29.588  35.020  1.00  0.00     0.031 A 
BRANCH  26  40
ATOM     40  C   UNL A   1      40.462  27.721  29.585  1.00  0.00    -0.014 A 
ATOM     41  C   UNL A   1      41.535  27.631  28.683  1.00  0.00     0.010 A 
ATOM     42  C   UNL A   1      39.454  26.738  29.552  1.00  0.00     0.010 A 
ATOM     43  C   UNL A   1      41.593  26.584  27.757  1.00  0.00     0.020 A 
ATOM     44  C   UNL A   1      39.518  25.681  28.638  1.00  0.00     0.020 A 
ATOM     45  C   UNL A   1      40.584  25.615  27.741  1.00  0.00     0.054 A 
BRANCH  45  46
ATOM     46  S   UNL A   1      40.715  24.235  26.568  1.00  0.00     0.124 S 
ATOM     47  O   UNL A   1      39.389  24.239  25.952  1.00  0.00    -0.237 OA
ATOM     48  O   UNL A   1      41.811  24.653  25.699  1.00  0.00    -0.237 OA
ATOM     49  O   UNL A   1      41.002  23.082  27.419  1.00  0.00    -0.744 OA
ENDBRANCH  45  46
ENDBRANCH  26  40
BRANCH  27  50
ATOM     50  C   UNL A   1      39.685  34.510  36.869  1.00  0.00    -0.014 A 
ATOM     51  C   UNL A   1      38.836  34.203  37.945  1.00  0.00     0.010 A 
ATOM     52  C   UNL A   1      40.395  35.725  36.877  1.00  0.00     0.010 A 
ATOM     53  C   UNL A   1      38.692  35.102  39.006  1.00  0.00     0.020 A 
ATOM     54  C   UNL A   1      40.274  36.613  37.947  1.00  0.00     0.020 A 
ATOM     55  C   UNL A   1      39.413  36.300  39.001  1.00  0.00     0.054 A 
BRANCH  55  56
ATOM     56  S   UNL A   1      39.262  37.429  40.413  1.00  0.00     0.124 S 
ATOM     57  O   UNL A   1      40.611  37.976  40.508  1.00  0.00    -0.237 OA
ATOM     58  O   UNL A   1      38.230  38.363  39.967  1.00  0.00    -0.237 OA
ATOM     59  O   UNL A   1      38.860  36.549  41.508  1.00  0.00    -0.744 OA
ENDBRANCH  55  56
ENDBRANCH  27  50
BRANCH  39  60
ATOM     60  C   UNL A   1      43.712  28.914  35.883  1.00  0.00    -0.014 A 
ATOM     61  C   UNL A   1      43.365  27.810  36.680  1.00  0.00     0.010 A 
ATOM     62  C   UNL A   1      45.047  29.359  35.862  1.00  0.00     0.010 A 
ATOM     63  C   UNL A   1      44.332  27.170  37.459  1.00  0.00     0.020 A 
ATOM     64  C   UNL A   1      46.020  28.709  36.624  1.00  0.00     0.020 A 
ATOM     65  C   UNL A   1      45.654  27.626  37.426  1.00  0.00     0.054 A 
BRANCH  65  66
ATOM     66  S   UNL A   1      46.903  26.750  38.407  1.00  0.00     0.124 S 
ATOM     67  O   UNL A   1      46.111  25.696  39.035  1.00  0.00    -0.237 OA
ATOM     68  O   UNL A   1      47.854  26.302  37.394  1.00  0.00    -0.237 OA
ATOM     69  O   UNL A   1      47.408  27.775  39.317  1.00  0.00    -0.744 OA
ENDBRANCH  65  66
ENDBRANCH  39  60
ENDBRANCH  13  14
ENDBRANCH   6   8
ENDBRANCH   3   4
ENDBRANCH   2   3
ENDBRANCH   1   2
BRANCH   1  70
ATOM     70  C   UNL A   1      32.973  29.981  27.465  1.00  0.00     0.116 C 
BRANCH  70  71
ATOM     71  N   UNL A   1      32.767  28.538  27.538  1.00  0.00    -0.356 N 
ATOM     72  C   UNL A   1      33.407  27.737  26.610  1.00  0.00     0.224 C 
ATOM     73  H   UNL A   1      32.189  28.145  28.231  1.00  0.00     0.163 HD
ATOM     74  O   UNL A   1      34.620  27.868  26.446  1.00  0.00    -0.275 OA
BRANCH  72  75
ATOM     75  C   UNL A   1      32.462  26.587  25.754  1.00  0.00     0.098 C 
ATOM     76  C   UNL A   1      30.306  26.036  25.827  1.00  0.00     0.017 C 
ATOM     77  C   UNL A   1      33.020  27.280  24.004  1.00  0.00     0.132 C 
ATOM     78  C   UNL A   1      29.345  26.455  24.158  1.00  0.00     0.022 C 
ATOM     79  N   UNL A   1      32.085  26.907  22.644  1.00  0.00    -0.342 N 
ATOM     80  C   UNL A   1      30.349  27.077  22.678  1.00  0.00     0.119 C 
BRANCH  79  81
ATOM     81  C   UNL A   1      32.747  25.875  21.911  1.00  0.00     0.226 C 
ATOM     82  O   UNL A   1      33.239  26.113  20.804  1.00  0.00    -0.275 OA
BRANCH  81  83
ATOM     83  C   UNL A   1      33.153  24.539  22.639  1.00  0.00     0.141 C 
BRANCH  83  84
ATOM     84  C   UNL A   1      31.954  23.798  23.368  1.00  0.00     0.239 C 
BRANCH  84  85
ATOM     85  O   UNL A   1      32.104  23.099  24.668  1.00  0.00    -0.493 OA
BRANCH  85  86
ATOM     86  C   UNL A   1      33.360  22.625  24.896  1.00  0.00     0.119 A 
ATOM     87  C   UNL A   1      34.348  23.692  25.699  1.00  0.00     0.049 A 
ATOM     88  C   UNL A   1      34.036  21.108  24.543  1.00  0.00     0.049 A 
ATOM     89  C   UNL A   1      36.221  23.385  26.124  1.00  0.00     0.043 A 
ATOM     90  C   UNL A   1      35.687  20.683  24.959  1.00  0.00     0.043 A 
ATOM     91  C   UNL A   1      36.824  21.787  25.723  1.00  0.00     0.123 A 
ATOM     92  F   UNL A   1      38.052  21.394  26.074  1.00  0.00    -0.207 F 
ENDBRANCH  85  86
ENDBRANCH  84  85
ENDBRANCH  83  84
ENDBRANCH  81  83
ENDBRANCH  79  81
ENDBRANCH  72  75
ENDBRANCH  70  71
ENDBRANCH   1  70
TORSDOF 19
ENDMDL
MODEL 2
REMARK VINA RESULT:     -11.0      0.994      1.763
REMARK SMILES O=C(NCCCCNC(=O)[C@H]1CCCN(C(=O)CCOc2ccc(F)cc2)C1)c1ccc(-c2c3nc(c(-c4ccc(S(=O)(=O)[O-])cc4)c4ccc([nH]4)c(-c4ccc(S(=O)(=O)[O-])cc4)c4nc(c(-c5ccc(S(=O)(=O)[O-])cc5)c5ccc2[nH]5)C=C4)C=C3)cc1
REMARK SMILES IDX 6 1 5 2 4 3 3 4 1 5 2 6 29 8 30 9 88 10 31 11 87 12 32 13
REMARK SMILES IDX 33 14 34 15 81 16 35 17 86 18 80 19 82 20 36 21 85 22 79 23
REMARK SMILES IDX 78 24 37 26 67 27 48 28 66 29 49 30 52 31 65 32 83 33 50 34
REMARK SMILES IDX 51 35 64 37 84 38 53 39 38 40 39 41 47 42 40 43 46 44 41 45
REMARK SMILES IDX 42 46 43 47 44 48 45 49 68 50 69 51 77 52 70 53 76 54 71 55
REMARK SMILES IDX 72 56 73 57 74 58 75 59 54 60 55 61 63 62 56 63 62 64 57 65
REMARK SMILES IDX 58 66 59 67 60 68 61 69 7 70 8 71 9 72 10 74 11 75 12 76
REMARK SMILES IDX 28 77 13 78 15 79 14 80 16 81 17 82 18 83 19 84 20 85 21 86
REMARK SMILES IDX 22 87 27 88 23 89 26 90 24 91 25 92
REMARK H PARENT 3 7 82 25 52 36 8 73
REMARK Flexibility Score: inf
ROOT
ATOM      1  C   UNL A   1      31.723  31.213  26.701  1.00  0.00     0.023 C 
ENDROOT
BRANCH   1   2
ATOM      2  C   UNL A   1      31.670  32.731  26.869  1.00  0.00     0.023 C 
BRANCH   2   3
ATOM      3  C   UNL A   1      32.915  33.386  27.462  1.00  0.00     0.116 C 
BRANCH   3   4
ATOM      4  N   UNL A   1      32.655  34.670  28.099  1.00  0.00    -0.352 N 
ATOM      5  O   UNL A   1      32.911  36.273  29.681  1.00  0.00    -0.269 OA
ATOM      6  C   UNL A   1      33.295  35.216  29.191  1.00  0.00     0.251 C 
ATOM      7  H   UNL A   1      31.935  35.212  27.702  1.00  0.00     0.163 HD
BRANCH   6   8
ATOM      8  C   UNL A   1      34.433  34.482  29.790  1.00  0.00     0.039 A 
ATOM      9  C   UNL A   1      34.250  33.739  30.960  1.00  0.00     0.014 A 
ATOM     10  C   UNL A   1      35.702  34.600  29.216  1.00  0.00     0.014 A 
ATOM     11  C   UNL A   1      35.359  33.235  31.633  1.00  0.00     0.010 A 
ATOM     12  C   UNL A   1      36.805  34.031  29.861  1.00  0.00     0.010 A 
ATOM     13  C   UNL A   1      36.647  33.371  31.089  1.00  0.00    -0.014 A 
BRANCH  13  14
ATOM     14  C   UNL A   1      37.806  32.746  31.777  1.00  0.00     0.031 A 
ATOM     15  C   UNL A   1      38.514  31.552  31.197  1.00  0.00     0.074 A 
ATOM     16  C   UNL A   1      38.208  33.268  32.953  1.00  0.00     0.049 A 
ATOM     17  N   UNL A   1      39.509  30.865  31.701  1.00  0.00    -0.248 NA
ATOM     18  C   UNL A   1      38.051  31.058  29.890  1.00  0.00     0.031 C 
ATOM     19  C   UNL A   1      37.589  34.418  33.618  1.00  0.00     0.029 A 
ATOM     20  N   UNL A   1      39.223  32.902  33.798  1.00  0.00    -0.354 N 
ATOM     21  C   UNL A   1      39.770  29.843  30.794  1.00  0.00     0.074 A 
ATOM     22  C   UNL A   1      38.830  29.998  29.705  1.00  0.00     0.031 C 
ATOM     23  C   UNL A   1      38.247  34.674  34.758  1.00  0.00     0.029 A 
ATOM     24  C   UNL A   1      39.289  33.670  34.937  1.00  0.00     0.049 A 
ATOM     25  H   UNL A   1      39.845  32.163  33.609  1.00  0.00     0.167 HD
ATOM     26  C   UNL A   1      40.707  28.867  30.870  1.00  0.00     0.031 A 
ATOM     27  C   UNL A   1      40.069  33.560  36.028  1.00  0.00     0.031 A 
ATOM     28  C   UNL A   1      41.653  28.735  31.949  1.00  0.00     0.049 A 
ATOM     29  C   UNL A   1      41.075  32.450  36.097  1.00  0.00     0.074 A 
ATOM     30  C   UNL A   1      42.694  27.831  32.071  1.00  0.00     0.029 A 
ATOM     31  N   UNL A   1      41.667  29.516  33.093  1.00  0.00    -0.354 N 
ATOM     32  N   UNL A   1      41.346  31.534  35.198  1.00  0.00    -0.248 NA
ATOM     33  C   UNL A   1      41.866  32.349  37.329  1.00  0.00     0.031 C 
ATOM     34  C   UNL A   1      43.302  28.027  33.316  1.00  0.00     0.029 A 
ATOM     35  C   UNL A   1      42.667  29.084  33.948  1.00  0.00     0.049 A 
ATOM     36  H   UNL A   1      41.056  30.267  33.273  1.00  0.00     0.167 HD
ATOM     37  C   UNL A   1      42.338  30.742  35.761  1.00  0.00     0.074 A 
ATOM     38  C   UNL A   1      42.639  31.304  37.062  1.00  0.00     0.031 C 
ATOM     39  C   UNL A   1      42.940  29.643  35.246  1.00  0.00     0.031 A 
BRANCH  26  40
ATOM     40  C   UNL A   1      40.754  27.833  29.778  1.00  0.00    -0.014 A 
ATOM     41  C   UNL A   1      39.700  26.924  29.585  1.00  0.00     0.010 A 
ATOM     42  C   UNL A   1      41.821  27.849  28.859  1.00  0.00     0.010 A 
ATOM     43  C   UNL A   1      39.719  26.040  28.501  1.00  0.00     0.020 A 
ATOM     44  C   UNL A   1      41.835  26.978  27.765  1.00  0.00     0.020 A 
ATOM     45  C   UNL A   1      40.787  26.073  27.597  1.00  0.00     0.054 A 
BRANCH  45  46
ATOM     46  S   UNL A   1      40.757  24.955  26.167  1.00  0.00     0.124 S 
ATOM     47  O   UNL A   1      41.708  23.923  26.573  1.00  0.00    -0.237 OA
ATOM     48  O   UNL A   1      39.359  24.534  26.115  1.00  0.00    -0.237 OA
ATOM     49  O   UNL A   1      41.191  25.800  25.056  1.00  0.00    -0.744 OA
ENDBRANCH  45  46
ENDBRANCH  26  40
BRANCH  27  50
ATOM     50  C   UNL A   1      39.872  34.494  37.166  1.00  0.00    -0.014 A 
ATOM     51  C   UNL A   1      39.049  34.146  38.250  1.00  0.00     0.010 A 
ATOM     52  C   UNL A   1      40.542  35.733  37.180  1.00  0.00     0.010 A 
ATOM     53  C   UNL A   1      38.891  35.027  39.324  1.00  0.00     0.020 A 
ATOM     54  C   UNL A   1      40.407  36.602  38.263  1.00  0.00     0.020 A 
ATOM     55  C   UNL A   1      39.572  36.248  39.324  1.00  0.00     0.054 A 
BRANCH  55  56
ATOM     56  S   UNL A   1      39.404  37.354  40.752  1.00  0.00     0.124 S 
ATOM     57  O   UNL A   1      40.782  37.786  40.963  1.00  0.00    -0.237 OA
ATOM     58  O   UNL A   1      38.488  38.379  40.258  1.00  0.00    -0.237 OA
ATOM     59  O   UNL A   1      38.850  36.486  41.789  1.00  0.00    -0.744 OA
ENDBRANCH  55  56
ENDBRANCH  27  50
BRANCH  39  60
ATOM     60  C   UNL A   1      43.976  28.969  36.100  1.00  0.00    -0.014 A 
ATOM     61  C   UNL A   1      45.307  29.422  36.101  1.00  0.00     0.010 A 
ATOM     62  C   UNL A   1      43.609  27.904  36.942  1.00  0.00     0.010 A 
ATOM     63  C   UNL A   1      46.260  28.809  36.917  1.00  0.00     0.020 A 
ATOM     64  C   UNL A   1      44.554  27.302  37.775  1.00  0.00     0.020 A 
ATOM     65  C   UNL A   1      45.876  27.752  37.749  1.00  0.00     0.054 A 
BRANCH  65  66
ATOM     66  S   UNL A   1      47.119  27.003  38.837  1.00  0.00     0.124 S 
ATOM     67  O   UNL A   1      46.436  25.794  39.290  1.00  0.00    -0.237 OA
ATOM     68  O   UNL A   1      48.249  26.785  37.937  1.00  0.00    -0.237 OA
ATOM     69  O   UNL A   1      47.336  28.018  39.864  1.00  0.00    -0.744 OA
ENDBRANCH  65  66
ENDBRANCH  39  60
ENDBRANCH  13  14
ENDBRANCH   6   8
ENDBRANCH   3   4
ENDBRANCH   2   3
ENDBRANCH   1   2
BRANCH   1  70
ATOM     70  C   UNL A   1      33.042  30.587  27.157  1.00  0.00     0.116 C 
BRANCH  70  71
ATOM     71  N   UNL A   1      32.930  29.139  27.298  1.00  0.00    -0.356 N 
ATOM     72  C   UNL A   1      33.876  28.345  26.676  1.00  0.00     0.224 C 
ATOM     73  H   UNL A   1      32.200  28.738  27.822  1.00  0.00     0.163 HD
ATOM     74  O   UNL A   1      35.069  28.582  26.865  1.00  0.00    -0.275 OA
BRANCH  72  75
ATOM     75  C   UNL A   1      33.319  27.056  25.688  1.00  0.00     0.098 C 
ATOM     76  C   UNL A   1      32.696  24.964  26.128  1.00  0.00     0.017 C 
ATOM     77  C   UNL A   1      31.879  28.139  24.908  1.00  0.00     0.132 C 
ATOM     78  C   UNL A   1      30.789  24.632  25.758  1.00  0.00     0.022 C 
ATOM     79  N   UNL A   1      30.582  27.352  24.159  1.00  0.00    -0.342 N 
ATOM     80  C   UNL A   1      29.785  26.007  24.931  1.00  0.00     0.119 C 
BRANCH  79  81
ATOM     81  C   UNL A   1      30.761  27.437  22.744  1.00  0.00     0.226 C 
ATOM     82  O   UNL A   1      30.623  28.517  22.161  1.00  0.00    -0.275 OA
BRANCH  81  83
ATOM     83  C   UNL A   1      31.460  26.255  21.974  1.00  0.00     0.141 C 
BRANCH  83  84
ATOM     84  C   UNL A   1      32.999  26.068  22.316  1.00  0.00     0.239 C 
BRANCH  84  85
ATOM     85  O   UNL A   1      33.803  24.920  21.833  1.00  0.00    -0.493 OA
BRANCH  85  86
ATOM     86  C   UNL A   1      33.895  23.897  22.728  1.00  0.00     0.119 A 
ATOM     87  C   UNL A   1      32.563  22.906  22.758  1.00  0.00     0.049 A 
ATOM     88  C   UNL A   1      35.172  23.457  23.757  1.00  0.00     0.049 A 
ATOM     89  C   UNL A   1      32.313  21.397  23.961  1.00  0.00     0.043 A 
ATOM     90  C   UNL A   1      35.098  22.064  24.822  1.00  0.00     0.043 A 
ATOM     91  C   UNL A   1      33.690  21.020  24.980  1.00  0.00     0.123 A 
ATOM     92  F   UNL A   1      33.707  19.937  25.761  1.00  0.00    -0.207 F 
ENDBRANCH  85  86
ENDBRANCH  84  85
ENDBRANCH  83  84
ENDBRANCH  81  83
ENDBRANCH  79  81
ENDBRANCH  72  75
ENDBRANCH  70  71
ENDBRANCH   1  70
TORSDOF 19
ENDMDL
MODEL 3
REMARK VINA RESULT:     -11.0      0.988      8.187
REMARK SMILES O=C(NCCCCNC(=O)[C@H]1CCCN(C(=O)CCOc2ccc(F)cc2)C1)c1ccc(-c2c3nc(c(-c4ccc(S(=O)(=O)[O-])cc4)c4ccc([nH]4)c(-c4ccc(S(=O)(=O)[O-])cc4)c4nc(c(-c5ccc(S(=O)(=O)[O-])cc5)c5ccc2[nH]5)C=C4)C=C3)cc1
REMARK SMILES IDX 6 1 5 2 4 3 3 4 1 5 2 6 29 8 30 9 88 10 31 11 87 12 32 13
REMARK SMILES IDX 33 14 34 15 81 16 35 17 86 18 80 19 82 20 36 21 85 22 79 23
REMARK SMILES IDX 78 24 37 26 67 27 48 28 66 29 49 30 52 31 65 32 83 33 50 34
REMARK SMILES IDX 51 35 64 37 84 38 53 39 38 40 39 41 47 42 40 43 46 44 41 45
REMARK SMILES IDX 42 46 43 47 44 48 45 49 68 50 69 51 77 52 70 53 76 54 71 55
REMARK SMILES IDX 72 56 73 57 74 58 75 59 54 60 55 61 63 62 56 63 62 64 57 65
REMARK SMILES IDX 58 66 59 67 60 68 61 69 7 70 8 71 9 72 10 74 11 75 12 76
REMARK SMILES IDX 28 77 13 78 15 79 14 80 16 81 17 82 18 83 19 84 20 85 21 86
REMARK SMILES IDX 22 87 27 88 23 89 26 90 24 91 25 92
REMARK H PARENT 3 7 82 25 52 36 8 73
REMARK Flexibility Score: inf
ROOT
ATOM      1  C   UNL A   1      31.556  31.204  26.545  1.00  0.00     0.023 C 
ENDROOT
BRANCH   1   2
ATOM      2  C   UNL A   1      31.600  32.721  26.729  1.00  0.00     0.023 C 
BRANCH   2   3
ATOM      3  C   UNL A   1      32.834  33.278  27.434  1.00  0.00     0.116 C 
BRANCH   3   4
ATOM      4  N   UNL A   1      32.641  34.609  27.990  1.00  0.00    -0.352 N 
ATOM      5  O   UNL A   1      32.961  36.282  29.486  1.00  0.00    -0.269 OA
ATOM      6  C   UNL A   1      33.288  35.177  29.068  1.00  0.00     0.251 C 
ATOM      7  H   UNL A   1      31.968  35.172  27.543  1.00  0.00     0.163 HD
BRANCH   6   8
ATOM      8  C   UNL A   1      34.361  34.408  29.739  1.00  0.00     0.039 A 
ATOM      9  C   UNL A   1      34.092  33.714  30.921  1.00  0.00     0.014 A 
ATOM     10  C   UNL A   1      35.658  34.448  29.220  1.00  0.00     0.014 A 
ATOM     11  C   UNL A   1      35.143  33.178  31.658  1.00  0.00     0.010 A 
ATOM     12  C   UNL A   1      36.703  33.848  29.930  1.00  0.00     0.010 A 
ATOM     13  C   UNL A   1      36.460  33.235  31.170  1.00  0.00    -0.014 A 
BRANCH  13  14
ATOM     14  C   UNL A   1      37.555  32.579  31.927  1.00  0.00     0.031 A 
ATOM     15  C   UNL A   1      37.982  33.074  33.282  1.00  0.00     0.074 A 
ATOM     16  C   UNL A   1      38.178  31.525  31.364  1.00  0.00     0.049 A 
ATOM     17  N   UNL A   1      38.952  32.638  34.046  1.00  0.00    -0.248 NA
ATOM     18  C   UNL A   1      37.232  34.203  33.857  1.00  0.00     0.031 C 
ATOM     19  C   UNL A   1      37.858  30.963  30.048  1.00  0.00     0.029 A 
ATOM     20  N   UNL A   1      39.207  30.740  31.817  1.00  0.00    -0.354 N 
ATOM     21  C   UNL A   1      38.953  33.453  35.172  1.00  0.00     0.074 A 
ATOM     22  C   UNL A   1      37.884  34.414  34.995  1.00  0.00     0.031 C 
ATOM     23  C   UNL A   1      38.662  29.917  29.808  1.00  0.00     0.029 A 
ATOM     24  C   UNL A   1      39.594  29.773  30.920  1.00  0.00     0.049 A 
ATOM     25  H   UNL A   1      39.628  30.858  32.699  1.00  0.00     0.167 HD
ATOM     26  C   UNL A   1      39.773  33.404  36.249  1.00  0.00     0.031 A 
ATOM     27  C   UNL A   1      40.610  28.892  30.960  1.00  0.00     0.031 A 
ATOM     28  C   UNL A   1      40.820  32.430  36.425  1.00  0.00     0.049 A 
ATOM     29  C   UNL A   1      41.522  28.884  32.151  1.00  0.00     0.074 A 
ATOM     30  C   UNL A   1      41.647  32.247  37.521  1.00  0.00     0.029 A 
ATOM     31  N   UNL A   1      41.195  31.487  35.482  1.00  0.00    -0.354 N 
ATOM     32  N   UNL A   1      41.462  29.623  33.232  1.00  0.00    -0.248 NA
ATOM     33  C   UNL A   1      42.642  27.935  32.121  1.00  0.00     0.031 C 
ATOM     34  C   UNL A   1      42.559  31.231  37.218  1.00  0.00     0.029 A 
ATOM     35  C   UNL A   1      42.271  30.752  35.950  1.00  0.00     0.049 A 
ATOM     36  H   UNL A   1      40.761  31.359  34.607  1.00  0.00     0.167 HD
ATOM     37  C   UNL A   1      42.543  29.232  34.011  1.00  0.00     0.074 A 
ATOM     38  C   UNL A   1      43.221  28.172  33.291  1.00  0.00     0.031 C 
ATOM     39  C   UNL A   1      42.943  29.714  35.213  1.00  0.00     0.031 A 
BRANCH  26  40
ATOM     40  C   UNL A   1      39.608  34.444  37.325  1.00  0.00    -0.014 A 
ATOM     41  C   UNL A   1      38.906  34.164  38.510  1.00  0.00     0.010 A 
ATOM     42  C   UNL A   1      40.263  35.683  37.193  1.00  0.00     0.010 A 
ATOM     43  C   UNL A   1      38.852  35.111  39.539  1.00  0.00     0.020 A 
ATOM     44  C   UNL A   1      40.224  36.625  38.226  1.00  0.00     0.020 A 
ATOM     45  C   UNL A   1      39.512  36.335  39.390  1.00  0.00     0.054 A 
BRANCH  45  46
ATOM     46  S   UNL A   1      39.474  37.521  40.765  1.00  0.00     0.124 S 
ATOM     47  O   UNL A   1      38.884  36.720  41.836  1.00  0.00    -0.237 OA
ATOM     48  O   UNL A   1      40.884  37.860  40.939  1.00  0.00    -0.237 OA
ATOM     49  O   UNL A   1      38.633  38.607  40.264  1.00  0.00    -0.744 OA
ENDBRANCH  45  46
ENDBRANCH  26  40
BRANCH  27  50
ATOM     50  C   UNL A   1      40.851  27.999  29.798  1.00  0.00    -0.014 A 
ATOM     51  C   UNL A   1      40.038  26.877  29.570  1.00  0.00     0.010 A 
ATOM     52  C   UNL A   1      41.887  28.294  28.891  1.00  0.00     0.010 A 
ATOM     53  C   UNL A   1      40.264  26.059  28.459  1.00  0.00     0.020 A 
ATOM     54  C   UNL A   1      42.099  27.495  27.767  1.00  0.00     0.020 A 
ATOM     55  C   UNL A   1      41.292  26.373  27.565  1.00  0.00     0.054 A 
BRANCH  55  56
ATOM     56  S   UNL A   1      41.535  25.336  26.096  1.00  0.00     0.124 S 
ATOM     57  O   UNL A   1      40.343  24.494  26.121  1.00  0.00    -0.237 OA
ATOM     58  O   UNL A   1      41.594  26.320  25.017  1.00  0.00    -0.237 OA
ATOM     59  O   UNL A   1      42.796  24.651  26.370  1.00  0.00    -0.744 OA
ENDBRANCH  55  56
ENDBRANCH  27  50
BRANCH  39  60
ATOM     60  C   UNL A   1      44.177  29.106  35.816  1.00  0.00    -0.014 A 
ATOM     61  C   UNL A   1      44.115  27.865  36.472  1.00  0.00     0.010 A 
ATOM     62  C   UNL A   1      45.416  29.758  35.688  1.00  0.00     0.010 A 
ATOM     63  C   UNL A   1      45.270  27.292  37.008  1.00  0.00     0.020 A 
ATOM     64  C   UNL A   1      46.577  29.179  36.205  1.00  0.00     0.020 A 
ATOM     65  C   UNL A   1      46.494  27.954  36.871  1.00  0.00     0.054 A 
BRANCH  65  66
ATOM     66  S   UNL A   1      47.990  27.169  37.531  1.00  0.00     0.124 S 
ATOM     67  O   UNL A   1      49.034  28.093  37.096  1.00  0.00    -0.237 OA
ATOM     68  O   UNL A   1      47.734  27.142  38.969  1.00  0.00    -0.237 OA
ATOM     69  O   UNL A   1      48.007  25.859  36.884  1.00  0.00    -0.744 OA
ENDBRANCH  65  66
ENDBRANCH  39  60
ENDBRANCH  13  14
ENDBRANCH   6   8
ENDBRANCH   3   4
ENDBRANCH   2   3
ENDBRANCH   1   2
BRANCH   1  70
ATOM     70  C   UNL A   1      32.730  30.470  27.192  1.00  0.00     0.116 C 
BRANCH  70  71
ATOM     71  N   UNL A   1      32.430  29.057  27.403  1.00  0.00    -0.356 N 
ATOM     72  C   UNL A   1      33.230  28.118  26.779  1.00  0.00     0.224 C 
ATOM     73  H   UNL A   1      31.678  28.781  27.974  1.00  0.00     0.163 HD
ATOM     74  O   UNL A   1      34.452  28.196  26.908  1.00  0.00    -0.275 OA
BRANCH  72  75
ATOM     75  C   UNL A   1      32.459  26.879  25.874  1.00  0.00     0.098 C 
ATOM     76  C   UNL A   1      30.403  26.025  25.912  1.00  0.00     0.017 C 
ATOM     77  C   UNL A   1      32.916  27.709  24.155  1.00  0.00     0.132 C 
ATOM     78  C   UNL A   1      29.394  26.367  24.254  1.00  0.00     0.022 C 
ATOM     79  N   UNL A   1      32.045  27.259  22.776  1.00  0.00    -0.342 N 
ATOM     80  C   UNL A   1      30.302  27.180  22.805  1.00  0.00     0.119 C 
BRANCH  79  81
ATOM     81  C   UNL A   1      32.847  26.359  22.010  1.00  0.00     0.226 C 
ATOM     82  O   UNL A   1      33.958  26.709  21.599  1.00  0.00    -0.275 OA
BRANCH  81  83
ATOM     83  C   UNL A   1      32.484  24.828  21.974  1.00  0.00     0.141 C 
BRANCH  83  84
ATOM     84  C   UNL A   1      32.337  24.155  23.403  1.00  0.00     0.239 C 
BRANCH  84  85
ATOM     85  O   UNL A   1      33.492  23.868  24.288  1.00  0.00    -0.493 OA
BRANCH  85  86
ATOM     86  C   UNL A   1      33.786  22.542  24.395  1.00  0.00     0.119 A 
ATOM     87  C   UNL A   1      32.566  21.538  23.884  1.00  0.00     0.049 A 
ATOM     88  C   UNL A   1      35.213  21.777  24.907  1.00  0.00     0.049 A 
ATOM     89  C   UNL A   1      32.603  19.594  23.964  1.00  0.00     0.043 A 
ATOM     90  C   UNL A   1      35.397  20.031  24.937  1.00  0.00     0.043 A 
ATOM     91  C   UNL A   1      34.121  18.900  24.502  1.00  0.00     0.123 A 
ATOM     92  F   UNL A   1      34.333  17.581  24.484  1.00  0.00    -0.207 F 
ENDBRANCH  85  86
ENDBRANCH  84  85
ENDBRANCH  83  84
ENDBRANCH  81  83
ENDBRANCH  79  81
ENDBRANCH  72  75
ENDBRANCH  70  71
ENDBRANCH   1  70
TORSDOF 19
ENDMDL
