MODEL 1
REMARK VINA RESULT:     -12.0      0.000      0.000
REMARK SMILES CC(=O)Nc1ccc(/C(=C\c2ccc(S(C)(=O)=O)cc2)C(=O)NCCCCNC(=O)c2ccc(-c3c4nc(c(-c5ccc(S(=O)(=O)[O-])cc5)c5ccc([nH]5)c(-c5ccc(S(=O)(=O)[O-])cc5)c5nc(c(-c6ccc(S(=O)(=O)[O-])cc6)c6ccc3[nH]6)C=C5)C=C4)cc2)cc1
REMARK SMILES IDX 26 1 25 2 24 3 23 4 21 5 22 6 9 8 10 9 8 10 5 11 6 12 92 13
REMARK SMILES IDX 7 14 91 15 4 16 1 17 2 18 3 19 11 21 12 22 20 23 13 24 19 25
REMARK SMILES IDX 14 26 15 27 16 28 17 29 18 30 27 31 28 32 29 33 30 35 31 36
REMARK SMILES IDX 32 37 90 38 33 39 89 40 34 41 35 42 36 43 83 44 37 45 88 46
REMARK SMILES IDX 82 47 84 48 38 49 87 50 81 51 80 52 39 54 69 55 50 56 68 57
REMARK SMILES IDX 51 58 54 59 67 60 85 61 52 62 53 63 66 65 86 66 55 67 40 68
REMARK SMILES IDX 41 69 49 70 42 71 48 72 43 73 44 74 45 75 46 76 47 77 70 78
REMARK SMILES IDX 71 79 79 80 72 81 78 82 73 83 74 84 75 85 76 86 77 87 56 88
REMARK SMILES IDX 57 89 65 90 58 91 64 92 59 93 60 94 61 95 62 96 63 97
REMARK H PARENT 23 7 4 20 28 34 84 53 54 64
REMARK Flexibility Score: inf
ROOT
ATOM      1  C   UNL A   1      33.116  27.709  26.824  1.00  0.00     0.023 C 
ENDROOT
BRANCH   1   2
ATOM      2  C   UNL A   1      31.735  27.407  26.229  1.00  0.00     0.023 C 
BRANCH   2   3
ATOM      3  C   UNL A   1      31.539  25.949  25.804  1.00  0.00     0.116 C 
BRANCH   3   4
ATOM      4  N   UNL A   1      31.516  25.838  24.359  1.00  0.00    -0.352 N 
ATOM      5  C   UNL A   1      31.952  24.932  23.445  1.00  0.00     0.251 C 
ATOM      6  O   UNL A   1      31.670  25.240  22.284  1.00  0.00    -0.269 OA
ATOM      7  H   UNL A   1      31.076  26.610  23.935  1.00  0.00     0.163 HD
BRANCH   5   8
ATOM      8  C   UNL A   1      32.669  23.616  23.770  1.00  0.00     0.047 C 
ATOM      9  C   UNL A   1      31.926  22.492  23.905  1.00  0.00     0.022 C 
BRANCH   8  10
ATOM     10  C   UNL A   1      34.143  23.635  24.114  1.00  0.00    -0.013 A 
ATOM     11  C   UNL A   1      36.838  23.238  25.001  1.00  0.00     0.041 A 
ATOM     12  C   UNL A   1      36.481  23.034  23.667  1.00  0.00     0.027 A 
ATOM     13  C   UNL A   1      35.885  23.783  25.845  1.00  0.00     0.027 A 
ATOM     14  C   UNL A   1      35.163  23.264  23.226  1.00  0.00     0.011 A 
ATOM     15  C   UNL A   1      34.561  23.941  25.418  1.00  0.00     0.011 A 
BRANCH  11  16
ATOM     16  N   UNL A   1      38.140  22.886  25.396  1.00  0.00    -0.326 N 
ATOM     17  C   UNL A   1      38.058  20.383  25.259  1.00  0.00     0.114 C 
ATOM     18  C   UNL A   1      38.746  21.677  25.598  1.00  0.00     0.221 C 
ATOM     19  O   UNL A   1      39.902  21.667  26.031  1.00  0.00    -0.275 OA
ATOM     20  H   UNL A   1      38.729  23.658  25.556  1.00  0.00     0.169 HD
ENDBRANCH  11  16
ENDBRANCH   8  10
BRANCH   9  21
ATOM     21  C   UNL A   1      32.336  21.089  24.059  1.00  0.00    -0.025 A 
ATOM     22  C   UNL A   1      32.218  20.247  22.939  1.00  0.00     0.009 A 
ATOM     23  C   UNL A   1      32.858  20.585  25.253  1.00  0.00     0.009 A 
ATOM     24  C   UNL A   1      32.663  18.927  22.995  1.00  0.00     0.021 A 
ATOM     25  C   UNL A   1      33.310  19.263  25.314  1.00  0.00     0.021 A 
ATOM     26  C   UNL A   1      33.211  18.443  24.184  1.00  0.00     0.067 A 
BRANCH  26  27
ATOM     27  S   UNL A   1      33.866  16.792  24.220  1.00  0.00     0.175 S 
ATOM     28  C   UNL A   1      32.718  15.904  25.237  1.00  0.00     0.163 C 
ATOM     29  O   UNL A   1      33.780  16.266  22.872  1.00  0.00    -0.224 OA
ATOM     30  O   UNL A   1      35.138  16.836  24.918  1.00  0.00    -0.224 OA
ENDBRANCH  26  27
ENDBRANCH   9  21
ENDBRANCH   5   8
ENDBRANCH   3   4
ENDBRANCH   2   3
ENDBRANCH   1   2
BRANCH   1  31
ATOM     31  C   UNL A   1      33.958  28.702  26.029  1.00  0.00     0.116 C 
BRANCH  31  32
ATOM     32  N   UNL A   1      33.746  30.084  26.434  1.00  0.00    -0.352 N 
ATOM     33  C   UNL A   1      34.459  30.828  27.343  1.00  0.00     0.251 C 
ATOM     34  H   UNL A   1      32.992  30.546  26.000  1.00  0.00     0.163 HD
ATOM     35  O   UNL A   1      34.075  31.947  27.663  1.00  0.00    -0.269 OA
BRANCH  33  36
ATOM     36  C   UNL A   1      35.668  30.242  27.953  1.00  0.00     0.039 A 
ATOM     37  C   UNL A   1      36.875  30.309  27.257  1.00  0.00     0.014 A 
ATOM     38  C   UNL A   1      35.614  29.683  29.233  1.00  0.00     0.014 A 
ATOM     39  C   UNL A   1      38.048  29.880  27.877  1.00  0.00     0.010 A 
ATOM     40  C   UNL A   1      36.794  29.328  29.877  1.00  0.00     0.010 A 
ATOM     41  C   UNL A   1      38.024  29.427  29.208  1.00  0.00    -0.014 A 
BRANCH  41  42
ATOM     42  C   UNL A   1      39.277  29.081  29.924  1.00  0.00     0.031 A 
ATOM     43  C   UNL A   1      39.707  29.873  31.127  1.00  0.00     0.074 A 
ATOM     44  C   UNL A   1      40.063  28.097  29.443  1.00  0.00     0.049 A 
ATOM     45  N   UNL A   1      40.788  29.746  31.852  1.00  0.00    -0.248 NA
ATOM     46  C   UNL A   1      38.820  30.966  31.559  1.00  0.00     0.031 C 
ATOM     47  C   UNL A   1      39.781  27.292  28.251  1.00  0.00     0.029 A 
ATOM     48  N   UNL A   1      41.265  27.610  29.892  1.00  0.00    -0.354 N 
ATOM     49  C   UNL A   1      40.721  30.750  32.811  1.00  0.00     0.074 A 
ATOM     50  C   UNL A   1      39.518  31.509  32.544  1.00  0.00     0.031 C 
ATOM     51  C   UNL A   1      40.764  26.397  28.080  1.00  0.00     0.029 A 
ATOM     52  C   UNL A   1      41.772  26.591  29.119  1.00  0.00     0.049 A 
ATOM     53  H   UNL A   1      41.723  27.958  30.691  1.00  0.00     0.167 HD
ATOM     54  C   UNL A   1      41.575  31.006  33.830  1.00  0.00     0.031 A 
ATOM     55  C   UNL A   1      42.921  25.897  29.225  1.00  0.00     0.031 A 
ATOM     56  C   UNL A   1      42.768  30.244  34.091  1.00  0.00     0.049 A 
ATOM     57  C   UNL A   1      43.858  26.206  30.361  1.00  0.00     0.074 A 
ATOM     58  C   UNL A   1      43.662  30.379  35.138  1.00  0.00     0.029 A 
ATOM     59  N   UNL A   1      43.242  29.214  33.292  1.00  0.00    -0.354 N 
ATOM     60  N   UNL A   1      43.732  27.101  31.312  1.00  0.00    -0.248 NA
ATOM     61  C   UNL A   1      45.087  25.404  30.445  1.00  0.00     0.031 C 
ATOM     62  C   UNL A   1      44.711  29.476  34.935  1.00  0.00     0.029 A 
ATOM     63  C   UNL A   1      44.434  28.729  33.802  1.00  0.00     0.049 A 
ATOM     64  H   UNL A   1      42.795  28.876  32.481  1.00  0.00     0.167 HD
ATOM     65  C   UNL A   1      44.855  26.956  32.119  1.00  0.00     0.074 A 
ATOM     66  C   UNL A   1      45.637  25.873  31.556  1.00  0.00     0.031 C 
ATOM     67  C   UNL A   1      45.207  27.657  33.226  1.00  0.00     0.031 A 
BRANCH  54  68
ATOM     68  C   UNL A   1      41.257  32.171  34.732  1.00  0.00    -0.014 A 
ATOM     69  C   UNL A   1      40.453  32.011  35.877  1.00  0.00     0.010 A 
ATOM     70  C   UNL A   1      41.801  33.438  34.453  1.00  0.00     0.010 A 
ATOM     71  C   UNL A   1      40.164  33.104  36.696  1.00  0.00     0.020 A 
ATOM     72  C   UNL A   1      41.540  34.527  35.289  1.00  0.00     0.020 A 
ATOM     73  C   UNL A   1      40.708  34.357  36.396  1.00  0.00     0.054 A 
BRANCH  73  74
ATOM     74  S   UNL A   1      40.330  35.753  37.490  1.00  0.00     0.124 S 
ATOM     75  O   UNL A   1      39.385  35.151  38.429  1.00  0.00    -0.237 OA
ATOM     76  O   UNL A   1      41.639  36.086  38.046  1.00  0.00    -0.237 OA
ATOM     77  O   UNL A   1      39.762  36.755  36.592  1.00  0.00    -0.744 OA
ENDBRANCH  73  74
ENDBRANCH  54  68
BRANCH  55  78
ATOM     78  C   UNL A   1      43.243  24.840  28.228  1.00  0.00    -0.014 A 
ATOM     79  C   UNL A   1      42.796  23.519  28.409  1.00  0.00     0.010 A 
ATOM     80  C   UNL A   1      43.983  25.156  27.072  1.00  0.00     0.010 A 
ATOM     81  C   UNL A   1      43.091  22.534  27.463  1.00  0.00     0.020 A 
ATOM     82  C   UNL A   1      44.255  24.181  26.110  1.00  0.00     0.020 A 
ATOM     83  C   UNL A   1      43.815  22.873  26.315  1.00  0.00     0.054 A 
BRANCH  83  84
ATOM     84  S   UNL A   1      44.133  21.591  25.071  1.00  0.00     0.124 S 
ATOM     85  O   UNL A   1      43.088  20.615  25.366  1.00  0.00    -0.237 OA
ATOM     86  O   UNL A   1      43.979  22.326  23.817  1.00  0.00    -0.237 OA
ATOM     87  O   UNL A   1      45.496  21.158  25.367  1.00  0.00    -0.744 OA
ENDBRANCH  83  84
ENDBRANCH  55  78
BRANCH  67  88
ATOM     88  C   UNL A   1      46.485  27.264  33.918  1.00  0.00    -0.014 A 
ATOM     89  C   UNL A   1      47.689  27.946  33.671  1.00  0.00     0.010 A 
ATOM     90  C   UNL A   1      46.467  26.233  34.876  1.00  0.00     0.010 A 
ATOM     91  C   UNL A   1      48.858  27.585  34.347  1.00  0.00     0.020 A 
ATOM     92  C   UNL A   1      47.625  25.891  35.577  1.00  0.00     0.020 A 
ATOM     93  C   UNL A   1      48.818  26.560  35.299  1.00  0.00     0.054 A 
BRANCH  93  94
ATOM     94  S   UNL A   1      50.337  26.144  36.196  1.00  0.00     0.124 S 
ATOM     95  O   UNL A   1      50.019  26.582  37.552  1.00  0.00    -0.237 OA
ATOM     96  O   UNL A   1      50.433  24.699  36.008  1.00  0.00    -0.237 OA
ATOM     97  O   UNL A   1      51.368  26.924  35.514  1.00  0.00    -0.744 OA
ENDBRANCH  93  94
ENDBRANCH  67  88
ENDBRANCH  41  42
ENDBRANCH  33  36
ENDBRANCH  31  32
ENDBRANCH   1  31
TORSDOF 18
ENDMDL
MODEL 2
REMARK VINA RESULT:     -11.9      2.400      2.933
REMARK SMILES CC(=O)Nc1ccc(/C(=C\c2ccc(S(C)(=O)=O)cc2)C(=O)NCCCCNC(=O)c2ccc(-c3c4nc(c(-c5ccc(S(=O)(=O)[O-])cc5)c5ccc([nH]5)c(-c5ccc(S(=O)(=O)[O-])cc5)c5nc(c(-c6ccc(S(=O)(=O)[O-])cc6)c6ccc3[nH]6)C=C5)C=C4)cc2)cc1
REMARK SMILES IDX 26 1 25 2 24 3 23 4 21 5 22 6 9 8 10 9 8 10 5 11 6 12 92 13
REMARK SMILES IDX 7 14 91 15 4 16 1 17 2 18 3 19 11 21 12 22 20 23 13 24 19 25
REMARK SMILES IDX 14 26 15 27 16 28 17 29 18 30 27 31 28 32 29 33 30 35 31 36
REMARK SMILES IDX 32 37 90 38 33 39 89 40 34 41 35 42 36 43 83 44 37 45 88 46
REMARK SMILES IDX 82 47 84 48 38 49 87 50 81 51 80 52 39 54 69 55 50 56 68 57
REMARK SMILES IDX 51 58 54 59 67 60 85 61 52 62 53 63 66 65 86 66 55 67 40 68
REMARK SMILES IDX 41 69 49 70 42 71 48 72 43 73 44 74 45 75 46 76 47 77 70 78
REMARK SMILES IDX 71 79 79 80 72 81 78 82 73 83 74 84 75 85 76 86 77 87 56 88
REMARK SMILES IDX 57 89 65 90 58 91 64 92 59 93 60 94 61 95 62 96 63 97
REMARK H PARENT 23 7 4 20 28 34 84 53 54 64
REMARK Flexibility Score: inf
ROOT
ATOM      1  C   UNL A   1      32.843  28.142  25.763  1.00  0.00     0.023 C 
ENDROOT
BRANCH   1   2
ATOM      2  C   UNL A   1      33.407  28.302  24.346  1.00  0.00     0.023 C 
BRANCH   2   3
ATOM      3  C   UNL A   1      33.354  27.027  23.500  1.00  0.00     0.116 C 
BRANCH   3   4
ATOM      4  N   UNL A   1      32.010  26.486  23.480  1.00  0.00    -0.352 N 
ATOM      5  C   UNL A   1      31.455  25.253  23.620  1.00  0.00     0.251 C 
ATOM      6  O   UNL A   1      30.222  25.268  23.572  1.00  0.00    -0.269 OA
ATOM      7  H   UNL A   1      31.332  27.182  23.326  1.00  0.00     0.163 HD
BRANCH   5   8
ATOM      8  C   UNL A   1      32.228  23.955  23.879  1.00  0.00     0.047 C 
ATOM      9  C   UNL A   1      31.533  22.796  23.971  1.00  0.00     0.022 C 
BRANCH   8  10
ATOM     10  C   UNL A   1      33.704  24.019  24.209  1.00  0.00    -0.013 A 
ATOM     11  C   UNL A   1      36.416  23.710  25.079  1.00  0.00     0.041 A 
ATOM     12  C   UNL A   1      36.053  23.470  23.752  1.00  0.00     0.027 A 
ATOM     13  C   UNL A   1      35.457  24.247  25.920  1.00  0.00     0.027 A 
ATOM     14  C   UNL A   1      34.726  23.656  23.319  1.00  0.00     0.011 A 
ATOM     15  C   UNL A   1      34.125  24.363  25.502  1.00  0.00     0.011 A 
BRANCH  11  16
ATOM     16  N   UNL A   1      37.730  23.400  25.468  1.00  0.00    -0.326 N 
ATOM     17  C   UNL A   1      37.776  20.909  25.182  1.00  0.00     0.114 C 
ATOM     18  C   UNL A   1      38.395  22.213  25.606  1.00  0.00     0.221 C 
ATOM     19  O   UNL A   1      39.545  22.235  26.052  1.00  0.00    -0.275 OA
ATOM     20  H   UNL A   1      38.278  24.190  25.681  1.00  0.00     0.169 HD
ENDBRANCH  11  16
ENDBRANCH   8  10
BRANCH   9  21
ATOM     21  C   UNL A   1      32.001  21.406  24.059  1.00  0.00    -0.025 A 
ATOM     22  C   UNL A   1      32.041  20.654  22.871  1.00  0.00     0.009 A 
ATOM     23  C   UNL A   1      32.430  20.831  25.258  1.00  0.00     0.009 A 
ATOM     24  C   UNL A   1      32.549  19.355  22.872  1.00  0.00     0.021 A 
ATOM     25  C   UNL A   1      32.944  19.531  25.264  1.00  0.00     0.021 A 
ATOM     26  C   UNL A   1      33.002  18.802  24.071  1.00  0.00     0.067 A 
BRANCH  26  27
ATOM     27  S   UNL A   1      33.739  17.185  24.047  1.00  0.00     0.175 S 
ATOM     28  C   UNL A   1      32.730  16.245  25.161  1.00  0.00     0.163 C 
ATOM     29  O   UNL A   1      33.562  16.651  22.711  1.00  0.00    -0.224 OA
ATOM     30  O   UNL A   1      35.064  17.295  24.631  1.00  0.00    -0.224 OA
ENDBRANCH  26  27
ENDBRANCH   9  21
ENDBRANCH   5   8
ENDBRANCH   3   4
ENDBRANCH   2   3
ENDBRANCH   1   2
BRANCH   1  31
ATOM     31  C   UNL A   1      33.830  28.439  26.888  1.00  0.00     0.116 C 
BRANCH  31  32
ATOM     32  N   UNL A   1      33.725  29.798  27.397  1.00  0.00    -0.352 N 
ATOM     33  C   UNL A   1      34.657  30.523  28.099  1.00  0.00     0.251 C 
ATOM     34  H   UNL A   1      32.874  30.259  27.213  1.00  0.00     0.163 HD
ATOM     35  O   UNL A   1      34.365  31.619  28.564  1.00  0.00    -0.269 OA
BRANCH  33  36
ATOM     36  C   UNL A   1      35.996  29.942  28.318  1.00  0.00     0.039 A 
ATOM     37  C   UNL A   1      36.954  30.057  27.310  1.00  0.00     0.014 A 
ATOM     38  C   UNL A   1      36.315  29.340  29.538  1.00  0.00     0.014 A 
ATOM     39  C   UNL A   1      38.259  29.633  27.554  1.00  0.00     0.010 A 
ATOM     40  C   UNL A   1      37.633  28.989  29.806  1.00  0.00     0.010 A 
ATOM     41  C   UNL A   1      38.620  29.136  28.819  1.00  0.00    -0.014 A 
BRANCH  41  42
ATOM     42  C   UNL A   1      40.029  28.792  29.135  1.00  0.00     0.031 A 
ATOM     43  C   UNL A   1      40.936  29.813  29.763  1.00  0.00     0.074 A 
ATOM     44  C   UNL A   1      40.508  27.580  28.789  1.00  0.00     0.049 A 
ATOM     45  N   UNL A   1      42.203  29.709  30.069  1.00  0.00    -0.248 NA
ATOM     46  C   UNL A   1      40.352  31.130  30.063  1.00  0.00     0.031 C 
ATOM     47  C   UNL A   1      39.740  26.524  28.125  1.00  0.00     0.029 A 
ATOM     48  N   UNL A   1      41.759  27.035  28.938  1.00  0.00    -0.354 N 
ATOM     49  C   UNL A   1      42.571  30.949  30.580  1.00  0.00     0.074 A 
ATOM     50  C   UNL A   1      41.407  31.803  30.496  1.00  0.00     0.031 C 
ATOM     51  C   UNL A   1      40.526  25.451  27.950  1.00  0.00     0.029 A 
ATOM     52  C   UNL A   1      41.865  25.755  28.444  1.00  0.00     0.049 A 
ATOM     53  H   UNL A   1      42.509  27.515  29.358  1.00  0.00     0.167 HD
ATOM     54  C   UNL A   1      43.766  31.334  31.088  1.00  0.00     0.031 A 
ATOM     55  C   UNL A   1      42.924  24.923  28.385  1.00  0.00     0.031 A 
ATOM     56  C   UNL A   1      44.919  30.477  31.172  1.00  0.00     0.049 A 
ATOM     57  C   UNL A   1      44.242  25.378  28.948  1.00  0.00     0.074 A 
ATOM     58  C   UNL A   1      46.154  30.750  31.733  1.00  0.00     0.029 A 
ATOM     59  N   UNL A   1      44.985  29.185  30.671  1.00  0.00    -0.354 N 
ATOM     60  N   UNL A   1      44.546  26.524  29.510  1.00  0.00    -0.248 NA
ATOM     61  C   UNL A   1      45.358  24.423  28.879  1.00  0.00     0.031 C 
ATOM     62  C   UNL A   1      46.987  29.649  31.512  1.00  0.00     0.029 A 
ATOM     63  C   UNL A   1      46.250  28.662  30.877  1.00  0.00     0.049 A 
ATOM     64  H   UNL A   1      44.241  28.710  30.234  1.00  0.00     0.167 HD
ATOM     65  C   UNL A   1      45.882  26.420  29.880  1.00  0.00     0.074 A 
ATOM     66  C   UNL A   1      46.320  25.092  29.498  1.00  0.00     0.031 C 
ATOM     67  C   UNL A   1      46.675  27.342  30.482  1.00  0.00     0.031 A 
BRANCH  54  68
ATOM     68  C   UNL A   1      43.891  32.753  31.580  1.00  0.00    -0.014 A 
ATOM     69  C   UNL A   1      44.122  33.818  30.690  1.00  0.00     0.010 A 
ATOM     70  C   UNL A   1      43.736  33.032  32.951  1.00  0.00     0.010 A 
ATOM     71  C   UNL A   1      44.242  35.126  31.166  1.00  0.00     0.020 A 
ATOM     72  C   UNL A   1      43.822  34.343  33.427  1.00  0.00     0.020 A 
ATOM     73  C   UNL A   1      44.092  35.381  32.533  1.00  0.00     0.054 A 
BRANCH  73  74
ATOM     74  S   UNL A   1      44.233  37.091  33.118  1.00  0.00     0.124 S 
ATOM     75  O   UNL A   1      42.888  37.344  33.633  1.00  0.00    -0.237 OA
ATOM     76  O   UNL A   1      45.283  36.996  34.129  1.00  0.00    -0.237 OA
ATOM     77  O   UNL A   1      44.591  37.841  31.918  1.00  0.00    -0.744 OA
ENDBRANCH  73  74
ENDBRANCH  54  68
BRANCH  55  78
ATOM     78  C   UNL A   1      42.772  23.575  27.771  1.00  0.00    -0.014 A 
ATOM     79  C   UNL A   1      43.092  23.360  26.419  1.00  0.00     0.010 A 
ATOM     80  C   UNL A   1      42.326  22.489  28.548  1.00  0.00     0.010 A 
ATOM     81  C   UNL A   1      42.958  22.089  25.852  1.00  0.00     0.020 A 
ATOM     82  C   UNL A   1      42.220  21.211  27.994  1.00  0.00     0.020 A 
ATOM     83  C   UNL A   1      42.528  21.020  26.646  1.00  0.00     0.054 A 
BRANCH  83  84
ATOM     84  S   UNL A   1      42.422  19.368  25.904  1.00  0.00     0.124 S 
ATOM     85  O   UNL A   1      43.323  19.489  24.762  1.00  0.00    -0.237 OA
ATOM     86  O   UNL A   1      42.886  18.507  26.989  1.00  0.00    -0.237 OA
ATOM     87  O   UNL A   1      41.006  19.232  25.574  1.00  0.00    -0.744 OA
ENDBRANCH  83  84
ENDBRANCH  55  78
BRANCH  67  88
ATOM     88  C   UNL A   1      48.096  26.943  30.786  1.00  0.00    -0.014 A 
ATOM     89  C   UNL A   1      49.142  27.233  29.892  1.00  0.00     0.010 A 
ATOM     90  C   UNL A   1      48.395  26.320  32.011  1.00  0.00     0.010 A 
ATOM     91  C   UNL A   1      50.458  26.881  30.208  1.00  0.00     0.020 A 
ATOM     92  C   UNL A   1      49.712  25.997  32.344  1.00  0.00     0.020 A 
ATOM     93  C   UNL A   1      50.735  26.266  31.433  1.00  0.00     0.054 A 
BRANCH  93  94
ATOM     94  S   UNL A   1      52.456  25.864  31.838  1.00  0.00     0.124 S 
ATOM     95  O   UNL A   1      52.732  26.782  32.939  1.00  0.00    -0.237 OA
ATOM     96  O   UNL A   1      52.376  24.451  32.200  1.00  0.00    -0.237 OA
ATOM     97  O   UNL A   1      53.177  26.142  30.598  1.00  0.00    -0.744 OA
ENDBRANCH  93  94
ENDBRANCH  67  88
ENDBRANCH  41  42
ENDBRANCH  33  36
ENDBRANCH  31  32
ENDBRANCH   1  31
TORSDOF 18
ENDMDL
MODEL 3
REMARK VINA RESULT:     -11.4      0.654      7.971
REMARK SMILES CC(=O)Nc1ccc(/C(=C\c2ccc(S(C)(=O)=O)cc2)C(=O)NCCCCNC(=O)c2ccc(-c3c4nc(c(-c5ccc(S(=O)(=O)[O-])cc5)c5ccc([nH]5)c(-c5ccc(S(=O)(=O)[O-])cc5)c5nc(c(-c6ccc(S(=O)(=O)[O-])cc6)c6ccc3[nH]6)C=C5)C=C4)cc2)cc1
REMARK SMILES IDX 26 1 25 2 24 3 23 4 21 5 22 6 9 8 10 9 8 10 5 11 6 12 92 13
REMARK SMILES IDX 7 14 91 15 4 16 1 17 2 18 3 19 11 21 12 22 20 23 13 24 19 25
REMARK SMILES IDX 14 26 15 27 16 28 17 29 18 30 27 31 28 32 29 33 30 35 31 36
REMARK SMILES IDX 32 37 90 38 33 39 89 40 34 41 35 42 36 43 83 44 37 45 88 46
REMARK SMILES IDX 82 47 84 48 38 49 87 50 81 51 80 52 39 54 69 55 50 56 68 57
REMARK SMILES IDX 51 58 54 59 67 60 85 61 52 62 53 63 66 65 86 66 55 67 40 68
REMARK SMILES IDX 41 69 49 70 42 71 48 72 43 73 44 74 45 75 46 76 47 77 70 78
REMARK SMILES IDX 71 79 79 80 72 81 78 82 73 83 74 84 75 85 76 86 77 87 56 88
REMARK SMILES IDX 57 89 65 90 58 91 64 92 59 93 60 94 61 95 62 96 63 97
REMARK H PARENT 23 7 4 20 28 34 84 53 54 64
REMARK Flexibility Score: inf
ROOT
ATOM      1  C   UNL A   1      33.200  28.060  24.867  1.00  0.00     0.023 C 
ENDROOT
BRANCH   1   2
ATOM      2  C   UNL A   1      34.033  27.185  23.923  1.00  0.00     0.023 C 
BRANCH   2   3
ATOM      3  C   UNL A   1      33.215  26.467  22.846  1.00  0.00     0.116 C 
BRANCH   3   4
ATOM      4  N   UNL A   1      31.949  26.013  23.386  1.00  0.00    -0.352 N 
ATOM      5  C   UNL A   1      31.482  24.860  23.933  1.00  0.00     0.251 C 
ATOM      6  O   UNL A   1      30.308  24.941  24.306  1.00  0.00    -0.269 OA
ATOM      7  H   UNL A   1      31.258  26.712  23.347  1.00  0.00     0.163 HD
BRANCH   5   8
ATOM      8  C   UNL A   1      32.301  23.582  24.148  1.00  0.00     0.047 C 
ATOM      9  C   UNL A   1      31.646  22.400  24.230  1.00  0.00     0.022 C 
BRANCH   8  10
ATOM     10  C   UNL A   1      33.781  23.687  24.447  1.00  0.00    -0.013 A 
ATOM     11  C   UNL A   1      36.525  23.438  25.234  1.00  0.00     0.041 A 
ATOM     12  C   UNL A   1      36.138  23.266  23.903  1.00  0.00     0.027 A 
ATOM     13  C   UNL A   1      35.567  23.881  26.129  1.00  0.00     0.027 A 
ATOM     14  C   UNL A   1      34.794  23.424  23.513  1.00  0.00     0.011 A 
ATOM     15  C   UNL A   1      34.221  23.966  25.750  1.00  0.00     0.011 A 
BRANCH  11  16
ATOM     16  N   UNL A   1      37.860  23.159  25.572  1.00  0.00    -0.326 N 
ATOM     17  C   UNL A   1      37.926  20.659  25.382  1.00  0.00     0.114 C 
ATOM     18  C   UNL A   1      38.546  21.986  25.725  1.00  0.00     0.221 C 
ATOM     19  O   UNL A   1      39.716  22.039  26.115  1.00  0.00    -0.275 OA
ATOM     20  H   UNL A   1      38.406  23.963  25.728  1.00  0.00     0.169 HD
ENDBRANCH  11  16
ENDBRANCH   8  10
BRANCH   9  21
ATOM     21  C   UNL A   1      32.159  21.024  24.279  1.00  0.00    -0.025 A 
ATOM     22  C   UNL A   1      32.161  20.285  23.083  1.00  0.00     0.009 A 
ATOM     23  C   UNL A   1      32.666  20.451  25.448  1.00  0.00     0.009 A 
ATOM     24  C   UNL A   1      32.707  19.002  23.043  1.00  0.00     0.021 A 
ATOM     25  C   UNL A   1      33.218  19.168  25.413  1.00  0.00     0.021 A 
ATOM     26  C   UNL A   1      33.237  18.452  24.211  1.00  0.00     0.067 A 
BRANCH  26  27
ATOM     27  S   UNL A   1      34.021  16.859  24.132  1.00  0.00     0.175 S 
ATOM     28  C   UNL A   1      32.927  15.805  25.045  1.00  0.00     0.163 C 
ATOM     29  O   UNL A   1      34.004  16.440  22.744  1.00  0.00    -0.224 OA
ATOM     30  O   UNL A   1      35.271  16.945  24.865  1.00  0.00    -0.224 OA
ENDBRANCH  26  27
ENDBRANCH   9  21
ENDBRANCH   5   8
ENDBRANCH   3   4
ENDBRANCH   2   3
ENDBRANCH   1   2
BRANCH   1  31
ATOM     31  C   UNL A   1      33.925  28.521  26.128  1.00  0.00     0.116 C 
BRANCH  31  32
ATOM     32  N   UNL A   1      33.661  29.913  26.462  1.00  0.00    -0.352 N 
ATOM     33  C   UNL A   1      34.361  30.736  27.310  1.00  0.00     0.251 C 
ATOM     34  H   UNL A   1      32.878  30.317  26.023  1.00  0.00     0.163 HD
ATOM     35  O   UNL A   1      33.935  31.854  27.578  1.00  0.00    -0.269 OA
BRANCH  33  36
ATOM     36  C   UNL A   1      35.609  30.237  27.921  1.00  0.00     0.039 A 
ATOM     37  C   UNL A   1      36.816  30.445  27.253  1.00  0.00     0.014 A 
ATOM     38  C   UNL A   1      35.585  29.622  29.175  1.00  0.00     0.014 A 
ATOM     39  C   UNL A   1      38.013  30.100  27.879  1.00  0.00     0.010 A 
ATOM     40  C   UNL A   1      36.782  29.349  29.827  1.00  0.00     0.010 A 
ATOM     41  C   UNL A   1      38.008  29.589  29.189  1.00  0.00    -0.014 A 
BRANCH  41  42
ATOM     42  C   UNL A   1      39.276  29.330  29.916  1.00  0.00     0.031 A 
ATOM     43  C   UNL A   1      40.203  28.238  29.457  1.00  0.00     0.074 A 
ATOM     44  C   UNL A   1      39.555  30.033  31.032  1.00  0.00     0.049 A 
ATOM     45  N   UNL A   1      41.329  27.838  29.990  1.00  0.00    -0.248 NA
ATOM     46  C   UNL A   1      39.802  27.481  28.261  1.00  0.00     0.031 C 
ATOM     47  C   UNL A   1      38.708  31.080  31.608  1.00  0.00     0.029 A 
ATOM     48  N   UNL A   1      40.625  29.967  31.889  1.00  0.00    -0.354 N 
ATOM     49  C   UNL A   1      41.760  26.774  29.207  1.00  0.00     0.074 A 
ATOM     50  C   UNL A   1      40.751  26.559  28.193  1.00  0.00     0.031 C 
ATOM     51  C   UNL A   1      39.302  31.576  32.703  1.00  0.00     0.029 A 
ATOM     52  C   UNL A   1      40.548  30.854  32.938  1.00  0.00     0.049 A 
ATOM     53  H   UNL A   1      41.377  29.343  31.765  1.00  0.00     0.167 HD
ATOM     54  C   UNL A   1      42.902  26.053  29.312  1.00  0.00     0.031 A 
ATOM     55  C   UNL A   1      41.380  31.056  33.978  1.00  0.00     0.031 A 
ATOM     56  C   UNL A   1      43.903  26.276  30.321  1.00  0.00     0.049 A 
ATOM     57  C   UNL A   1      42.637  30.237  34.078  1.00  0.00     0.074 A 
ATOM     58  C   UNL A   1      45.126  25.646  30.472  1.00  0.00     0.029 A 
ATOM     59  N   UNL A   1      43.794  27.190  31.360  1.00  0.00    -0.354 N 
ATOM     60  N   UNL A   1      43.073  29.296  33.274  1.00  0.00    -0.248 NA
ATOM     61  C   UNL A   1      43.521  30.514  35.219  1.00  0.00     0.031 C 
ATOM     62  C   UNL A   1      45.726  26.131  31.638  1.00  0.00     0.029 A 
ATOM     63  C   UNL A   1      44.910  27.114  32.175  1.00  0.00     0.049 A 
ATOM     64  H   UNL A   1      43.035  27.802  31.496  1.00  0.00     0.167 HD
ATOM     65  C   UNL A   1      44.291  28.882  33.801  1.00  0.00     0.074 A 
ATOM     66  C   UNL A   1      44.533  29.692  34.979  1.00  0.00     0.031 C 
ATOM     67  C   UNL A   1      45.133  27.920  33.350  1.00  0.00     0.031 A 
BRANCH  54  68
ATOM     68  C   UNL A   1      43.121  24.943  28.317  1.00  0.00    -0.014 A 
ATOM     69  C   UNL A   1      43.747  25.183  27.080  1.00  0.00     0.010 A 
ATOM     70  C   UNL A   1      42.729  23.630  28.639  1.00  0.00     0.010 A 
ATOM     71  C   UNL A   1      43.935  24.141  26.167  1.00  0.00     0.020 A 
ATOM     72  C   UNL A   1      42.945  22.580  27.743  1.00  0.00     0.020 A 
ATOM     73  C   UNL A   1      43.531  22.846  26.504  1.00  0.00     0.054 A 
BRANCH  73  74
ATOM     74  S   UNL A   1      43.806  21.512  25.308  1.00  0.00     0.124 S 
ATOM     75  O   UNL A   1      42.661  20.639  25.563  1.00  0.00    -0.237 OA
ATOM     76  O   UNL A   1      43.782  22.219  24.030  1.00  0.00    -0.237 OA
ATOM     77  O   UNL A   1      45.104  20.963  25.691  1.00  0.00    -0.744 OA
ENDBRANCH  73  74
ENDBRANCH  54  68
BRANCH  55  78
ATOM     78  C   UNL A   1      41.047  32.084  35.002  1.00  0.00    -0.014 A 
ATOM     79  C   UNL A   1      41.483  33.413  34.856  1.00  0.00     0.010 A 
ATOM     80  C   UNL A   1      40.268  31.741  36.124  1.00  0.00     0.010 A 
ATOM     81  C   UNL A   1      41.157  34.376  35.816  1.00  0.00     0.020 A 
ATOM     82  C   UNL A   1      39.915  32.706  37.070  1.00  0.00     0.020 A 
ATOM     83  C   UNL A   1      40.369  34.017  36.915  1.00  0.00     0.054 A 
BRANCH  83  84
ATOM     84  S   UNL A   1      39.907  35.297  38.115  1.00  0.00     0.124 S 
ATOM     85  O   UNL A   1      41.101  35.376  38.950  1.00  0.00    -0.237 OA
ATOM     86  O   UNL A   1      39.654  36.453  37.258  1.00  0.00    -0.237 OA
ATOM     87  O   UNL A   1      38.722  34.743  38.765  1.00  0.00    -0.744 OA
ENDBRANCH  83  84
ENDBRANCH  55  78
BRANCH  67  88
ATOM     88  C   UNL A   1      46.409  27.697  34.120  1.00  0.00    -0.014 A 
ATOM     89  C   UNL A   1      46.477  26.760  35.166  1.00  0.00     0.010 A 
ATOM     90  C   UNL A   1      47.573  28.396  33.750  1.00  0.00     0.010 A 
ATOM     91  C   UNL A   1      47.679  26.549  35.847  1.00  0.00     0.020 A 
ATOM     92  C   UNL A   1      48.783  28.163  34.407  1.00  0.00     0.020 A 
ATOM     93  C   UNL A   1      48.826  27.250  35.462  1.00  0.00     0.054 A 
BRANCH  93  94
ATOM     94  S   UNL A   1      50.383  26.921  36.331  1.00  0.00     0.124 S 
ATOM     95  O   UNL A   1      50.680  28.221  36.924  1.00  0.00    -0.237 OA
ATOM     96  O   UNL A   1      50.006  25.870  37.273  1.00  0.00    -0.237 OA
ATOM     97  O   UNL A   1      51.291  26.498  35.267  1.00  0.00    -0.744 OA
ENDBRANCH  93  94
ENDBRANCH  67  88
ENDBRANCH  41  42
ENDBRANCH  33  36
ENDBRANCH  31  32
ENDBRANCH   1  31
TORSDOF 18
ENDMDL
