MODEL 1
REMARK VINA RESULT:     -11.0      0.000      0.000
REMARK SMILES CCc1cc(OCC(=O)NCCCCNC(=O)c2ccc(-c3c4nc(c(-c5ccc(S(=O)(=O)[O-])cc5)c5ccc([nH]5)c(-c5ccc(S(=O)(=O)[O-])cc5)c5nc(c(-c6ccc(S(=O)(=O)[O-])cc6)c6ccc3[nH]6)C=C5)C=C4)cc2)nc(Nc2ccc(C)c(F)c2)n1
REMARK SMILES IDX 12 1 11 2 10 3 8 4 9 5 7 7 6 8 5 9 3 10 4 11 89 12 79 13
REMARK SMILES IDX 78 14 2 15 1 16 80 17 81 19 82 20 88 21 83 22 86 23 84 24
REMARK SMILES IDX 87 25 85 26 13 27 14 28 15 29 16 30 17 32 18 33 19 34 77 35
REMARK SMILES IDX 20 36 76 37 21 38 22 39 23 40 70 41 24 42 75 43 69 44 71 45
REMARK SMILES IDX 25 46 74 47 68 48 67 49 26 51 56 52 37 53 55 54 38 55 41 56
REMARK SMILES IDX 54 57 72 58 39 59 40 60 53 62 73 63 42 64 27 65 28 66 36 67
REMARK SMILES IDX 29 68 35 69 30 70 31 71 32 72 33 73 34 74 57 75 58 76 66 77
REMARK SMILES IDX 59 78 65 79 60 80 61 81 62 82 63 83 64 84 43 85 44 86 52 87
REMARK SMILES IDX 45 88 51 89 46 90 47 91 48 92 49 93 50 94
REMARK H PARENT 10 6 80 18 15 31 71 50 41 61
REMARK Flexibility Score: inf
ROOT
ATOM      1  C   UNL A   1      32.208  26.773  25.867  1.00  0.00     0.023 C 
ENDROOT
BRANCH   1   2
ATOM      2  C   UNL A   1      31.094  25.769  26.155  1.00  0.00     0.116 C 
BRANCH   2   3
ATOM      3  N   UNL A   1      31.497  24.749  27.102  1.00  0.00    -0.353 N 
ATOM      4  C   UNL A   1      31.488  23.395  26.943  1.00  0.00     0.258 C 
ATOM      5  O   UNL A   1      31.902  22.680  27.858  1.00  0.00    -0.271 OA
ATOM      6  H   UNL A   1      31.819  25.076  27.973  1.00  0.00     0.163 HD
BRANCH   4   7
ATOM      7  C   UNL A   1      30.986  22.783  25.628  1.00  0.00     0.331 C 
BRANCH   7   8
ATOM      8  O   UNL A   1      31.907  22.011  24.880  1.00  0.00    -0.467 OA
BRANCH   8   9
ATOM      9  C   UNL A   1      32.854  22.672  24.149  1.00  0.00     0.218 A 
ATOM     10  C   UNL A   1      34.985  23.125  23.299  1.00  0.00     0.050 A 
ATOM     11  C   UNL A   1      34.203  22.406  24.175  1.00  0.00     0.092 A 
ATOM     12  N   UNL A   1      34.465  24.069  22.498  1.00  0.00    -0.218 NA
ATOM     13  C   UNL A   1      33.150  24.315  22.577  1.00  0.00     0.230 A 
ATOM     14  N   UNL A   1      32.321  23.641  23.384  1.00  0.00    -0.177 NA
BRANCH  10  15
ATOM     15  C   UNL A   1      36.472  22.901  23.215  1.00  0.00     0.053 C 
ATOM     16  C   UNL A   1      37.028  22.175  24.432  1.00  0.00     0.011 C 
ENDBRANCH  10  15
BRANCH  13  17
ATOM     17  N   UNL A   1      32.603  25.383  21.871  1.00  0.00    -0.324 N 
ATOM     18  H   UNL A   1      32.711  25.344  20.894  1.00  0.00     0.170 HD
BRANCH  17  19
ATOM     19  C   UNL A   1      31.920  26.503  22.355  1.00  0.00     0.044 A 
ATOM     20  C   UNL A   1      32.589  27.730  22.466  1.00  0.00     0.026 A 
ATOM     21  C   UNL A   1      30.551  26.469  22.633  1.00  0.00     0.065 A 
ATOM     22  C   UNL A   1      31.903  28.895  22.834  1.00  0.00     0.008 A 
ATOM     23  C   UNL A   1      29.876  27.624  23.022  1.00  0.00     0.128 A 
ATOM     24  C   UNL A   1      30.535  28.849  23.121  1.00  0.00    -0.015 A 
ATOM     25  F   UNL A   1      28.565  27.544  23.291  1.00  0.00    -0.207 F 
ATOM     26  C   UNL A   1      29.791  30.098  23.482  1.00  0.00     0.047 C 
ENDBRANCH  17  19
ENDBRANCH  13  17
ENDBRANCH   8   9
ENDBRANCH   7   8
ENDBRANCH   4   7
ENDBRANCH   2   3
ENDBRANCH   1   2
BRANCH   1  27
ATOM     27  C   UNL A   1      32.194  28.034  26.737  1.00  0.00     0.023 C 
BRANCH  27  28
ATOM     28  C   UNL A   1      33.559  28.569  27.165  1.00  0.00     0.116 C 
BRANCH  28  29
ATOM     29  N   UNL A   1      33.536  29.974  27.542  1.00  0.00    -0.352 N 
ATOM     30  C   UNL A   1      34.514  30.731  28.144  1.00  0.00     0.251 C 
ATOM     31  H   UNL A   1      32.699  30.451  27.339  1.00  0.00     0.163 HD
ATOM     32  O   UNL A   1      34.270  31.887  28.480  1.00  0.00    -0.269 OA
BRANCH  30  33
ATOM     33  C   UNL A   1      35.843  30.143  28.421  1.00  0.00     0.039 A 
ATOM     34  C   UNL A   1      36.832  30.223  27.436  1.00  0.00     0.014 A 
ATOM     35  C   UNL A   1      36.125  29.535  29.648  1.00  0.00     0.014 A 
ATOM     36  C   UNL A   1      38.125  29.773  27.712  1.00  0.00     0.010 A 
ATOM     37  C   UNL A   1      37.429  29.142  29.942  1.00  0.00     0.010 A 
ATOM     38  C   UNL A   1      38.447  29.273  28.984  1.00  0.00    -0.014 A 
BRANCH  38  39
ATOM     39  C   UNL A   1      39.845  28.921  29.346  1.00  0.00     0.031 A 
ATOM     40  C   UNL A   1      40.746  29.940  29.989  1.00  0.00     0.074 A 
ATOM     41  C   UNL A   1      40.330  27.704  29.025  1.00  0.00     0.049 A 
ATOM     42  N   UNL A   1      42.019  29.850  30.278  1.00  0.00    -0.248 NA
ATOM     43  C   UNL A   1      40.142  31.238  30.335  1.00  0.00     0.031 C 
ATOM     44  C   UNL A   1      39.570  26.637  28.367  1.00  0.00     0.029 A 
ATOM     45  N   UNL A   1      41.582  27.164  29.191  1.00  0.00    -0.354 N 
ATOM     46  C   UNL A   1      42.371  31.074  30.832  1.00  0.00     0.074 A 
ATOM     47  C   UNL A   1      41.188  31.909  30.795  1.00  0.00     0.031 C 
ATOM     48  C   UNL A   1      40.369  25.571  28.193  1.00  0.00     0.029 A 
ATOM     49  C   UNL A   1      41.706  25.891  28.685  1.00  0.00     0.049 A 
ATOM     50  H   UNL A   1      42.321  27.644  29.630  1.00  0.00     0.167 HD
ATOM     51  C   UNL A   1      43.564  31.464  31.343  1.00  0.00     0.031 A 
ATOM     52  C   UNL A   1      42.777  25.077  28.603  1.00  0.00     0.031 A 
ATOM     53  C   UNL A   1      44.739  30.634  31.380  1.00  0.00     0.049 A 
ATOM     54  C   UNL A   1      44.099  25.545  29.148  1.00  0.00     0.074 A 
ATOM     55  C   UNL A   1      45.984  30.931  31.908  1.00  0.00     0.029 A 
ATOM     56  N   UNL A   1      44.819  29.348  30.870  1.00  0.00    -0.354 N 
ATOM     57  N   UNL A   1      44.397  26.690  29.715  1.00  0.00    -0.248 NA
ATOM     58  C   UNL A   1      45.229  24.610  29.046  1.00  0.00     0.031 C 
ATOM     59  C   UNL A   1      46.829  29.840  31.677  1.00  0.00     0.029 A 
ATOM     60  C   UNL A   1      46.096  28.844  31.052  1.00  0.00     0.049 A 
ATOM     61  H   UNL A   1      44.076  28.863  30.441  1.00  0.00     0.167 HD
ATOM     62  C   UNL A   1      45.743  26.605  30.054  1.00  0.00     0.074 A 
ATOM     63  C   UNL A   1      46.196  25.291  29.647  1.00  0.00     0.031 C 
ATOM     64  C   UNL A   1      46.533  27.534  30.645  1.00  0.00     0.031 A 
BRANCH  51  65
ATOM     65  C   UNL A   1      43.655  32.853  31.914  1.00  0.00    -0.014 A 
ATOM     66  C   UNL A   1      43.344  33.097  33.264  1.00  0.00     0.010 A 
ATOM     67  C   UNL A   1      44.108  33.917  31.113  1.00  0.00     0.010 A 
ATOM     68  C   UNL A   1      43.451  34.386  33.793  1.00  0.00     0.020 A 
ATOM     69  C   UNL A   1      44.240  35.203  31.646  1.00  0.00     0.020 A 
ATOM     70  C   UNL A   1      43.895  35.432  32.980  1.00  0.00     0.054 A 
BRANCH  70  71
ATOM     71  S   UNL A   1      44.050  37.088  33.703  1.00  0.00     0.124 S 
ATOM     72  O   UNL A   1      45.494  37.195  33.903  1.00  0.00    -0.237 OA
ATOM     73  O   UNL A   1      43.497  37.947  32.659  1.00  0.00    -0.237 OA
ATOM     74  O   UNL A   1      43.257  37.009  34.926  1.00  0.00    -0.744 OA
ENDBRANCH  70  71
ENDBRANCH  51  65
BRANCH  52  75
ATOM     75  C   UNL A   1      42.651  23.740  27.962  1.00  0.00    -0.014 A 
ATOM     76  C   UNL A   1      42.185  22.633  28.695  1.00  0.00     0.010 A 
ATOM     77  C   UNL A   1      43.005  23.565  26.612  1.00  0.00     0.010 A 
ATOM     78  C   UNL A   1      42.104  21.372  28.098  1.00  0.00     0.020 A 
ATOM     79  C   UNL A   1      42.898  22.312  26.003  1.00  0.00     0.020 A 
ATOM     80  C   UNL A   1      42.462  21.219  26.755  1.00  0.00     0.054 A 
BRANCH  80  81
ATOM     81  S   UNL A   1      42.321  19.580  25.991  1.00  0.00     0.124 S 
ATOM     82  O   UNL A   1      43.227  19.696  24.853  1.00  0.00    -0.237 OA
ATOM     83  O   UNL A   1      42.761  18.691  27.064  1.00  0.00    -0.237 OA
ATOM     84  O   UNL A   1      40.902  19.482  25.655  1.00  0.00    -0.744 OA
ENDBRANCH  80  81
ENDBRANCH  52  75
BRANCH  64  85
ATOM     85  C   UNL A   1      47.966  27.160  30.910  1.00  0.00    -0.014 A 
ATOM     86  C   UNL A   1      48.329  26.453  32.070  1.00  0.00     0.010 A 
ATOM     87  C   UNL A   1      48.952  27.457  29.951  1.00  0.00     0.010 A 
ATOM     88  C   UNL A   1      49.656  26.068  32.277  1.00  0.00     0.020 A 
ATOM     89  C   UNL A   1      50.275  27.053  30.142  1.00  0.00     0.020 A 
ATOM     90  C   UNL A   1      50.621  26.368  31.310  1.00  0.00     0.054 A 
BRANCH  90  91
ATOM     91  S   UNL A   1      52.324  25.802  31.572  1.00  0.00     0.124 S 
ATOM     92  O   UNL A   1      52.931  26.048  30.267  1.00  0.00    -0.237 OA
ATOM     93  O   UNL A   1      52.787  26.670  32.653  1.00  0.00    -0.237 OA
ATOM     94  O   UNL A   1      52.172  24.395  31.933  1.00  0.00    -0.744 OA
ENDBRANCH  90  91
ENDBRANCH  64  85
ENDBRANCH  38  39
ENDBRANCH  30  33
ENDBRANCH  28  29
ENDBRANCH  27  28
ENDBRANCH   1  27
TORSDOF 19
ENDMDL
MODEL 2
REMARK VINA RESULT:     -10.6      1.119      8.136
REMARK SMILES CCc1cc(OCC(=O)NCCCCNC(=O)c2ccc(-c3c4nc(c(-c5ccc(S(=O)(=O)[O-])cc5)c5ccc([nH]5)c(-c5ccc(S(=O)(=O)[O-])cc5)c5nc(c(-c6ccc(S(=O)(=O)[O-])cc6)c6ccc3[nH]6)C=C5)C=C4)cc2)nc(Nc2ccc(C)c(F)c2)n1
REMARK SMILES IDX 12 1 11 2 10 3 8 4 9 5 7 7 6 8 5 9 3 10 4 11 89 12 79 13
REMARK SMILES IDX 78 14 2 15 1 16 80 17 81 19 82 20 88 21 83 22 86 23 84 24
REMARK SMILES IDX 87 25 85 26 13 27 14 28 15 29 16 30 17 32 18 33 19 34 77 35
REMARK SMILES IDX 20 36 76 37 21 38 22 39 23 40 70 41 24 42 75 43 69 44 71 45
REMARK SMILES IDX 25 46 74 47 68 48 67 49 26 51 56 52 37 53 55 54 38 55 41 56
REMARK SMILES IDX 54 57 72 58 39 59 40 60 53 62 73 63 42 64 27 65 28 66 36 67
REMARK SMILES IDX 29 68 35 69 30 70 31 71 32 72 33 73 34 74 57 75 58 76 66 77
REMARK SMILES IDX 59 78 65 79 60 80 61 81 62 82 63 83 64 84 43 85 44 86 52 87
REMARK SMILES IDX 45 88 51 89 46 90 47 91 48 92 49 93 50 94
REMARK H PARENT 10 6 80 18 15 31 71 50 41 61
REMARK Flexibility Score: inf
ROOT
ATOM      1  C   UNL A   1      31.857  26.198  26.452  1.00  0.00     0.023 C 
ENDROOT
BRANCH   1   2
ATOM      2  C   UNL A   1      30.483  25.803  25.916  1.00  0.00     0.116 C 
BRANCH   2   3
ATOM      3  N   UNL A   1      29.850  24.772  26.715  1.00  0.00    -0.353 N 
ATOM      4  C   UNL A   1      30.089  23.431  26.710  1.00  0.00     0.258 C 
ATOM      5  O   UNL A   1      29.468  22.707  27.492  1.00  0.00    -0.271 OA
ATOM      6  H   UNL A   1      29.158  25.082  27.343  1.00  0.00     0.163 HD
BRANCH   4   7
ATOM      7  C   UNL A   1      31.136  22.844  25.753  1.00  0.00     0.331 C 
BRANCH   7   8
ATOM      8  O   UNL A   1      32.385  22.476  26.308  1.00  0.00    -0.467 OA
BRANCH   8   9
ATOM      9  C   UNL A   1      33.519  22.853  25.644  1.00  0.00     0.218 A 
ATOM     10  C   UNL A   1      35.803  22.897  25.143  1.00  0.00     0.050 A 
ATOM     11  C   UNL A   1      34.798  22.484  25.989  1.00  0.00     0.092 A 
ATOM     12  N   UNL A   1      35.552  23.660  24.067  1.00  0.00    -0.218 NA
ATOM     13  C   UNL A   1      34.286  24.034  23.834  1.00  0.00     0.230 A 
ATOM     14  N   UNL A   1      33.252  23.651  24.595  1.00  0.00    -0.177 NA
BRANCH  10  15
ATOM     15  C   UNL A   1      37.240  22.529  25.399  1.00  0.00     0.053 C 
ATOM     16  C   UNL A   1      37.996  23.604  26.167  1.00  0.00     0.011 C 
ENDBRANCH  10  15
BRANCH  13  17
ATOM     17  N   UNL A   1      34.009  24.943  22.816  1.00  0.00    -0.324 N 
ATOM     18  H   UNL A   1      34.478  24.782  21.966  1.00  0.00     0.170 HD
BRANCH  17  19
ATOM     19  C   UNL A   1      33.156  26.050  22.831  1.00  0.00     0.044 A 
ATOM     20  C   UNL A   1      31.843  25.922  22.357  1.00  0.00     0.026 A 
ATOM     21  C   UNL A   1      33.534  27.265  23.410  1.00  0.00     0.065 A 
ATOM     22  C   UNL A   1      30.930  26.978  22.467  1.00  0.00     0.008 A 
ATOM     23  C   UNL A   1      32.631  28.321  23.497  1.00  0.00     0.128 A 
ATOM     24  C   UNL A   1      31.321  28.194  23.037  1.00  0.00    -0.015 A 
ATOM     25  F   UNL A   1      33.039  29.473  24.048  1.00  0.00    -0.207 F 
ATOM     26  C   UNL A   1      30.338  29.314  23.189  1.00  0.00     0.047 C 
ENDBRANCH  17  19
ENDBRANCH  13  17
ENDBRANCH   8   9
ENDBRANCH   7   8
ENDBRANCH   4   7
ENDBRANCH   2   3
ENDBRANCH   1   2
BRANCH   1  27
ATOM     27  C   UNL A   1      31.914  27.545  27.180  1.00  0.00     0.023 C 
BRANCH  27  28
ATOM     28  C   UNL A   1      33.274  28.238  27.205  1.00  0.00     0.116 C 
BRANCH  28  29
ATOM     29  N   UNL A   1      33.185  29.677  27.399  1.00  0.00    -0.352 N 
ATOM     30  C   UNL A   1      34.141  30.555  27.855  1.00  0.00     0.251 C 
ATOM     31  H   UNL A   1      32.316  30.079  27.172  1.00  0.00     0.163 HD
ATOM     32  O   UNL A   1      33.845  31.731  28.049  1.00  0.00    -0.269 OA
BRANCH  30  33
ATOM     33  C   UNL A   1      35.510  30.077  28.147  1.00  0.00     0.039 A 
ATOM     34  C   UNL A   1      36.458  30.081  27.119  1.00  0.00     0.014 A 
ATOM     35  C   UNL A   1      35.870  29.648  29.428  1.00  0.00     0.014 A 
ATOM     36  C   UNL A   1      37.783  29.737  27.395  1.00  0.00     0.010 A 
ATOM     37  C   UNL A   1      37.203  29.364  29.715  1.00  0.00     0.010 A 
ATOM     38  C   UNL A   1      38.178  29.422  28.705  1.00  0.00    -0.014 A 
BRANCH  38  39
ATOM     39  C   UNL A   1      39.606  29.193  29.050  1.00  0.00     0.031 A 
ATOM     40  C   UNL A   1      40.247  27.857  28.792  1.00  0.00     0.074 A 
ATOM     41  C   UNL A   1      40.305  30.166  29.668  1.00  0.00     0.049 A 
ATOM     42  N   UNL A   1      41.443  27.440  29.121  1.00  0.00    -0.248 NA
ATOM     43  C   UNL A   1      39.431  26.851  28.091  1.00  0.00     0.031 C 
ATOM     44  C   UNL A   1      39.789  31.496  30.007  1.00  0.00     0.029 A 
ATOM     45  N   UNL A   1      41.596  30.184  30.138  1.00  0.00    -0.354 N 
ATOM     46  C   UNL A   1      41.523  26.127  28.674  1.00  0.00     0.074 A 
ATOM     47  C   UNL A   1      40.237  25.799  28.094  1.00  0.00     0.031 C 
ATOM     48  C   UNL A   1      40.755  32.199  30.622  1.00  0.00     0.029 A 
ATOM     49  C   UNL A   1      41.941  31.360  30.761  1.00  0.00     0.049 A 
ATOM     50  H   UNL A   1      42.215  29.425  30.037  1.00  0.00     0.167 HD
ATOM     51  C   UNL A   1      42.576  25.275  28.724  1.00  0.00     0.031 A 
ATOM     52  C   UNL A   1      43.075  31.720  31.394  1.00  0.00     0.031 A 
ATOM     53  C   UNL A   1      43.854  25.600  29.301  1.00  0.00     0.049 A 
ATOM     54  C   UNL A   1      44.219  30.745  31.466  1.00  0.00     0.074 A 
ATOM     55  C   UNL A   1      44.991  24.814  29.368  1.00  0.00     0.029 A 
ATOM     56  N   UNL A   1      44.167  26.806  29.909  1.00  0.00    -0.354 N 
ATOM     57  N   UNL A   1      44.291  29.525  30.991  1.00  0.00    -0.248 NA
ATOM     58  C   UNL A   1      45.436  31.197  32.155  1.00  0.00     0.031 C 
ATOM     59  C   UNL A   1      45.977  25.528  30.057  1.00  0.00     0.029 A 
ATOM     60  C   UNL A   1      45.472  26.779  30.372  1.00  0.00     0.049 A 
ATOM     61  H   UNL A   1      43.551  27.570  29.999  1.00  0.00     0.167 HD
ATOM     62  C   UNL A   1      45.567  29.071  31.307  1.00  0.00     0.074 A 
ATOM     63  C   UNL A   1      46.239  30.153  31.995  1.00  0.00     0.031 C 
ATOM     64  C   UNL A   1      46.129  27.864  31.054  1.00  0.00     0.031 A 
BRANCH  51  65
ATOM     65  C   UNL A   1      42.392  23.905  28.130  1.00  0.00    -0.014 A 
ATOM     66  C   UNL A   1      41.460  23.004  28.679  1.00  0.00     0.010 A 
ATOM     67  C   UNL A   1      43.112  23.530  26.982  1.00  0.00     0.010 A 
ATOM     68  C   UNL A   1      41.278  21.741  28.111  1.00  0.00     0.020 A 
ATOM     69  C   UNL A   1      42.914  22.276  26.395  1.00  0.00     0.020 A 
ATOM     70  C   UNL A   1      42.008  21.383  26.974  1.00  0.00     0.054 A 
BRANCH  70  71
ATOM     71  S   UNL A   1      41.730  19.747  26.243  1.00  0.00     0.124 S 
ATOM     72  O   UNL A   1      42.255  18.861  27.280  1.00  0.00    -0.237 OA
ATOM     73  O   UNL A   1      40.280  19.716  26.067  1.00  0.00    -0.237 OA
ATOM     74  O   UNL A   1      42.504  19.782  25.005  1.00  0.00    -0.744 OA
ENDBRANCH  70  71
ENDBRANCH  51  65
BRANCH  52  75
ATOM     75  C   UNL A   1      43.181  33.062  32.030  1.00  0.00    -0.014 A 
ATOM     76  C   UNL A   1      43.034  33.211  33.421  1.00  0.00     0.010 A 
ATOM     77  C   UNL A   1      43.421  34.203  31.242  1.00  0.00     0.010 A 
ATOM     78  C   UNL A   1      43.097  34.478  34.007  1.00  0.00     0.020 A 
ATOM     79  C   UNL A   1      43.514  35.468  31.828  1.00  0.00     0.020 A 
ATOM     80  C   UNL A   1      43.335  35.599  33.206  1.00  0.00     0.054 A 
BRANCH  80  81
ATOM     81  S   UNL A   1      43.443  37.231  33.992  1.00  0.00     0.124 S 
ATOM     82  O   UNL A   1      44.481  37.016  34.995  1.00  0.00    -0.237 OA
ATOM     83  O   UNL A   1      43.811  38.098  32.875  1.00  0.00    -0.237 OA
ATOM     84  O   UNL A   1      42.096  37.445  34.519  1.00  0.00    -0.744 OA
ENDBRANCH  80  81
ENDBRANCH  52  75
BRANCH  64  85
ATOM     85  C   UNL A   1      47.549  27.651  31.502  1.00  0.00    -0.014 A 
ATOM     86  C   UNL A   1      48.631  28.004  30.676  1.00  0.00     0.010 A 
ATOM     87  C   UNL A   1      47.804  27.158  32.795  1.00  0.00     0.010 A 
ATOM     88  C   UNL A   1      49.944  27.848  31.128  1.00  0.00     0.020 A 
ATOM     89  C   UNL A   1      49.115  27.023  33.259  1.00  0.00     0.020 A 
ATOM     90  C   UNL A   1      50.179  27.361  32.418  1.00  0.00     0.054 A 
BRANCH  90  91
ATOM     91  S   UNL A   1      51.890  27.228  33.003  1.00  0.00     0.124 S 
ATOM     92  O   UNL A   1      52.413  28.562  32.724  1.00  0.00    -0.237 OA
ATOM     93  O   UNL A   1      51.720  26.903  34.418  1.00  0.00    -0.237 OA
ATOM     94  O   UNL A   1      52.454  26.154  32.188  1.00  0.00    -0.744 OA
ENDBRANCH  90  91
ENDBRANCH  64  85
ENDBRANCH  38  39
ENDBRANCH  30  33
ENDBRANCH  28  29
ENDBRANCH  27  28
ENDBRANCH   1  27
TORSDOF 19
ENDMDL
MODEL 3
REMARK VINA RESULT:     -10.5      2.884      4.317
REMARK SMILES CCc1cc(OCC(=O)NCCCCNC(=O)c2ccc(-c3c4nc(c(-c5ccc(S(=O)(=O)[O-])cc5)c5ccc([nH]5)c(-c5ccc(S(=O)(=O)[O-])cc5)c5nc(c(-c6ccc(S(=O)(=O)[O-])cc6)c6ccc3[nH]6)C=C5)C=C4)cc2)nc(Nc2ccc(C)c(F)c2)n1
REMARK SMILES IDX 12 1 11 2 10 3 8 4 9 5 7 7 6 8 5 9 3 10 4 11 89 12 79 13
REMARK SMILES IDX 78 14 2 15 1 16 80 17 81 19 82 20 88 21 83 22 86 23 84 24
REMARK SMILES IDX 87 25 85 26 13 27 14 28 15 29 16 30 17 32 18 33 19 34 77 35
REMARK SMILES IDX 20 36 76 37 21 38 22 39 23 40 70 41 24 42 75 43 69 44 71 45
REMARK SMILES IDX 25 46 74 47 68 48 67 49 26 51 56 52 37 53 55 54 38 55 41 56
REMARK SMILES IDX 54 57 72 58 39 59 40 60 53 62 73 63 42 64 27 65 28 66 36 67
REMARK SMILES IDX 29 68 35 69 30 70 31 71 32 72 33 73 34 74 57 75 58 76 66 77
REMARK SMILES IDX 59 78 65 79 60 80 61 81 62 82 63 83 64 84 43 85 44 86 52 87
REMARK SMILES IDX 45 88 51 89 46 90 47 91 48 92 49 93 50 94
REMARK H PARENT 10 6 80 18 15 31 71 50 41 61
REMARK Flexibility Score: inf
ROOT
ATOM      1  C   UNL A   1      32.633  26.362  25.821  1.00  0.00     0.023 C 
ENDROOT
BRANCH   1   2
ATOM      2  C   UNL A   1      31.200  25.948  25.494  1.00  0.00     0.116 C 
BRANCH   2   3
ATOM      3  N   UNL A   1      30.623  25.090  26.512  1.00  0.00    -0.353 N 
ATOM      4  C   UNL A   1      30.562  23.729  26.536  1.00  0.00     0.258 C 
ATOM      5  O   UNL A   1      30.057  23.168  27.511  1.00  0.00    -0.271 OA
ATOM      6  H   UNL A   1      30.225  25.551  27.284  1.00  0.00     0.163 HD
BRANCH   4   7
ATOM      7  C   UNL A   1      31.139  22.916  25.368  1.00  0.00     0.331 C 
BRANCH   7   8
ATOM      8  O   UNL A   1      31.222  21.513  25.535  1.00  0.00    -0.467 OA
BRANCH   8   9
ATOM      9  C   UNL A   1      32.398  20.896  25.211  1.00  0.00     0.218 A 
ATOM     10  C   UNL A   1      33.827  19.106  24.738  1.00  0.00     0.050 A 
ATOM     11  C   UNL A   1      32.594  19.535  25.174  1.00  0.00     0.092 A 
ATOM     12  N   UNL A   1      34.802  19.971  24.414  1.00  0.00    -0.218 NA
ATOM     13  C   UNL A   1      34.555  21.283  24.538  1.00  0.00     0.230 A 
ATOM     14  N   UNL A   1      33.374  21.777  24.929  1.00  0.00    -0.177 NA
BRANCH  10  15
ATOM     15  C   UNL A   1      34.150  17.640  24.628  1.00  0.00     0.053 C 
ATOM     16  C   UNL A   1      33.543  16.994  23.390  1.00  0.00     0.011 C 
ENDBRANCH  10  15
BRANCH  13  17
ATOM     17  N   UNL A   1      35.585  22.200  24.352  1.00  0.00    -0.324 N 
ATOM     18  H   UNL A   1      35.497  22.783  23.563  1.00  0.00     0.170 HD
BRANCH  17  19
ATOM     19  C   UNL A   1      36.727  22.413  25.130  1.00  0.00     0.044 A 
ATOM     20  C   UNL A   1      37.700  21.408  25.226  1.00  0.00     0.026 A 
ATOM     21  C   UNL A   1      36.990  23.647  25.733  1.00  0.00     0.065 A 
ATOM     22  C   UNL A   1      38.907  21.634  25.899  1.00  0.00     0.008 A 
ATOM     23  C   UNL A   1      38.181  23.861  26.421  1.00  0.00     0.128 A 
ATOM     24  C   UNL A   1      39.156  22.867  26.509  1.00  0.00    -0.015 A 
ATOM     25  F   UNL A   1      38.387  25.055  26.996  1.00  0.00    -0.207 F 
ATOM     26  C   UNL A   1      40.460  23.126  27.200  1.00  0.00     0.047 C 
ENDBRANCH  17  19
ENDBRANCH  13  17
ENDBRANCH   8   9
ENDBRANCH   7   8
ENDBRANCH   4   7
ENDBRANCH   2   3
ENDBRANCH   1   2
BRANCH   1  27
ATOM     27  C   UNL A   1      32.772  27.634  26.662  1.00  0.00     0.023 C 
BRANCH  27  28
ATOM     28  C   UNL A   1      34.025  28.471  26.412  1.00  0.00     0.116 C 
BRANCH  28  29
ATOM     29  N   UNL A   1      33.851  29.879  26.733  1.00  0.00    -0.352 N 
ATOM     30  C   UNL A   1      34.626  30.695  27.523  1.00  0.00     0.251 C 
ATOM     31  H   UNL A   1      33.065  30.310  26.326  1.00  0.00     0.163 HD
ATOM     32  O   UNL A   1      34.260  31.844  27.760  1.00  0.00    -0.269 OA
BRANCH  30  33
ATOM     33  C   UNL A   1      35.878  30.180  28.120  1.00  0.00     0.039 A 
ATOM     34  C   UNL A   1      37.076  30.344  27.418  1.00  0.00     0.014 A 
ATOM     35  C   UNL A   1      35.882  29.556  29.372  1.00  0.00     0.014 A 
ATOM     36  C   UNL A   1      38.284  29.964  28.006  1.00  0.00     0.010 A 
ATOM     37  C   UNL A   1      37.092  29.233  29.981  1.00  0.00     0.010 A 
ATOM     38  C   UNL A   1      38.307  29.449  29.312  1.00  0.00    -0.014 A 
BRANCH  38  39
ATOM     39  C   UNL A   1      39.589  29.171  30.012  1.00  0.00     0.031 A 
ATOM     40  C   UNL A   1      39.982  29.965  31.228  1.00  0.00     0.074 A 
ATOM     41  C   UNL A   1      40.439  28.254  29.504  1.00  0.00     0.049 A 
ATOM     42  N   UNL A   1      41.103  29.936  31.904  1.00  0.00    -0.248 NA
ATOM     43  C   UNL A   1      38.995  30.929  31.740  1.00  0.00     0.031 C 
ATOM     44  C   UNL A   1      40.193  27.442  28.309  1.00  0.00     0.029 A 
ATOM     45  N   UNL A   1      41.689  27.862  29.918  1.00  0.00    -0.354 N 
ATOM     46  C   UNL A   1      40.960  30.879  32.914  1.00  0.00     0.074 A 
ATOM     47  C   UNL A   1      39.663  31.497  32.735  1.00  0.00     0.031 C 
ATOM     48  C   UNL A   1      41.253  26.646  28.092  1.00  0.00     0.029 A 
ATOM     49  C   UNL A   1      42.270  26.920  29.103  1.00  0.00     0.049 A 
ATOM     50  H   UNL A   1      42.126  28.224  30.723  1.00  0.00     0.167 HD
ATOM     51  C   UNL A   1      41.821  31.189  33.914  1.00  0.00     0.031 A 
ATOM     52  C   UNL A   1      43.492  26.353  29.147  1.00  0.00     0.031 A 
ATOM     53  C   UNL A   1      43.110  30.575  34.093  1.00  0.00     0.049 A 
ATOM     54  C   UNL A   1      44.443  26.739  30.247  1.00  0.00     0.074 A 
ATOM     55  C   UNL A   1      44.038  30.801  35.095  1.00  0.00     0.029 A 
ATOM     56  N   UNL A   1      43.655  29.616  33.254  1.00  0.00    -0.354 N 
ATOM     57  N   UNL A   1      44.267  27.596  31.223  1.00  0.00    -0.248 NA
ATOM     58  C   UNL A   1      45.756  26.077  30.253  1.00  0.00     0.031 C 
ATOM     59  C   UNL A   1      45.163  30.011  34.836  1.00  0.00     0.029 A 
ATOM     60  C   UNL A   1      44.914  29.254  33.703  1.00  0.00     0.049 A 
ATOM     61  H   UNL A   1      43.212  29.245  32.456  1.00  0.00     0.167 HD
ATOM     62  C   UNL A   1      45.440  27.563  31.971  1.00  0.00     0.074 A 
ATOM     63  C   UNL A   1      46.308  26.587  31.346  1.00  0.00     0.031 C 
ATOM     64  C   UNL A   1      45.768  28.280  33.073  1.00  0.00     0.031 A 
BRANCH  51  65
ATOM     65  C   UNL A   1      41.391  32.241  34.901  1.00  0.00    -0.014 A 
ATOM     66  C   UNL A   1      40.715  31.885  36.082  1.00  0.00     0.010 A 
ATOM     67  C   UNL A   1      41.711  33.592  34.676  1.00  0.00     0.010 A 
ATOM     68  C   UNL A   1      40.337  32.864  37.004  1.00  0.00     0.020 A 
ATOM     69  C   UNL A   1      41.356  34.572  35.609  1.00  0.00     0.020 A 
ATOM     70  C   UNL A   1      40.656  34.202  36.760  1.00  0.00     0.054 A 
BRANCH  70  71
ATOM     71  S   UNL A   1      40.176  35.447  37.989  1.00  0.00     0.124 S 
ATOM     72  O   UNL A   1      41.350  35.478  38.859  1.00  0.00    -0.237 OA
ATOM     73  O   UNL A   1      39.970  36.641  37.172  1.00  0.00    -0.237 OA
ATOM     74  O   UNL A   1      38.968  34.892  38.593  1.00  0.00    -0.744 OA
ENDBRANCH  70  71
ENDBRANCH  51  65
BRANCH  52  75
ATOM     75  C   UNL A   1      43.896  25.371  28.103  1.00  0.00    -0.014 A 
ATOM     76  C   UNL A   1      43.777  23.989  28.333  1.00  0.00     0.010 A 
ATOM     77  C   UNL A   1      44.412  25.818  26.872  1.00  0.00     0.010 A 
ATOM     78  C   UNL A   1      44.193  23.072  27.363  1.00  0.00     0.020 A 
ATOM     79  C   UNL A   1      44.802  24.905  25.889  1.00  0.00     0.020 A 
ATOM     80  C   UNL A   1      44.704  23.536  26.147  1.00  0.00     0.054 A 
BRANCH  80  81
ATOM     81  S   UNL A   1      45.211  22.329  24.891  1.00  0.00     0.124 S 
ATOM     82  O   UNL A   1      45.718  23.191  23.829  1.00  0.00    -0.237 OA
ATOM     83  O   UNL A   1      46.215  21.537  25.598  1.00  0.00    -0.237 OA
ATOM     84  O   UNL A   1      43.971  21.617  24.584  1.00  0.00    -0.744 OA
ENDBRANCH  80  81
ENDBRANCH  52  75
BRANCH  64  85
ATOM     85  C   UNL A   1      47.115  28.024  33.692  1.00  0.00    -0.014 A 
ATOM     86  C   UNL A   1      47.291  27.015  34.655  1.00  0.00     0.010 A 
ATOM     87  C   UNL A   1      48.233  28.756  33.252  1.00  0.00     0.010 A 
ATOM     88  C   UNL A   1      48.559  26.756  35.183  1.00  0.00     0.020 A 
ATOM     89  C   UNL A   1      49.506  28.483  33.760  1.00  0.00     0.020 A 
ATOM     90  C   UNL A   1      49.659  27.490  34.730  1.00  0.00     0.054 A 
BRANCH  90  91
ATOM     91  S   UNL A   1      51.303  27.091  35.384  1.00  0.00     0.124 S 
ATOM     92  O   UNL A   1      51.627  28.293  36.146  1.00  0.00    -0.237 OA
ATOM     93  O   UNL A   1      51.049  25.892  36.179  1.00  0.00    -0.237 OA
ATOM     94  O   UNL A   1      52.112  26.876  34.186  1.00  0.00    -0.744 OA
ENDBRANCH  90  91
ENDBRANCH  64  85
ENDBRANCH  38  39
ENDBRANCH  30  33
ENDBRANCH  28  29
ENDBRANCH  27  28
ENDBRANCH   1  27
TORSDOF 19
ENDMDL
