MODEL 1
REMARK VINA RESULT:      -9.6      0.000      0.000
REMARK SMILES O=C(NCCCCNC(=O)c1ccc(-c2ccn(C(F)F)c(=O)c2)cc1O)c1ccc(-c2c3nc(c(-c4ccc(S(=O)(=O)[O-])cc4)c4ccc([nH]4)c(-c4ccc(S(=O)(=O)[O-])cc4)c4nc(c(-c5ccc(S(=O)(=O)[O-])cc5)c5ccc2[nH]5)C=C4)C=C3)cc1
REMARK SMILES IDX 5 1 4 2 3 3 1 4 2 5 28 7 29 8 87 9 30 10 86 11 31 12 32 13
REMARK SMILES IDX 33 14 80 15 34 16 85 17 79 18 81 19 35 20 84 21 78 22 77 23
REMARK SMILES IDX 36 25 66 26 47 27 65 28 48 29 51 30 64 31 82 32 49 33 50 34
REMARK SMILES IDX 63 36 83 37 52 38 37 39 38 40 46 41 39 42 45 43 40 44 41 45
REMARK SMILES IDX 42 46 43 47 44 48 67 49 68 50 76 51 69 52 75 53 70 54 71 55
REMARK SMILES IDX 72 56 73 57 74 58 53 59 54 60 62 61 55 62 61 63 56 64 57 65
REMARK SMILES IDX 58 66 59 67 60 68 6 69 7 70 8 71 9 72 10 74 11 75 12 76
REMARK SMILES IDX 26 77 13 78 25 79 14 80 27 81 15 83 16 84 24 85 17 86 22 87
REMARK SMILES IDX 18 88 23 89 19 90 20 91 21 92
REMARK H PARENT 3 6 81 24 51 35 8 73 27 82
REMARK Flexibility Score: inf
ROOT
ATOM      1  C   UNL A   1      42.024  22.184  26.565  1.00  0.00     0.023 C 
ENDROOT
BRANCH   1   2
ATOM      2  C   UNL A   1      40.821  21.386  27.059  1.00  0.00     0.116 C 
BRANCH   2   3
ATOM      3  N   UNL A   1      39.640  21.608  26.242  1.00  0.00    -0.352 N 
ATOM      4  O   UNL A   1      37.745  22.603  25.564  1.00  0.00    -0.269 OA
ATOM      5  C   UNL A   1      38.809  22.698  26.172  1.00  0.00     0.251 C 
ATOM      6  H   UNL A   1      39.399  20.862  25.647  1.00  0.00     0.163 HD
BRANCH   5   7
ATOM      7  C   UNL A   1      39.179  23.980  26.813  1.00  0.00     0.039 A 
ATOM      8  C   UNL A   1      39.859  24.941  26.055  1.00  0.00     0.014 A 
ATOM      9  C   UNL A   1      38.939  24.207  28.170  1.00  0.00     0.014 A 
ATOM     10  C   UNL A   1      40.282  26.133  26.653  1.00  0.00     0.010 A 
ATOM     11  C   UNL A   1      39.303  25.421  28.749  1.00  0.00     0.010 A 
ATOM     12  C   UNL A   1      40.007  26.381  28.005  1.00  0.00    -0.014 A 
BRANCH  12  13
ATOM     13  C   UNL A   1      40.537  27.579  28.705  1.00  0.00     0.031 A 
ATOM     14  C   UNL A   1      39.630  28.766  28.901  1.00  0.00     0.074 A 
ATOM     15  C   UNL A   1      41.820  27.633  29.113  1.00  0.00     0.049 A 
ATOM     16  N   UNL A   1      39.924  29.965  29.328  1.00  0.00    -0.248 NA
ATOM     17  C   UNL A   1      38.209  28.585  28.554  1.00  0.00     0.031 C 
ATOM     18  C   UNL A   1      42.792  26.546  28.995  1.00  0.00     0.029 A 
ATOM     19  N   UNL A   1      42.532  28.653  29.698  1.00  0.00    -0.354 N 
ATOM     20  C   UNL A   1      38.736  30.684  29.277  1.00  0.00     0.074 A 
ATOM     21  C   UNL A   1      37.723  29.805  28.743  1.00  0.00     0.031 C 
ATOM     22  C   UNL A   1      43.970  26.955  29.494  1.00  0.00     0.029 A 
ATOM     23  C   UNL A   1      43.856  28.348  29.919  1.00  0.00     0.049 A 
ATOM     24  H   UNL A   1      42.132  29.521  29.937  1.00  0.00     0.167 HD
ATOM     25  C   UNL A   1      38.508  31.960  29.661  1.00  0.00     0.031 A 
ATOM     26  C   UNL A   1      44.869  29.109  30.386  1.00  0.00     0.031 A 
ATOM     27  C   UNL A   1      39.510  32.814  30.239  1.00  0.00     0.049 A 
ATOM     28  C   UNL A   1      44.597  30.536  30.784  1.00  0.00     0.074 A 
ATOM     29  C   UNL A   1      39.358  34.110  30.700  1.00  0.00     0.029 A 
ATOM     30  N   UNL A   1      40.831  32.459  30.455  1.00  0.00    -0.354 N 
ATOM     31  N   UNL A   1      43.463  31.195  30.745  1.00  0.00    -0.248 NA
ATOM     32  C   UNL A   1      45.730  31.326  31.289  1.00  0.00     0.031 C 
ATOM     33  C   UNL A   1      40.601  34.559  31.141  1.00  0.00     0.029 A 
ATOM     34  C   UNL A   1      41.511  33.521  31.023  1.00  0.00     0.049 A 
ATOM     35  H   UNL A   1      41.226  31.585  30.237  1.00  0.00     0.167 HD
ATOM     36  C   UNL A   1      43.742  32.464  31.241  1.00  0.00     0.074 A 
ATOM     37  C   UNL A   1      45.147  32.483  31.584  1.00  0.00     0.031 C 
ATOM     38  C   UNL A   1      42.905  33.519  31.390  1.00  0.00     0.031 A 
BRANCH  25  39
ATOM     39  C   UNL A   1      37.122  32.527  29.515  1.00  0.00    -0.014 A 
ATOM     40  C   UNL A   1      36.699  33.017  28.266  1.00  0.00     0.010 A 
ATOM     41  C   UNL A   1      36.314  32.737  30.645  1.00  0.00     0.010 A 
ATOM     42  C   UNL A   1      35.519  33.757  28.157  1.00  0.00     0.020 A 
ATOM     43  C   UNL A   1      35.119  33.453  30.537  1.00  0.00     0.020 A 
ATOM     44  C   UNL A   1      34.746  33.985  29.299  1.00  0.00     0.054 A 
BRANCH  44  45
ATOM     45  S   UNL A   1      33.263  35.019  29.156  1.00  0.00     0.124 S 
ATOM     46  O   UNL A   1      32.477  34.293  28.163  1.00  0.00    -0.237 OA
ATOM     47  O   UNL A   1      32.733  35.003  30.517  1.00  0.00    -0.237 OA
ATOM     48  O   UNL A   1      33.787  36.310  28.718  1.00  0.00    -0.744 OA
ENDBRANCH  44  45
ENDBRANCH  25  39
BRANCH  26  49
ATOM     49  C   UNL A   1      46.235  28.522  30.496  1.00  0.00    -0.014 A 
ATOM     50  C   UNL A   1      47.177  28.718  29.468  1.00  0.00     0.010 A 
ATOM     51  C   UNL A   1      46.587  27.720  31.595  1.00  0.00     0.010 A 
ATOM     52  C   UNL A   1      48.424  28.088  29.512  1.00  0.00     0.020 A 
ATOM     53  C   UNL A   1      47.846  27.112  31.659  1.00  0.00     0.020 A 
ATOM     54  C   UNL A   1      48.746  27.278  30.604  1.00  0.00     0.054 A 
BRANCH  54  55
ATOM     55  S   UNL A   1      50.356  26.443  30.626  1.00  0.00     0.124 S 
ATOM     56  O   UNL A   1      50.779  26.574  29.234  1.00  0.00    -0.237 OA
ATOM     57  O   UNL A   1      51.115  27.234  31.592  1.00  0.00    -0.237 OA
ATOM     58  O   UNL A   1      50.031  25.086  31.057  1.00  0.00    -0.744 OA
ENDBRANCH  54  55
ENDBRANCH  26  49
BRANCH  38  59
ATOM     59  C   UNL A   1      43.439  34.804  31.964  1.00  0.00    -0.014 A 
ATOM     60  C   UNL A   1      43.378  35.015  33.356  1.00  0.00     0.010 A 
ATOM     61  C   UNL A   1      43.774  35.875  31.120  1.00  0.00     0.010 A 
ATOM     62  C   UNL A   1      43.572  36.292  33.886  1.00  0.00     0.020 A 
ATOM     63  C   UNL A   1      43.996  37.149  31.651  1.00  0.00     0.020 A 
ATOM     64  C   UNL A   1      43.856  37.356  33.026  1.00  0.00     0.054 A 
BRANCH  64  65
ATOM     65  S   UNL A   1      43.992  39.027  33.721  1.00  0.00     0.124 S 
ATOM     66  O   UNL A   1      43.703  38.797  35.133  1.00  0.00    -0.237 OA
ATOM     67  O   UNL A   1      45.372  39.392  33.411  1.00  0.00    -0.237 OA
ATOM     68  O   UNL A   1      42.976  39.785  32.993  1.00  0.00    -0.744 OA
ENDBRANCH  64  65
ENDBRANCH  38  59
ENDBRANCH  12  13
ENDBRANCH   5   7
ENDBRANCH   2   3
ENDBRANCH   1   2
BRANCH   1  69
ATOM     69  C   UNL A   1      42.751  23.000  27.635  1.00  0.00     0.023 C 
BRANCH  69  70
ATOM     70  C   UNL A   1      44.258  23.132  27.443  1.00  0.00     0.116 C 
BRANCH  70  71
ATOM     71  N   UNL A   1      44.667  22.924  26.065  1.00  0.00    -0.352 N 
ATOM     72  C   UNL A   1      45.025  23.867  25.133  1.00  0.00     0.255 C 
ATOM     73  H   UNL A   1      44.692  21.988  25.760  1.00  0.00     0.163 HD
ATOM     74  O   UNL A   1      45.288  23.536  23.979  1.00  0.00    -0.269 OA
BRANCH  72  75
ATOM     75  C   UNL A   1      45.015  25.300  25.488  1.00  0.00     0.081 A 
ATOM     76  C   UNL A   1      46.125  25.799  26.179  1.00  0.00     0.018 A 
ATOM     77  C   UNL A   1      43.947  26.147  25.178  1.00  0.00     0.128 A 
ATOM     78  C   UNL A   1      46.188  27.154  26.516  1.00  0.00     0.010 A 
ATOM     79  C   UNL A   1      44.015  27.501  25.502  1.00  0.00     0.055 A 
ATOM     80  C   UNL A   1      45.139  28.016  26.170  1.00  0.00    -0.014 A 
BRANCH  77  81
ATOM     81  O   UNL A   1      42.833  25.661  24.553  1.00  0.00    -0.507 OA
ATOM     82  H   UNL A   1      42.837  25.527  23.625  1.00  0.00     0.293 HD
ENDBRANCH  77  81
BRANCH  80  83
ATOM     83  C   UNL A   1      45.171  29.453  26.506  1.00  0.00    -0.011 A 
ATOM     84  C   UNL A   1      43.997  30.155  26.988  1.00  0.00     0.027 A 
ATOM     85  C   UNL A   1      46.306  30.145  26.302  1.00  0.00     0.080 A 
ATOM     86  C   UNL A   1      44.024  31.478  27.180  1.00  0.00     0.095 A 
ATOM     87  C   UNL A   1      46.360  31.616  26.538  1.00  0.00     0.255 A 
ATOM     88  N   UNL A   1      45.176  32.205  26.949  1.00  0.00    -0.258 N 
ATOM     89  O   UNL A   1      47.420  32.202  26.345  1.00  0.00    -0.269 OA
BRANCH  88  90
ATOM     90  C   UNL A   1      45.182  33.635  27.127  1.00  0.00     0.451 C 
ATOM     91  F   UNL A   1      43.962  34.167  26.874  1.00  0.00    -0.185 F 
ATOM     92  F   UNL A   1      45.532  33.966  28.393  1.00  0.00    -0.185 F 
ENDBRANCH  88  90
ENDBRANCH  80  83
ENDBRANCH  72  75
ENDBRANCH  70  71
ENDBRANCH  69  70
ENDBRANCH   1  69
TORSDOF 17
ENDMDL
MODEL 2
REMARK VINA RESULT:      -9.4      5.470     11.257
REMARK SMILES O=C(NCCCCNC(=O)c1ccc(-c2ccn(C(F)F)c(=O)c2)cc1O)c1ccc(-c2c3nc(c(-c4ccc(S(=O)(=O)[O-])cc4)c4ccc([nH]4)c(-c4ccc(S(=O)(=O)[O-])cc4)c4nc(c(-c5ccc(S(=O)(=O)[O-])cc5)c5ccc2[nH]5)C=C4)C=C3)cc1
REMARK SMILES IDX 5 1 4 2 3 3 1 4 2 5 28 7 29 8 87 9 30 10 86 11 31 12 32 13
REMARK SMILES IDX 33 14 80 15 34 16 85 17 79 18 81 19 35 20 84 21 78 22 77 23
REMARK SMILES IDX 36 25 66 26 47 27 65 28 48 29 51 30 64 31 82 32 49 33 50 34
REMARK SMILES IDX 63 36 83 37 52 38 37 39 38 40 46 41 39 42 45 43 40 44 41 45
REMARK SMILES IDX 42 46 43 47 44 48 67 49 68 50 76 51 69 52 75 53 70 54 71 55
REMARK SMILES IDX 72 56 73 57 74 58 53 59 54 60 62 61 55 62 61 63 56 64 57 65
REMARK SMILES IDX 58 66 59 67 60 68 6 69 7 70 8 71 9 72 10 74 11 75 12 76
REMARK SMILES IDX 26 77 13 78 25 79 14 80 27 81 15 83 16 84 24 85 17 86 22 87
REMARK SMILES IDX 18 88 23 89 19 90 20 91 21 92
REMARK H PARENT 3 6 81 24 51 35 8 73 27 82
REMARK Flexibility Score: inf
ROOT
ATOM      1  C   UNL A   1      32.304  28.178  27.152  1.00  0.00     0.023 C 
ENDROOT
BRANCH   1   2
ATOM      2  C   UNL A   1      33.715  28.757  27.191  1.00  0.00     0.116 C 
BRANCH   2   3
ATOM      3  N   UNL A   1      33.740  30.114  27.709  1.00  0.00    -0.352 N 
ATOM      4  O   UNL A   1      34.450  31.850  28.943  1.00  0.00    -0.269 OA
ATOM      5  C   UNL A   1      34.713  30.767  28.423  1.00  0.00     0.251 C 
ATOM      6  H   UNL A   1      32.935  30.648  27.518  1.00  0.00     0.163 HD
BRANCH   5   7
ATOM      7  C   UNL A   1      36.068  30.189  28.571  1.00  0.00     0.039 A 
ATOM      8  C   UNL A   1      36.450  29.675  29.815  1.00  0.00     0.014 A 
ATOM      9  C   UNL A   1      36.989  30.227  27.522  1.00  0.00     0.014 A 
ATOM     10  C   UNL A   1      37.747  29.186  30.003  1.00  0.00     0.010 A 
ATOM     11  C   UNL A   1      38.260  29.681  27.691  1.00  0.00     0.010 A 
ATOM     12  C   UNL A   1      38.662  29.186  28.941  1.00  0.00    -0.014 A 
BRANCH  12  13
ATOM     13  C   UNL A   1      40.079  28.783  29.129  1.00  0.00     0.031 A 
ATOM     14  C   UNL A   1      41.063  29.804  29.637  1.00  0.00     0.074 A 
ATOM     15  C   UNL A   1      40.497  27.544  28.803  1.00  0.00     0.049 A 
ATOM     16  N   UNL A   1      42.365  29.725  29.715  1.00  0.00    -0.248 NA
ATOM     17  C   UNL A   1      40.511  31.091  30.099  1.00  0.00     0.031 C 
ATOM     18  C   UNL A   1      39.640  26.463  28.317  1.00  0.00     0.029 A 
ATOM     19  N   UNL A   1      41.754  26.989  28.819  1.00  0.00    -0.354 N 
ATOM     20  C   UNL A   1      42.787  30.953  30.211  1.00  0.00     0.074 A 
ATOM     21  C   UNL A   1      41.612  31.776  30.380  1.00  0.00     0.031 C 
ATOM     22  C   UNL A   1      40.394  25.376  28.083  1.00  0.00     0.029 A 
ATOM     23  C   UNL A   1      41.795  25.695  28.353  1.00  0.00     0.049 A 
ATOM     24  H   UNL A   1      42.552  27.473  29.135  1.00  0.00     0.167 HD
ATOM     25  C   UNL A   1      44.042  31.350  30.516  1.00  0.00     0.031 A 
ATOM     26  C   UNL A   1      42.840  24.867  28.140  1.00  0.00     0.031 A 
ATOM     27  C   UNL A   1      45.200  30.508  30.394  1.00  0.00     0.049 A 
ATOM     28  C   UNL A   1      44.233  25.341  28.463  1.00  0.00     0.074 A 
ATOM     29  C   UNL A   1      46.510  30.812  30.722  1.00  0.00     0.029 A 
ATOM     30  N   UNL A   1      45.192  29.203  29.930  1.00  0.00    -0.354 N 
ATOM     31  N   UNL A   1      44.612  26.500  28.947  1.00  0.00    -0.248 NA
ATOM     32  C   UNL A   1      45.341  24.405  28.218  1.00  0.00     0.031 C 
ATOM     33  C   UNL A   1      47.302  29.711  30.403  1.00  0.00     0.029 A 
ATOM     34  C   UNL A   1      46.478  28.696  29.943  1.00  0.00     0.049 A 
ATOM     35  H   UNL A   1      44.392  28.711  29.635  1.00  0.00     0.167 HD
ATOM     36  C   UNL A   1      45.994  26.422  29.085  1.00  0.00     0.074 A 
ATOM     37  C   UNL A   1      46.388  25.102  28.644  1.00  0.00     0.031 C 
ATOM     38  C   UNL A   1      46.856  27.367  29.531  1.00  0.00     0.031 A 
BRANCH  25  39
ATOM     39  C   UNL A   1      44.256  32.741  31.050  1.00  0.00    -0.014 A 
ATOM     40  C   UNL A   1      44.111  32.986  32.428  1.00  0.00     0.010 A 
ATOM     41  C   UNL A   1      44.420  33.825  30.173  1.00  0.00     0.010 A 
ATOM     42  C   UNL A   1      44.071  34.295  32.914  1.00  0.00     0.020 A 
ATOM     43  C   UNL A   1      44.408  35.135  30.657  1.00  0.00     0.020 A 
ATOM     44  C   UNL A   1      44.201  35.362  32.021  1.00  0.00     0.054 A 
BRANCH  44  45
ATOM     45  S   UNL A   1      44.061  37.055  32.657  1.00  0.00     0.124 S 
ATOM     46  O   UNL A   1      43.761  37.814  31.447  1.00  0.00    -0.237 OA
ATOM     47  O   UNL A   1      42.969  36.942  33.620  1.00  0.00    -0.237 OA
ATOM     48  O   UNL A   1      45.373  37.308  33.246  1.00  0.00    -0.744 OA
ENDBRANCH  44  45
ENDBRANCH  25  39
BRANCH  26  49
ATOM     49  C   UNL A   1      42.595  23.505  27.588  1.00  0.00    -0.014 A 
ATOM     50  C   UNL A   1      42.266  22.438  28.446  1.00  0.00     0.010 A 
ATOM     51  C   UNL A   1      42.742  23.249  26.213  1.00  0.00     0.010 A 
ATOM     52  C   UNL A   1      42.137  21.137  27.952  1.00  0.00     0.020 A 
ATOM     53  C   UNL A   1      42.583  21.953  25.709  1.00  0.00     0.020 A 
ATOM     54  C   UNL A   1      42.308  20.901  26.586  1.00  0.00     0.054 A 
BRANCH  54  55
ATOM     55  S   UNL A   1      42.168  19.201  25.970  1.00  0.00     0.124 S 
ATOM     56  O   UNL A   1      40.737  19.101  25.693  1.00  0.00    -0.237 OA
ATOM     57  O   UNL A   1      43.036  19.212  24.795  1.00  0.00    -0.237 OA
ATOM     58  O   UNL A   1      42.648  18.393  27.087  1.00  0.00    -0.744 OA
ENDBRANCH  54  55
ENDBRANCH  26  49
BRANCH  38  59
ATOM     59  C   UNL A   1      48.325  27.046  29.601  1.00  0.00    -0.014 A 
ATOM     60  C   UNL A   1      48.863  26.536  30.800  1.00  0.00     0.010 A 
ATOM     61  C   UNL A   1      49.194  27.465  28.581  1.00  0.00     0.010 A 
ATOM     62  C   UNL A   1      50.244  26.518  31.003  1.00  0.00     0.020 A 
ATOM     63  C   UNL A   1      50.579  27.423  28.771  1.00  0.00     0.020 A 
ATOM     64  C   UNL A   1      51.092  26.985  29.995  1.00  0.00     0.054 A 
BRANCH  64  65
ATOM     65  S   UNL A   1      52.875  27.060  30.322  1.00  0.00     0.124 S 
ATOM     66  O   UNL A   1      52.971  26.454  31.647  1.00  0.00    -0.237 OA
ATOM     67  O   UNL A   1      53.436  26.274  29.227  1.00  0.00    -0.237 OA
ATOM     68  O   UNL A   1      53.173  28.490  30.268  1.00  0.00    -0.744 OA
ENDBRANCH  64  65
ENDBRANCH  38  59
ENDBRANCH  12  13
ENDBRANCH   5   7
ENDBRANCH   2   3
ENDBRANCH   1   2
BRANCH   1  69
ATOM     69  C   UNL A   1      31.532  28.423  25.855  1.00  0.00     0.023 C 
BRANCH  69  70
ATOM     70  C   UNL A   1      31.199  27.173  25.048  1.00  0.00     0.116 C 
BRANCH  70  71
ATOM     71  N   UNL A   1      31.042  27.447  23.631  1.00  0.00    -0.352 N 
ATOM     72  C   UNL A   1      31.210  26.586  22.575  1.00  0.00     0.255 C 
ATOM     73  H   UNL A   1      30.781  28.367  23.397  1.00  0.00     0.163 HD
ATOM     74  O   UNL A   1      31.102  26.987  21.418  1.00  0.00    -0.269 OA
BRANCH  72  75
ATOM     75  C   UNL A   1      31.608  25.185  22.818  1.00  0.00     0.081 A 
ATOM     76  C   UNL A   1      30.663  24.343  23.417  1.00  0.00     0.018 A 
ATOM     77  C   UNL A   1      32.874  24.692  22.492  1.00  0.00     0.128 A 
ATOM     78  C   UNL A   1      30.968  22.998  23.645  1.00  0.00     0.010 A 
ATOM     79  C   UNL A   1      33.175  23.348  22.707  1.00  0.00     0.055 A 
ATOM     80  C   UNL A   1      32.222  22.490  23.281  1.00  0.00    -0.014 A 
BRANCH  77  81
ATOM     81  O   UNL A   1      33.825  25.516  21.957  1.00  0.00    -0.507 OA
ATOM     82  H   UNL A   1      33.943  25.554  21.029  1.00  0.00     0.293 HD
ENDBRANCH  77  81
BRANCH  80  83
ATOM     83  C   UNL A   1      32.580  21.075  23.503  1.00  0.00    -0.011 A 
ATOM     84  C   UNL A   1      33.431  20.661  24.603  1.00  0.00     0.027 A 
ATOM     85  C   UNL A   1      32.154  20.150  22.625  1.00  0.00     0.080 A 
ATOM     86  C   UNL A   1      33.829  19.390  24.716  1.00  0.00     0.095 A 
ATOM     87  C   UNL A   1      32.567  18.723  22.755  1.00  0.00     0.255 A 
ATOM     88  N   UNL A   1      33.420  18.434  23.807  1.00  0.00    -0.258 N 
ATOM     89  O   UNL A   1      32.146  17.914  21.934  1.00  0.00    -0.269 OA
BRANCH  88  90
ATOM     90  C   UNL A   1      33.884  17.075  23.921  1.00  0.00     0.451 C 
ATOM     91  F   UNL A   1      32.880  16.243  24.288  1.00  0.00    -0.185 F 
ATOM     92  F   UNL A   1      34.390  16.632  22.745  1.00  0.00    -0.185 F 
ENDBRANCH  88  90
ENDBRANCH  80  83
ENDBRANCH  72  75
ENDBRANCH  70  71
ENDBRANCH  69  70
ENDBRANCH   1  69
TORSDOF 17
ENDMDL
MODEL 3
REMARK VINA RESULT:      -9.2      4.447     10.903
REMARK SMILES O=C(NCCCCNC(=O)c1ccc(-c2ccn(C(F)F)c(=O)c2)cc1O)c1ccc(-c2c3nc(c(-c4ccc(S(=O)(=O)[O-])cc4)c4ccc([nH]4)c(-c4ccc(S(=O)(=O)[O-])cc4)c4nc(c(-c5ccc(S(=O)(=O)[O-])cc5)c5ccc2[nH]5)C=C4)C=C3)cc1
REMARK SMILES IDX 5 1 4 2 3 3 1 4 2 5 28 7 29 8 87 9 30 10 86 11 31 12 32 13
REMARK SMILES IDX 33 14 80 15 34 16 85 17 79 18 81 19 35 20 84 21 78 22 77 23
REMARK SMILES IDX 36 25 66 26 47 27 65 28 48 29 51 30 64 31 82 32 49 33 50 34
REMARK SMILES IDX 63 36 83 37 52 38 37 39 38 40 46 41 39 42 45 43 40 44 41 45
REMARK SMILES IDX 42 46 43 47 44 48 67 49 68 50 76 51 69 52 75 53 70 54 71 55
REMARK SMILES IDX 72 56 73 57 74 58 53 59 54 60 62 61 55 62 61 63 56 64 57 65
REMARK SMILES IDX 58 66 59 67 60 68 6 69 7 70 8 71 9 72 10 74 11 75 12 76
REMARK SMILES IDX 26 77 13 78 25 79 14 80 27 81 15 83 16 84 24 85 17 86 22 87
REMARK SMILES IDX 18 88 23 89 19 90 20 91 21 92
REMARK H PARENT 3 6 81 24 51 35 8 73 27 82
REMARK Flexibility Score: inf
ROOT
ATOM      1  C   UNL A   1      35.899  22.827  24.414  1.00  0.00     0.023 C 
ENDROOT
BRANCH   1   2
ATOM      2  C   UNL A   1      36.663  23.321  25.639  1.00  0.00     0.116 C 
BRANCH   2   3
ATOM      3  N   UNL A   1      37.766  22.442  25.992  1.00  0.00    -0.352 N 
ATOM      4  O   UNL A   1      39.870  21.865  26.520  1.00  0.00    -0.269 OA
ATOM      5  C   UNL A   1      39.011  22.744  26.481  1.00  0.00     0.251 C 
ATOM      6  H   UNL A   1      37.592  21.482  25.859  1.00  0.00     0.163 HD
BRANCH   5   7
ATOM      7  C   UNL A   1      39.331  24.107  26.964  1.00  0.00     0.039 A 
ATOM      8  C   UNL A   1      39.894  25.025  26.069  1.00  0.00     0.014 A 
ATOM      9  C   UNL A   1      39.161  24.459  28.305  1.00  0.00     0.014 A 
ATOM     10  C   UNL A   1      40.271  26.296  26.514  1.00  0.00     0.010 A 
ATOM     11  C   UNL A   1      39.476  25.747  28.733  1.00  0.00     0.010 A 
ATOM     12  C   UNL A   1      40.064  26.666  27.851  1.00  0.00    -0.014 A 
BRANCH  12  13
ATOM     13  C   UNL A   1      40.552  27.961  28.389  1.00  0.00     0.031 A 
ATOM     14  C   UNL A   1      41.995  28.076  28.808  1.00  0.00     0.074 A 
ATOM     15  C   UNL A   1      39.716  29.004  28.552  1.00  0.00     0.049 A 
ATOM     16  N   UNL A   1      42.590  29.043  29.453  1.00  0.00    -0.248 NA
ATOM     17  C   UNL A   1      42.879  26.944  28.475  1.00  0.00     0.031 C 
ATOM     18  C   UNL A   1      38.303  29.024  28.171  1.00  0.00     0.029 A 
ATOM     19  N   UNL A   1      39.929  30.248  29.097  1.00  0.00    -0.354 N 
ATOM     20  C   UNL A   1      43.906  28.628  29.623  1.00  0.00     0.074 A 
ATOM     21  C   UNL A   1      44.018  27.307  29.050  1.00  0.00     0.031 C 
ATOM     22  C   UNL A   1      37.779  30.219  28.490  1.00  0.00     0.029 A 
ATOM     23  C   UNL A   1      38.800  31.034  29.145  1.00  0.00     0.049 A 
ATOM     24  H   UNL A   1      40.809  30.550  29.422  1.00  0.00     0.167 HD
ATOM     25  C   UNL A   1      44.933  29.299  30.189  1.00  0.00     0.031 A 
ATOM     26  C   UNL A   1      38.600  32.257  29.679  1.00  0.00     0.031 A 
ATOM     27  C   UNL A   1      44.827  30.634  30.711  1.00  0.00     0.049 A 
ATOM     28  C   UNL A   1      39.754  32.976  30.328  1.00  0.00     0.074 A 
ATOM     29  C   UNL A   1      45.829  31.412  31.264  1.00  0.00     0.029 A 
ATOM     30  N   UNL A   1      43.669  31.394  30.727  1.00  0.00    -0.354 N 
ATOM     31  N   UNL A   1      40.996  32.576  30.464  1.00  0.00    -0.248 NA
ATOM     32  C   UNL A   1      39.491  34.308  30.894  1.00  0.00     0.031 C 
ATOM     33  C   UNL A   1      45.264  32.620  31.668  1.00  0.00     0.029 A 
ATOM     34  C   UNL A   1      43.927  32.625  31.302  1.00  0.00     0.049 A 
ATOM     35  H   UNL A   1      42.794  31.102  30.383  1.00  0.00     0.167 HD
ATOM     36  C   UNL A   1      41.663  33.613  31.108  1.00  0.00     0.074 A 
ATOM     37  C   UNL A   1      40.695  34.665  31.327  1.00  0.00     0.031 C 
ATOM     38  C   UNL A   1      42.962  33.679  31.487  1.00  0.00     0.031 A 
BRANCH  25  39
ATOM     39  C   UNL A   1      46.285  28.641  30.254  1.00  0.00    -0.014 A 
ATOM     40  C   UNL A   1      47.173  28.769  29.170  1.00  0.00     0.010 A 
ATOM     41  C   UNL A   1      46.599  27.757  31.300  1.00  0.00     0.010 A 
ATOM     42  C   UNL A   1      48.326  27.982  29.104  1.00  0.00     0.020 A 
ATOM     43  C   UNL A   1      47.764  26.989  31.251  1.00  0.00     0.020 A 
ATOM     44  C   UNL A   1      48.603  27.083  30.137  1.00  0.00     0.054 A 
BRANCH  44  45
ATOM     45  S   UNL A   1      50.058  26.009  29.993  1.00  0.00     0.124 S 
ATOM     46  O   UNL A   1      51.135  26.976  29.802  1.00  0.00    -0.237 OA
ATOM     47  O   UNL A   1      50.059  25.304  31.272  1.00  0.00    -0.237 OA
ATOM     48  O   UNL A   1      49.753  25.175  28.833  1.00  0.00    -0.744 OA
ENDBRANCH  44  45
ENDBRANCH  25  39
BRANCH  26  49
ATOM     49  C   UNL A   1      37.243  32.871  29.617  1.00  0.00    -0.014 A 
ATOM     50  C   UNL A   1      36.651  33.164  28.374  1.00  0.00     0.010 A 
ATOM     51  C   UNL A   1      36.558  33.218  30.795  1.00  0.00     0.010 A 
ATOM     52  C   UNL A   1      35.426  33.833  28.306  1.00  0.00     0.020 A 
ATOM     53  C   UNL A   1      35.315  33.860  30.732  1.00  0.00     0.020 A 
ATOM     54  C   UNL A   1      34.771  34.188  29.488  1.00  0.00     0.054 A 
BRANCH  54  55
ATOM     55  S   UNL A   1      33.197  35.084  29.378  1.00  0.00     0.124 S 
ATOM     56  O   UNL A   1      32.525  34.376  28.292  1.00  0.00    -0.237 OA
ATOM     57  O   UNL A   1      32.622  34.888  30.707  1.00  0.00    -0.237 OA
ATOM     58  O   UNL A   1      33.605  36.453  29.076  1.00  0.00    -0.744 OA
ENDBRANCH  54  55
ENDBRANCH  26  49
BRANCH  38  59
ATOM     59  C   UNL A   1      43.465  34.923  32.169  1.00  0.00    -0.014 A 
ATOM     60  C   UNL A   1      43.151  35.142  33.525  1.00  0.00     0.010 A 
ATOM     61  C   UNL A   1      44.034  35.965  31.418  1.00  0.00     0.010 A 
ATOM     62  C   UNL A   1      43.330  36.403  34.097  1.00  0.00     0.020 A 
ATOM     63  C   UNL A   1      44.240  37.221  31.996  1.00  0.00     0.020 A 
ATOM     64  C   UNL A   1      43.852  37.441  33.320  1.00  0.00     0.054 A 
BRANCH  64  65
ATOM     65  S   UNL A   1      43.970  39.099  34.048  1.00  0.00     0.124 S 
ATOM     66  O   UNL A   1      44.185  38.800  35.461  1.00  0.00    -0.237 OA
ATOM     67  O   UNL A   1      45.113  39.676  33.345  1.00  0.00    -0.237 OA
ATOM     68  O   UNL A   1      42.680  39.707  33.728  1.00  0.00    -0.744 OA
ENDBRANCH  64  65
ENDBRANCH  38  59
ENDBRANCH  12  13
ENDBRANCH   5   7
ENDBRANCH   2   3
ENDBRANCH   1   2
BRANCH   1  69
ATOM     69  C   UNL A   1      35.171  21.494  24.592  1.00  0.00     0.023 C 
BRANCH  69  70
ATOM     70  C   UNL A   1      33.704  21.600  24.995  1.00  0.00     0.116 C 
BRANCH  70  71
ATOM     71  N   UNL A   1      33.516  21.587  26.435  1.00  0.00    -0.352 N 
ATOM     72  C   UNL A   1      32.898  22.527  27.220  1.00  0.00     0.255 C 
ATOM     73  H   UNL A   1      33.878  20.803  26.908  1.00  0.00     0.163 HD
ATOM     74  O   UNL A   1      32.874  22.402  28.443  1.00  0.00    -0.269 OA
BRANCH  72  75
ATOM     75  C   UNL A   1      32.326  23.743  26.608  1.00  0.00     0.081 A 
ATOM     76  C   UNL A   1      33.220  24.652  26.030  1.00  0.00     0.018 A 
ATOM     77  C   UNL A   1      30.955  24.014  26.606  1.00  0.00     0.128 A 
ATOM     78  C   UNL A   1      32.737  25.807  25.407  1.00  0.00     0.010 A 
ATOM     79  C   UNL A   1      30.473  25.159  25.974  1.00  0.00     0.055 A 
ATOM     80  C   UNL A   1      31.361  26.062  25.365  1.00  0.00    -0.014 A 
BRANCH  77  81
ATOM     81  O   UNL A   1      30.077  23.162  27.215  1.00  0.00    -0.507 OA
ATOM     82  H   UNL A   1      29.730  23.371  28.060  1.00  0.00     0.293 HD
ENDBRANCH  77  81
BRANCH  80  83
ATOM     83  C   UNL A   1      30.813  27.268  24.715  1.00  0.00    -0.011 A 
ATOM     84  C   UNL A   1      31.416  28.576  24.889  1.00  0.00     0.027 A 
ATOM     85  C   UNL A   1      29.688  27.162  23.986  1.00  0.00     0.080 A 
ATOM     86  C   UNL A   1      30.838  29.668  24.379  1.00  0.00     0.095 A 
ATOM     87  C   UNL A   1      29.046  28.367  23.387  1.00  0.00     0.255 A 
ATOM     88  N   UNL A   1      29.667  29.577  23.651  1.00  0.00    -0.258 N 
ATOM     89  O   UNL A   1      28.025  28.219  22.724  1.00  0.00    -0.269 OA
BRANCH  88  90
ATOM     90  C   UNL A   1      29.036  30.765  23.135  1.00  0.00     0.451 C 
ATOM     91  F   UNL A   1      29.257  31.829  23.944  1.00  0.00    -0.185 F 
ATOM     92  F   UNL A   1      29.507  31.069  21.901  1.00  0.00    -0.185 F 
ENDBRANCH  88  90
ENDBRANCH  80  83
ENDBRANCH  72  75
ENDBRANCH  70  71
ENDBRANCH  69  70
ENDBRANCH   1  69
TORSDOF 17
ENDMDL
