MODEL 1
REMARK VINA RESULT:     -11.2      0.000      0.000
REMARK SMILES O=C(CSc1nc2cnccc2n1CCC1CC1)NCCCCNC(=O)c1ccc(-c2c3nc(c(-c4ccc(S(=O)(=O)[O-])cc4)c4ccc([nH]4)c(-c4ccc(S(=O)(=O)[O-])cc4)c4nc(c(-c5ccc(S(=O)(=O)[O-])cc5)c5ccc2[nH]5)C=C4)C=C3)cc1
REMARK SMILES IDX 20 1 19 2 1 3 2 4 3 6 4 7 5 8 6 9 13 10 7 11 12 12 8 13
REMARK SMILES IDX 11 14 9 15 10 16 14 17 15 18 16 19 17 20 18 21 21 22 22 23
REMARK SMILES IDX 23 24 24 25 25 26 26 28 27 29 28 30 86 31 29 32 85 33 30 34
REMARK SMILES IDX 31 35 32 36 79 37 33 38 84 39 78 40 80 41 34 42 83 43 77 44
REMARK SMILES IDX 76 45 35 47 65 48 46 49 64 50 47 51 50 52 63 53 81 54 48 55
REMARK SMILES IDX 49 56 62 58 82 59 51 60 36 61 37 62 45 63 38 64 44 65 39 66
REMARK SMILES IDX 40 67 41 68 42 69 43 70 66 71 67 72 75 73 68 74 74 75 69 76
REMARK SMILES IDX 70 77 71 78 72 79 73 80 52 81 53 82 61 83 54 84 60 85 55 86
REMARK SMILES IDX 56 87 57 88 58 89 59 90
REMARK H PARENT 19 5 24 27 80 46 50 57
REMARK Flexibility Score: inf
ROOT
ATOM      1  C   UNL A   1      36.871  23.623  25.573  1.00  0.00     0.116 C 
ENDROOT
BRANCH   1   2
ATOM      2  N   UNL A   1      35.847  23.204  26.518  1.00  0.00    -0.355 N 
ATOM      3  O   UNL A   1      35.518  21.182  25.489  1.00  0.00    -0.274 OA
ATOM      4  C   UNL A   1      35.229  21.971  26.390  1.00  0.00     0.230 C 
ATOM      5  H   UNL A   1      35.591  23.803  27.257  1.00  0.00     0.163 HD
BRANCH   4   6
ATOM      6  C   UNL A   1      34.055  21.711  27.313  1.00  0.00     0.178 C 
BRANCH   6   7
ATOM      7  S   UNL A   1      32.596  22.751  27.142  1.00  0.00    -0.078 SA
BRANCH   7   8
ATOM      8  C   UNL A   1      32.870  23.812  25.806  1.00  0.00     0.169 A 
ATOM      9  N   UNL A   1      33.461  24.975  25.899  1.00  0.00    -0.221 NA
ATOM     10  N   UNL A   1      32.430  23.560  24.517  1.00  0.00    -0.319 N 
ATOM     11  C   UNL A   1      33.323  25.560  24.668  1.00  0.00     0.108 A 
ATOM     12  C   UNL A   1      32.648  24.715  23.787  1.00  0.00     0.072 A 
ATOM     13  C   UNL A   1      33.714  26.827  24.230  1.00  0.00     0.141 A 
ATOM     14  C   UNL A   1      32.322  25.118  22.490  1.00  0.00     0.049 A 
ATOM     15  N   UNL A   1      33.395  27.250  22.977  1.00  0.00    -0.262 NA
ATOM     16  C   UNL A   1      32.716  26.411  22.164  1.00  0.00     0.113 A 
BRANCH  10  17
ATOM     17  C   UNL A   1      31.766  22.369  23.997  1.00  0.00     0.125 C 
BRANCH  17  18
ATOM     18  C   UNL A   1      32.714  21.253  23.484  1.00  0.00     0.025 C 
BRANCH  18  19
ATOM     19  C   UNL A   1      32.424  19.976  24.209  1.00  0.00    -0.009 C 
ATOM     20  C   UNL A   1      32.410  18.755  23.315  1.00  0.00     0.004 C 
ATOM     21  C   UNL A   1      33.264  18.767  24.539  1.00  0.00     0.004 C 
ENDBRANCH  18  19
ENDBRANCH  17  18
ENDBRANCH  10  17
ENDBRANCH   7   8
ENDBRANCH   6   7
ENDBRANCH   4   6
ENDBRANCH   1   2
BRANCH   1  22
ATOM     22  C   UNL A   1      38.286  23.588  26.152  1.00  0.00     0.023 C 
BRANCH  22  23
ATOM     23  C   UNL A   1      38.946  22.207  26.216  1.00  0.00     0.023 C 
BRANCH  23  24
ATOM     24  C   UNL A   1      40.379  22.193  26.749  1.00  0.00     0.116 C 
BRANCH  24  25
ATOM     25  N   UNL A   1      41.408  22.377  25.747  1.00  0.00    -0.352 N 
ATOM     26  C   UNL A   1      42.368  23.334  25.511  1.00  0.00     0.251 C 
ATOM     27  H   UNL A   1      41.424  21.652  25.082  1.00  0.00     0.163 HD
ATOM     28  O   UNL A   1      43.208  23.064  24.668  1.00  0.00    -0.269 OA
BRANCH  26  29
ATOM     29  C   UNL A   1      42.390  24.680  26.154  1.00  0.00     0.039 A 
ATOM     30  C   UNL A   1      43.197  25.054  27.226  1.00  0.00     0.014 A 
ATOM     31  C   UNL A   1      41.447  25.608  25.667  1.00  0.00     0.014 A 
ATOM     32  C   UNL A   1      42.970  26.248  27.897  1.00  0.00     0.010 A 
ATOM     33  C   UNL A   1      41.239  26.822  26.315  1.00  0.00     0.010 A 
ATOM     34  C   UNL A   1      41.954  27.104  27.475  1.00  0.00    -0.014 A 
BRANCH  34  35
ATOM     35  C   UNL A   1      41.671  28.266  28.313  1.00  0.00     0.031 A 
ATOM     36  C   UNL A   1      42.719  29.326  28.373  1.00  0.00     0.074 A 
ATOM     37  C   UNL A   1      40.492  28.415  28.947  1.00  0.00     0.049 A 
ATOM     38  N   UNL A   1      43.313  29.831  29.409  1.00  0.00    -0.248 NA
ATOM     39  C   UNL A   1      43.208  29.851  27.090  1.00  0.00     0.031 C 
ATOM     40  C   UNL A   1      39.261  27.641  28.751  1.00  0.00     0.029 A 
ATOM     41  N   UNL A   1      40.112  29.388  29.819  1.00  0.00    -0.354 N 
ATOM     42  C   UNL A   1      44.157  30.834  28.927  1.00  0.00     0.074 A 
ATOM     43  C   UNL A   1      44.122  30.735  27.490  1.00  0.00     0.031 C 
ATOM     44  C   UNL A   1      38.222  28.324  29.279  1.00  0.00     0.029 A 
ATOM     45  C   UNL A   1      38.738  29.490  29.975  1.00  0.00     0.049 A 
ATOM     46  H   UNL A   1      40.753  29.965  30.296  1.00  0.00     0.167 HD
ATOM     47  C   UNL A   1      44.739  31.773  29.726  1.00  0.00     0.031 A 
ATOM     48  C   UNL A   1      38.068  30.520  30.543  1.00  0.00     0.031 A 
ATOM     49  C   UNL A   1      44.721  31.400  31.110  1.00  0.00     0.049 A 
ATOM     50  C   UNL A   1      39.026  31.269  31.391  1.00  0.00     0.074 A 
ATOM     51  C   UNL A   1      45.334  30.421  31.863  1.00  0.00     0.029 A 
ATOM     52  N   UNL A   1      43.732  31.931  31.901  1.00  0.00    -0.354 N 
ATOM     53  N   UNL A   1      39.583  30.790  32.468  1.00  0.00    -0.248 NA
ATOM     54  C   UNL A   1      39.659  32.456  30.836  1.00  0.00     0.031 C 
ATOM     55  C   UNL A   1      44.403  30.108  32.893  1.00  0.00     0.029 A 
ATOM     56  C   UNL A   1      43.284  30.929  32.724  1.00  0.00     0.049 A 
ATOM     57  H   UNL A   1      43.404  32.858  31.880  1.00  0.00     0.167 HD
ATOM     58  C   UNL A   1      40.844  31.366  32.505  1.00  0.00     0.074 A 
ATOM     59  C   UNL A   1      40.787  32.466  31.550  1.00  0.00     0.031 C 
ATOM     60  C   UNL A   1      41.897  30.736  33.104  1.00  0.00     0.031 A 
BRANCH  47  61
ATOM     61  C   UNL A   1      45.116  33.166  29.278  1.00  0.00    -0.014 A 
ATOM     62  C   UNL A   1      46.438  33.535  28.963  1.00  0.00     0.010 A 
ATOM     63  C   UNL A   1      44.100  34.080  28.922  1.00  0.00     0.010 A 
ATOM     64  C   UNL A   1      46.742  34.747  28.340  1.00  0.00     0.020 A 
ATOM     65  C   UNL A   1      44.390  35.280  28.253  1.00  0.00     0.020 A 
ATOM     66  C   UNL A   1      45.714  35.605  27.967  1.00  0.00     0.054 A 
BRANCH  66  67
ATOM     67  S   UNL A   1      46.139  37.081  27.008  1.00  0.00     0.124 S 
ATOM     68  O   UNL A   1      44.849  37.754  26.904  1.00  0.00    -0.237 OA
ATOM     69  O   UNL A   1      47.125  37.736  27.863  1.00  0.00    -0.237 OA
ATOM     70  O   UNL A   1      46.666  36.537  25.757  1.00  0.00    -0.744 OA
ENDBRANCH  66  67
ENDBRANCH  47  61
BRANCH  48  71
ATOM     71  C   UNL A   1      36.815  31.126  30.030  1.00  0.00    -0.014 A 
ATOM     72  C   UNL A   1      36.702  31.449  28.661  1.00  0.00     0.010 A 
ATOM     73  C   UNL A   1      35.860  31.657  30.915  1.00  0.00     0.010 A 
ATOM     74  C   UNL A   1      35.717  32.324  28.198  1.00  0.00     0.020 A 
ATOM     75  C   UNL A   1      34.869  32.541  30.457  1.00  0.00     0.020 A 
ATOM     76  C   UNL A   1      34.829  32.895  29.107  1.00  0.00     0.054 A 
BRANCH  76  77
ATOM     77  S   UNL A   1      33.694  34.174  28.500  1.00  0.00     0.124 S 
ATOM     78  O   UNL A   1      32.875  33.425  27.551  1.00  0.00    -0.237 OA
ATOM     79  O   UNL A   1      33.011  34.593  29.722  1.00  0.00    -0.237 OA
ATOM     80  O   UNL A   1      34.580  35.173  27.909  1.00  0.00    -0.744 OA
ENDBRANCH  76  77
ENDBRANCH  48  71
BRANCH  60  81
ATOM     81  C   UNL A   1      41.631  29.534  33.986  1.00  0.00    -0.014 A 
ATOM     82  C   UNL A   1      41.692  29.716  35.380  1.00  0.00     0.010 A 
ATOM     83  C   UNL A   1      41.581  28.220  33.481  1.00  0.00     0.010 A 
ATOM     84  C   UNL A   1      41.770  28.621  36.244  1.00  0.00     0.020 A 
ATOM     85  C   UNL A   1      41.635  27.116  34.345  1.00  0.00     0.020 A 
ATOM     86  C   UNL A   1      41.768  27.326  35.720  1.00  0.00     0.054 A 
BRANCH  86  87
ATOM     87  S   UNL A   1      42.001  25.934  36.860  1.00  0.00     0.124 S 
ATOM     88  O   UNL A   1      40.628  25.620  37.248  1.00  0.00    -0.237 OA
ATOM     89  O   UNL A   1      42.656  24.932  36.021  1.00  0.00    -0.237 OA
ATOM     90  O   UNL A   1      42.835  26.486  37.926  1.00  0.00    -0.744 OA
ENDBRANCH  86  87
ENDBRANCH  60  81
ENDBRANCH  34  35
ENDBRANCH  26  29
ENDBRANCH  24  25
ENDBRANCH  23  24
ENDBRANCH  22  23
ENDBRANCH   1  22
TORSDOF 19
ENDMDL
MODEL 2
REMARK VINA RESULT:     -10.8      2.335      3.791
REMARK SMILES O=C(CSc1nc2cnccc2n1CCC1CC1)NCCCCNC(=O)c1ccc(-c2c3nc(c(-c4ccc(S(=O)(=O)[O-])cc4)c4ccc([nH]4)c(-c4ccc(S(=O)(=O)[O-])cc4)c4nc(c(-c5ccc(S(=O)(=O)[O-])cc5)c5ccc2[nH]5)C=C4)C=C3)cc1
REMARK SMILES IDX 20 1 19 2 1 3 2 4 3 6 4 7 5 8 6 9 13 10 7 11 12 12 8 13
REMARK SMILES IDX 11 14 9 15 10 16 14 17 15 18 16 19 17 20 18 21 21 22 22 23
REMARK SMILES IDX 23 24 24 25 25 26 26 28 27 29 28 30 86 31 29 32 85 33 30 34
REMARK SMILES IDX 31 35 32 36 79 37 33 38 84 39 78 40 80 41 34 42 83 43 77 44
REMARK SMILES IDX 76 45 35 47 65 48 46 49 64 50 47 51 50 52 63 53 81 54 48 55
REMARK SMILES IDX 49 56 62 58 82 59 51 60 36 61 37 62 45 63 38 64 44 65 39 66
REMARK SMILES IDX 40 67 41 68 42 69 43 70 66 71 67 72 75 73 68 74 74 75 69 76
REMARK SMILES IDX 70 77 71 78 72 79 73 80 52 81 53 82 61 83 54 84 60 85 55 86
REMARK SMILES IDX 56 87 57 88 58 89 59 90
REMARK H PARENT 19 5 24 27 80 46 50 57
REMARK Flexibility Score: inf
ROOT
ATOM      1  C   UNL A   1      39.560  22.603  26.027  1.00  0.00     0.116 C 
ENDROOT
BRANCH   1   2
ATOM      2  N   UNL A   1      38.149  22.865  26.266  1.00  0.00    -0.355 N 
ATOM      3  O   UNL A   1      37.477  21.815  24.343  1.00  0.00    -0.274 OA
ATOM      4  C   UNL A   1      37.188  22.435  25.367  1.00  0.00     0.230 C 
ATOM      5  H   UNL A   1      37.875  23.353  27.077  1.00  0.00     0.163 HD
BRANCH   4   6
ATOM      6  C   UNL A   1      35.773  22.917  25.618  1.00  0.00     0.178 C 
BRANCH   6   7
ATOM      7  S   UNL A   1      34.690  21.882  26.617  1.00  0.00    -0.078 SA
BRANCH   7   8
ATOM      8  C   UNL A   1      34.067  20.641  25.588  1.00  0.00     0.169 A 
ATOM      9  N   UNL A   1      34.611  19.461  25.448  1.00  0.00    -0.221 NA
ATOM     10  N   UNL A   1      32.966  20.802  24.764  1.00  0.00    -0.319 N 
ATOM     11  C   UNL A   1      33.922  18.853  24.432  1.00  0.00     0.108 A 
ATOM     12  C   UNL A   1      32.907  19.681  23.954  1.00  0.00     0.072 A 
ATOM     13  C   UNL A   1      34.124  17.608  23.831  1.00  0.00     0.141 A 
ATOM     14  C   UNL A   1      32.111  19.312  22.867  1.00  0.00     0.049 A 
ATOM     15  N   UNL A   1      33.374  17.231  22.762  1.00  0.00    -0.262 NA
ATOM     16  C   UNL A   1      32.418  18.075  22.312  1.00  0.00     0.113 A 
BRANCH  10  17
ATOM     17  C   UNL A   1      32.069  21.948  24.652  1.00  0.00     0.125 C 
BRANCH  17  18
ATOM     18  C   UNL A   1      32.434  22.967  23.541  1.00  0.00     0.025 C 
BRANCH  18  19
ATOM     19  C   UNL A   1      32.265  24.359  24.062  1.00  0.00    -0.009 C 
ATOM     20  C   UNL A   1      33.412  25.286  23.719  1.00  0.00     0.004 C 
ATOM     21  C   UNL A   1      32.012  25.686  23.390  1.00  0.00     0.004 C 
ENDBRANCH  18  19
ENDBRANCH  17  18
ENDBRANCH  10  17
ENDBRANCH   7   8
ENDBRANCH   6   7
ENDBRANCH   4   6
ENDBRANCH   1   2
BRANCH   1  22
ATOM     22  C   UNL A   1      40.160  21.574  26.986  1.00  0.00     0.023 C 
BRANCH  22  23
ATOM     23  C   UNL A   1      40.386  20.174  26.406  1.00  0.00     0.023 C 
BRANCH  23  24
ATOM     24  C   UNL A   1      41.778  19.585  26.644  1.00  0.00     0.116 C 
BRANCH  24  25
ATOM     25  N   UNL A   1      42.682  19.676  25.517  1.00  0.00    -0.352 N 
ATOM     26  C   UNL A   1      43.628  20.587  25.107  1.00  0.00     0.251 C 
ATOM     27  H   UNL A   1      42.602  18.911  24.903  1.00  0.00     0.163 HD
ATOM     28  O   UNL A   1      44.354  20.239  24.189  1.00  0.00    -0.269 OA
BRANCH  26  29
ATOM     29  C   UNL A   1      43.758  21.969  25.653  1.00  0.00     0.039 A 
ATOM     30  C   UNL A   1      44.425  22.319  26.824  1.00  0.00     0.014 A 
ATOM     31  C   UNL A   1      43.069  22.975  24.946  1.00  0.00     0.014 A 
ATOM     32  C   UNL A   1      44.284  23.590  27.364  1.00  0.00     0.010 A 
ATOM     33  C   UNL A   1      42.952  24.262  25.465  1.00  0.00     0.010 A 
ATOM     34  C   UNL A   1      43.501  24.542  26.712  1.00  0.00    -0.014 A 
BRANCH  34  35
ATOM     35  C   UNL A   1      43.273  25.806  27.408  1.00  0.00     0.031 A 
ATOM     36  C   UNL A   1      44.285  26.883  27.202  1.00  0.00     0.074 A 
ATOM     37  C   UNL A   1      42.166  26.021  28.145  1.00  0.00     0.049 A 
ATOM     38  N   UNL A   1      44.971  27.539  28.085  1.00  0.00    -0.248 NA
ATOM     39  C   UNL A   1      44.612  27.230  25.812  1.00  0.00     0.031 C 
ATOM     40  C   UNL A   1      40.948  25.204  28.199  1.00  0.00     0.029 A 
ATOM     41  N   UNL A   1      41.851  27.100  28.912  1.00  0.00    -0.354 N 
ATOM     42  C   UNL A   1      45.722  28.480  27.376  1.00  0.00     0.074 A 
ATOM     43  C   UNL A   1      45.534  28.178  25.979  1.00  0.00     0.031 C 
ATOM     44  C   UNL A   1      39.951  25.936  28.741  1.00  0.00     0.029 A 
ATOM     45  C   UNL A   1      40.500  27.198  29.207  1.00  0.00     0.049 A 
ATOM     46  H   UNL A   1      42.521  27.750  29.228  1.00  0.00     0.167 HD
ATOM     47  C   UNL A   1      46.357  29.532  27.966  1.00  0.00     0.031 A 
ATOM     48  C   UNL A   1      39.862  28.285  29.700  1.00  0.00     0.031 A 
ATOM     49  C   UNL A   1      46.503  29.358  29.382  1.00  0.00     0.049 A 
ATOM     50  C   UNL A   1      40.881  29.165  30.322  1.00  0.00     0.074 A 
ATOM     51  C   UNL A   1      47.228  28.507  30.188  1.00  0.00     0.029 A 
ATOM     52  N   UNL A   1      45.589  29.977  30.198  1.00  0.00    -0.354 N 
ATOM     53  N   UNL A   1      41.569  28.852  31.384  1.00  0.00    -0.248 NA
ATOM     54  C   UNL A   1      41.409  30.272  29.540  1.00  0.00     0.031 C 
ATOM     55  C   UNL A   1      46.427  28.325  31.351  1.00  0.00     0.029 A 
ATOM     56  C   UNL A   1      45.269  29.093  31.197  1.00  0.00     0.049 A 
ATOM     57  H   UNL A   1      45.230  30.886  30.087  1.00  0.00     0.167 HD
ATOM     58  C   UNL A   1      42.806  29.450  31.199  1.00  0.00     0.074 A 
ATOM     59  C   UNL A   1      42.607  30.403  30.113  1.00  0.00     0.031 C 
ATOM     60  C   UNL A   1      43.939  28.930  31.756  1.00  0.00     0.031 A 
BRANCH  47  61
ATOM     61  C   UNL A   1      46.634  30.855  27.291  1.00  0.00    -0.014 A 
ATOM     62  C   UNL A   1      45.613  31.751  26.919  1.00  0.00     0.010 A 
ATOM     63  C   UNL A   1      47.958  31.344  27.237  1.00  0.00     0.010 A 
ATOM     64  C   UNL A   1      45.885  33.057  26.506  1.00  0.00     0.020 A 
ATOM     65  C   UNL A   1      48.240  32.669  26.869  1.00  0.00     0.020 A 
ATOM     66  C   UNL A   1      47.196  33.518  26.504  1.00  0.00     0.054 A 
BRANCH  66  67
ATOM     67  S   UNL A   1      47.486  35.266  26.130  1.00  0.00     0.124 S 
ATOM     68  O   UNL A   1      48.405  35.183  24.999  1.00  0.00    -0.237 OA
ATOM     69  O   UNL A   1      46.143  35.746  25.816  1.00  0.00    -0.237 OA
ATOM     70  O   UNL A   1      48.060  35.791  27.367  1.00  0.00    -0.744 OA
ENDBRANCH  66  67
ENDBRANCH  47  61
BRANCH  48  71
ATOM     71  C   UNL A   1      38.540  28.790  29.253  1.00  0.00    -0.014 A 
ATOM     72  C   UNL A   1      38.406  29.367  27.972  1.00  0.00     0.010 A 
ATOM     73  C   UNL A   1      37.496  28.980  30.175  1.00  0.00     0.010 A 
ATOM     74  C   UNL A   1      37.307  30.161  27.643  1.00  0.00     0.020 A 
ATOM     75  C   UNL A   1      36.388  29.781  29.852  1.00  0.00     0.020 A 
ATOM     76  C   UNL A   1      36.321  30.395  28.599  1.00  0.00     0.054 A 
BRANCH  76  77
ATOM     77  S   UNL A   1      35.013  31.587  28.201  1.00  0.00     0.124 S 
ATOM     78  O   UNL A   1      35.748  32.605  27.455  1.00  0.00    -0.237 OA
ATOM     79  O   UNL A   1      34.083  30.782  27.412  1.00  0.00    -0.237 OA
ATOM     80  O   UNL A   1      34.516  32.007  29.509  1.00  0.00    -0.744 OA
ENDBRANCH  76  77
ENDBRANCH  48  71
BRANCH  60  81
ATOM     81  C   UNL A   1      43.812  27.861  32.819  1.00  0.00    -0.014 A 
ATOM     82  C   UNL A   1      43.891  28.261  34.166  1.00  0.00     0.010 A 
ATOM     83  C   UNL A   1      43.876  26.485  32.522  1.00  0.00     0.010 A 
ATOM     84  C   UNL A   1      44.096  27.325  35.183  1.00  0.00     0.020 A 
ATOM     85  C   UNL A   1      44.058  25.538  33.541  1.00  0.00     0.020 A 
ATOM     86  C   UNL A   1      44.205  25.970  34.861  1.00  0.00     0.054 A 
BRANCH  86  87
ATOM     87  S   UNL A   1      44.600  24.798  36.189  1.00  0.00     0.124 S 
ATOM     88  O   UNL A   1      44.573  23.517  35.488  1.00  0.00    -0.237 OA
ATOM     89  O   UNL A   1      45.922  25.239  36.630  1.00  0.00    -0.237 OA
ATOM     90  O   UNL A   1      43.529  24.993  37.163  1.00  0.00    -0.744 OA
ENDBRANCH  86  87
ENDBRANCH  60  81
ENDBRANCH  34  35
ENDBRANCH  26  29
ENDBRANCH  24  25
ENDBRANCH  23  24
ENDBRANCH  22  23
ENDBRANCH   1  22
TORSDOF 19
ENDMDL
MODEL 3
REMARK VINA RESULT:     -10.8      2.828      9.307
REMARK SMILES O=C(CSc1nc2cnccc2n1CCC1CC1)NCCCCNC(=O)c1ccc(-c2c3nc(c(-c4ccc(S(=O)(=O)[O-])cc4)c4ccc([nH]4)c(-c4ccc(S(=O)(=O)[O-])cc4)c4nc(c(-c5ccc(S(=O)(=O)[O-])cc5)c5ccc2[nH]5)C=C4)C=C3)cc1
REMARK SMILES IDX 20 1 19 2 1 3 2 4 3 6 4 7 5 8 6 9 13 10 7 11 12 12 8 13
REMARK SMILES IDX 11 14 9 15 10 16 14 17 15 18 16 19 17 20 18 21 21 22 22 23
REMARK SMILES IDX 23 24 24 25 25 26 26 28 27 29 28 30 86 31 29 32 85 33 30 34
REMARK SMILES IDX 31 35 32 36 79 37 33 38 84 39 78 40 80 41 34 42 83 43 77 44
REMARK SMILES IDX 76 45 35 47 65 48 46 49 64 50 47 51 50 52 63 53 81 54 48 55
REMARK SMILES IDX 49 56 62 58 82 59 51 60 36 61 37 62 45 63 38 64 44 65 39 66
REMARK SMILES IDX 40 67 41 68 42 69 43 70 66 71 67 72 75 73 68 74 74 75 69 76
REMARK SMILES IDX 70 77 71 78 72 79 73 80 52 81 53 82 61 83 54 84 60 85 55 86
REMARK SMILES IDX 56 87 57 88 58 89 59 90
REMARK H PARENT 19 5 24 27 80 46 50 57
REMARK Flexibility Score: inf
ROOT
ATOM      1  C   UNL A   1      33.976  28.435  27.012  1.00  0.00     0.116 C 
ENDROOT
BRANCH   1   2
ATOM      2  N   UNL A   1      33.008  28.003  26.016  1.00  0.00    -0.355 N 
ATOM      3  O   UNL A   1      31.354  27.647  27.562  1.00  0.00    -0.274 OA
ATOM      4  C   UNL A   1      31.728  27.626  26.389  1.00  0.00     0.230 C 
ATOM      5  H   UNL A   1      33.265  27.979  25.065  1.00  0.00     0.163 HD
BRANCH   4   6
ATOM      6  C   UNL A   1      30.863  27.023  25.300  1.00  0.00     0.178 C 
BRANCH   6   7
ATOM      7  S   UNL A   1      29.863  25.585  25.712  1.00  0.00    -0.078 SA
BRANCH   7   8
ATOM      8  C   UNL A   1      30.945  24.274  26.026  1.00  0.00     0.169 A 
ATOM      9  N   UNL A   1      31.372  23.944  27.216  1.00  0.00    -0.221 NA
ATOM     10  N   UNL A   1      31.513  23.488  25.038  1.00  0.00    -0.319 N 
ATOM     11  C   UNL A   1      32.327  22.983  27.013  1.00  0.00     0.108 A 
ATOM     12  C   UNL A   1      32.468  22.700  25.655  1.00  0.00     0.072 A 
ATOM     13  C   UNL A   1      33.148  22.326  27.934  1.00  0.00     0.141 A 
ATOM     14  C   UNL A   1      33.434  21.804  25.190  1.00  0.00     0.049 A 
ATOM     15  N   UNL A   1      34.106  21.462  27.506  1.00  0.00    -0.262 NA
ATOM     16  C   UNL A   1      34.228  21.236  26.178  1.00  0.00     0.113 A 
BRANCH  10  17
ATOM     17  C   UNL A   1      31.270  23.514  23.599  1.00  0.00     0.125 C 
BRANCH  17  18
ATOM     18  C   UNL A   1      32.499  23.879  22.726  1.00  0.00     0.025 C 
BRANCH  18  19
ATOM     19  C   UNL A   1      32.476  25.342  22.414  1.00  0.00    -0.009 C 
ATOM     20  C   UNL A   1      32.663  25.658  20.946  1.00  0.00     0.004 C 
ATOM     21  C   UNL A   1      31.494  26.223  21.681  1.00  0.00     0.004 C 
ENDBRANCH  18  19
ENDBRANCH  17  18
ENDBRANCH  10  17
ENDBRANCH   7   8
ENDBRANCH   6   7
ENDBRANCH   4   6
ENDBRANCH   1   2
BRANCH   1  22
ATOM     22  C   UNL A   1      34.410  29.892  26.849  1.00  0.00     0.023 C 
BRANCH  22  23
ATOM     23  C   UNL A   1      35.328  30.441  27.946  1.00  0.00     0.023 C 
BRANCH  23  24
ATOM     24  C   UNL A   1      35.033  31.876  28.386  1.00  0.00     0.116 C 
BRANCH  24  25
ATOM     25  N   UNL A   1      34.676  32.028  29.782  1.00  0.00    -0.352 N 
ATOM     26  C   UNL A   1      35.337  31.847  30.974  1.00  0.00     0.251 C 
ATOM     27  H   UNL A   1      33.747  32.329  29.905  1.00  0.00     0.163 HD
ATOM     28  O   UNL A   1      34.775  32.263  31.975  1.00  0.00    -0.269 OA
BRANCH  26  29
ATOM     29  C   UNL A   1      36.630  31.117  31.118  1.00  0.00     0.039 A 
ATOM     30  C   UNL A   1      37.896  31.697  31.093  1.00  0.00     0.014 A 
ATOM     31  C   UNL A   1      36.536  29.713  31.203  1.00  0.00     0.014 A 
ATOM     32  C   UNL A   1      39.033  30.906  30.996  1.00  0.00     0.010 A 
ATOM     33  C   UNL A   1      37.674  28.915  31.141  1.00  0.00     0.010 A 
ATOM     34  C   UNL A   1      38.916  29.517  30.963  1.00  0.00    -0.014 A 
BRANCH  34  35
ATOM     35  C   UNL A   1      40.134  28.752  30.709  1.00  0.00     0.031 A 
ATOM     36  C   UNL A   1      41.056  28.547  31.864  1.00  0.00     0.074 A 
ATOM     37  C   UNL A   1      40.385  28.194  29.509  1.00  0.00     0.049 A 
ATOM     38  N   UNL A   1      42.316  28.836  31.965  1.00  0.00    -0.248 NA
ATOM     39  C   UNL A   1      40.469  27.993  33.092  1.00  0.00     0.031 C 
ATOM     40  C   UNL A   1      39.461  28.035  28.379  1.00  0.00     0.029 A 
ATOM     41  N   UNL A   1      41.499  27.531  29.095  1.00  0.00    -0.354 N 
ATOM     42  C   UNL A   1      42.722  28.381  33.222  1.00  0.00     0.074 A 
ATOM     43  C   UNL A   1      41.524  27.960  33.905  1.00  0.00     0.031 C 
ATOM     44  C   UNL A   1      39.961  27.112  27.529  1.00  0.00     0.029 A 
ATOM     45  C   UNL A   1      41.293  26.742  27.974  1.00  0.00     0.049 A 
ATOM     46  H   UNL A   1      42.370  27.606  29.549  1.00  0.00     0.167 HD
ATOM     47  C   UNL A   1      44.028  28.255  33.588  1.00  0.00     0.031 A 
ATOM     48  C   UNL A   1      42.117  25.773  27.511  1.00  0.00     0.031 A 
ATOM     49  C   UNL A   1      44.911  28.988  32.728  1.00  0.00     0.049 A 
ATOM     50  C   UNL A   1      43.465  26.016  28.080  1.00  0.00     0.074 A 
ATOM     51  C   UNL A   1      45.140  30.325  32.480  1.00  0.00     0.029 A 
ATOM     52  N   UNL A   1      45.547  28.296  31.728  1.00  0.00    -0.354 N 
ATOM     53  N   UNL A   1      44.207  27.048  27.793  1.00  0.00    -0.248 NA
ATOM     54  C   UNL A   1      43.855  25.279  29.272  1.00  0.00     0.031 C 
ATOM     55  C   UNL A   1      45.520  30.388  31.110  1.00  0.00     0.029 A 
ATOM     56  C   UNL A   1      45.522  29.084  30.605  1.00  0.00     0.049 A 
ATOM     57  H   UNL A   1      45.947  27.400  31.802  1.00  0.00     0.167 HD
ATOM     58  C   UNL A   1      44.905  27.323  28.959  1.00  0.00     0.074 A 
ATOM     59  C   UNL A   1      44.739  26.135  29.789  1.00  0.00     0.031 C 
ATOM     60  C   UNL A   1      45.327  28.587  29.255  1.00  0.00     0.031 A 
BRANCH  47  61
ATOM     61  C   UNL A   1      44.544  27.254  34.595  1.00  0.00    -0.014 A 
ATOM     62  C   UNL A   1      44.254  25.877  34.521  1.00  0.00     0.010 A 
ATOM     63  C   UNL A   1      45.549  27.642  35.510  1.00  0.00     0.010 A 
ATOM     64  C   UNL A   1      44.912  24.935  35.315  1.00  0.00     0.020 A 
ATOM     65  C   UNL A   1      46.250  26.698  36.278  1.00  0.00     0.020 A 
ATOM     66  C   UNL A   1      45.923  25.348  36.174  1.00  0.00     0.054 A 
BRANCH  66  67
ATOM     67  S   UNL A   1      46.866  24.077  37.055  1.00  0.00     0.124 S 
ATOM     68  O   UNL A   1      45.817  23.142  37.448  1.00  0.00    -0.237 OA
ATOM     69  O   UNL A   1      47.783  23.597  36.024  1.00  0.00    -0.237 OA
ATOM     70  O   UNL A   1      47.494  24.813  38.150  1.00  0.00    -0.744 OA
ENDBRANCH  66  67
ENDBRANCH  47  61
BRANCH  48  71
ATOM     71  C   UNL A   1      41.694  24.444  27.005  1.00  0.00    -0.014 A 
ATOM     72  C   UNL A   1      40.804  23.655  27.765  1.00  0.00     0.010 A 
ATOM     73  C   UNL A   1      42.381  23.828  25.944  1.00  0.00     0.010 A 
ATOM     74  C   UNL A   1      40.655  22.289  27.524  1.00  0.00     0.020 A 
ATOM     75  C   UNL A   1      42.239  22.452  25.698  1.00  0.00     0.020 A 
ATOM     76  C   UNL A   1      41.403  21.687  26.515  1.00  0.00     0.054 A 
BRANCH  76  77
ATOM     77  S   UNL A   1      41.330  19.881  26.361  1.00  0.00     0.124 S 
ATOM     78  O   UNL A   1      41.733  19.447  27.697  1.00  0.00    -0.237 OA
ATOM     79  O   UNL A   1      39.928  19.649  26.025  1.00  0.00    -0.237 OA
ATOM     80  O   UNL A   1      42.283  19.584  25.294  1.00  0.00    -0.744 OA
ENDBRANCH  76  77
ENDBRANCH  48  71
BRANCH  60  81
ATOM     81  C   UNL A   1      45.289  29.648  28.176  1.00  0.00    -0.014 A 
ATOM     82  C   UNL A   1      46.516  30.175  27.731  1.00  0.00     0.010 A 
ATOM     83  C   UNL A   1      44.099  30.297  27.793  1.00  0.00     0.010 A 
ATOM     84  C   UNL A   1      46.560  31.354  26.982  1.00  0.00     0.020 A 
ATOM     85  C   UNL A   1      44.137  31.468  27.020  1.00  0.00     0.020 A 
ATOM     86  C   UNL A   1      45.371  32.008  26.653  1.00  0.00     0.054 A 
BRANCH  86  87
ATOM     87  S   UNL A   1      45.474  33.602  25.792  1.00  0.00     0.124 S 
ATOM     88  O   UNL A   1      46.918  33.793  25.669  1.00  0.00    -0.237 OA
ATOM     89  O   UNL A   1      44.771  33.341  24.538  1.00  0.00    -0.237 OA
ATOM     90  O   UNL A   1      44.802  34.535  26.693  1.00  0.00    -0.744 OA
ENDBRANCH  86  87
ENDBRANCH  60  81
ENDBRANCH  34  35
ENDBRANCH  26  29
ENDBRANCH  24  25
ENDBRANCH  23  24
ENDBRANCH  22  23
ENDBRANCH   1  22
TORSDOF 19
ENDMDL
