MODEL 1
REMARK VINA RESULT:     -10.5      0.000      0.000
REMARK SMILES Cn1ccc(CNC(=O)[C@@H]2[C@@H]3CC[C@@H](C3)[C@@H]2C(=O)NCCCCNC(=O)c2ccc(-c3c4nc(c(-c5ccc(S(=O)(=O)[O-])cc5)c5ccc([nH]5)c(-c5ccc(S(=O)(=O)[O-])cc5)c5nc(c(-c6ccc(S(=O)(=O)[O-])cc6)c6ccc3[nH]6)C=C5)C=C4)cc2)n1
REMARK SMILES IDX 21 1 20 2 19 3 17 4 18 5 16 7 10 8 11 9 12 10 15 11 14 12
REMARK SMILES IDX 13 13 8 14 7 15 9 17 6 18 5 19 1 20 2 21 3 22 87 23 4 24
REMARK SMILES IDX 22 25 23 26 24 27 25 28 26 30 27 31 28 32 86 33 29 34 85 35
REMARK SMILES IDX 30 36 31 37 32 38 79 39 33 40 84 41 78 42 80 43 34 44 83 45
REMARK SMILES IDX 77 46 76 47 35 49 65 50 46 51 64 52 47 53 50 54 63 55 81 56
REMARK SMILES IDX 48 57 49 58 62 60 82 61 51 62 36 63 37 64 45 65 38 66 44 67
REMARK SMILES IDX 39 68 40 69 41 70 42 71 43 72 66 73 67 74 75 75 68 76 74 77
REMARK SMILES IDX 69 78 70 79 71 80 72 81 73 82 52 83 53 84 61 85 54 86 60 87
REMARK SMILES IDX 55 88 56 89 57 90 58 91 59 92
REMARK H PARENT 19 6 7 16 24 29 80 48 50 59
REMARK Flexibility Score: inf
ROOT
ATOM      1  C   UNL A   1      36.465  33.693  28.458  1.00  0.00     0.023 C 
ENDROOT
BRANCH   1   2
ATOM      2  C   UNL A   1      36.913  33.126  29.803  1.00  0.00     0.116 C 
BRANCH   2   3
ATOM      3  N   UNL A   1      37.004  34.112  30.858  1.00  0.00    -0.356 N 
ATOM      4  C   UNL A   1      37.294  33.968  32.183  1.00  0.00     0.224 C 
ATOM      5  O   UNL A   1      37.366  35.007  32.835  1.00  0.00    -0.275 OA
ATOM      6  H   UNL A   1      36.827  35.039  30.574  1.00  0.00     0.163 HD
BRANCH   4   7
ATOM      7  C   UNL A   1      37.383  32.576  32.811  1.00  0.00     0.094 C 
ATOM      8  C   UNL A   1      36.706  32.334  34.200  1.00  0.00     0.094 C 
ATOM      9  C   UNL A   1      37.850  31.677  35.031  1.00  0.00     0.002 C 
ATOM     10  C   UNL A   1      38.998  32.646  35.365  1.00  0.00     0.005 C 
ATOM     11  C   UNL A   1      38.533  30.825  33.963  1.00  0.00     0.009 C 
ATOM     12  C   UNL A   1      38.815  32.028  33.061  1.00  0.00     0.002 C 
ATOM     13  C   UNL A   1      39.594  32.966  33.995  1.00  0.00     0.005 C 
BRANCH   8  14
ATOM     14  C   UNL A   1      35.995  33.470  34.934  1.00  0.00     0.224 C 
ATOM     15  N   UNL A   1      34.815  33.947  34.462  1.00  0.00    -0.350 N 
ATOM     16  H   UNL A   1      34.426  34.684  34.986  1.00  0.00     0.163 HD
ATOM     17  O   UNL A   1      36.412  33.947  35.990  1.00  0.00    -0.275 OA
BRANCH  15  18
ATOM     18  C   UNL A   1      34.040  33.542  33.309  1.00  0.00     0.174 C 
BRANCH  18  19
ATOM     19  C   UNL A   1      33.795  34.748  32.455  1.00  0.00     0.082 A 
ATOM     20  C   UNL A   1      33.087  36.132  29.327  1.00  0.00     0.173 C 
ATOM     21  N   UNL A   1      33.382  35.890  30.718  1.00  0.00    -0.275 N 
ATOM     22  C   UNL A   1      33.357  36.798  31.734  1.00  0.00     0.108 A 
ATOM     23  N   UNL A   1      33.693  34.645  31.119  1.00  0.00    -0.176 NA
ATOM     24  C   UNL A   1      33.615  36.087  32.881  1.00  0.00     0.047 A 
ENDBRANCH  18  19
ENDBRANCH  15  18
ENDBRANCH   8  14
ENDBRANCH   4   7
ENDBRANCH   2   3
ENDBRANCH   1   2
BRANCH   1  25
ATOM     25  C   UNL A   1      35.094  33.253  27.951  1.00  0.00     0.023 C 
BRANCH  25  26
ATOM     26  C   UNL A   1      34.327  32.292  28.852  1.00  0.00     0.116 C 
BRANCH  26  27
ATOM     27  N   UNL A   1      33.858  31.106  28.153  1.00  0.00    -0.352 N 
ATOM     28  C   UNL A   1      34.551  29.988  27.747  1.00  0.00     0.251 C 
ATOM     29  H   UNL A   1      32.897  31.102  27.938  1.00  0.00     0.163 HD
ATOM     30  O   UNL A   1      33.994  29.151  27.045  1.00  0.00    -0.269 OA
BRANCH  28  31
ATOM     31  C   UNL A   1      35.972  29.813  28.124  1.00  0.00     0.039 A 
ATOM     32  C   UNL A   1      36.280  29.371  29.413  1.00  0.00     0.014 A 
ATOM     33  C   UNL A   1      36.998  30.070  27.211  1.00  0.00     0.014 A 
ATOM     34  C   UNL A   1      37.609  29.105  29.758  1.00  0.00     0.010 A 
ATOM     35  C   UNL A   1      38.310  29.725  27.527  1.00  0.00     0.010 A 
ATOM     36  C   UNL A   1      38.630  29.236  28.802  1.00  0.00    -0.014 A 
BRANCH  36  37
ATOM     37  C   UNL A   1      40.034  28.860  29.113  1.00  0.00     0.031 A 
ATOM     38  C   UNL A   1      40.962  29.857  29.757  1.00  0.00     0.074 A 
ATOM     39  C   UNL A   1      40.498  27.646  28.752  1.00  0.00     0.049 A 
ATOM     40  N   UNL A   1      42.233  29.736  30.041  1.00  0.00    -0.248 NA
ATOM     41  C   UNL A   1      40.390  31.168  30.101  1.00  0.00     0.031 C 
ATOM     42  C   UNL A   1      39.715  26.601  28.087  1.00  0.00     0.029 A 
ATOM     43  N   UNL A   1      41.744  27.086  28.889  1.00  0.00    -0.354 N 
ATOM     44  C   UNL A   1      42.618  30.959  30.579  1.00  0.00     0.074 A 
ATOM     45  C   UNL A   1      41.459  31.823  30.533  1.00  0.00     0.031 C 
ATOM     46  C   UNL A   1      40.488  25.518  27.906  1.00  0.00     0.029 A 
ATOM     47  C   UNL A   1      41.832  25.803  28.400  1.00  0.00     0.049 A 
ATOM     48  H   UNL A   1      42.504  27.558  29.301  1.00  0.00     0.167 HD
ATOM     49  C   UNL A   1      43.819  31.326  31.085  1.00  0.00     0.031 A 
ATOM     50  C   UNL A   1      42.875  24.952  28.349  1.00  0.00     0.031 A 
ATOM     51  C   UNL A   1      44.970  30.463  31.141  1.00  0.00     0.049 A 
ATOM     52  C   UNL A   1      44.205  25.387  28.903  1.00  0.00     0.074 A 
ATOM     53  C   UNL A   1      46.216  30.723  31.683  1.00  0.00     0.029 A 
ATOM     54  N   UNL A   1      45.014  29.172  30.636  1.00  0.00    -0.354 N 
ATOM     55  N   UNL A   1      44.531  26.527  29.462  1.00  0.00    -0.248 NA
ATOM     56  C   UNL A   1      45.304  24.414  28.828  1.00  0.00     0.031 C 
ATOM     57  C   UNL A   1      47.030  29.606  31.462  1.00  0.00     0.029 A 
ATOM     58  C   UNL A   1      46.273  28.630  30.834  1.00  0.00     0.049 A 
ATOM     59  H   UNL A   1      44.262  28.709  30.202  1.00  0.00     0.167 HD
ATOM     60  C   UNL A   1      45.866  26.399  29.832  1.00  0.00     0.074 A 
ATOM     61  C   UNL A   1      46.281  25.066  29.445  1.00  0.00     0.031 C 
ATOM     62  C   UNL A   1      46.672  27.302  30.443  1.00  0.00     0.031 A 
BRANCH  49  63
ATOM     63  C   UNL A   1      43.946  32.731  31.617  1.00  0.00    -0.014 A 
ATOM     64  C   UNL A   1      44.334  33.793  30.778  1.00  0.00     0.010 A 
ATOM     65  C   UNL A   1      43.656  32.998  32.968  1.00  0.00     0.010 A 
ATOM     66  C   UNL A   1      44.482  35.083  31.292  1.00  0.00     0.020 A 
ATOM     67  C   UNL A   1      43.775  34.294  33.479  1.00  0.00     0.020 A 
ATOM     68  C   UNL A   1      44.208  35.325  32.641  1.00  0.00     0.054 A 
BRANCH  68  69
ATOM     69  S   UNL A   1      44.406  37.010  33.280  1.00  0.00     0.124 S 
ATOM     70  O   UNL A   1      43.407  37.046  34.345  1.00  0.00    -0.237 OA
ATOM     71  O   UNL A   1      45.797  37.023  33.725  1.00  0.00    -0.237 OA
ATOM     72  O   UNL A   1      44.116  37.856  32.125  1.00  0.00    -0.744 OA
ENDBRANCH  68  69
ENDBRANCH  49  63
BRANCH  50  73
ATOM     73  C   UNL A   1      42.698  23.590  27.775  1.00  0.00    -0.014 A 
ATOM     74  C   UNL A   1      43.066  23.328  26.444  1.00  0.00     0.010 A 
ATOM     75  C   UNL A   1      42.173  22.545  28.557  1.00  0.00     0.010 A 
ATOM     76  C   UNL A   1      42.899  22.051  25.899  1.00  0.00     0.020 A 
ATOM     77  C   UNL A   1      42.029  21.261  28.025  1.00  0.00     0.020 A 
ATOM     78  C   UNL A   1      42.383  21.024  26.695  1.00  0.00     0.054 A 
BRANCH  78  79
ATOM     79  S   UNL A   1      42.225  19.362  25.983  1.00  0.00     0.124 S 
ATOM     80  O   UNL A   1      43.040  19.470  24.777  1.00  0.00    -0.237 OA
ATOM     81  O   UNL A   1      42.768  18.513  27.041  1.00  0.00    -0.237 OA
ATOM     82  O   UNL A   1      40.789  19.223  25.758  1.00  0.00    -0.744 OA
ENDBRANCH  78  79
ENDBRANCH  50  73
BRANCH  62  83
ATOM     83  C   UNL A   1      48.078  26.869  30.763  1.00  0.00    -0.014 A 
ATOM     84  C   UNL A   1      49.151  27.182  29.909  1.00  0.00     0.010 A 
ATOM     85  C   UNL A   1      48.334  26.185  31.965  1.00  0.00     0.010 A 
ATOM     86  C   UNL A   1      50.451  26.791  30.239  1.00  0.00     0.020 A 
ATOM     87  C   UNL A   1      49.637  25.816  32.311  1.00  0.00     0.020 A 
ATOM     88  C   UNL A   1      50.686  26.110  31.438  1.00  0.00     0.054 A 
BRANCH  88  89
ATOM     89  S   UNL A   1      52.389  25.655  31.866  1.00  0.00     0.124 S 
ATOM     90  O   UNL A   1      52.685  26.579  32.957  1.00  0.00    -0.237 OA
ATOM     91  O   UNL A   1      52.259  24.250  32.249  1.00  0.00    -0.237 OA
ATOM     92  O   UNL A   1      53.132  25.890  30.630  1.00  0.00    -0.744 OA
ENDBRANCH  88  89
ENDBRANCH  62  83
ENDBRANCH  36  37
ENDBRANCH  28  31
ENDBRANCH  26  27
ENDBRANCH  25  26
ENDBRANCH   1  25
TORSDOF 17
ENDMDL
MODEL 2
REMARK VINA RESULT:     -10.3      3.589      6.775
REMARK SMILES Cn1ccc(CNC(=O)[C@@H]2[C@@H]3CC[C@@H](C3)[C@@H]2C(=O)NCCCCNC(=O)c2ccc(-c3c4nc(c(-c5ccc(S(=O)(=O)[O-])cc5)c5ccc([nH]5)c(-c5ccc(S(=O)(=O)[O-])cc5)c5nc(c(-c6ccc(S(=O)(=O)[O-])cc6)c6ccc3[nH]6)C=C5)C=C4)cc2)n1
REMARK SMILES IDX 21 1 20 2 19 3 17 4 18 5 16 7 10 8 11 9 12 10 15 11 14 12
REMARK SMILES IDX 13 13 8 14 7 15 9 17 6 18 5 19 1 20 2 21 3 22 87 23 4 24
REMARK SMILES IDX 22 25 23 26 24 27 25 28 26 30 27 31 28 32 86 33 29 34 85 35
REMARK SMILES IDX 30 36 31 37 32 38 79 39 33 40 84 41 78 42 80 43 34 44 83 45
REMARK SMILES IDX 77 46 76 47 35 49 65 50 46 51 64 52 47 53 50 54 63 55 81 56
REMARK SMILES IDX 48 57 49 58 62 60 82 61 51 62 36 63 37 64 45 65 38 66 44 67
REMARK SMILES IDX 39 68 40 69 41 70 42 71 43 72 66 73 67 74 75 75 68 76 74 77
REMARK SMILES IDX 69 78 70 79 71 80 72 81 73 82 52 83 53 84 61 85 54 86 60 87
REMARK SMILES IDX 55 88 56 89 57 90 58 91 59 92
REMARK H PARENT 19 6 7 16 24 29 80 48 50 59
REMARK Flexibility Score: inf
ROOT
ATOM      1  C   UNL A   1      31.117  27.397  26.497  1.00  0.00     0.023 C 
ENDROOT
BRANCH   1   2
ATOM      2  C   UNL A   1      31.612  26.138  25.789  1.00  0.00     0.116 C 
BRANCH   2   3
ATOM      3  N   UNL A   1      31.423  24.921  26.549  1.00  0.00    -0.356 N 
ATOM      4  C   UNL A   1      32.294  23.912  26.838  1.00  0.00     0.224 C 
ATOM      5  O   UNL A   1      31.866  23.024  27.571  1.00  0.00    -0.275 OA
ATOM      6  H   UNL A   1      30.518  24.801  26.918  1.00  0.00     0.163 HD
BRANCH   4   7
ATOM      7  C   UNL A   1      33.666  23.854  26.163  1.00  0.00     0.094 C 
ATOM      8  C   UNL A   1      33.740  23.512  24.639  1.00  0.00     0.094 C 
ATOM      9  C   UNL A   1      34.791  22.361  24.595  1.00  0.00     0.002 C 
ATOM     10  C   UNL A   1      34.289  21.049  25.226  1.00  0.00     0.005 C 
ATOM     11  C   UNL A   1      35.764  22.815  25.682  1.00  0.00     0.009 C 
ATOM     12  C   UNL A   1      34.680  22.841  26.762  1.00  0.00     0.002 C 
ATOM     13  C   UNL A   1      34.116  21.415  26.699  1.00  0.00     0.005 C 
BRANCH   8  14
ATOM     14  C   UNL A   1      32.472  23.209  23.841  1.00  0.00     0.224 C 
ATOM     15  N   UNL A   1      32.285  23.783  22.625  1.00  0.00    -0.350 N 
ATOM     16  H   UNL A   1      31.440  23.544  22.180  1.00  0.00     0.163 HD
ATOM     17  O   UNL A   1      31.619  22.407  24.222  1.00  0.00    -0.275 OA
BRANCH  15  18
ATOM     18  C   UNL A   1      33.132  24.690  21.882  1.00  0.00     0.174 C 
BRANCH  18  19
ATOM     19  C   UNL A   1      32.685  26.092  22.159  1.00  0.00     0.082 A 
ATOM     20  C   UNL A   1      30.100  28.405  22.570  1.00  0.00     0.173 C 
ATOM     21  N   UNL A   1      31.367  27.724  22.458  1.00  0.00    -0.275 N 
ATOM     22  C   UNL A   1      32.598  28.223  22.762  1.00  0.00     0.108 A 
ATOM     23  N   UNL A   1      31.394  26.446  22.042  1.00  0.00    -0.176 NA
ATOM     24  C   UNL A   1      33.480  27.184  22.585  1.00  0.00     0.047 A 
ENDBRANCH  18  19
ENDBRANCH  15  18
ENDBRANCH   8  14
ENDBRANCH   4   7
ENDBRANCH   2   3
ENDBRANCH   1   2
BRANCH   1  25
ATOM     25  C   UNL A   1      31.953  27.893  27.674  1.00  0.00     0.023 C 
BRANCH  25  26
ATOM     26  C   UNL A   1      33.282  28.549  27.319  1.00  0.00     0.116 C 
BRANCH  26  27
ATOM     27  N   UNL A   1      33.297  29.981  27.572  1.00  0.00    -0.352 N 
ATOM     28  C   UNL A   1      34.303  30.781  28.065  1.00  0.00     0.251 C 
ATOM     29  H   UNL A   1      32.459  30.452  27.356  1.00  0.00     0.163 HD
ATOM     30  O   UNL A   1      34.069  31.954  28.334  1.00  0.00    -0.269 OA
BRANCH  28  31
ATOM     31  C   UNL A   1      35.652  30.219  28.305  1.00  0.00     0.039 A 
ATOM     32  C   UNL A   1      36.583  30.229  27.263  1.00  0.00     0.014 A 
ATOM     33  C   UNL A   1      36.005  29.698  29.552  1.00  0.00     0.014 A 
ATOM     34  C   UNL A   1      37.892  29.796  27.497  1.00  0.00     0.010 A 
ATOM     35  C   UNL A   1      37.329  29.345  29.806  1.00  0.00     0.010 A 
ATOM     36  C   UNL A   1      38.288  29.393  28.783  1.00  0.00    -0.014 A 
BRANCH  36  37
ATOM     37  C   UNL A   1      39.697  29.027  29.081  1.00  0.00     0.031 A 
ATOM     38  C   UNL A   1      40.629  30.037  29.699  1.00  0.00     0.074 A 
ATOM     39  C   UNL A   1      40.161  27.810  28.733  1.00  0.00     0.049 A 
ATOM     40  N   UNL A   1      41.904  29.926  29.969  1.00  0.00    -0.248 NA
ATOM     41  C   UNL A   1      40.056  31.352  30.031  1.00  0.00     0.031 C 
ATOM     42  C   UNL A   1      39.374  26.753  28.092  1.00  0.00     0.029 A 
ATOM     43  N   UNL A   1      41.411  27.257  28.862  1.00  0.00    -0.354 N 
ATOM     44  C   UNL A   1      42.290  31.158  30.484  1.00  0.00     0.074 A 
ATOM     45  C   UNL A   1      41.127  32.017  30.440  1.00  0.00     0.031 C 
ATOM     46  C   UNL A   1      40.149  25.670  27.917  1.00  0.00     0.029 A 
ATOM     47  C   UNL A   1      41.498  25.967  28.390  1.00  0.00     0.049 A 
ATOM     48  H   UNL A   1      42.174  27.737  29.257  1.00  0.00     0.167 HD
ATOM     49  C   UNL A   1      43.497  31.536  30.970  1.00  0.00     0.031 A 
ATOM     50  C   UNL A   1      42.544  25.120  28.339  1.00  0.00     0.031 A 
ATOM     51  C   UNL A   1      44.651  30.679  31.024  1.00  0.00     0.049 A 
ATOM     52  C   UNL A   1      43.879  25.568  28.870  1.00  0.00     0.074 A 
ATOM     53  C   UNL A   1      45.903  30.952  31.546  1.00  0.00     0.029 A 
ATOM     54  N   UNL A   1      44.695  29.381  30.538  1.00  0.00    -0.354 N 
ATOM     55  N   UNL A   1      44.207  26.717  29.408  1.00  0.00    -0.248 NA
ATOM     56  C   UNL A   1      44.981  24.598  28.796  1.00  0.00     0.031 C 
ATOM     57  C   UNL A   1      46.719  29.835  31.332  1.00  0.00     0.029 A 
ATOM     58  C   UNL A   1      45.958  28.846  30.728  1.00  0.00     0.049 A 
ATOM     59  H   UNL A   1      43.938  28.908  30.119  1.00  0.00     0.167 HD
ATOM     60  C   UNL A   1      45.547  26.600  29.763  1.00  0.00     0.074 A 
ATOM     61  C   UNL A   1      45.962  25.263  29.390  1.00  0.00     0.031 C 
ATOM     62  C   UNL A   1      46.357  27.514  30.351  1.00  0.00     0.031 A 
BRANCH  49  63
ATOM     63  C   UNL A   1      43.624  32.949  31.480  1.00  0.00    -0.014 A 
ATOM     64  C   UNL A   1      43.982  34.003  30.618  1.00  0.00     0.010 A 
ATOM     65  C   UNL A   1      43.366  33.232  32.834  1.00  0.00     0.010 A 
ATOM     66  C   UNL A   1      44.131  35.301  31.110  1.00  0.00     0.020 A 
ATOM     67  C   UNL A   1      43.486  34.536  33.324  1.00  0.00     0.020 A 
ATOM     68  C   UNL A   1      43.889  35.559  32.463  1.00  0.00     0.054 A 
BRANCH  68  69
ATOM     69  S   UNL A   1      44.089  37.254  33.074  1.00  0.00     0.124 S 
ATOM     70  O   UNL A   1      45.440  37.217  33.627  1.00  0.00    -0.237 OA
ATOM     71  O   UNL A   1      43.930  38.054  31.862  1.00  0.00    -0.237 OA
ATOM     72  O   UNL A   1      43.017  37.398  34.056  1.00  0.00    -0.744 OA
ENDBRANCH  68  69
ENDBRANCH  49  63
BRANCH  50  73
ATOM     73  C   UNL A   1      42.365  23.748  27.787  1.00  0.00    -0.014 A 
ATOM     74  C   UNL A   1      42.445  23.526  26.402  1.00  0.00     0.010 A 
ATOM     75  C   UNL A   1      42.127  22.657  28.642  1.00  0.00     0.010 A 
ATOM     76  C   UNL A   1      42.275  22.241  25.878  1.00  0.00     0.020 A 
ATOM     77  C   UNL A   1      41.982  21.366  28.125  1.00  0.00     0.020 A 
ATOM     78  C   UNL A   1      42.047  21.168  26.744  1.00  0.00     0.054 A 
BRANCH  78  79
ATOM     79  S   UNL A   1      41.882  19.501  26.047  1.00  0.00     0.124 S 
ATOM     80  O   UNL A   1      42.758  19.572  24.881  1.00  0.00    -0.237 OA
ATOM     81  O   UNL A   1      42.351  18.653  27.141  1.00  0.00    -0.237 OA
ATOM     82  O   UNL A   1      40.455  19.394  25.754  1.00  0.00    -0.744 OA
ENDBRANCH  78  79
ENDBRANCH  50  73
BRANCH  62  83
ATOM     83  C   UNL A   1      47.769  27.092  30.659  1.00  0.00    -0.014 A 
ATOM     84  C   UNL A   1      48.819  27.342  29.759  1.00  0.00     0.010 A 
ATOM     85  C   UNL A   1      48.053  26.482  31.895  1.00  0.00     0.010 A 
ATOM     86  C   UNL A   1      50.126  26.962  30.078  1.00  0.00     0.020 A 
ATOM     87  C   UNL A   1      49.363  26.126  32.229  1.00  0.00     0.020 A 
ATOM     88  C   UNL A   1      50.390  26.357  31.311  1.00  0.00     0.054 A 
BRANCH  88  89
ATOM     89  S   UNL A   1      52.101  25.916  31.721  1.00  0.00     0.124 S 
ATOM     90  O   UNL A   1      52.783  26.131  30.448  1.00  0.00    -0.237 OA
ATOM     91  O   UNL A   1      52.432  26.866  32.781  1.00  0.00    -0.237 OA
ATOM     92  O   UNL A   1      52.006  24.522  32.150  1.00  0.00    -0.744 OA
ENDBRANCH  88  89
ENDBRANCH  62  83
ENDBRANCH  36  37
ENDBRANCH  28  31
ENDBRANCH  26  27
ENDBRANCH  25  26
ENDBRANCH   1  25
TORSDOF 17
ENDMDL
MODEL 3
REMARK VINA RESULT:     -10.1      0.543      8.159
REMARK SMILES Cn1ccc(CNC(=O)[C@@H]2[C@@H]3CC[C@@H](C3)[C@@H]2C(=O)NCCCCNC(=O)c2ccc(-c3c4nc(c(-c5ccc(S(=O)(=O)[O-])cc5)c5ccc([nH]5)c(-c5ccc(S(=O)(=O)[O-])cc5)c5nc(c(-c6ccc(S(=O)(=O)[O-])cc6)c6ccc3[nH]6)C=C5)C=C4)cc2)n1
REMARK SMILES IDX 21 1 20 2 19 3 17 4 18 5 16 7 10 8 11 9 12 10 15 11 14 12
REMARK SMILES IDX 13 13 8 14 7 15 9 17 6 18 5 19 1 20 2 21 3 22 87 23 4 24
REMARK SMILES IDX 22 25 23 26 24 27 25 28 26 30 27 31 28 32 86 33 29 34 85 35
REMARK SMILES IDX 30 36 31 37 32 38 79 39 33 40 84 41 78 42 80 43 34 44 83 45
REMARK SMILES IDX 77 46 76 47 35 49 65 50 46 51 64 52 47 53 50 54 63 55 81 56
REMARK SMILES IDX 48 57 49 58 62 60 82 61 51 62 36 63 37 64 45 65 38 66 44 67
REMARK SMILES IDX 39 68 40 69 41 70 42 71 43 72 66 73 67 74 75 75 68 76 74 77
REMARK SMILES IDX 69 78 70 79 71 80 72 81 73 82 52 83 53 84 61 85 54 86 60 87
REMARK SMILES IDX 55 88 56 89 57 90 58 91 59 92
REMARK H PARENT 19 6 7 16 24 29 80 48 50 59
REMARK Flexibility Score: inf
ROOT
ATOM      1  C   UNL A   1      36.442  33.583  28.264  1.00  0.00     0.023 C 
ENDROOT
BRANCH   1   2
ATOM      2  C   UNL A   1      37.109  33.125  29.558  1.00  0.00     0.116 C 
BRANCH   2   3
ATOM      3  N   UNL A   1      37.073  34.108  30.620  1.00  0.00    -0.356 N 
ATOM      4  C   UNL A   1      37.241  33.964  31.966  1.00  0.00     0.224 C 
ATOM      5  O   UNL A   1      37.223  35.001  32.624  1.00  0.00    -0.275 OA
ATOM      6  H   UNL A   1      36.899  35.030  30.323  1.00  0.00     0.163 HD
BRANCH   4   7
ATOM      7  C   UNL A   1      37.309  32.572  32.596  1.00  0.00     0.094 C 
ATOM      8  C   UNL A   1      36.689  32.359  34.016  1.00  0.00     0.094 C 
ATOM      9  C   UNL A   1      37.847  31.663  34.796  1.00  0.00     0.002 C 
ATOM     10  C   UNL A   1      39.044  32.591  35.071  1.00  0.00     0.005 C 
ATOM     11  C   UNL A   1      38.447  30.783  33.701  1.00  0.00     0.009 C 
ATOM     12  C   UNL A   1      38.731  31.973  32.781  1.00  0.00     0.002 C 
ATOM     13  C   UNL A   1      39.586  32.884  33.673  1.00  0.00     0.005 C 
BRANCH   8  14
ATOM     14  C   UNL A   1      36.055  33.522  34.777  1.00  0.00     0.224 C 
ATOM     15  N   UNL A   1      34.854  34.014  34.381  1.00  0.00    -0.350 N 
ATOM     16  H   UNL A   1      34.518  34.769  34.918  1.00  0.00     0.163 HD
ATOM     17  O   UNL A   1      36.557  34.009  35.791  1.00  0.00    -0.275 OA
BRANCH  15  18
ATOM     18  C   UNL A   1      33.989  33.605  33.296  1.00  0.00     0.174 C 
BRANCH  18  19
ATOM     19  C   UNL A   1      33.753  34.786  32.406  1.00  0.00     0.082 A 
ATOM     20  C   UNL A   1      33.070  36.083  29.235  1.00  0.00     0.173 C 
ATOM     21  N   UNL A   1      33.355  35.880  30.634  1.00  0.00    -0.275 N 
ATOM     22  C   UNL A   1      33.326  36.816  31.624  1.00  0.00     0.108 A 
ATOM     23  N   UNL A   1      33.660  34.646  31.073  1.00  0.00    -0.176 NA
ATOM     24  C   UNL A   1      33.574  36.138  32.793  1.00  0.00     0.047 A 
ENDBRANCH  18  19
ENDBRANCH  15  18
ENDBRANCH   8  14
ENDBRANCH   4   7
ENDBRANCH   2   3
ENDBRANCH   1   2
BRANCH   1  25
ATOM     25  C   UNL A   1      35.020  33.086  28.013  1.00  0.00     0.023 C 
BRANCH  25  26
ATOM     26  C   UNL A   1      34.480  32.077  29.019  1.00  0.00     0.116 C 
BRANCH  26  27
ATOM     27  N   UNL A   1      34.049  30.832  28.404  1.00  0.00    -0.352 N 
ATOM     28  C   UNL A   1      34.789  29.744  27.998  1.00  0.00     0.251 C 
ATOM     29  H   UNL A   1      33.078  30.754  28.255  1.00  0.00     0.163 HD
ATOM     30  O   UNL A   1      34.247  28.841  27.371  1.00  0.00    -0.269 OA
BRANCH  28  31
ATOM     31  C   UNL A   1      36.241  29.681  28.285  1.00  0.00     0.039 A 
ATOM     32  C   UNL A   1      36.661  29.320  29.568  1.00  0.00     0.014 A 
ATOM     33  C   UNL A   1      37.185  29.962  27.295  1.00  0.00     0.014 A 
ATOM     34  C   UNL A   1      38.025  29.159  29.833  1.00  0.00     0.010 A 
ATOM     35  C   UNL A   1      38.535  29.720  27.536  1.00  0.00     0.010 A 
ATOM     36  C   UNL A   1      38.970  29.312  28.806  1.00  0.00    -0.014 A 
BRANCH  36  37
ATOM     37  C   UNL A   1      40.414  29.045  29.035  1.00  0.00     0.031 A 
ATOM     38  C   UNL A   1      41.002  27.702  28.686  1.00  0.00     0.074 A 
ATOM     39  C   UNL A   1      41.184  29.983  29.623  1.00  0.00     0.049 A 
ATOM     40  N   UNL A   1      42.219  27.260  28.875  1.00  0.00    -0.248 NA
ATOM     41  C   UNL A   1      40.095  26.721  28.069  1.00  0.00     0.031 C 
ATOM     42  C   UNL A   1      40.731  31.310  30.047  1.00  0.00     0.029 A 
ATOM     43  N   UNL A   1      42.512  29.962  29.973  1.00  0.00    -0.354 N 
ATOM     44  C   UNL A   1      42.219  25.947  28.418  1.00  0.00     0.074 A 
ATOM     45  C   UNL A   1      40.870  25.649  27.992  1.00  0.00     0.031 C 
ATOM     46  C   UNL A   1      41.768  31.987  30.566  1.00  0.00     0.029 A 
ATOM     47  C   UNL A   1      42.950  31.130  30.555  1.00  0.00     0.049 A 
ATOM     48  H   UNL A   1      43.097  29.185  29.820  1.00  0.00     0.167 HD
ATOM     49  C   UNL A   1      43.252  25.074  28.340  1.00  0.00     0.031 A 
ATOM     50  C   UNL A   1      44.163  31.472  31.029  1.00  0.00     0.031 A 
ATOM     51  C   UNL A   1      44.597  25.374  28.754  1.00  0.00     0.049 A 
ATOM     52  C   UNL A   1      45.291  30.480  30.946  1.00  0.00     0.074 A 
ATOM     53  C   UNL A   1      45.724  24.576  28.666  1.00  0.00     0.029 A 
ATOM     54  N   UNL A   1      44.997  26.568  29.335  1.00  0.00    -0.354 N 
ATOM     55  N   UNL A   1      45.284  29.265  30.455  1.00  0.00    -0.248 NA
ATOM     56  C   UNL A   1      46.594  30.913  31.473  1.00  0.00     0.031 C 
ATOM     57  C   UNL A   1      46.796  25.270  29.239  1.00  0.00     0.029 A 
ATOM     58  C   UNL A   1      46.349  26.521  29.631  1.00  0.00     0.049 A 
ATOM     59  H   UNL A   1      44.407  27.337  29.511  1.00  0.00     0.167 HD
ATOM     60  C   UNL A   1      46.588  28.796  30.587  1.00  0.00     0.074 A 
ATOM     61  C   UNL A   1      47.357  29.865  31.191  1.00  0.00     0.031 C 
ATOM     62  C   UNL A   1      47.101  27.592  30.233  1.00  0.00     0.031 A 
BRANCH  49  63
ATOM     63  C   UNL A   1      42.958  23.704  27.785  1.00  0.00    -0.014 A 
ATOM     64  C   UNL A   1      43.166  23.412  26.423  1.00  0.00     0.010 A 
ATOM     65  C   UNL A   1      42.485  22.689  28.637  1.00  0.00     0.010 A 
ATOM     66  C   UNL A   1      42.855  22.149  25.915  1.00  0.00     0.020 A 
ATOM     67  C   UNL A   1      42.201  21.414  28.136  1.00  0.00     0.020 A 
ATOM     68  C   UNL A   1      42.368  21.159  26.773  1.00  0.00     0.054 A 
BRANCH  68  69
ATOM     69  S   UNL A   1      41.976  19.528  26.086  1.00  0.00     0.124 S 
ATOM     70  O   UNL A   1      42.821  19.493  24.895  1.00  0.00    -0.237 OA
ATOM     71  O   UNL A   1      42.371  18.623  27.162  1.00  0.00    -0.237 OA
ATOM     72  O   UNL A   1      40.539  19.595  25.829  1.00  0.00    -0.744 OA
ENDBRANCH  68  69
ENDBRANCH  49  63
BRANCH  50  73
ATOM     73  C   UNL A   1      44.382  32.829  31.603  1.00  0.00    -0.014 A 
ATOM     74  C   UNL A   1      44.148  33.068  32.968  1.00  0.00     0.010 A 
ATOM     75  C   UNL A   1      44.838  33.885  30.793  1.00  0.00     0.010 A 
ATOM     76  C   UNL A   1      44.349  34.340  33.511  1.00  0.00     0.020 A 
ATOM     77  C   UNL A   1      45.065  35.152  31.337  1.00  0.00     0.020 A 
ATOM     78  C   UNL A   1      44.809  35.375  32.691  1.00  0.00     0.054 A 
BRANCH  78  79
ATOM     79  S   UNL A   1      45.115  37.005  33.429  1.00  0.00     0.124 S 
ATOM     80  O   UNL A   1      46.558  36.972  33.649  1.00  0.00    -0.237 OA
ATOM     81  O   UNL A   1      44.654  37.916  32.384  1.00  0.00    -0.237 OA
ATOM     82  O   UNL A   1      44.296  36.990  34.638  1.00  0.00    -0.744 OA
ENDBRANCH  78  79
ENDBRANCH  50  73
BRANCH  62  83
ATOM     83  C   UNL A   1      48.574  27.374  30.459  1.00  0.00    -0.014 A 
ATOM     84  C   UNL A   1      49.056  26.834  31.664  1.00  0.00     0.010 A 
ATOM     85  C   UNL A   1      49.482  27.666  29.425  1.00  0.00     0.010 A 
ATOM     86  C   UNL A   1      50.425  26.618  31.842  1.00  0.00     0.020 A 
ATOM     87  C   UNL A   1      50.849  27.426  29.589  1.00  0.00     0.020 A 
ATOM     88  C   UNL A   1      51.313  26.916  30.803  1.00  0.00     0.054 A 
BRANCH  88  89
ATOM     89  S   UNL A   1      53.081  26.583  31.040  1.00  0.00     0.124 S 
ATOM     90  O   UNL A   1      53.523  27.783  31.743  1.00  0.00    -0.237 OA
ATOM     91  O   UNL A   1      53.072  25.356  31.834  1.00  0.00    -0.237 OA
ATOM     92  O   UNL A   1      53.591  26.433  29.679  1.00  0.00    -0.744 OA
ENDBRANCH  88  89
ENDBRANCH  62  83
ENDBRANCH  36  37
ENDBRANCH  28  31
ENDBRANCH  26  27
ENDBRANCH  25  26
ENDBRANCH   1  25
TORSDOF 17
ENDMDL
