MODEL 1
REMARK VINA RESULT:     -14.0      0.000      0.000
REMARK SMILES Cc1ccc(-c2[nH]c3ccccc3c2[C@@H]2c3ccccc3C(=O)N2[C@H](C)C(=O)NCCCCNC(=O)c2ccc(-c3c4nc(c(-c5ccc(S(=O)(=O)[O-])cc5)c5ccc([nH]5)c(-c5ccc(S(=O)(=O)[O-])cc5)c5nc(c(-c6ccc(S(=O)(=O)[O-])cc6)c6ccc3[nH]6)C=C5)C=C4)cc2)cc1
REMARK SMILES IDX 31 1 30 2 29 3 27 4 28 5 25 7 26 8 24 9 15 10 16 11 17 12
REMARK SMILES IDX 21 13 22 14 18 15 20 16 23 17 19 18 14 19 6 20 7 21 8 22
REMARK SMILES IDX 13 24 9 25 12 26 10 27 11 28 5 29 1 30 2 31 3 32 98 33 4 34
REMARK SMILES IDX 97 35 32 36 33 37 34 38 35 39 36 41 37 42 38 43 96 44 39 45
REMARK SMILES IDX 95 46 40 47 41 48 42 49 89 50 43 51 94 52 88 53 90 54 44 55
REMARK SMILES IDX 93 56 87 57 86 58 45 60 75 61 56 62 74 63 57 64 60 65 73 66
REMARK SMILES IDX 91 67 58 68 59 69 72 71 92 72 61 73 46 74 47 75 55 76 48 77
REMARK SMILES IDX 54 78 49 79 50 80 51 81 52 82 53 83 76 84 77 85 85 86 78 87
REMARK SMILES IDX 84 88 79 89 80 90 81 91 82 92 83 93 62 94 63 95 71 96 64 97
REMARK SMILES IDX 70 98 65 99 66 100 67 101 68 102 69 103
REMARK H PARENT 29 6 7 23 34 40 90 59 60 70
REMARK Flexibility Score: inf
ROOT
ATOM      1  C   UNL A   1      33.403  28.477  24.039  1.00  0.00     0.023 C 
ENDROOT
BRANCH   1   2
ATOM      2  C   UNL A   1      32.825  27.132  23.615  1.00  0.00     0.116 C 
BRANCH   2   3
ATOM      3  N   UNL A   1      33.233  26.682  22.314  1.00  0.00    -0.354 N 
ATOM      4  C   UNL A   1      33.131  25.465  21.731  1.00  0.00     0.242 C 
ATOM      5  O   UNL A   1      33.332  25.474  20.503  1.00  0.00    -0.273 OA
ATOM      6  H   UNL A   1      33.657  27.373  21.755  1.00  0.00     0.163 HD
BRANCH   4   7
ATOM      7  C   UNL A   1      33.141  24.088  22.469  1.00  0.00     0.172 C 
ATOM      8  C   UNL A   1      32.796  23.104  21.320  1.00  0.00     0.042 C 
BRANCH   7   9
ATOM      9  N   UNL A   1      34.015  23.367  23.427  1.00  0.00    -0.316 N 
ATOM     10  C   UNL A   1      34.490  21.966  23.469  1.00  0.00     0.151 C 
ATOM     11  C   UNL A   1      35.755  22.093  24.302  1.00  0.00    -0.008 A 
ATOM     12  C   UNL A   1      36.929  21.365  24.393  1.00  0.00     0.007 A 
ATOM     13  C   UNL A   1      35.721  23.300  24.983  1.00  0.00     0.045 A 
ATOM     14  C   UNL A   1      34.791  24.159  24.280  1.00  0.00     0.255 C 
ATOM     15  C   UNL A   1      37.940  21.816  25.271  1.00  0.00     0.000 A 
ATOM     16  C   UNL A   1      36.625  23.720  25.937  1.00  0.00     0.014 A 
ATOM     17  O   UNL A   1      34.846  25.369  24.380  1.00  0.00    -0.269 OA
ATOM     18  C   UNL A   1      37.759  22.944  26.092  1.00  0.00     0.001 A 
BRANCH  10  19
ATOM     19  C   UNL A   1      33.559  21.072  24.292  1.00  0.00     0.013 A 
ATOM     20  C   UNL A   1      32.616  21.515  25.226  1.00  0.00     0.052 A 
ATOM     21  N   UNL A   1      32.227  20.444  25.999  1.00  0.00    -0.354 N 
ATOM     22  C   UNL A   1      32.770  19.281  25.501  1.00  0.00     0.046 A 
ATOM     23  H   UNL A   1      31.647  20.501  26.791  1.00  0.00     0.167 HD
ATOM     24  C   UNL A   1      33.512  19.624  24.367  1.00  0.00     0.006 A 
ATOM     25  C   UNL A   1      32.747  17.981  26.034  1.00  0.00     0.027 A 
ATOM     26  C   UNL A   1      34.133  18.569  23.662  1.00  0.00     0.011 A 
ATOM     27  C   UNL A   1      33.476  16.990  25.374  1.00  0.00     0.002 A 
ATOM     28  C   UNL A   1      34.129  17.269  24.180  1.00  0.00     0.001 A 
BRANCH  20  29
ATOM     29  C   UNL A   1      32.124  22.853  25.498  1.00  0.00    -0.002 A 
ATOM     30  C   UNL A   1      30.612  26.772  26.444  1.00  0.00     0.044 C 
ATOM     31  C   UNL A   1      31.137  25.402  26.132  1.00  0.00    -0.051 A 
ATOM     32  C   UNL A   1      32.191  24.857  26.865  1.00  0.00     0.004 A 
ATOM     33  C   UNL A   1      30.571  24.645  25.100  1.00  0.00     0.004 A 
ATOM     34  C   UNL A   1      32.678  23.587  26.551  1.00  0.00     0.010 A 
ATOM     35  C   UNL A   1      31.085  23.397  24.751  1.00  0.00     0.010 A 
ENDBRANCH  20  29
ENDBRANCH  10  19
ENDBRANCH   7   9
ENDBRANCH   4   7
ENDBRANCH   2   3
ENDBRANCH   1   2
BRANCH   1  36
ATOM     36  C   UNL A   1      32.579  29.402  24.917  1.00  0.00     0.023 C 
BRANCH  36  37
ATOM     37  C   UNL A   1      33.203  29.632  26.273  1.00  0.00     0.116 C 
BRANCH  37  38
ATOM     38  N   UNL A   1      33.835  30.918  26.516  1.00  0.00    -0.352 N 
ATOM     39  C   UNL A   1      34.708  31.212  27.562  1.00  0.00     0.251 C 
ATOM     40  H   UNL A   1      33.628  31.646  25.885  1.00  0.00     0.163 HD
ATOM     41  O   UNL A   1      34.784  32.328  28.060  1.00  0.00    -0.269 OA
BRANCH  39  42
ATOM     42  C   UNL A   1      35.688  30.158  27.931  1.00  0.00     0.039 A 
ATOM     43  C   UNL A   1      35.633  29.638  29.232  1.00  0.00     0.014 A 
ATOM     44  C   UNL A   1      36.823  29.982  27.155  1.00  0.00     0.014 A 
ATOM     45  C   UNL A   1      36.798  29.164  29.821  1.00  0.00     0.010 A 
ATOM     46  C   UNL A   1      38.005  29.751  27.801  1.00  0.00     0.010 A 
ATOM     47  C   UNL A   1      37.988  29.365  29.142  1.00  0.00    -0.014 A 
BRANCH  47  48
ATOM     48  C   UNL A   1      39.308  29.098  29.659  1.00  0.00     0.031 A 
ATOM     49  C   UNL A   1      39.952  27.861  29.198  1.00  0.00     0.074 A 
ATOM     50  C   UNL A   1      39.962  30.113  30.258  1.00  0.00     0.049 A 
ATOM     51  N   UNL A   1      41.016  27.359  29.709  1.00  0.00    -0.248 NA
ATOM     52  C   UNL A   1      39.389  27.039  28.123  1.00  0.00     0.031 C 
ATOM     53  C   UNL A   1      41.396  30.303  30.425  1.00  0.00     0.029 A 
ATOM     54  N   UNL A   1      39.387  31.100  31.059  1.00  0.00    -0.354 N 
ATOM     55  C   UNL A   1      41.466  26.413  28.815  1.00  0.00     0.074 A 
ATOM     56  C   UNL A   1      40.349  26.131  27.952  1.00  0.00     0.031 C 
ATOM     57  C   UNL A   1      41.598  31.155  31.448  1.00  0.00     0.029 A 
ATOM     58  C   UNL A   1      40.302  31.359  32.088  1.00  0.00     0.049 A 
ATOM     59  H   UNL A   1      38.511  31.530  30.927  1.00  0.00     0.167 HD
ATOM     60  C   UNL A   1      42.798  26.136  28.784  1.00  0.00     0.031 A 
ATOM     61  C   UNL A   1      40.007  30.999  33.377  1.00  0.00     0.031 A 
ATOM     62  C   UNL A   1      43.500  26.867  29.843  1.00  0.00     0.049 A 
ATOM     63  C   UNL A   1      40.964  29.966  33.925  1.00  0.00     0.074 A 
ATOM     64  C   UNL A   1      44.324  27.980  29.847  1.00  0.00     0.029 A 
ATOM     65  N   UNL A   1      43.107  26.676  31.159  1.00  0.00    -0.354 N 
ATOM     66  N   UNL A   1      41.726  29.216  33.177  1.00  0.00    -0.248 NA
ATOM     67  C   UNL A   1      41.135  29.686  35.345  1.00  0.00     0.031 C 
ATOM     68  C   UNL A   1      44.412  28.457  31.189  1.00  0.00     0.029 A 
ATOM     69  C   UNL A   1      43.663  27.620  31.997  1.00  0.00     0.049 A 
ATOM     70  H   UNL A   1      42.505  25.957  31.458  1.00  0.00     0.167 HD
ATOM     71  C   UNL A   1      42.488  28.395  33.960  1.00  0.00     0.074 A 
ATOM     72  C   UNL A   1      42.044  28.693  35.313  1.00  0.00     0.031 C 
ATOM     73  C   UNL A   1      43.405  27.533  33.428  1.00  0.00     0.031 A 
BRANCH  60  74
ATOM     74  C   UNL A   1      43.507  25.433  27.648  1.00  0.00    -0.014 A 
ATOM     75  C   UNL A   1      43.705  24.040  27.735  1.00  0.00     0.010 A 
ATOM     76  C   UNL A   1      44.042  26.057  26.503  1.00  0.00     0.010 A 
ATOM     77  C   UNL A   1      44.433  23.326  26.774  1.00  0.00     0.020 A 
ATOM     78  C   UNL A   1      44.782  25.359  25.536  1.00  0.00     0.020 A 
ATOM     79  C   UNL A   1      44.976  23.993  25.680  1.00  0.00     0.054 A 
BRANCH  79  80
ATOM     80  S   UNL A   1      45.908  23.054  24.447  1.00  0.00     0.124 S 
ATOM     81  O   UNL A   1      46.862  24.046  23.955  1.00  0.00    -0.237 OA
ATOM     82  O   UNL A   1      46.477  21.972  25.245  1.00  0.00    -0.237 OA
ATOM     83  O   UNL A   1      44.891  22.645  23.481  1.00  0.00    -0.744 OA
ENDBRANCH  79  80
ENDBRANCH  60  74
BRANCH  61  84
ATOM     84  C   UNL A   1      38.554  31.140  33.739  1.00  0.00    -0.014 A 
ATOM     85  C   UNL A   1      38.142  32.361  34.304  1.00  0.00     0.010 A 
ATOM     86  C   UNL A   1      37.590  30.375  33.061  1.00  0.00     0.010 A 
ATOM     87  C   UNL A   1      36.931  32.956  33.928  1.00  0.00     0.020 A 
ATOM     88  C   UNL A   1      36.352  30.950  32.718  1.00  0.00     0.020 A 
ATOM     89  C   UNL A   1      36.091  32.280  33.052  1.00  0.00     0.054 A 
BRANCH  89  90
ATOM     90  S   UNL A   1      34.784  33.224  32.208  1.00  0.00     0.124 S 
ATOM     91  O   UNL A   1      35.438  34.499  31.931  1.00  0.00    -0.237 OA
ATOM     92  O   UNL A   1      34.516  32.400  31.025  1.00  0.00    -0.237 OA
ATOM     93  O   UNL A   1      33.715  33.273  33.198  1.00  0.00    -0.744 OA
ENDBRANCH  89  90
ENDBRANCH  61  84
BRANCH  73  94
ATOM     94  C   UNL A   1      44.123  26.463  34.209  1.00  0.00    -0.014 A 
ATOM     95  C   UNL A   1      45.428  26.588  34.697  1.00  0.00     0.010 A 
ATOM     96  C   UNL A   1      43.463  25.232  34.449  1.00  0.00     0.010 A 
ATOM     97  C   UNL A   1      45.992  25.590  35.501  1.00  0.00     0.020 A 
ATOM     98  C   UNL A   1      44.023  24.219  35.221  1.00  0.00     0.020 A 
ATOM     99  C   UNL A   1      45.274  24.423  35.778  1.00  0.00     0.054 A 
BRANCH  99 100
ATOM    100  S   UNL A   1      46.002  23.170  36.855  1.00  0.00     0.124 S 
ATOM    101  O   UNL A   1      47.433  23.354  36.628  1.00  0.00    -0.237 OA
ATOM    102  O   UNL A   1      45.515  23.584  38.169  1.00  0.00    -0.237 OA
ATOM    103  O   UNL A   1      45.451  21.913  36.354  1.00  0.00    -0.744 OA
ENDBRANCH  99 100
ENDBRANCH  73  94
ENDBRANCH  47  48
ENDBRANCH  39  42
ENDBRANCH  37  38
ENDBRANCH  36  37
ENDBRANCH   1  36
TORSDOF 17
ENDMDL
MODEL 2
REMARK VINA RESULT:     -13.9      0.768      2.735
REMARK SMILES Cc1ccc(-c2[nH]c3ccccc3c2[C@@H]2c3ccccc3C(=O)N2[C@H](C)C(=O)NCCCCNC(=O)c2ccc(-c3c4nc(c(-c5ccc(S(=O)(=O)[O-])cc5)c5ccc([nH]5)c(-c5ccc(S(=O)(=O)[O-])cc5)c5nc(c(-c6ccc(S(=O)(=O)[O-])cc6)c6ccc3[nH]6)C=C5)C=C4)cc2)cc1
REMARK SMILES IDX 31 1 30 2 29 3 27 4 28 5 25 7 26 8 24 9 15 10 16 11 17 12
REMARK SMILES IDX 21 13 22 14 18 15 20 16 23 17 19 18 14 19 6 20 7 21 8 22
REMARK SMILES IDX 13 24 9 25 12 26 10 27 11 28 5 29 1 30 2 31 3 32 98 33 4 34
REMARK SMILES IDX 97 35 32 36 33 37 34 38 35 39 36 41 37 42 38 43 96 44 39 45
REMARK SMILES IDX 95 46 40 47 41 48 42 49 89 50 43 51 94 52 88 53 90 54 44 55
REMARK SMILES IDX 93 56 87 57 86 58 45 60 75 61 56 62 74 63 57 64 60 65 73 66
REMARK SMILES IDX 91 67 58 68 59 69 72 71 92 72 61 73 46 74 47 75 55 76 48 77
REMARK SMILES IDX 54 78 49 79 50 80 51 81 52 82 53 83 76 84 77 85 85 86 78 87
REMARK SMILES IDX 84 88 79 89 80 90 81 91 82 92 83 93 62 94 63 95 71 96 64 97
REMARK SMILES IDX 70 98 65 99 66 100 67 101 68 102 69 103
REMARK H PARENT 29 6 7 23 34 40 90 59 60 70
REMARK Flexibility Score: inf
ROOT
ATOM      1  C   UNL A   1      32.873  28.964  24.609  1.00  0.00     0.023 C 
ENDROOT
BRANCH   1   2
ATOM      2  C   UNL A   1      32.172  27.901  23.772  1.00  0.00     0.116 C 
BRANCH   2   3
ATOM      3  N   UNL A   1      32.802  27.609  22.516  1.00  0.00    -0.354 N 
ATOM      4  C   UNL A   1      32.869  26.455  21.811  1.00  0.00     0.242 C 
ATOM      5  O   UNL A   1      33.253  26.601  20.637  1.00  0.00    -0.273 OA
ATOM      6  H   UNL A   1      33.259  28.374  22.098  1.00  0.00     0.163 HD
BRANCH   4   7
ATOM      7  C   UNL A   1      32.858  25.012  22.409  1.00  0.00     0.172 C 
ATOM      8  C   UNL A   1      32.796  24.135  21.131  1.00  0.00     0.042 C 
BRANCH   7   9
ATOM      9  N   UNL A   1      33.606  24.248  23.437  1.00  0.00    -0.316 N 
ATOM     10  C   UNL A   1      33.699  22.798  23.719  1.00  0.00     0.151 C 
ATOM     11  C   UNL A   1      35.032  22.709  24.444  1.00  0.00    -0.008 A 
ATOM     12  C   UNL A   1      35.977  21.710  24.609  1.00  0.00     0.007 A 
ATOM     13  C   UNL A   1      35.385  23.974  24.885  1.00  0.00     0.045 A 
ATOM     14  C   UNL A   1      34.646  24.926  24.084  1.00  0.00     0.255 C 
ATOM     15  C   UNL A   1      37.156  22.004  25.331  1.00  0.00     0.000 A 
ATOM     16  C   UNL A   1      36.461  24.282  25.694  1.00  0.00     0.014 A 
ATOM     17  O   UNL A   1      35.025  26.073  23.950  1.00  0.00    -0.269 OA
ATOM     18  C   UNL A   1      37.361  23.260  25.931  1.00  0.00     0.001 A 
BRANCH  10  19
ATOM     19  C   UNL A   1      32.656  22.347  24.744  1.00  0.00     0.013 A 
ATOM     20  C   UNL A   1      32.220  21.033  24.941  1.00  0.00     0.052 A 
ATOM     21  N   UNL A   1      31.057  21.062  25.678  1.00  0.00    -0.354 N 
ATOM     22  C   UNL A   1      30.800  22.346  26.103  1.00  0.00     0.046 A 
ATOM     23  H   UNL A   1      30.492  20.280  25.873  1.00  0.00     0.167 HD
ATOM     24  C   UNL A   1      31.842  23.152  25.635  1.00  0.00     0.006 A 
ATOM     25  C   UNL A   1      29.673  22.861  26.766  1.00  0.00     0.027 A 
ATOM     26  C   UNL A   1      31.805  24.519  25.990  1.00  0.00     0.011 A 
ATOM     27  C   UNL A   1      29.619  24.239  26.989  1.00  0.00     0.002 A 
ATOM     28  C   UNL A   1      30.689  25.054  26.642  1.00  0.00     0.001 A 
BRANCH  20  29
ATOM     29  C   UNL A   1      32.753  19.782  24.432  1.00  0.00    -0.002 A 
ATOM     30  C   UNL A   1      34.465  16.147  22.885  1.00  0.00     0.044 C 
ATOM     31  C   UNL A   1      33.885  17.421  23.424  1.00  0.00    -0.051 A 
ATOM     32  C   UNL A   1      34.432  18.034  24.551  1.00  0.00     0.004 A 
ATOM     33  C   UNL A   1      32.785  18.019  22.798  1.00  0.00     0.004 A 
ATOM     34  C   UNL A   1      33.871  19.211  25.048  1.00  0.00     0.010 A 
ATOM     35  C   UNL A   1      32.190  19.167  23.320  1.00  0.00     0.010 A 
ENDBRANCH  20  29
ENDBRANCH  10  19
ENDBRANCH   7   9
ENDBRANCH   4   7
ENDBRANCH   2   3
ENDBRANCH   1   2
BRANCH   1  36
ATOM     36  C   UNL A   1      32.148  29.585  25.790  1.00  0.00     0.023 C 
BRANCH  36  37
ATOM     37  C   UNL A   1      33.069  29.889  26.948  1.00  0.00     0.116 C 
BRANCH  37  38
ATOM     38  N   UNL A   1      33.856  31.110  26.882  1.00  0.00    -0.352 N 
ATOM     39  C   UNL A   1      34.949  31.418  27.689  1.00  0.00     0.251 C 
ATOM     40  H   UNL A   1      33.594  31.777  26.207  1.00  0.00     0.163 HD
ATOM     41  O   UNL A   1      35.232  32.568  28.001  1.00  0.00    -0.269 OA
BRANCH  39  42
ATOM     42  C   UNL A   1      35.881  30.305  28.008  1.00  0.00     0.039 A 
ATOM     43  C   UNL A   1      35.791  29.717  29.277  1.00  0.00     0.014 A 
ATOM     44  C   UNL A   1      37.015  30.123  27.232  1.00  0.00     0.014 A 
ATOM     45  C   UNL A   1      36.930  29.163  29.849  1.00  0.00     0.010 A 
ATOM     46  C   UNL A   1      38.179  29.807  27.873  1.00  0.00     0.010 A 
ATOM     47  C   UNL A   1      38.133  29.349  29.191  1.00  0.00    -0.014 A 
BRANCH  47  48
ATOM     48  C   UNL A   1      39.436  28.998  29.702  1.00  0.00     0.031 A 
ATOM     49  C   UNL A   1      40.013  27.740  29.211  1.00  0.00     0.074 A 
ATOM     50  C   UNL A   1      40.143  29.962  30.325  1.00  0.00     0.049 A 
ATOM     51  N   UNL A   1      41.047  27.169  29.711  1.00  0.00    -0.248 NA
ATOM     52  C   UNL A   1      39.408  26.977  28.116  1.00  0.00     0.031 C 
ATOM     53  C   UNL A   1      41.585  30.069  30.498  1.00  0.00     0.029 A 
ATOM     54  N   UNL A   1      39.620  30.959  31.150  1.00  0.00    -0.354 N 
ATOM     55  C   UNL A   1      41.447  26.221  28.794  1.00  0.00     0.074 A 
ATOM     56  C   UNL A   1      40.317  26.022  27.924  1.00  0.00     0.031 C 
ATOM     57  C   UNL A   1      41.830  30.884  31.542  1.00  0.00     0.029 A 
ATOM     58  C   UNL A   1      40.546  31.143  32.186  1.00  0.00     0.049 A 
ATOM     59  H   UNL A   1      38.770  31.439  31.028  1.00  0.00     0.167 HD
ATOM     60  C   UNL A   1      42.761  25.874  28.758  1.00  0.00     0.031 A 
ATOM     61  C   UNL A   1      40.229  30.768  33.466  1.00  0.00     0.031 A 
ATOM     62  C   UNL A   1      43.500  26.540  29.834  1.00  0.00     0.049 A 
ATOM     63  C   UNL A   1      41.127  29.671  33.988  1.00  0.00     0.074 A 
ATOM     64  C   UNL A   1      44.383  27.606  29.867  1.00  0.00     0.029 A 
ATOM     65  N   UNL A   1      43.094  26.338  31.145  1.00  0.00    -0.354 N 
ATOM     66  N   UNL A   1      41.849  28.899  33.223  1.00  0.00    -0.248 NA
ATOM     67  C   UNL A   1      41.280  29.349  35.402  1.00  0.00     0.031 C 
ATOM     68  C   UNL A   1      44.494  28.044  31.219  1.00  0.00     0.029 A 
ATOM     69  C   UNL A   1      43.699  27.229  32.006  1.00  0.00     0.049 A 
ATOM     70  H   UNL A   1      42.453  25.645  31.426  1.00  0.00     0.167 HD
ATOM     71  C   UNL A   1      42.563  28.019  33.986  1.00  0.00     0.074 A 
ATOM     72  C   UNL A   1      42.133  28.309  35.346  1.00  0.00     0.031 C 
ATOM     73  C   UNL A   1      43.434  27.122  33.435  1.00  0.00     0.031 A 
BRANCH  60  74
ATOM     74  C   UNL A   1      43.433  25.160  27.606  1.00  0.00    -0.014 A 
ATOM     75  C   UNL A   1      43.564  23.758  27.663  1.00  0.00     0.010 A 
ATOM     76  C   UNL A   1      43.995  25.782  26.471  1.00  0.00     0.010 A 
ATOM     77  C   UNL A   1      44.255  23.029  26.686  1.00  0.00     0.020 A 
ATOM     78  C   UNL A   1      44.699  25.069  25.489  1.00  0.00     0.020 A 
ATOM     79  C   UNL A   1      44.827  23.693  25.605  1.00  0.00     0.054 A 
BRANCH  79  80
ATOM     80  S   UNL A   1      45.711  22.735  24.349  1.00  0.00     0.124 S 
ATOM     81  O   UNL A   1      46.309  21.662  25.139  1.00  0.00    -0.237 OA
ATOM     82  O   UNL A   1      44.634  22.333  23.450  1.00  0.00    -0.237 OA
ATOM     83  O   UNL A   1      46.663  23.692  23.789  1.00  0.00    -0.744 OA
ENDBRANCH  79  80
ENDBRANCH  60  74
BRANCH  61  84
ATOM     84  C   UNL A   1      38.785  30.979  33.830  1.00  0.00    -0.014 A 
ATOM     85  C   UNL A   1      38.432  32.221  34.389  1.00  0.00     0.010 A 
ATOM     86  C   UNL A   1      37.785  30.257  33.157  1.00  0.00     0.010 A 
ATOM     87  C   UNL A   1      37.250  32.870  34.012  1.00  0.00     0.020 A 
ATOM     88  C   UNL A   1      36.575  30.887  32.814  1.00  0.00     0.020 A 
ATOM     89  C   UNL A   1      36.377  32.230  33.141  1.00  0.00     0.054 A 
BRANCH  89  90
ATOM     90  S   UNL A   1      35.114  33.230  32.296  1.00  0.00     0.124 S 
ATOM     91  O   UNL A   1      34.271  33.681  33.398  1.00  0.00    -0.237 OA
ATOM     92  O   UNL A   1      35.917  34.283  31.666  1.00  0.00    -0.237 OA
ATOM     93  O   UNL A   1      34.491  32.280  31.381  1.00  0.00    -0.744 OA
ENDBRANCH  89  90
ENDBRANCH  61  84
BRANCH  73  94
ATOM     94  C   UNL A   1      44.091  25.996  34.190  1.00  0.00    -0.014 A 
ATOM     95  C   UNL A   1      43.408  24.884  34.694  1.00  0.00     0.010 A 
ATOM     96  C   UNL A   1      45.484  26.063  34.443  1.00  0.00     0.010 A 
ATOM     97  C   UNL A   1      44.103  23.828  35.297  1.00  0.00     0.020 A 
ATOM     98  C   UNL A   1      46.183  25.035  35.067  1.00  0.00     0.020 A 
ATOM     99  C   UNL A   1      45.489  23.901  35.456  1.00  0.00     0.054 A 
BRANCH  99 100
ATOM    100  S   UNL A   1      46.370  22.509  36.195  1.00  0.00     0.124 S 
ATOM    101  O   UNL A   1      47.761  22.949  36.131  1.00  0.00    -0.237 OA
ATOM    102  O   UNL A   1      45.786  22.460  37.533  1.00  0.00    -0.237 OA
ATOM    103  O   UNL A   1      46.036  21.382  35.327  1.00  0.00    -0.744 OA
ENDBRANCH  99 100
ENDBRANCH  73  94
ENDBRANCH  47  48
ENDBRANCH  39  42
ENDBRANCH  37  38
ENDBRANCH  36  37
ENDBRANCH   1  36
TORSDOF 17
ENDMDL
MODEL 3
REMARK VINA RESULT:     -13.9      1.312      3.588
REMARK SMILES Cc1ccc(-c2[nH]c3ccccc3c2[C@@H]2c3ccccc3C(=O)N2[C@H](C)C(=O)NCCCCNC(=O)c2ccc(-c3c4nc(c(-c5ccc(S(=O)(=O)[O-])cc5)c5ccc([nH]5)c(-c5ccc(S(=O)(=O)[O-])cc5)c5nc(c(-c6ccc(S(=O)(=O)[O-])cc6)c6ccc3[nH]6)C=C5)C=C4)cc2)cc1
REMARK SMILES IDX 31 1 30 2 29 3 27 4 28 5 25 7 26 8 24 9 15 10 16 11 17 12
REMARK SMILES IDX 21 13 22 14 18 15 20 16 23 17 19 18 14 19 6 20 7 21 8 22
REMARK SMILES IDX 13 24 9 25 12 26 10 27 11 28 5 29 1 30 2 31 3 32 98 33 4 34
REMARK SMILES IDX 97 35 32 36 33 37 34 38 35 39 36 41 37 42 38 43 96 44 39 45
REMARK SMILES IDX 95 46 40 47 41 48 42 49 89 50 43 51 94 52 88 53 90 54 44 55
REMARK SMILES IDX 93 56 87 57 86 58 45 60 75 61 56 62 74 63 57 64 60 65 73 66
REMARK SMILES IDX 91 67 58 68 59 69 72 71 92 72 61 73 46 74 47 75 55 76 48 77
REMARK SMILES IDX 54 78 49 79 50 80 51 81 52 82 53 83 76 84 77 85 85 86 78 87
REMARK SMILES IDX 84 88 79 89 80 90 81 91 82 92 83 93 62 94 63 95 71 96 64 97
REMARK SMILES IDX 70 98 65 99 66 100 67 101 68 102 69 103
REMARK H PARENT 29 6 7 23 34 40 90 59 60 70
REMARK Flexibility Score: inf
ROOT
ATOM      1  C   UNL A   1      33.406  27.666  25.452  1.00  0.00     0.023 C 
ENDROOT
BRANCH   1   2
ATOM      2  C   UNL A   1      32.774  26.769  26.510  1.00  0.00     0.116 C 
BRANCH   2   3
ATOM      3  N   UNL A   1      31.390  26.461  26.292  1.00  0.00    -0.354 N 
ATOM      4  C   UNL A   1      30.669  25.363  26.620  1.00  0.00     0.242 C 
ATOM      5  O   UNL A   1      29.438  25.522  26.535  1.00  0.00    -0.273 OA
ATOM      6  H   UNL A   1      30.880  27.165  25.830  1.00  0.00     0.163 HD
BRANCH   4   7
ATOM      7  C   UNL A   1      31.219  23.905  26.735  1.00  0.00     0.172 C 
ATOM      8  C   UNL A   1      29.971  23.130  27.235  1.00  0.00     0.042 C 
BRANCH   7   9
ATOM      9  N   UNL A   1      32.023  22.971  25.910  1.00  0.00    -0.316 N 
ATOM     10  C   UNL A   1      33.484  22.826  25.720  1.00  0.00     0.151 C 
ATOM     11  C   UNL A   1      33.596  21.377  25.275  1.00  0.00    -0.008 A 
ATOM     12  C   UNL A   1      34.594  20.420  25.346  1.00  0.00     0.007 A 
ATOM     13  C   UNL A   1      32.349  20.942  24.854  1.00  0.00     0.045 A 
ATOM     14  C   UNL A   1      31.368  21.823  25.449  1.00  0.00     0.255 C 
ATOM     15  C   UNL A   1      34.324  19.122  24.856  1.00  0.00     0.000 A 
ATOM     16  C   UNL A   1      32.071  19.729  24.258  1.00  0.00     0.014 A 
ATOM     17  O   UNL A   1      30.213  21.476  25.601  1.00  0.00    -0.269 OA
ATOM     18  C   UNL A   1      33.096  18.801  24.249  1.00  0.00     0.001 A 
BRANCH  10  19
ATOM     19  C   UNL A   1      33.990  23.649  24.532  1.00  0.00     0.013 A 
ATOM     20  C   UNL A   1      35.327  23.954  24.261  1.00  0.00     0.052 A 
ATOM     21  N   UNL A   1      35.366  24.975  23.339  1.00  0.00    -0.354 N 
ATOM     22  C   UNL A   1      34.097  25.245  22.881  1.00  0.00     0.046 A 
ATOM     23  H   UNL A   1      36.182  25.444  23.050  1.00  0.00     0.167 HD
ATOM     24  C   UNL A   1      33.229  24.356  23.519  1.00  0.00     0.006 A 
ATOM     25  C   UNL A   1      33.649  26.278  22.039  1.00  0.00     0.027 A 
ATOM     26  C   UNL A   1      31.862  24.426  23.167  1.00  0.00     0.011 A 
ATOM     27  C   UNL A   1      32.275  26.388  21.813  1.00  0.00     0.002 A 
ATOM     28  C   UNL A   1      31.394  25.451  22.338  1.00  0.00     0.001 A 
BRANCH  20  29
ATOM     29  C   UNL A   1      36.546  23.429  24.849  1.00  0.00    -0.002 A 
ATOM     30  C   UNL A   1      40.079  21.754  26.652  1.00  0.00     0.044 C 
ATOM     31  C   UNL A   1      38.839  22.322  26.027  1.00  0.00    -0.051 A 
ATOM     32  C   UNL A   1      38.179  21.641  25.004  1.00  0.00     0.004 A 
ATOM     33  C   UNL A   1      38.322  23.546  26.466  1.00  0.00     0.004 A 
ATOM     34  C   UNL A   1      37.036  22.191  24.423  1.00  0.00     0.010 A 
ATOM     35  C   UNL A   1      37.209  24.123  25.855  1.00  0.00     0.010 A 
ENDBRANCH  20  29
ENDBRANCH  10  19
ENDBRANCH   7   9
ENDBRANCH   4   7
ENDBRANCH   2   3
ENDBRANCH   1   2
BRANCH   1  36
ATOM     36  C   UNL A   1      33.042  29.140  25.407  1.00  0.00     0.023 C 
BRANCH  36  37
ATOM     37  C   UNL A   1      33.131  29.806  26.761  1.00  0.00     0.116 C 
BRANCH  37  38
ATOM     38  N   UNL A   1      33.852  31.066  26.846  1.00  0.00    -0.352 N 
ATOM     39  C   UNL A   1      34.869  31.361  27.752  1.00  0.00     0.251 C 
ATOM     40  H   UNL A   1      33.599  31.772  26.209  1.00  0.00     0.163 HD
ATOM     41  O   UNL A   1      35.066  32.494  28.173  1.00  0.00    -0.269 OA
BRANCH  39  42
ATOM     42  C   UNL A   1      35.837  30.273  28.049  1.00  0.00     0.039 A 
ATOM     43  C   UNL A   1      35.789  29.681  29.319  1.00  0.00     0.014 A 
ATOM     44  C   UNL A   1      36.960  30.124  27.250  1.00  0.00     0.014 A 
ATOM     45  C   UNL A   1      36.954  29.157  29.866  1.00  0.00     0.010 A 
ATOM     46  C   UNL A   1      38.145  29.839  27.867  1.00  0.00     0.010 A 
ATOM     47  C   UNL A   1      38.138  29.378  29.184  1.00  0.00    -0.014 A 
BRANCH  47  48
ATOM     48  C   UNL A   1      39.460  29.061  29.668  1.00  0.00     0.031 A 
ATOM     49  C   UNL A   1      40.040  27.794  29.204  1.00  0.00     0.074 A 
ATOM     50  C   UNL A   1      40.172  30.055  30.236  1.00  0.00     0.049 A 
ATOM     51  N   UNL A   1      41.096  27.254  29.692  1.00  0.00    -0.248 NA
ATOM     52  C   UNL A   1      39.414  26.985  28.155  1.00  0.00     0.031 C 
ATOM     53  C   UNL A   1      41.616  30.187  30.362  1.00  0.00     0.029 A 
ATOM     54  N   UNL A   1      39.660  31.074  31.041  1.00  0.00    -0.354 N 
ATOM     55  C   UNL A   1      41.482  26.281  28.797  1.00  0.00     0.074 A 
ATOM     56  C   UNL A   1      40.331  26.036  27.969  1.00  0.00     0.031 C 
ATOM     57  C   UNL A   1      41.881  31.041  31.369  1.00  0.00     0.029 A 
ATOM     58  C   UNL A   1      40.613  31.306  32.042  1.00  0.00     0.049 A 
ATOM     59  H   UNL A   1      38.800  31.538  30.928  1.00  0.00     0.167 HD
ATOM     60  C   UNL A   1      42.799  25.949  28.733  1.00  0.00     0.031 A 
ATOM     61  C   UNL A   1      40.339  30.972  33.343  1.00  0.00     0.031 A 
ATOM     62  C   UNL A   1      43.560  26.661  29.764  1.00  0.00     0.049 A 
ATOM     63  C   UNL A   1      41.267  29.906  33.876  1.00  0.00     0.074 A 
ATOM     64  C   UNL A   1      44.429  27.739  29.733  1.00  0.00     0.029 A 
ATOM     65  N   UNL A   1      43.196  26.501  31.092  1.00  0.00    -0.354 N 
ATOM     66  N   UNL A   1      41.977  29.117  33.117  1.00  0.00    -0.248 NA
ATOM     67  C   UNL A   1      41.466  29.635  35.294  1.00  0.00     0.031 C 
ATOM     68  C   UNL A   1      44.574  28.226  31.065  1.00  0.00     0.029 A 
ATOM     69  C   UNL A   1      43.813  27.429  31.904  1.00  0.00     0.049 A 
ATOM     70  H   UNL A   1      42.573  25.810  31.416  1.00  0.00     0.167 HD
ATOM     71  C   UNL A   1      42.726  28.273  33.888  1.00  0.00     0.074 A 
ATOM     72  C   UNL A   1      42.332  28.605  35.249  1.00  0.00     0.031 C 
ATOM     73  C   UNL A   1      43.592  27.369  33.343  1.00  0.00     0.031 A 
BRANCH  60  74
ATOM     74  C   UNL A   1      43.447  25.204  27.587  1.00  0.00    -0.014 A 
ATOM     75  C   UNL A   1      43.864  23.874  27.795  1.00  0.00     0.010 A 
ATOM     76  C   UNL A   1      43.722  25.740  26.312  1.00  0.00     0.010 A 
ATOM     77  C   UNL A   1      44.555  23.144  26.819  1.00  0.00     0.020 A 
ATOM     78  C   UNL A   1      44.423  25.027  25.327  1.00  0.00     0.020 A 
ATOM     79  C   UNL A   1      44.839  23.730  25.589  1.00  0.00     0.054 A 
BRANCH  79  80
ATOM     80  S   UNL A   1      45.728  22.771  24.339  1.00  0.00     0.124 S 
ATOM     81  O   UNL A   1      44.658  22.383  23.424  1.00  0.00    -0.237 OA
ATOM     82  O   UNL A   1      46.681  23.747  23.819  1.00  0.00    -0.237 OA
ATOM     83  O   UNL A   1      46.318  21.672  25.099  1.00  0.00    -0.744 OA
ENDBRANCH  79  80
ENDBRANCH  60  74
BRANCH  61  84
ATOM     84  C   UNL A   1      38.904  31.177  33.742  1.00  0.00    -0.014 A 
ATOM     85  C   UNL A   1      38.547  32.438  34.254  1.00  0.00     0.010 A 
ATOM     86  C   UNL A   1      37.895  30.409  33.136  1.00  0.00     0.010 A 
ATOM     87  C   UNL A   1      37.343  33.050  33.886  1.00  0.00     0.020 A 
ATOM     88  C   UNL A   1      36.665  31.003  32.803  1.00  0.00     0.020 A 
ATOM     89  C   UNL A   1      36.455  32.356  33.073  1.00  0.00     0.054 A 
BRANCH  89  90
ATOM     90  S   UNL A   1      35.149  33.296  32.223  1.00  0.00     0.124 S 
ATOM     91  O   UNL A   1      34.308  32.242  31.663  1.00  0.00    -0.237 OA
ATOM     92  O   UNL A   1      34.538  34.049  33.323  1.00  0.00    -0.237 OA
ATOM     93  O   UNL A   1      35.888  34.090  31.248  1.00  0.00    -0.744 OA
ENDBRANCH  89  90
ENDBRANCH  61  84
BRANCH  73  94
ATOM     94  C   UNL A   1      44.287  26.278  34.116  1.00  0.00    -0.014 A 
ATOM     95  C   UNL A   1      45.632  26.319  34.495  1.00  0.00     0.010 A 
ATOM     96  C   UNL A   1      43.556  25.115  34.465  1.00  0.00     0.010 A 
ATOM     97  C   UNL A   1      46.182  25.313  35.301  1.00  0.00     0.020 A 
ATOM     98  C   UNL A   1      44.097  24.094  35.240  1.00  0.00     0.020 A 
ATOM     99  C   UNL A   1      45.401  24.221  35.688  1.00  0.00     0.054 A 
BRANCH  99 100
ATOM    100  S   UNL A   1      46.115  22.959  36.764  1.00  0.00     0.124 S 
ATOM    101  O   UNL A   1      45.591  21.723  36.191  1.00  0.00    -0.237 OA
ATOM    102  O   UNL A   1      47.548  23.182  36.578  1.00  0.00    -0.237 OA
ATOM    103  O   UNL A   1      45.601  23.295  38.089  1.00  0.00    -0.744 OA
ENDBRANCH  99 100
ENDBRANCH  73  94
ENDBRANCH  47  48
ENDBRANCH  39  42
ENDBRANCH  37  38
ENDBRANCH  36  37
ENDBRANCH   1  36
TORSDOF 17
ENDMDL
