MODEL 1
REMARK VINA RESULT:     -11.7      0.000      0.000
REMARK SMILES Cc1cc(Cl)cc2c1O[C@H](C(F)(F)F)C(C(=O)NCCCCNC(=O)c1ccc(-c3c4nc(c(-c5ccc(S(=O)(=O)[O-])cc5)c5ccc([nH]5)c(-c5ccc(S(=O)(=O)[O-])cc5)c5nc(c(-c6ccc(S(=O)(=O)[O-])cc6)c6ccc3[nH]6)C=C5)C=C4)cc1)=C2
REMARK SMILES IDX 21 1 20 2 19 3 18 4 16 5 17 6 15 8 1 9 2 10 3 11 8 12 4 13
REMARK SMILES IDX 7 14 9 15 5 16 6 17 86 18 10 19 11 20 12 21 13 22 14 23
REMARK SMILES IDX 22 24 23 25 24 26 25 28 26 29 27 30 85 31 28 32 84 33 29 34
REMARK SMILES IDX 30 35 31 36 78 37 32 38 83 39 77 40 79 41 33 42 82 43 76 44
REMARK SMILES IDX 75 45 34 47 64 48 45 49 63 50 46 51 49 52 62 53 80 54 47 55
REMARK SMILES IDX 48 56 61 58 81 59 50 60 35 61 36 62 44 63 37 64 43 65 38 66
REMARK SMILES IDX 39 67 40 68 41 69 42 70 65 71 66 72 74 73 67 74 73 75 68 76
REMARK SMILES IDX 69 77 70 78 71 79 72 80 51 81 52 82 60 83 53 84 59 85 54 86
REMARK SMILES IDX 55 87 56 88 57 89 58 90
REMARK H PARENT 18 7 23 27 79 46 49 57
REMARK Flexibility Score: inf
ROOT
ATOM      1  C   UNL A   1      33.953  28.098  25.449  1.00  0.00     0.023 C 
ENDROOT
BRANCH   1   2
ATOM      2  C   UNL A   1      33.169  28.940  24.440  1.00  0.00     0.023 C 
BRANCH   2   3
ATOM      3  C   UNL A   1      32.061  28.175  23.723  1.00  0.00     0.116 C 
BRANCH   3   4
ATOM      4  N   UNL A   1      32.570  27.419  22.592  1.00  0.00    -0.352 N 
ATOM      5  C   UNL A   1      33.103  26.194  22.381  1.00  0.00     0.251 C 
ATOM      6  O   UNL A   1      33.417  25.949  21.212  1.00  0.00    -0.270 OA
ATOM      7  H   UNL A   1      32.511  27.936  21.756  1.00  0.00     0.163 HD
BRANCH   5   8
ATOM      8  C   UNL A   1      33.329  25.159  23.434  1.00  0.00     0.067 C 
ATOM      9  C   UNL A   1      33.372  22.155  27.634  1.00  0.00     0.048 C 
ATOM     10  C   UNL A   1      34.243  22.332  26.423  1.00  0.00    -0.007 A 
ATOM     11  C   UNL A   1      35.330  21.470  26.227  1.00  0.00     0.027 A 
ATOM     12  C   UNL A   1      33.965  23.298  25.444  1.00  0.00     0.131 A 
ATOM     13  C   UNL A   1      36.133  21.596  25.094  1.00  0.00     0.042 A 
ATOM     14  C   UNL A   1      34.773  23.428  24.310  1.00  0.00     0.019 A 
ATOM     15  O   UNL A   1      32.909  24.135  25.671  1.00  0.00    -0.475 OA
ATOM     16  Cl  UNL A   1      37.473  20.537  24.880  1.00  0.00    -0.084 Cl
ATOM     17  C   UNL A   1      35.865  22.572  24.137  1.00  0.00     0.032 A 
ATOM     18  C   UNL A   1      34.488  24.478  23.341  1.00  0.00     0.025 C 
ATOM     19  C   UNL A   1      32.349  24.823  24.521  1.00  0.00     0.314 C 
BRANCH  19  20
ATOM     20  C   UNL A   1      31.134  24.029  24.005  1.00  0.00     0.429 C 
ATOM     21  F   UNL A   1      30.114  24.871  23.703  1.00  0.00    -0.167 F 
ATOM     22  F   UNL A   1      31.406  23.333  22.877  1.00  0.00    -0.167 F 
ATOM     23  F   UNL A   1      30.670  23.141  24.914  1.00  0.00    -0.167 F 
ENDBRANCH  19  20
ENDBRANCH   5   8
ENDBRANCH   3   4
ENDBRANCH   2   3
ENDBRANCH   1   2
BRANCH   1  24
ATOM     24  C   UNL A   1      33.579  28.314  26.914  1.00  0.00     0.116 C 
BRANCH  24  25
ATOM     25  N   UNL A   1      33.401  29.716  27.266  1.00  0.00    -0.352 N 
ATOM     26  C   UNL A   1      34.289  30.554  27.895  1.00  0.00     0.251 C 
ATOM     27  H   UNL A   1      32.535  30.115  27.021  1.00  0.00     0.163 HD
ATOM     28  O   UNL A   1      33.951  31.688  28.217  1.00  0.00    -0.269 OA
BRANCH  26  29
ATOM     29  C   UNL A   1      35.643  30.058  28.205  1.00  0.00     0.039 A 
ATOM     30  C   UNL A   1      36.619  30.085  27.207  1.00  0.00     0.014 A 
ATOM     31  C   UNL A   1      35.949  29.603  29.491  1.00  0.00     0.014 A 
ATOM     32  C   UNL A   1      37.927  29.708  27.515  1.00  0.00     0.010 A 
ATOM     33  C   UNL A   1      37.263  29.283  29.810  1.00  0.00     0.010 A 
ATOM     34  C   UNL A   1      38.262  29.328  28.824  1.00  0.00    -0.014 A 
BRANCH  34  35
ATOM     35  C   UNL A   1      39.641  28.928  29.189  1.00  0.00     0.031 A 
ATOM     36  C   UNL A   1      40.532  29.919  29.885  1.00  0.00     0.074 A 
ATOM     37  C   UNL A   1      40.108  27.714  28.843  1.00  0.00     0.049 A 
ATOM     38  N   UNL A   1      41.806  29.828  30.165  1.00  0.00    -0.248 NA
ATOM     39  C   UNL A   1      39.912  31.190  30.294  1.00  0.00     0.031 C 
ATOM     40  C   UNL A   1      39.338  26.670  28.163  1.00  0.00     0.029 A 
ATOM     41  N   UNL A   1      41.350  27.158  29.008  1.00  0.00    -0.354 N 
ATOM     42  C   UNL A   1      42.145  31.034  30.767  1.00  0.00     0.074 A 
ATOM     43  C   UNL A   1      40.954  31.856  30.770  1.00  0.00     0.031 C 
ATOM     44  C   UNL A   1      40.121  25.592  27.989  1.00  0.00     0.029 A 
ATOM     45  C   UNL A   1      41.456  25.884  28.503  1.00  0.00     0.049 A 
ATOM     46  H   UNL A   1      42.095  27.628  29.448  1.00  0.00     0.167 HD
ATOM     47  C   UNL A   1      43.334  31.417  31.284  1.00  0.00     0.031 A 
ATOM     48  C   UNL A   1      42.514  25.053  28.450  1.00  0.00     0.031 A 
ATOM     49  C   UNL A   1      44.513  30.593  31.289  1.00  0.00     0.049 A 
ATOM     50  C   UNL A   1      43.833  25.512  29.007  1.00  0.00     0.074 A 
ATOM     51  C   UNL A   1      45.764  30.880  31.804  1.00  0.00     0.029 A 
ATOM     52  N   UNL A   1      44.582  29.313  30.760  1.00  0.00    -0.354 N 
ATOM     53  N   UNL A   1      44.138  26.658  29.568  1.00  0.00    -0.248 NA
ATOM     54  C   UNL A   1      44.951  24.562  28.925  1.00  0.00     0.031 C 
ATOM     55  C   UNL A   1      46.600  29.785  31.556  1.00  0.00     0.029 A 
ATOM     56  C   UNL A   1      45.855  28.799  30.927  1.00  0.00     0.049 A 
ATOM     57  H   UNL A   1      43.834  28.839  30.329  1.00  0.00     0.167 HD
ATOM     58  C   UNL A   1      45.479  26.562  29.920  1.00  0.00     0.074 A 
ATOM     59  C   UNL A   1      45.921  25.238  29.527  1.00  0.00     0.031 C 
ATOM     60  C   UNL A   1      46.277  27.485  30.513  1.00  0.00     0.031 A 
BRANCH  47  61
ATOM     61  C   UNL A   1      43.412  32.794  31.885  1.00  0.00    -0.014 A 
ATOM     62  C   UNL A   1      43.826  33.896  31.114  1.00  0.00     0.010 A 
ATOM     63  C   UNL A   1      43.051  32.996  33.229  1.00  0.00     0.010 A 
ATOM     64  C   UNL A   1      43.916  35.166  31.686  1.00  0.00     0.020 A 
ATOM     65  C   UNL A   1      43.114  34.272  33.799  1.00  0.00     0.020 A 
ATOM     66  C   UNL A   1      43.562  35.345  33.027  1.00  0.00     0.054 A 
BRANCH  66  67
ATOM     67  S   UNL A   1      43.669  37.011  33.737  1.00  0.00     0.124 S 
ATOM     68  O   UNL A   1      43.502  37.853  32.554  1.00  0.00    -0.237 OA
ATOM     69  O   UNL A   1      42.555  37.029  34.681  1.00  0.00    -0.237 OA
ATOM     70  O   UNL A   1      44.997  37.044  34.342  1.00  0.00    -0.744 OA
ENDBRANCH  66  67
ENDBRANCH  47  61
BRANCH  48  71
ATOM     71  C   UNL A   1      42.365  23.696  27.859  1.00  0.00    -0.014 A 
ATOM     72  C   UNL A   1      42.709  23.470  26.514  1.00  0.00     0.010 A 
ATOM     73  C   UNL A   1      41.899  22.621  28.636  1.00  0.00     0.010 A 
ATOM     74  C   UNL A   1      42.580  22.196  25.955  1.00  0.00     0.020 A 
ATOM     75  C   UNL A   1      41.792  21.340  28.086  1.00  0.00     0.020 A 
ATOM     76  C   UNL A   1      42.127  21.138  26.746  1.00  0.00     0.054 A 
BRANCH  76  77
ATOM     77  S   UNL A   1      42.030  19.479  26.015  1.00  0.00     0.124 S 
ATOM     78  O   UNL A   1      42.878  19.617  24.836  1.00  0.00    -0.237 OA
ATOM     79  O   UNL A   1      42.560  18.634  27.083  1.00  0.00    -0.237 OA
ATOM     80  O   UNL A   1      40.605  19.307  25.747  1.00  0.00    -0.744 OA
ENDBRANCH  76  77
ENDBRANCH  48  71
BRANCH  60  81
ATOM     81  C   UNL A   1      47.700  27.084  30.784  1.00  0.00    -0.014 A 
ATOM     82  C   UNL A   1      48.059  26.454  31.988  1.00  0.00     0.010 A 
ATOM     83  C   UNL A   1      48.688  27.319  29.809  1.00  0.00     0.010 A 
ATOM     84  C   UNL A   1      49.389  26.103  32.231  1.00  0.00     0.020 A 
ATOM     85  C   UNL A   1      50.013  26.947  30.038  1.00  0.00     0.020 A 
ATOM     86  C   UNL A   1      50.359  26.358  31.256  1.00  0.00     0.054 A 
BRANCH  86  87
ATOM     87  S   UNL A   1      52.078  25.881  31.588  1.00  0.00     0.124 S 
ATOM     88  O   UNL A   1      52.439  26.788  32.674  1.00  0.00    -0.237 OA
ATOM     89  O   UNL A   1      51.955  24.473  31.960  1.00  0.00    -0.237 OA
ATOM     90  O   UNL A   1      52.756  26.126  30.319  1.00  0.00    -0.744 OA
ENDBRANCH  86  87
ENDBRANCH  60  81
ENDBRANCH  34  35
ENDBRANCH  26  29
ENDBRANCH  24  25
ENDBRANCH   1  24
TORSDOF 15
ENDMDL
MODEL 2
REMARK VINA RESULT:     -11.5      2.866      9.162
REMARK SMILES Cc1cc(Cl)cc2c1O[C@H](C(F)(F)F)C(C(=O)NCCCCNC(=O)c1ccc(-c3c4nc(c(-c5ccc(S(=O)(=O)[O-])cc5)c5ccc([nH]5)c(-c5ccc(S(=O)(=O)[O-])cc5)c5nc(c(-c6ccc(S(=O)(=O)[O-])cc6)c6ccc3[nH]6)C=C5)C=C4)cc1)=C2
REMARK SMILES IDX 21 1 20 2 19 3 18 4 16 5 17 6 15 8 1 9 2 10 3 11 8 12 4 13
REMARK SMILES IDX 7 14 9 15 5 16 6 17 86 18 10 19 11 20 12 21 13 22 14 23
REMARK SMILES IDX 22 24 23 25 24 26 25 28 26 29 27 30 85 31 28 32 84 33 29 34
REMARK SMILES IDX 30 35 31 36 78 37 32 38 83 39 77 40 79 41 33 42 82 43 76 44
REMARK SMILES IDX 75 45 34 47 64 48 45 49 63 50 46 51 49 52 62 53 80 54 47 55
REMARK SMILES IDX 48 56 61 58 81 59 50 60 35 61 36 62 44 63 37 64 43 65 38 66
REMARK SMILES IDX 39 67 40 68 41 69 42 70 65 71 66 72 74 73 67 74 73 75 68 76
REMARK SMILES IDX 69 77 70 78 71 79 72 80 51 81 52 82 60 83 53 84 59 85 54 86
REMARK SMILES IDX 55 87 56 88 57 89 58 90
REMARK H PARENT 18 7 23 27 79 46 49 57
REMARK Flexibility Score: inf
ROOT
ATOM      1  C   UNL A   1      35.022  23.483  25.684  1.00  0.00     0.023 C 
ENDROOT
BRANCH   1   2
ATOM      2  C   UNL A   1      34.331  22.743  26.833  1.00  0.00     0.023 C 
BRANCH   2   3
ATOM      3  C   UNL A   1      33.162  21.868  26.392  1.00  0.00     0.116 C 
BRANCH   3   4
ATOM      4  N   UNL A   1      31.884  22.431  26.791  1.00  0.00    -0.352 N 
ATOM      5  C   UNL A   1      31.243  23.615  26.664  1.00  0.00     0.251 C 
ATOM      6  O   UNL A   1      30.121  23.666  27.178  1.00  0.00    -0.270 OA
ATOM      7  H   UNL A   1      31.339  21.776  27.284  1.00  0.00     0.163 HD
BRANCH   5   8
ATOM      8  C   UNL A   1      31.786  24.821  25.970  1.00  0.00     0.067 C 
ATOM      9  C   UNL A   1      33.847  28.291  22.748  1.00  0.00     0.048 C 
ATOM     10  C   UNL A   1      33.525  28.234  24.215  1.00  0.00    -0.007 A 
ATOM     11  C   UNL A   1      33.712  29.377  25.003  1.00  0.00     0.027 A 
ATOM     12  C   UNL A   1      32.982  27.086  24.811  1.00  0.00     0.131 A 
ATOM     13  C   UNL A   1      33.391  29.357  26.360  1.00  0.00     0.042 A 
ATOM     14  C   UNL A   1      32.665  27.064  26.173  1.00  0.00     0.019 A 
ATOM     15  O   UNL A   1      32.828  25.983  24.021  1.00  0.00    -0.475 OA
ATOM     16  Cl  UNL A   1      33.644  30.767  27.314  1.00  0.00    -0.084 Cl
ATOM     17  C   UNL A   1      32.874  28.207  26.951  1.00  0.00     0.032 A 
ATOM     18  C   UNL A   1      32.154  25.838  26.772  1.00  0.00     0.025 C 
ATOM     19  C   UNL A   1      31.897  24.965  24.479  1.00  0.00     0.314 C 
BRANCH  19  20
ATOM     20  C   UNL A   1      30.534  25.190  23.797  1.00  0.00     0.429 C 
ATOM     21  F   UNL A   1      29.622  25.630  24.701  1.00  0.00    -0.167 F 
ATOM     22  F   UNL A   1      30.587  26.123  22.819  1.00  0.00    -0.167 F 
ATOM     23  F   UNL A   1      30.040  24.061  23.241  1.00  0.00    -0.167 F 
ENDBRANCH  19  20
ENDBRANCH   5   8
ENDBRANCH   3   4
ENDBRANCH   2   3
ENDBRANCH   1   2
BRANCH   1  24
ATOM     24  C   UNL A   1      36.452  23.941  25.968  1.00  0.00     0.116 C 
BRANCH  24  25
ATOM     25  N   UNL A   1      37.415  22.849  25.996  1.00  0.00    -0.352 N 
ATOM     26  C   UNL A   1      38.728  22.883  26.397  1.00  0.00     0.251 C 
ATOM     27  H   UNL A   1      37.083  21.975  25.688  1.00  0.00     0.163 HD
ATOM     28  O   UNL A   1      39.444  21.897  26.262  1.00  0.00    -0.269 OA
BRANCH  26  29
ATOM     29  C   UNL A   1      39.270  24.133  26.962  1.00  0.00     0.039 A 
ATOM     30  C   UNL A   1      39.981  25.000  26.128  1.00  0.00     0.014 A 
ATOM     31  C   UNL A   1      39.041  24.459  28.301  1.00  0.00     0.014 A 
ATOM     32  C   UNL A   1      40.416  26.229  26.626  1.00  0.00     0.010 A 
ATOM     33  C   UNL A   1      39.424  25.707  28.778  1.00  0.00     0.010 A 
ATOM     34  C   UNL A   1      40.118  26.600  27.946  1.00  0.00    -0.014 A 
BRANCH  34  35
ATOM     35  C   UNL A   1      40.558  27.899  28.507  1.00  0.00     0.031 A 
ATOM     36  C   UNL A   1      41.969  28.044  29.004  1.00  0.00     0.074 A 
ATOM     37  C   UNL A   1      39.682  28.915  28.628  1.00  0.00     0.049 A 
ATOM     38  N   UNL A   1      42.516  29.036  29.655  1.00  0.00    -0.248 NA
ATOM     39  C   UNL A   1      42.874  26.909  28.758  1.00  0.00     0.031 C 
ATOM     40  C   UNL A   1      38.287  28.892  28.185  1.00  0.00     0.029 A 
ATOM     41  N   UNL A   1      39.839  30.164  29.171  1.00  0.00    -0.354 N 
ATOM     42  C   UNL A   1      43.824  28.640  29.912  1.00  0.00     0.074 A 
ATOM     43  C   UNL A   1      43.973  27.301  29.387  1.00  0.00     0.031 C 
ATOM     44  C   UNL A   1      37.722  30.080  28.457  1.00  0.00     0.029 A 
ATOM     45  C   UNL A   1      38.699  30.930  29.130  1.00  0.00     0.049 A 
ATOM     46  H   UNL A   1      40.688  30.481  29.555  1.00  0.00     0.167 HD
ATOM     47  C   UNL A   1      44.815  29.335  30.517  1.00  0.00     0.031 A 
ATOM     48  C   UNL A   1      38.467  32.172  29.595  1.00  0.00     0.031 A 
ATOM     49  C   UNL A   1      44.666  30.670  31.029  1.00  0.00     0.049 A 
ATOM     50  C   UNL A   1      39.576  32.914  30.288  1.00  0.00     0.074 A 
ATOM     51  C   UNL A   1      45.614  31.469  31.643  1.00  0.00     0.029 A 
ATOM     52  N   UNL A   1      43.493  31.408  30.975  1.00  0.00    -0.354 N 
ATOM     53  N   UNL A   1      40.805  32.523  30.528  1.00  0.00    -0.248 NA
ATOM     54  C   UNL A   1      39.266  34.266  30.771  1.00  0.00     0.031 C 
ATOM     55  C   UNL A   1      45.003  32.680  31.993  1.00  0.00     0.029 A 
ATOM     56  C   UNL A   1      43.689  32.650  31.553  1.00  0.00     0.049 A 
ATOM     57  H   UNL A   1      42.646  31.095  30.583  1.00  0.00     0.167 HD
ATOM     58  C   UNL A   1      41.421  33.587  31.177  1.00  0.00     0.074 A 
ATOM     59  C   UNL A   1      40.434  34.645  31.273  1.00  0.00     0.031 C 
ATOM     60  C   UNL A   1      42.687  33.681  31.653  1.00  0.00     0.031 A 
BRANCH  47  61
ATOM     61  C   UNL A   1      46.147  28.651  30.657  1.00  0.00    -0.014 A 
ATOM     62  C   UNL A   1      46.440  27.864  31.786  1.00  0.00     0.010 A 
ATOM     63  C   UNL A   1      47.113  28.779  29.643  1.00  0.00     0.010 A 
ATOM     64  C   UNL A   1      47.687  27.250  31.917  1.00  0.00     0.020 A 
ATOM     65  C   UNL A   1      48.354  28.145  29.758  1.00  0.00     0.020 A 
ATOM     66  C   UNL A   1      48.638  27.398  30.903  1.00  0.00     0.054 A 
BRANCH  66  67
ATOM     67  S   UNL A   1      50.243  26.573  31.091  1.00  0.00     0.124 S 
ATOM     68  O   UNL A   1      49.953  25.233  30.584  1.00  0.00    -0.237 OA
ATOM     69  O   UNL A   1      51.121  27.385  30.253  1.00  0.00    -0.237 OA
ATOM     70  O   UNL A   1      50.506  26.652  32.525  1.00  0.00    -0.744 OA
ENDBRANCH  66  67
ENDBRANCH  47  61
BRANCH  48  71
ATOM     71  C   UNL A   1      37.130  32.799  29.408  1.00  0.00    -0.014 A 
ATOM     72  C   UNL A   1      36.231  32.880  30.486  1.00  0.00     0.010 A 
ATOM     73  C   UNL A   1      36.756  33.334  28.162  1.00  0.00     0.010 A 
ATOM     74  C   UNL A   1      34.977  33.476  30.319  1.00  0.00     0.020 A 
ATOM     75  C   UNL A   1      35.513  33.951  27.999  1.00  0.00     0.020 A 
ATOM     76  C   UNL A   1      34.628  34.011  29.077  1.00  0.00     0.054 A 
BRANCH  76  77
ATOM     77  S   UNL A   1      33.021  34.837  28.904  1.00  0.00     0.124 S 
ATOM     78  O   UNL A   1      32.505  34.789  30.267  1.00  0.00    -0.237 OA
ATOM     79  O   UNL A   1      33.401  36.162  28.416  1.00  0.00    -0.237 OA
ATOM     80  O   UNL A   1      32.313  34.006  27.934  1.00  0.00    -0.744 OA
ENDBRANCH  76  77
ENDBRANCH  48  71
BRANCH  60  81
ATOM     81  C   UNL A   1      43.076  34.980  32.305  1.00  0.00    -0.014 A 
ATOM     82  C   UNL A   1      42.792  35.224  33.660  1.00  0.00     0.010 A 
ATOM     83  C   UNL A   1      43.758  35.958  31.558  1.00  0.00     0.010 A 
ATOM     84  C   UNL A   1      43.144  36.442  34.246  1.00  0.00     0.020 A 
ATOM     85  C   UNL A   1      44.134  37.166  32.147  1.00  0.00     0.020 A 
ATOM     86  C   UNL A   1      43.808  37.408  33.483  1.00  0.00     0.054 A 
BRANCH  86  87
ATOM     87  S   UNL A   1      44.268  38.977  34.269  1.00  0.00     0.124 S 
ATOM     88  O   UNL A   1      44.595  38.551  35.627  1.00  0.00    -0.237 OA
ATOM     89  O   UNL A   1      45.401  39.422  33.459  1.00  0.00    -0.237 OA
ATOM     90  O   UNL A   1      43.063  39.793  34.144  1.00  0.00    -0.744 OA
ENDBRANCH  86  87
ENDBRANCH  60  81
ENDBRANCH  34  35
ENDBRANCH  26  29
ENDBRANCH  24  25
ENDBRANCH   1  24
TORSDOF 15
ENDMDL
MODEL 3
REMARK VINA RESULT:     -11.2      4.476     10.033
REMARK SMILES Cc1cc(Cl)cc2c1O[C@H](C(F)(F)F)C(C(=O)NCCCCNC(=O)c1ccc(-c3c4nc(c(-c5ccc(S(=O)(=O)[O-])cc5)c5ccc([nH]5)c(-c5ccc(S(=O)(=O)[O-])cc5)c5nc(c(-c6ccc(S(=O)(=O)[O-])cc6)c6ccc3[nH]6)C=C5)C=C4)cc1)=C2
REMARK SMILES IDX 21 1 20 2 19 3 18 4 16 5 17 6 15 8 1 9 2 10 3 11 8 12 4 13
REMARK SMILES IDX 7 14 9 15 5 16 6 17 86 18 10 19 11 20 12 21 13 22 14 23
REMARK SMILES IDX 22 24 23 25 24 26 25 28 26 29 27 30 85 31 28 32 84 33 29 34
REMARK SMILES IDX 30 35 31 36 78 37 32 38 83 39 77 40 79 41 33 42 82 43 76 44
REMARK SMILES IDX 75 45 34 47 64 48 45 49 63 50 46 51 49 52 62 53 80 54 47 55
REMARK SMILES IDX 48 56 61 58 81 59 50 60 35 61 36 62 44 63 37 64 43 65 38 66
REMARK SMILES IDX 39 67 40 68 41 69 42 70 65 71 66 72 74 73 67 74 73 75 68 76
REMARK SMILES IDX 69 77 70 78 71 79 72 80 51 81 52 82 60 83 53 84 59 85 54 86
REMARK SMILES IDX 55 87 56 88 57 89 58 90
REMARK H PARENT 18 7 23 27 79 46 49 57
REMARK Flexibility Score: inf
ROOT
ATOM      1  C   UNL A   1      37.183  23.682  25.456  1.00  0.00     0.023 C 
ENDROOT
BRANCH   1   2
ATOM      2  C   UNL A   1      35.743  23.515  25.947  1.00  0.00     0.023 C 
BRANCH   2   3
ATOM      3  C   UNL A   1      34.776  24.559  25.398  1.00  0.00     0.116 C 
BRANCH   3   4
ATOM      4  N   UNL A   1      33.427  24.364  25.900  1.00  0.00    -0.352 N 
ATOM      5  C   UNL A   1      32.435  23.458  25.743  1.00  0.00     0.251 C 
ATOM      6  O   UNL A   1      31.405  23.687  26.384  1.00  0.00    -0.270 OA
ATOM      7  H   UNL A   1      33.165  25.082  26.521  1.00  0.00     0.163 HD
BRANCH   5   8
ATOM      8  C   UNL A   1      32.505  22.244  24.876  1.00  0.00     0.067 C 
ATOM      9  C   UNL A   1      32.029  18.593  21.254  1.00  0.00     0.048 C 
ATOM     10  C   UNL A   1      32.586  18.668  22.648  1.00  0.00    -0.007 A 
ATOM     11  C   UNL A   1      33.240  17.552  23.187  1.00  0.00     0.027 A 
ATOM     12  C   UNL A   1      32.526  19.845  23.408  1.00  0.00     0.131 A 
ATOM     13  C   UNL A   1      33.791  17.608  24.467  1.00  0.00     0.042 A 
ATOM     14  C   UNL A   1      33.075  19.901  24.694  1.00  0.00     0.019 A 
ATOM     15  O   UNL A   1      31.868  20.911  22.864  1.00  0.00    -0.475 OA
ATOM     16  Cl  UNL A   1      34.576  16.221  25.116  1.00  0.00    -0.084 Cl
ATOM     17  C   UNL A   1      33.708  18.774  25.225  1.00  0.00     0.032 A 
ATOM     18  C   UNL A   1      32.947  21.123  25.477  1.00  0.00     0.025 C 
ATOM     19  C   UNL A   1      32.161  22.223  23.414  1.00  0.00     0.314 C 
BRANCH  19  20
ATOM     20  C   UNL A   1      33.229  22.906  22.539  1.00  0.00     0.429 C 
ATOM     21  F   UNL A   1      33.122  24.255  22.632  1.00  0.00    -0.167 F 
ATOM     22  F   UNL A   1      34.490  22.593  22.916  1.00  0.00    -0.167 F 
ATOM     23  F   UNL A   1      33.115  22.580  21.232  1.00  0.00    -0.167 F 
ENDBRANCH  19  20
ENDBRANCH   5   8
ENDBRANCH   3   4
ENDBRANCH   2   3
ENDBRANCH   1   2
BRANCH   1  24
ATOM     24  C   UNL A   1      38.188  24.129  26.516  1.00  0.00     0.116 C 
BRANCH  24  25
ATOM     25  N   UNL A   1      39.575  23.921  26.124  1.00  0.00    -0.352 N 
ATOM     26  C   UNL A   1      40.683  24.637  26.505  1.00  0.00     0.251 C 
ATOM     27  H   UNL A   1      39.740  23.171  25.508  1.00  0.00     0.163 HD
ATOM     28  O   UNL A   1      41.777  24.401  26.002  1.00  0.00    -0.269 OA
BRANCH  26  29
ATOM     29  C   UNL A   1      40.531  25.713  27.501  1.00  0.00     0.039 A 
ATOM     30  C   UNL A   1      39.604  25.553  28.534  1.00  0.00     0.014 A 
ATOM     31  C   UNL A   1      41.330  26.857  27.431  1.00  0.00     0.014 A 
ATOM     32  C   UNL A   1      39.518  26.520  29.536  1.00  0.00     0.010 A 
ATOM     33  C   UNL A   1      41.283  27.790  28.459  1.00  0.00     0.010 A 
ATOM     34  C   UNL A   1      40.374  27.632  29.518  1.00  0.00    -0.014 A 
BRANCH  34  35
ATOM     35  C   UNL A   1      40.316  28.675  30.568  1.00  0.00     0.031 A 
ATOM     36  C   UNL A   1      41.244  28.582  31.748  1.00  0.00     0.074 A 
ATOM     37  C   UNL A   1      39.399  29.658  30.497  1.00  0.00     0.049 A 
ATOM     38  N   UNL A   1      41.265  29.299  32.840  1.00  0.00    -0.248 NA
ATOM     39  C   UNL A   1      42.265  27.521  31.701  1.00  0.00     0.031 C 
ATOM     40  C   UNL A   1      38.443  29.851  29.403  1.00  0.00     0.029 A 
ATOM     41  N   UNL A   1      39.115  30.675  31.371  1.00  0.00    -0.354 N 
ATOM     42  C   UNL A   1      42.286  28.768  33.618  1.00  0.00     0.074 A 
ATOM     43  C   UNL A   1      42.831  27.641  32.893  1.00  0.00     0.031 C 
ATOM     44  C   UNL A   1      37.693  30.934  29.664  1.00  0.00     0.029 A 
ATOM     45  C   UNL A   1      38.083  31.484  30.958  1.00  0.00     0.049 A 
ATOM     46  H   UNL A   1      39.604  30.813  32.214  1.00  0.00     0.167 HD
ATOM     47  C   UNL A   1      42.741  29.191  34.820  1.00  0.00     0.031 A 
ATOM     48  C   UNL A   1      37.510  32.542  31.564  1.00  0.00     0.031 A 
ATOM     49  C   UNL A   1      42.205  30.318  35.534  1.00  0.00     0.049 A 
ATOM     50  C   UNL A   1      38.014  32.975  32.912  1.00  0.00     0.074 A 
ATOM     51  C   UNL A   1      42.605  30.839  36.751  1.00  0.00     0.029 A 
ATOM     52  N   UNL A   1      41.154  31.106  35.087  1.00  0.00    -0.354 N 
ATOM     53  N   UNL A   1      38.978  32.458  33.638  1.00  0.00    -0.248 NA
ATOM     54  C   UNL A   1      37.354  34.136  33.523  1.00  0.00     0.031 C 
ATOM     55  C   UNL A   1      41.774  31.923  37.057  1.00  0.00     0.029 A 
ATOM     56  C   UNL A   1      40.886  32.104  36.007  1.00  0.00     0.049 A 
ATOM     57  H   UNL A   1      40.671  30.975  34.239  1.00  0.00     0.167 HD
ATOM     58  C   UNL A   1      39.050  33.241  34.784  1.00  0.00     0.074 A 
ATOM     59  C   UNL A   1      38.046  34.278  34.646  1.00  0.00     0.031 C 
ATOM     60  C   UNL A   1      39.871  33.115  35.857  1.00  0.00     0.031 A 
BRANCH  47  61
ATOM     61  C   UNL A   1      43.877  28.419  35.436  1.00  0.00    -0.014 A 
ATOM     62  C   UNL A   1      45.213  28.730  35.124  1.00  0.00     0.010 A 
ATOM     63  C   UNL A   1      43.610  27.384  36.349  1.00  0.00     0.010 A 
ATOM     64  C   UNL A   1      46.260  27.994  35.683  1.00  0.00     0.020 A 
ATOM     65  C   UNL A   1      44.656  26.662  36.932  1.00  0.00     0.020 A 
ATOM     66  C   UNL A   1      45.974  26.962  36.582  1.00  0.00     0.054 A 
BRANCH  66  67
ATOM     67  S   UNL A   1      47.355  26.037  37.309  1.00  0.00     0.124 S 
ATOM     68  O   UNL A   1      47.644  26.821  38.507  1.00  0.00    -0.237 OA
ATOM     69  O   UNL A   1      46.768  24.721  37.547  1.00  0.00    -0.237 OA
ATOM     70  O   UNL A   1      48.383  26.080  36.273  1.00  0.00    -0.744 OA
ENDBRANCH  66  67
ENDBRANCH  47  61
BRANCH  48  71
ATOM     71  C   UNL A   1      36.402  33.274  30.892  1.00  0.00    -0.014 A 
ATOM     72  C   UNL A   1      35.131  33.333  31.490  1.00  0.00     0.010 A 
ATOM     73  C   UNL A   1      36.613  33.929  29.666  1.00  0.00     0.010 A 
ATOM     74  C   UNL A   1      34.088  34.026  30.869  1.00  0.00     0.020 A 
ATOM     75  C   UNL A   1      35.579  34.642  29.054  1.00  0.00     0.020 A 
ATOM     76  C   UNL A   1      34.320  34.680  29.657  1.00  0.00     0.054 A 
BRANCH  76  77
ATOM     77  S   UNL A   1      32.968  35.627  28.903  1.00  0.00     0.124 S 
ATOM     78  O   UNL A   1      32.373  34.645  28.003  1.00  0.00    -0.237 OA
ATOM     79  O   UNL A   1      32.159  35.997  30.063  1.00  0.00    -0.237 OA
ATOM     80  O   UNL A   1      33.653  36.742  28.252  1.00  0.00    -0.744 OA
ENDBRANCH  76  77
ENDBRANCH  48  71
BRANCH  60  81
ATOM     81  C   UNL A   1      39.723  34.133  36.953  1.00  0.00    -0.014 A 
ATOM     82  C   UNL A   1      38.914  33.878  38.074  1.00  0.00     0.010 A 
ATOM     83  C   UNL A   1      40.423  35.351  36.873  1.00  0.00     0.010 A 
ATOM     84  C   UNL A   1      38.773  34.841  39.077  1.00  0.00     0.020 A 
ATOM     85  C   UNL A   1      40.305  36.305  37.884  1.00  0.00     0.020 A 
ATOM     86  C   UNL A   1      39.466  36.052  38.971  1.00  0.00     0.054 A 
BRANCH  86  87
ATOM     87  S   UNL A   1      39.279  37.282  40.291  1.00  0.00     0.124 S 
ATOM     88  O   UNL A   1      38.501  38.324  39.626  1.00  0.00    -0.237 OA
ATOM     89  O   UNL A   1      38.571  36.535  41.329  1.00  0.00    -0.237 OA
ATOM     90  O   UNL A   1      40.654  37.646  40.622  1.00  0.00    -0.744 OA
ENDBRANCH  86  87
ENDBRANCH  60  81
ENDBRANCH  34  35
ENDBRANCH  26  29
ENDBRANCH  24  25
ENDBRANCH   1  24
TORSDOF 15
ENDMDL
