MODEL 1
REMARK VINA RESULT:      -9.3      0.000      0.000
REMARK SMILES COc1c[nH]c(C[N@H+]2CCC[C@@H](c3ccc(C(=O)NCCCCNC(=O)c4ccc(-c5c6nc(c(-c7ccc(S(=O)(=O)[O-])cc7)c7ccc([nH]7)c(-c7ccc(S(=O)(=O)[O-])cc7)c7nc(c(-c8ccc(S(=O)(=O)[O-])cc8)c8ccc5[nH]8)C=C7)C=C6)cc4)cc3)C2)cc1=O
REMARK SMILES IDX 21 1 20 2 19 3 17 4 18 5 16 7 13 8 14 9 88 10 15 11 87 12
REMARK SMILES IDX 12 13 8 14 9 15 89 16 10 18 11 19 7 20 6 21 3 22 4 23 91 24
REMARK SMILES IDX 5 25 90 26 92 27 2 29 1 30 22 31 23 32 24 33 25 34 26 36
REMARK SMILES IDX 27 37 28 38 86 39 29 40 85 41 30 42 31 43 32 44 79 45 33 46
REMARK SMILES IDX 84 47 78 48 80 49 34 50 83 51 77 52 76 53 35 55 65 56 46 57
REMARK SMILES IDX 64 58 47 59 50 60 63 61 81 62 48 63 49 64 62 66 82 67 51 68
REMARK SMILES IDX 36 69 37 70 45 71 38 72 44 73 39 74 40 75 41 76 42 77 43 78
REMARK SMILES IDX 66 79 67 80 75 81 68 82 74 83 69 84 70 85 71 86 72 87 73 88
REMARK SMILES IDX 52 89 53 90 61 91 54 92 60 93 55 94 56 95 57 96 58 97 59 98
REMARK H PARENT 19 6 8 17 5 28 24 35 80 54 50 65
REMARK Flexibility Score: inf
ROOT
ATOM      1  C   UNL A   1      42.478  23.380  28.536  1.00  0.00     0.023 C 
ENDROOT
BRANCH   1   2
ATOM      2  C   UNL A   1      43.962  23.225  28.875  1.00  0.00     0.116 C 
BRANCH   2   3
ATOM      3  N   UNL A   1      44.671  22.556  27.804  1.00  0.00    -0.352 N 
ATOM      4  C   UNL A   1      45.457  23.045  26.792  1.00  0.00     0.251 C 
ATOM      5  O   UNL A   1      46.003  22.237  26.043  1.00  0.00    -0.269 OA
ATOM      6  H   UNL A   1      44.570  21.576  27.802  1.00  0.00     0.163 HD
BRANCH   4   7
ATOM      7  C   UNL A   1      45.721  24.499  26.600  1.00  0.00     0.039 A 
ATOM      8  C   UNL A   1      46.299  27.265  26.425  1.00  0.00    -0.039 A 
ATOM      9  C   UNL A   1      46.983  26.442  27.332  1.00  0.00     0.005 A 
ATOM     10  C   UNL A   1      45.384  26.670  25.553  1.00  0.00     0.005 A 
ATOM     11  C   UNL A   1      46.687  25.081  27.429  1.00  0.00     0.014 A 
ATOM     12  C   UNL A   1      45.117  25.300  25.629  1.00  0.00     0.014 A 
BRANCH   8  13
ATOM     13  C   UNL A   1      46.525  28.767  26.356  1.00  0.00     0.074 C 
ATOM     14  N   UNL A   1      45.568  30.996  27.054  1.00  0.00    -0.329 N 
ATOM     15  C   UNL A   1      46.852  31.354  27.674  1.00  0.00     0.262 C 
ATOM     16  C   UNL A   1      45.373  29.541  27.029  1.00  0.00     0.270 C 
ATOM     17  H   UNL A   1      45.599  31.313  26.085  1.00  0.00     0.348 HD
ATOM     18  C   UNL A   1      48.030  30.671  26.974  1.00  0.00     0.062 C 
ATOM     19  C   UNL A   1      47.871  29.154  26.975  1.00  0.00     0.020 C 
BRANCH  14  20
ATOM     20  C   UNL A   1      44.430  31.704  27.685  1.00  0.00     0.317 C 
BRANCH  20  21
ATOM     21  C   UNL A   1      44.396  33.221  27.509  1.00  0.00     0.074 A 
ATOM     22  C   UNL A   1      43.923  36.014  27.147  1.00  0.00     0.182 A 
ATOM     23  C   UNL A   1      43.474  35.085  26.292  1.00  0.00     0.133 A 
ATOM     24  C   UNL A   1      44.780  35.516  28.282  1.00  0.00     0.223 A 
ATOM     25  N   UNL A   1      43.746  33.749  26.407  1.00  0.00    -0.357 N 
ATOM     26  C   UNL A   1      44.953  34.040  28.420  1.00  0.00     0.083 A 
ATOM     27  O   UNL A   1      45.307  36.262  29.101  1.00  0.00    -0.286 OA
ATOM     28  H   UNL A   1      43.470  33.143  25.682  1.00  0.00     0.166 HD
BRANCH  22  29
ATOM     29  O   UNL A   1      43.528  37.332  27.028  1.00  0.00    -0.491 OA
ATOM     30  C   UNL A   1      42.117  37.474  26.920  1.00  0.00     0.278 C 
ENDBRANCH  22  29
ENDBRANCH  20  21
ENDBRANCH  14  20
ENDBRANCH   8  13
ENDBRANCH   4   7
ENDBRANCH   2   3
ENDBRANCH   1   2
BRANCH   1  31
ATOM     31  C   UNL A   1      41.851  22.165  27.856  1.00  0.00     0.023 C 
BRANCH  31  32
ATOM     32  C   UNL A   1      41.595  22.332  26.365  1.00  0.00     0.116 C 
BRANCH  32  33
ATOM     33  N   UNL A   1      40.212  22.078  25.986  1.00  0.00    -0.352 N 
ATOM     34  C   UNL A   1      39.130  22.913  26.147  1.00  0.00     0.251 C 
ATOM     35  H   UNL A   1      40.029  21.206  25.567  1.00  0.00     0.163 HD
ATOM     36  O   UNL A   1      38.000  22.539  25.867  1.00  0.00    -0.269 OA
BRANCH  34  37
ATOM     37  C   UNL A   1      39.366  24.256  26.711  1.00  0.00     0.039 A 
ATOM     38  C   UNL A   1      38.962  24.518  28.022  1.00  0.00     0.014 A 
ATOM     39  C   UNL A   1      40.068  25.212  25.973  1.00  0.00     0.014 A 
ATOM     40  C   UNL A   1      39.334  25.720  28.625  1.00  0.00     0.010 A 
ATOM     41  C   UNL A   1      40.489  26.381  26.595  1.00  0.00     0.010 A 
ATOM     42  C   UNL A   1      40.133  26.641  27.928  1.00  0.00    -0.014 A 
BRANCH  42  43
ATOM     43  C   UNL A   1      40.626  27.885  28.566  1.00  0.00     0.031 A 
ATOM     44  C   UNL A   1      42.019  27.927  29.129  1.00  0.00     0.074 A 
ATOM     45  C   UNL A   1      39.792  28.931  28.731  1.00  0.00     0.049 A 
ATOM     46  N   UNL A   1      42.586  28.856  29.853  1.00  0.00    -0.248 NA
ATOM     47  C   UNL A   1      42.873  26.758  28.866  1.00  0.00     0.031 C 
ATOM     48  C   UNL A   1      38.407  28.995  28.258  1.00  0.00     0.029 A 
ATOM     49  N   UNL A   1      39.983  30.133  29.364  1.00  0.00    -0.354 N 
ATOM     50  C   UNL A   1      43.852  28.370  30.159  1.00  0.00     0.074 A 
ATOM     51  C   UNL A   1      43.956  27.053  29.570  1.00  0.00     0.031 C 
ATOM     52  C   UNL A   1      37.878  30.180  28.608  1.00  0.00     0.029 A 
ATOM     53  C   UNL A   1      38.869  30.940  29.364  1.00  0.00     0.049 A 
ATOM     54  H   UNL A   1      40.837  30.395  29.777  1.00  0.00     0.167 HD
ATOM     55  C   UNL A   1      44.842  28.972  30.859  1.00  0.00     0.031 A 
ATOM     56  C   UNL A   1      38.664  32.148  29.923  1.00  0.00     0.031 A 
ATOM     57  C   UNL A   1      44.741  30.291  31.423  1.00  0.00     0.049 A 
ATOM     58  C   UNL A   1      39.780  32.802  30.690  1.00  0.00     0.074 A 
ATOM     59  C   UNL A   1      45.707  31.011  32.102  1.00  0.00     0.029 A 
ATOM     60  N   UNL A   1      43.609  31.088  31.367  1.00  0.00    -0.354 N 
ATOM     61  N   UNL A   1      40.987  32.346  30.930  1.00  0.00    -0.248 NA
ATOM     62  C   UNL A   1      39.512  34.130  31.257  1.00  0.00     0.031 C 
ATOM     63  C   UNL A   1      45.148  32.234  32.486  1.00  0.00     0.029 A 
ATOM     64  C   UNL A   1      43.847  32.290  32.009  1.00  0.00     0.049 A 
ATOM     65  H   UNL A   1      42.760  30.838  30.934  1.00  0.00     0.167 HD
ATOM     66  C   UNL A   1      41.630  33.345  31.652  1.00  0.00     0.074 A 
ATOM     67  C   UNL A   1      40.682  34.429  31.806  1.00  0.00     0.031 C 
ATOM     68  C   UNL A   1      42.894  33.363  32.139  1.00  0.00     0.031 A 
BRANCH  55  69
ATOM     69  C   UNL A   1      46.116  28.200  31.056  1.00  0.00    -0.014 A 
ATOM     70  C   UNL A   1      47.240  28.438  30.245  1.00  0.00     0.010 A 
ATOM     71  C   UNL A   1      46.200  27.240  32.080  1.00  0.00     0.010 A 
ATOM     72  C   UNL A   1      48.409  27.696  30.423  1.00  0.00     0.020 A 
ATOM     73  C   UNL A   1      47.377  26.513  32.277  1.00  0.00     0.020 A 
ATOM     74  C   UNL A   1      48.468  26.731  31.433  1.00  0.00     0.054 A 
BRANCH  74  75
ATOM     75  S   UNL A   1      50.001  25.786  31.649  1.00  0.00     0.124 S 
ATOM     76  O   UNL A   1      49.586  24.757  32.599  1.00  0.00    -0.237 OA
ATOM     77  O   UNL A   1      50.282  25.314  30.296  1.00  0.00    -0.237 OA
ATOM     78  O   UNL A   1      50.944  26.772  32.170  1.00  0.00    -0.744 OA
ENDBRANCH  74  75
ENDBRANCH  55  69
BRANCH  56  79
ATOM     79  C   UNL A   1      37.347  32.822  29.769  1.00  0.00    -0.014 A 
ATOM     80  C   UNL A   1      36.535  33.056  30.892  1.00  0.00     0.010 A 
ATOM     81  C   UNL A   1      36.908  33.254  28.504  1.00  0.00     0.010 A 
ATOM     82  C   UNL A   1      35.302  33.699  30.753  1.00  0.00     0.020 A 
ATOM     83  C   UNL A   1      35.686  33.917  28.365  1.00  0.00     0.020 A 
ATOM     84  C   UNL A   1      34.884  34.126  29.489  1.00  0.00     0.054 A 
BRANCH  84  85
ATOM     85  S   UNL A   1      33.308  35.012  29.339  1.00  0.00     0.124 S 
ATOM     86  O   UNL A   1      32.768  34.899  30.690  1.00  0.00    -0.237 OA
ATOM     87  O   UNL A   1      33.732  36.351  28.937  1.00  0.00    -0.237 OA
ATOM     88  O   UNL A   1      32.593  34.260  28.310  1.00  0.00    -0.744 OA
ENDBRANCH  84  85
ENDBRANCH  56  79
BRANCH  68  89
ATOM     89  C   UNL A   1      43.352  34.605  32.849  1.00  0.00    -0.014 A 
ATOM     90  C   UNL A   1      43.768  35.739  32.130  1.00  0.00     0.010 A 
ATOM     91  C   UNL A   1      43.268  34.670  34.252  1.00  0.00     0.010 A 
ATOM     92  C   UNL A   1      44.096  36.918  32.806  1.00  0.00     0.020 A 
ATOM     93  C   UNL A   1      43.577  35.852  34.928  1.00  0.00     0.020 A 
ATOM     94  C   UNL A   1      43.994  36.968  34.200  1.00  0.00     0.054 A 
BRANCH  94  95
ATOM     95  S   UNL A   1      44.341  38.534  35.047  1.00  0.00     0.124 S 
ATOM     96  O   UNL A   1      43.597  39.492  34.235  1.00  0.00    -0.237 OA
ATOM     97  O   UNL A   1      43.809  38.299  36.388  1.00  0.00    -0.237 OA
ATOM     98  O   UNL A   1      45.796  38.651  34.974  1.00  0.00    -0.744 OA
ENDBRANCH  94  95
ENDBRANCH  68  89
ENDBRANCH  42  43
ENDBRANCH  34  37
ENDBRANCH  32  33
ENDBRANCH  31  32
ENDBRANCH   1  31
TORSDOF 18
ENDMDL
MODEL 2
REMARK VINA RESULT:      -9.0      4.745     11.615
REMARK SMILES COc1c[nH]c(C[N@H+]2CCC[C@@H](c3ccc(C(=O)NCCCCNC(=O)c4ccc(-c5c6nc(c(-c7ccc(S(=O)(=O)[O-])cc7)c7ccc([nH]7)c(-c7ccc(S(=O)(=O)[O-])cc7)c7nc(c(-c8ccc(S(=O)(=O)[O-])cc8)c8ccc5[nH]8)C=C7)C=C6)cc4)cc3)C2)cc1=O
REMARK SMILES IDX 21 1 20 2 19 3 17 4 18 5 16 7 13 8 14 9 88 10 15 11 87 12
REMARK SMILES IDX 12 13 8 14 9 15 89 16 10 18 11 19 7 20 6 21 3 22 4 23 91 24
REMARK SMILES IDX 5 25 90 26 92 27 2 29 1 30 22 31 23 32 24 33 25 34 26 36
REMARK SMILES IDX 27 37 28 38 86 39 29 40 85 41 30 42 31 43 32 44 79 45 33 46
REMARK SMILES IDX 84 47 78 48 80 49 34 50 83 51 77 52 76 53 35 55 65 56 46 57
REMARK SMILES IDX 64 58 47 59 50 60 63 61 81 62 48 63 49 64 62 66 82 67 51 68
REMARK SMILES IDX 36 69 37 70 45 71 38 72 44 73 39 74 40 75 41 76 42 77 43 78
REMARK SMILES IDX 66 79 67 80 75 81 68 82 74 83 69 84 70 85 71 86 72 87 73 88
REMARK SMILES IDX 52 89 53 90 61 91 54 92 60 93 55 94 56 95 57 96 58 97 59 98
REMARK H PARENT 19 6 8 17 5 28 24 35 80 54 50 65
REMARK Flexibility Score: inf
ROOT
ATOM      1  C   UNL A   1      42.777  24.139  25.343  1.00  0.00     0.023 C 
ENDROOT
BRANCH   1   2
ATOM      2  C   UNL A   1      42.615  22.620  25.423  1.00  0.00     0.116 C 
BRANCH   2   3
ATOM      3  N   UNL A   1      42.254  22.209  26.764  1.00  0.00    -0.352 N 
ATOM      4  C   UNL A   1      41.032  21.988  27.346  1.00  0.00     0.251 C 
ATOM      5  O   UNL A   1      41.011  21.571  28.504  1.00  0.00    -0.269 OA
ATOM      6  H   UNL A   1      43.021  22.062  27.364  1.00  0.00     0.163 HD
BRANCH   4   7
ATOM      7  C   UNL A   1      39.742  22.173  26.624  1.00  0.00     0.039 A 
ATOM      8  C   UNL A   1      37.251  22.681  25.378  1.00  0.00    -0.039 A 
ATOM      9  C   UNL A   1      37.918  23.688  26.092  1.00  0.00     0.005 A 
ATOM     10  C   UNL A   1      37.885  21.445  25.229  1.00  0.00     0.005 A 
ATOM     11  C   UNL A   1      39.139  23.432  26.719  1.00  0.00     0.014 A 
ATOM     12  C   UNL A   1      39.125  21.205  25.828  1.00  0.00     0.014 A 
BRANCH   8  13
ATOM     13  C   UNL A   1      35.876  22.892  24.763  1.00  0.00     0.074 C 
ATOM     14  N   UNL A   1      33.482  22.094  24.825  1.00  0.00    -0.329 N 
ATOM     15  C   UNL A   1      33.027  23.475  25.040  1.00  0.00     0.262 C 
ATOM     16  C   UNL A   1      34.846  21.895  25.332  1.00  0.00     0.270 C 
ATOM     17  H   UNL A   1      33.509  21.936  23.817  1.00  0.00     0.348 HD
ATOM     18  C   UNL A   1      33.982  24.492  24.411  1.00  0.00     0.062 C 
ATOM     19  C   UNL A   1      35.398  24.333  24.957  1.00  0.00     0.020 C 
BRANCH  14  20
ATOM     20  C   UNL A   1      32.529  21.102  25.374  1.00  0.00     0.317 C 
BRANCH  20  21
ATOM     21  C   UNL A   1      32.799  19.639  25.025  1.00  0.00     0.074 A 
ATOM     22  C   UNL A   1      32.972  16.820  24.605  1.00  0.00     0.182 A 
ATOM     23  C   UNL A   1      32.925  17.370  25.826  1.00  0.00     0.133 A 
ATOM     24  C   UNL A   1      33.020  17.779  23.444  1.00  0.00     0.223 A 
ATOM     25  N   UNL A   1      32.911  18.719  26.053  1.00  0.00    -0.357 N 
ATOM     26  C   UNL A   1      32.892  19.235  23.745  1.00  0.00     0.083 A 
ATOM     27  O   UNL A   1      33.127  17.414  22.277  1.00  0.00    -0.286 OA
ATOM     28  H   UNL A   1      32.983  19.047  26.979  1.00  0.00     0.166 HD
BRANCH  22  29
ATOM     29  O   UNL A   1      32.882  15.452  24.444  1.00  0.00    -0.491 OA
ATOM     30  C   UNL A   1      32.621  14.772  25.665  1.00  0.00     0.278 C 
ENDBRANCH  22  29
ENDBRANCH  20  21
ENDBRANCH  14  20
ENDBRANCH   8  13
ENDBRANCH   4   7
ENDBRANCH   2   3
ENDBRANCH   1   2
BRANCH   1  31
ATOM     31  C   UNL A   1      44.146  24.608  24.851  1.00  0.00     0.023 C 
BRANCH  31  32
ATOM     32  C   UNL A   1      45.311  24.220  25.750  1.00  0.00     0.116 C 
BRANCH  32  33
ATOM     33  N   UNL A   1      46.611  24.400  25.118  1.00  0.00    -0.352 N 
ATOM     34  C   UNL A   1      47.384  25.538  25.098  1.00  0.00     0.251 C 
ATOM     35  H   UNL A   1      46.979  23.616  24.650  1.00  0.00     0.163 HD
ATOM     36  O   UNL A   1      48.420  25.583  24.450  1.00  0.00    -0.269 OA
BRANCH  34  37
ATOM     37  C   UNL A   1      46.904  26.719  25.843  1.00  0.00     0.039 A 
ATOM     38  C   UNL A   1      47.337  26.911  27.156  1.00  0.00     0.014 A 
ATOM     39  C   UNL A   1      46.107  27.672  25.204  1.00  0.00     0.014 A 
ATOM     40  C   UNL A   1      47.033  28.106  27.809  1.00  0.00     0.010 A 
ATOM     41  C   UNL A   1      45.858  28.886  25.834  1.00  0.00     0.010 A 
ATOM     42  C   UNL A   1      46.327  29.116  27.137  1.00  0.00    -0.014 A 
BRANCH  42  43
ATOM     43  C   UNL A   1      46.066  30.434  27.764  1.00  0.00     0.031 A 
ATOM     44  C   UNL A   1      44.796  30.647  28.538  1.00  0.00     0.074 A 
ATOM     45  C   UNL A   1      46.914  31.459  27.549  1.00  0.00     0.049 A 
ATOM     46  N   UNL A   1      44.310  31.755  29.033  1.00  0.00    -0.248 NA
ATOM     47  C   UNL A   1      43.950  29.464  28.759  1.00  0.00     0.031 C 
ATOM     48  C   UNL A   1      48.162  31.384  26.786  1.00  0.00     0.029 A 
ATOM     49  N   UNL A   1      46.841  32.774  27.936  1.00  0.00    -0.354 N 
ATOM     50  C   UNL A   1      43.086  31.409  29.595  1.00  0.00     0.074 A 
ATOM     51  C   UNL A   1      42.892  29.996  29.352  1.00  0.00     0.031 C 
ATOM     52  C   UNL A   1      48.743  32.596  26.771  1.00  0.00     0.029 A 
ATOM     53  C   UNL A   1      47.889  33.541  27.484  1.00  0.00     0.049 A 
ATOM     54  H   UNL A   1      46.108  33.133  28.486  1.00  0.00     0.167 HD
ATOM     55  C   UNL A   1      42.210  32.195  30.263  1.00  0.00     0.031 A 
ATOM     56  C   UNL A   1      48.128  34.860  27.617  1.00  0.00     0.031 A 
ATOM     57  C   UNL A   1      42.420  33.594  30.522  1.00  0.00     0.049 A 
ATOM     58  C   UNL A   1      47.145  35.713  28.370  1.00  0.00     0.074 A 
ATOM     59  C   UNL A   1      41.617  34.465  31.236  1.00  0.00     0.029 A 
ATOM     60  N   UNL A   1      43.513  34.322  30.079  1.00  0.00    -0.354 N 
ATOM     61  N   UNL A   1      46.015  35.358  28.934  1.00  0.00    -0.248 NA
ATOM     62  C   UNL A   1      47.467  37.140  28.507  1.00  0.00     0.031 C 
ATOM     63  C   UNL A   1      42.210  35.731  31.199  1.00  0.00     0.029 A 
ATOM     64  C   UNL A   1      43.402  35.637  30.496  1.00  0.00     0.049 A 
ATOM     65  H   UNL A   1      44.258  33.960  29.548  1.00  0.00     0.167 HD
ATOM     66  C   UNL A   1      45.507  36.513  29.519  1.00  0.00     0.074 A 
ATOM     67  C   UNL A   1      46.452  37.575  29.242  1.00  0.00     0.031 C 
ATOM     68  C   UNL A   1      44.362  36.676  30.224  1.00  0.00     0.031 A 
BRANCH  55  69
ATOM     69  C   UNL A   1      40.942  31.554  30.753  1.00  0.00    -0.014 A 
ATOM     70  C   UNL A   1      39.803  31.484  29.931  1.00  0.00     0.010 A 
ATOM     71  C   UNL A   1      40.894  30.996  32.042  1.00  0.00     0.010 A 
ATOM     72  C   UNL A   1      38.623  30.908  30.408  1.00  0.00     0.020 A 
ATOM     73  C   UNL A   1      39.723  30.396  32.514  1.00  0.00     0.020 A 
ATOM     74  C   UNL A   1      38.588  30.375  31.700  1.00  0.00     0.054 A 
BRANCH  74  75
ATOM     75  S   UNL A   1      37.046  29.626  32.293  1.00  0.00     0.124 S 
ATOM     76  O   UNL A   1      36.416  29.209  31.043  1.00  0.00    -0.237 OA
ATOM     77  O   UNL A   1      37.522  28.542  33.149  1.00  0.00    -0.237 OA
ATOM     78  O   UNL A   1      36.379  30.720  32.994  1.00  0.00    -0.744 OA
ENDBRANCH  74  75
ENDBRANCH  55  69
BRANCH  56  79
ATOM     79  C   UNL A   1      49.360  35.452  27.030  1.00  0.00    -0.014 A 
ATOM     80  C   UNL A   1      50.554  35.483  27.772  1.00  0.00     0.010 A 
ATOM     81  C   UNL A   1      49.354  35.967  25.721  1.00  0.00     0.010 A 
ATOM     82  C   UNL A   1      51.717  36.028  27.220  1.00  0.00     0.020 A 
ATOM     83  C   UNL A   1      50.520  36.493  25.158  1.00  0.00     0.020 A 
ATOM     84  C   UNL A   1      51.692  36.531  25.916  1.00  0.00     0.054 A 
BRANCH  84  85
ATOM     85  S   UNL A   1      53.226  37.181  25.198  1.00  0.00     0.124 S 
ATOM     86  O   UNL A   1      53.107  38.609  25.470  1.00  0.00    -0.237 OA
ATOM     87  O   UNL A   1      54.257  36.475  25.956  1.00  0.00    -0.237 OA
ATOM     88  O   UNL A   1      53.130  36.799  23.790  1.00  0.00    -0.744 OA
ENDBRANCH  84  85
ENDBRANCH  56  79
BRANCH  68  89
ATOM     89  C   UNL A   1      44.077  38.039  30.788  1.00  0.00    -0.014 A 
ATOM     90  C   UNL A   1      43.501  39.046  29.994  1.00  0.00     0.010 A 
ATOM     91  C   UNL A   1      44.296  38.280  32.156  1.00  0.00     0.010 A 
ATOM     92  C   UNL A   1      43.152  40.275  30.562  1.00  0.00     0.020 A 
ATOM     93  C   UNL A   1      43.932  39.500  32.730  1.00  0.00     0.020 A 
ATOM     94  C   UNL A   1      43.365  40.492  31.927  1.00  0.00     0.054 A 
BRANCH  94  95
ATOM     95  S   UNL A   1      42.826  42.061  32.658  1.00  0.00     0.124 S 
ATOM     96  O   UNL A   1      44.063  42.566  33.245  1.00  0.00    -0.237 OA
ATOM     97  O   UNL A   1      42.331  42.803  31.501  1.00  0.00    -0.237 OA
ATOM     98  O   UNL A   1      41.798  41.660  33.617  1.00  0.00    -0.744 OA
ENDBRANCH  94  95
ENDBRANCH  68  89
ENDBRANCH  42  43
ENDBRANCH  34  37
ENDBRANCH  32  33
ENDBRANCH  31  32
ENDBRANCH   1  31
TORSDOF 18
ENDMDL
MODEL 3
REMARK VINA RESULT:      -8.8      4.674     11.751
REMARK SMILES COc1c[nH]c(C[N@H+]2CCC[C@@H](c3ccc(C(=O)NCCCCNC(=O)c4ccc(-c5c6nc(c(-c7ccc(S(=O)(=O)[O-])cc7)c7ccc([nH]7)c(-c7ccc(S(=O)(=O)[O-])cc7)c7nc(c(-c8ccc(S(=O)(=O)[O-])cc8)c8ccc5[nH]8)C=C7)C=C6)cc4)cc3)C2)cc1=O
REMARK SMILES IDX 21 1 20 2 19 3 17 4 18 5 16 7 13 8 14 9 88 10 15 11 87 12
REMARK SMILES IDX 12 13 8 14 9 15 89 16 10 18 11 19 7 20 6 21 3 22 4 23 91 24
REMARK SMILES IDX 5 25 90 26 92 27 2 29 1 30 22 31 23 32 24 33 25 34 26 36
REMARK SMILES IDX 27 37 28 38 86 39 29 40 85 41 30 42 31 43 32 44 79 45 33 46
REMARK SMILES IDX 84 47 78 48 80 49 34 50 83 51 77 52 76 53 35 55 65 56 46 57
REMARK SMILES IDX 64 58 47 59 50 60 63 61 81 62 48 63 49 64 62 66 82 67 51 68
REMARK SMILES IDX 36 69 37 70 45 71 38 72 44 73 39 74 40 75 41 76 42 77 43 78
REMARK SMILES IDX 66 79 67 80 75 81 68 82 74 83 69 84 70 85 71 86 72 87 73 88
REMARK SMILES IDX 52 89 53 90 61 91 54 92 60 93 55 94 56 95 57 96 58 97 59 98
REMARK H PARENT 19 6 8 17 5 28 24 35 80 54 50 65
REMARK Flexibility Score: inf
ROOT
ATOM      1  C   UNL A   1      34.529  32.064  28.532  1.00  0.00     0.023 C 
ENDROOT
BRANCH   1   2
ATOM      2  C   UNL A   1      34.093  30.799  27.791  1.00  0.00     0.116 C 
BRANCH   2   3
ATOM      3  N   UNL A   1      32.953  31.066  26.938  1.00  0.00    -0.352 N 
ATOM      4  C   UNL A   1      32.173  30.231  26.180  1.00  0.00     0.251 C 
ATOM      5  O   UNL A   1      31.208  30.718  25.592  1.00  0.00    -0.269 OA
ATOM      6  H   UNL A   1      32.692  32.015  26.895  1.00  0.00     0.163 HD
BRANCH   4   7
ATOM      7  C   UNL A   1      32.408  28.763  26.085  1.00  0.00     0.039 A 
ATOM      8  C   UNL A   1      32.955  26.008  25.728  1.00  0.00    -0.039 A 
ATOM      9  C   UNL A   1      33.756  26.986  25.120  1.00  0.00     0.005 A 
ATOM     10  C   UNL A   1      31.930  26.428  26.580  1.00  0.00     0.005 A 
ATOM     11  C   UNL A   1      33.476  28.344  25.284  1.00  0.00     0.014 A 
ATOM     12  C   UNL A   1      31.677  27.790  26.770  1.00  0.00     0.014 A 
BRANCH   8  13
ATOM     13  C   UNL A   1      33.168  24.520  25.497  1.00  0.00     0.074 C 
ATOM     14  N   UNL A   1      34.802  22.821  24.595  1.00  0.00    -0.329 N 
ATOM     15  C   UNL A   1      34.743  22.087  25.868  1.00  0.00     0.262 C 
ATOM     16  C   UNL A   1      34.509  24.247  24.785  1.00  0.00     0.270 C 
ATOM     17  H   UNL A   1      34.073  22.440  23.991  1.00  0.00     0.348 HD
ATOM     18  C   UNL A   1      33.390  22.265  26.563  1.00  0.00     0.062 C 
ATOM     19  C   UNL A   1      33.084  23.739  26.811  1.00  0.00     0.020 C 
BRANCH  14  20
ATOM     20  C   UNL A   1      36.083  22.601  23.886  1.00  0.00     0.317 C 
BRANCH  20  21
ATOM     21  C   UNL A   1      37.336  22.531  24.759  1.00  0.00     0.074 A 
ATOM     22  C   UNL A   1      39.447  22.577  26.682  1.00  0.00     0.182 A 
ATOM     23  C   UNL A   1      38.756  23.672  26.335  1.00  0.00     0.133 A 
ATOM     24  C   UNL A   1      39.112  21.314  25.932  1.00  0.00     0.223 A 
ATOM     25  N   UNL A   1      37.789  23.688  25.368  1.00  0.00    -0.357 N 
ATOM     26  C   UNL A   1      37.975  21.364  24.966  1.00  0.00     0.083 A 
ATOM     27  O   UNL A   1      39.707  20.254  26.103  1.00  0.00    -0.286 OA
ATOM     28  H   UNL A   1      37.401  24.551  25.096  1.00  0.00     0.166 HD
BRANCH  22  29
ATOM     29  O   UNL A   1      40.338  22.609  27.735  1.00  0.00    -0.491 OA
ATOM     30  C   UNL A   1      41.332  23.615  27.582  1.00  0.00     0.278 C 
ENDBRANCH  22  29
ENDBRANCH  20  21
ENDBRANCH  14  20
ENDBRANCH   8  13
ENDBRANCH   4   7
ENDBRANCH   2   3
ENDBRANCH   1   2
BRANCH   1  31
ATOM     31  C   UNL A   1      33.832  33.343  28.071  1.00  0.00     0.023 C 
BRANCH  31  32
ATOM     32  C   UNL A   1      34.293  34.609  28.781  1.00  0.00     0.116 C 
BRANCH  32  33
ATOM     33  N   UNL A   1      33.283  35.175  29.664  1.00  0.00    -0.352 N 
ATOM     34  C   UNL A   1      33.246  35.124  31.039  1.00  0.00     0.251 C 
ATOM     35  H   UNL A   1      32.539  35.649  29.227  1.00  0.00     0.163 HD
ATOM     36  O   UNL A   1      32.288  35.563  31.659  1.00  0.00    -0.269 OA
BRANCH  34  37
ATOM     37  C   UNL A   1      34.374  34.481  31.741  1.00  0.00     0.039 A 
ATOM     38  C   UNL A   1      34.299  33.117  32.032  1.00  0.00     0.014 A 
ATOM     39  C   UNL A   1      35.532  35.210  32.019  1.00  0.00     0.014 A 
ATOM     40  C   UNL A   1      35.423  32.462  32.536  1.00  0.00     0.010 A 
ATOM     41  C   UNL A   1      36.668  34.543  32.463  1.00  0.00     0.010 A 
ATOM     42  C   UNL A   1      36.626  33.163  32.715  1.00  0.00    -0.014 A 
BRANCH  42  43
ATOM     43  C   UNL A   1      37.866  32.483  33.159  1.00  0.00     0.031 A 
ATOM     44  C   UNL A   1      38.401  32.745  34.539  1.00  0.00     0.074 A 
ATOM     45  C   UNL A   1      38.560  31.719  32.293  1.00  0.00     0.049 A 
ATOM     46  N   UNL A   1      39.539  32.373  35.065  1.00  0.00    -0.248 NA
ATOM     47  C   UNL A   1      37.558  33.556  35.432  1.00  0.00     0.031 C 
ATOM     48  C   UNL A   1      38.159  31.418  30.916  1.00  0.00     0.029 A 
ATOM     49  N   UNL A   1      39.762  31.074  32.436  1.00  0.00    -0.354 N 
ATOM     50  C   UNL A   1      39.562  32.932  36.338  1.00  0.00     0.074 A 
ATOM     51  C   UNL A   1      38.341  33.692  36.491  1.00  0.00     0.031 C 
ATOM     52  C   UNL A   1      39.094  30.639  30.346  1.00  0.00     0.029 A 
ATOM     53  C   UNL A   1      40.178  30.420  31.300  1.00  0.00     0.049 A 
ATOM     54  H   UNL A   1      40.279  31.078  33.274  1.00  0.00     0.167 HD
ATOM     55  C   UNL A   1      40.511  32.811  37.296  1.00  0.00     0.031 A 
ATOM     56  C   UNL A   1      41.309  29.735  31.049  1.00  0.00     0.031 A 
ATOM     57  C   UNL A   1      41.712  32.035  37.146  1.00  0.00     0.049 A 
ATOM     58  C   UNL A   1      42.347  29.608  32.131  1.00  0.00     0.074 A 
ATOM     59  C   UNL A   1      42.709  31.807  38.077  1.00  0.00     0.029 A 
ATOM     60  N   UNL A   1      42.074  31.358  35.992  1.00  0.00    -0.354 N 
ATOM     61  N   UNL A   1      42.330  30.104  33.345  1.00  0.00    -0.248 NA
ATOM     62  C   UNL A   1      43.550  28.827  31.813  1.00  0.00     0.031 C 
ATOM     63  C   UNL A   1      43.692  31.015  37.475  1.00  0.00     0.029 A 
ATOM     64  C   UNL A   1      43.286  30.718  36.183  1.00  0.00     0.049 A 
ATOM     65  H   UNL A   1      41.548  31.334  35.160  1.00  0.00     0.167 HD
ATOM     66  C   UNL A   1      43.507  29.672  33.945  1.00  0.00     0.074 A 
ATOM     67  C   UNL A   1      44.210  28.872  32.963  1.00  0.00     0.031 C 
ATOM     68  C   UNL A   1      43.962  29.914  35.198  1.00  0.00     0.031 A 
BRANCH  55  69
ATOM     69  C   UNL A   1      40.284  33.545  38.588  1.00  0.00    -0.014 A 
ATOM     70  C   UNL A   1      40.892  34.791  38.828  1.00  0.00     0.010 A 
ATOM     71  C   UNL A   1      39.437  32.994  39.565  1.00  0.00     0.010 A 
ATOM     72  C   UNL A   1      40.693  35.450  40.044  1.00  0.00     0.020 A 
ATOM     73  C   UNL A   1      39.215  33.663  40.772  1.00  0.00     0.020 A 
ATOM     74  C   UNL A   1      39.862  34.878  41.012  1.00  0.00     0.054 A 
BRANCH  74  75
ATOM     75  S   UNL A   1      39.613  35.757  42.578  1.00  0.00     0.124 S 
ATOM     76  O   UNL A   1      39.319  37.112  42.117  1.00  0.00    -0.237 OA
ATOM     77  O   UNL A   1      38.490  35.040  43.177  1.00  0.00    -0.237 OA
ATOM     78  O   UNL A   1      40.890  35.597  43.270  1.00  0.00    -0.744 OA
ENDBRANCH  74  75
ENDBRANCH  55  69
BRANCH  56  79
ATOM     79  C   UNL A   1      41.515  29.106  29.717  1.00  0.00    -0.014 A 
ATOM     80  C   UNL A   1      42.134  29.828  28.681  1.00  0.00     0.010 A 
ATOM     81  C   UNL A   1      41.116  27.778  29.482  1.00  0.00     0.010 A 
ATOM     82  C   UNL A   1      42.340  29.238  27.431  1.00  0.00     0.020 A 
ATOM     83  C   UNL A   1      41.340  27.177  28.240  1.00  0.00     0.020 A 
ATOM     84  C   UNL A   1      41.940  27.915  27.218  1.00  0.00     0.054 A 
BRANCH  84  85
ATOM     85  S   UNL A   1      42.270  27.148  25.607  1.00  0.00     0.124 S 
ATOM     86  O   UNL A   1      42.349  28.311  24.729  1.00  0.00    -0.237 OA
ATOM     87  O   UNL A   1      43.530  26.445  25.841  1.00  0.00    -0.237 OA
ATOM     88  O   UNL A   1      41.112  26.280  25.401  1.00  0.00    -0.744 OA
ENDBRANCH  84  85
ENDBRANCH  56  79
BRANCH  68  89
ATOM     89  C   UNL A   1      45.260  29.276  35.605  1.00  0.00    -0.014 A 
ATOM     90  C   UNL A   1      46.468  29.992  35.546  1.00  0.00     0.010 A 
ATOM     91  C   UNL A   1      45.253  27.979  36.149  1.00  0.00     0.010 A 
ATOM     92  C   UNL A   1      47.650  29.416  36.021  1.00  0.00     0.020 A 
ATOM     93  C   UNL A   1      46.428  27.408  36.642  1.00  0.00     0.020 A 
ATOM     94  C   UNL A   1      47.621  28.130  36.571  1.00  0.00     0.054 A 
BRANCH  94  95
ATOM     95  S   UNL A   1      49.149  27.438  37.260  1.00  0.00     0.124 S 
ATOM     96  O   UNL A   1      49.999  27.337  36.078  1.00  0.00    -0.237 OA
ATOM     97  O   UNL A   1      49.548  28.449  38.237  1.00  0.00    -0.237 OA
ATOM     98  O   UNL A   1      48.723  26.163  37.833  1.00  0.00    -0.744 OA
ENDBRANCH  94  95
ENDBRANCH  68  89
ENDBRANCH  42  43
ENDBRANCH  34  37
ENDBRANCH  32  33
ENDBRANCH  31  32
ENDBRANCH   1  31
TORSDOF 18
ENDMDL
