MODEL 1
REMARK VINA RESULT:     -11.3      0.000      0.000
REMARK SMILES O=C(NCCCCNC(=O)[C@H]1CC(=O)N(c2cccc(OC(F)(F)F)c2)C1)c1ccc(-c2c3nc(c(-c4ccc(S(=O)(=O)[O-])cc4)c4ccc([nH]4)c(-c4ccc(S(=O)(=O)[O-])cc4)c4nc(c(-c5ccc(S(=O)(=O)[O-])cc5)c5ccc2[nH]5)C=C4)C=C3)cc1
REMARK SMILES IDX 5 1 4 2 3 3 1 4 2 5 28 7 29 8 87 9 30 10 86 11 31 12 32 13
REMARK SMILES IDX 33 14 80 15 34 16 85 17 79 18 81 19 35 20 84 21 78 22 77 23
REMARK SMILES IDX 36 25 66 26 47 27 65 28 48 29 51 30 64 31 82 32 49 33 50 34
REMARK SMILES IDX 63 36 83 37 52 38 37 39 38 40 46 41 39 42 45 43 40 44 41 45
REMARK SMILES IDX 42 46 43 47 44 48 67 49 68 50 76 51 69 52 75 53 70 54 71 55
REMARK SMILES IDX 72 56 73 57 74 58 53 59 54 60 62 61 55 62 61 63 56 64 57 65
REMARK SMILES IDX 58 66 59 67 60 68 6 69 7 70 8 71 9 72 10 74 11 75 12 76
REMARK SMILES IDX 27 77 13 78 15 79 14 80 16 81 17 82 26 83 18 84 20 85 19 86
REMARK SMILES IDX 21 87 22 88 23 89 24 90 25 91
REMARK H PARENT 3 6 81 24 51 35 8 73
REMARK Flexibility Score: inf
ROOT
ATOM      1  C   UNL A   1      38.280  23.367  26.167  1.00  0.00     0.023 C 
ENDROOT
BRANCH   1   2
ATOM      2  C   UNL A   1      39.530  23.839  26.900  1.00  0.00     0.116 C 
BRANCH   2   3
ATOM      3  N   UNL A   1      40.538  24.379  25.998  1.00  0.00    -0.352 N 
ATOM      4  O   UNL A   1      41.844  25.970  25.079  1.00  0.00    -0.269 OA
ATOM      5  C   UNL A   1      41.142  25.613  26.019  1.00  0.00     0.251 C 
ATOM      6  H   UNL A   1      40.825  23.777  25.274  1.00  0.00     0.163 HD
BRANCH   5   7
ATOM      7  C   UNL A   1      40.912  26.509  27.169  1.00  0.00     0.039 A 
ATOM      8  C   UNL A   1      41.710  27.642  27.355  1.00  0.00     0.014 A 
ATOM      9  C   UNL A   1      39.906  26.194  28.082  1.00  0.00     0.014 A 
ATOM     10  C   UNL A   1      41.599  28.378  28.528  1.00  0.00     0.010 A 
ATOM     11  C   UNL A   1      39.739  26.986  29.219  1.00  0.00     0.010 A 
ATOM     12  C   UNL A   1      40.606  28.064  29.468  1.00  0.00    -0.014 A 
BRANCH  12  13
ATOM     13  C   UNL A   1      40.444  28.893  30.687  1.00  0.00     0.031 A 
ATOM     14  C   UNL A   1      39.400  29.971  30.751  1.00  0.00     0.074 A 
ATOM     15  C   UNL A   1      41.267  28.683  31.732  1.00  0.00     0.049 A 
ATOM     16  N   UNL A   1      39.173  30.841  31.701  1.00  0.00    -0.248 NA
ATOM     17  C   UNL A   1      38.500  30.097  29.594  1.00  0.00     0.031 C 
ATOM     18  C   UNL A   1      42.310  27.656  31.790  1.00  0.00     0.029 A 
ATOM     19  N   UNL A   1      41.362  29.323  32.940  1.00  0.00    -0.354 N 
ATOM     20  C   UNL A   1      38.125  31.635  31.249  1.00  0.00     0.074 A 
ATOM     21  C   UNL A   1      37.777  31.157  29.927  1.00  0.00     0.031 C 
ATOM     22  C   UNL A   1      42.929  27.726  32.977  1.00  0.00     0.029 A 
ATOM     23  C   UNL A   1      42.376  28.844  33.734  1.00  0.00     0.049 A 
ATOM     24  H   UNL A   1      40.762  30.054  33.213  1.00  0.00     0.167 HD
ATOM     25  C   UNL A   1      37.512  32.669  31.878  1.00  0.00     0.031 A 
ATOM     26  C   UNL A   1      42.841  29.276  34.920  1.00  0.00     0.031 A 
ATOM     27  C   UNL A   1      37.881  33.146  33.187  1.00  0.00     0.049 A 
ATOM     28  C   UNL A   1      42.184  30.454  35.577  1.00  0.00     0.074 A 
ATOM     29  C   UNL A   1      37.307  34.168  33.922  1.00  0.00     0.029 A 
ATOM     30  N   UNL A   1      38.924  32.642  33.950  1.00  0.00    -0.354 N 
ATOM     31  N   UNL A   1      41.178  31.178  35.147  1.00  0.00    -0.248 NA
ATOM     32  C   UNL A   1      42.719  30.873  36.878  1.00  0.00     0.031 C 
ATOM     33  C   UNL A   1      38.044  34.324  35.101  1.00  0.00     0.029 A 
ATOM     34  C   UNL A   1      39.029  33.349  35.136  1.00  0.00     0.049 A 
ATOM     35  H   UNL A   1      39.506  31.891  33.687  1.00  0.00     0.167 HD
ATOM     36  C   UNL A   1      40.936  32.118  36.141  1.00  0.00     0.074 A 
ATOM     37  C   UNL A   1      41.901  31.869  37.194  1.00  0.00     0.031 C 
ATOM     38  C   UNL A   1      39.992  33.090  36.179  1.00  0.00     0.031 A 
BRANCH  25  39
ATOM     39  C   UNL A   1      36.414  33.384  31.132  1.00  0.00    -0.014 A 
ATOM     40  C   UNL A   1      36.604  33.867  29.824  1.00  0.00     0.010 A 
ATOM     41  C   UNL A   1      35.161  33.564  31.748  1.00  0.00     0.010 A 
ATOM     42  C   UNL A   1      35.587  34.570  29.174  1.00  0.00     0.020 A 
ATOM     43  C   UNL A   1      34.129  34.239  31.088  1.00  0.00     0.020 A 
ATOM     44  C   UNL A   1      34.358  34.761  29.815  1.00  0.00     0.054 A 
BRANCH  44  45
ATOM     45  S   UNL A   1      33.064  35.699  28.956  1.00  0.00     0.124 S 
ATOM     46  O   UNL A   1      33.852  36.637  28.161  1.00  0.00    -0.237 OA
ATOM     47  O   UNL A   1      32.367  34.663  28.197  1.00  0.00    -0.237 OA
ATOM     48  O   UNL A   1      32.291  36.297  30.041  1.00  0.00    -0.744 OA
ENDBRANCH  44  45
ENDBRANCH  25  39
BRANCH  26  49
ATOM     49  C   UNL A   1      44.000  28.580  35.542  1.00  0.00    -0.014 A 
ATOM     50  C   UNL A   1      45.312  29.017  35.296  1.00  0.00     0.010 A 
ATOM     51  C   UNL A   1      43.786  27.521  36.444  1.00  0.00     0.010 A 
ATOM     52  C   UNL A   1      46.391  28.407  35.943  1.00  0.00     0.020 A 
ATOM     53  C   UNL A   1      44.858  26.929  37.115  1.00  0.00     0.020 A 
ATOM     54  C   UNL A   1      46.155  27.374  36.856  1.00  0.00     0.054 A 
BRANCH  54  55
ATOM     55  S   UNL A   1      47.565  26.660  37.748  1.00  0.00     0.124 S 
ATOM     56  O   UNL A   1      48.383  26.141  36.658  1.00  0.00    -0.237 OA
ATOM     57  O   UNL A   1      48.108  27.818  38.453  1.00  0.00    -0.237 OA
ATOM     58  O   UNL A   1      46.950  25.651  38.608  1.00  0.00    -0.744 OA
ENDBRANCH  54  55
ENDBRANCH  26  49
BRANCH  38  59
ATOM     59  C   UNL A   1      39.909  33.934  37.424  1.00  0.00    -0.014 A 
ATOM     60  C   UNL A   1      40.688  35.093  37.583  1.00  0.00     0.010 A 
ATOM     61  C   UNL A   1      38.969  33.599  38.416  1.00  0.00     0.010 A 
ATOM     62  C   UNL A   1      40.536  35.895  38.718  1.00  0.00     0.020 A 
ATOM     63  C   UNL A   1      38.793  34.412  39.538  1.00  0.00     0.020 A 
ATOM     64  C   UNL A   1      39.584  35.553  39.685  1.00  0.00     0.054 A 
BRANCH  64  65
ATOM     65  S   UNL A   1      39.352  36.650  41.110  1.00  0.00     0.124 S 
ATOM     66  O   UNL A   1      38.528  35.831  41.995  1.00  0.00    -0.237 OA
ATOM     67  O   UNL A   1      40.722  36.881  41.561  1.00  0.00    -0.237 OA
ATOM     68  O   UNL A   1      38.684  37.820  40.542  1.00  0.00    -0.744 OA
ENDBRANCH  64  65
ENDBRANCH  38  59
ENDBRANCH  12  13
ENDBRANCH   5   7
ENDBRANCH   2   3
ENDBRANCH   1   2
BRANCH   1  69
ATOM     69  C   UNL A   1      38.308  21.901  25.747  1.00  0.00     0.023 C 
BRANCH  69  70
ATOM     70  C   UNL A   1      37.170  21.505  24.815  1.00  0.00     0.116 C 
BRANCH  70  71
ATOM     71  N   UNL A   1      36.018  21.019  25.556  1.00  0.00    -0.356 N 
ATOM     72  C   UNL A   1      34.932  21.731  25.983  1.00  0.00     0.225 C 
ATOM     73  H   UNL A   1      36.020  20.059  25.777  1.00  0.00     0.163 HD
ATOM     74  O   UNL A   1      34.073  21.187  26.671  1.00  0.00    -0.275 OA
BRANCH  72  75
ATOM     75  C   UNL A   1      34.835  23.163  25.529  1.00  0.00     0.107 C 
ATOM     76  C   UNL A   1      34.016  23.239  24.242  1.00  0.00     0.116 C 
ATOM     77  C   UNL A   1      34.083  24.070  26.480  1.00  0.00     0.139 C 
ATOM     78  C   UNL A   1      33.438  24.619  24.289  1.00  0.00     0.227 C 
ATOM     79  N   UNL A   1      33.553  25.083  25.600  1.00  0.00    -0.311 N 
ATOM     80  O   UNL A   1      32.979  25.196  23.313  1.00  0.00    -0.274 OA
BRANCH  79  81
ATOM     81  C   UNL A   1      33.063  26.319  26.052  1.00  0.00     0.047 A 
ATOM     82  C   UNL A   1      31.753  26.447  26.518  1.00  0.00     0.026 A 
ATOM     83  C   UNL A   1      33.909  27.436  26.052  1.00  0.00     0.073 A 
ATOM     84  C   UNL A   1      31.311  27.670  27.022  1.00  0.00     0.006 A 
ATOM     85  C   UNL A   1      33.452  28.678  26.486  1.00  0.00     0.131 A 
ATOM     86  C   UNL A   1      32.158  28.780  27.002  1.00  0.00     0.047 A 
BRANCH  85  87
ATOM     87  O   UNL A   1      34.167  29.841  26.461  1.00  0.00    -0.406 OA
BRANCH  87  88
ATOM     88  C   UNL A   1      35.148  30.017  27.474  1.00  0.00     0.573 C 
ATOM     89  F   UNL A   1      36.392  29.861  26.979  1.00  0.00    -0.132 F 
ATOM     90  F   UNL A   1      35.039  31.227  28.067  1.00  0.00    -0.132 F 
ATOM     91  F   UNL A   1      34.957  29.074  28.426  1.00  0.00    -0.132 F 
ENDBRANCH  87  88
ENDBRANCH  85  87
ENDBRANCH  79  81
ENDBRANCH  72  75
ENDBRANCH  70  71
ENDBRANCH  69  70
ENDBRANCH   1  69
TORSDOF 17
ENDMDL
MODEL 2
REMARK VINA RESULT:     -11.1      5.037     10.039
REMARK SMILES O=C(NCCCCNC(=O)[C@H]1CC(=O)N(c2cccc(OC(F)(F)F)c2)C1)c1ccc(-c2c3nc(c(-c4ccc(S(=O)(=O)[O-])cc4)c4ccc([nH]4)c(-c4ccc(S(=O)(=O)[O-])cc4)c4nc(c(-c5ccc(S(=O)(=O)[O-])cc5)c5ccc2[nH]5)C=C4)C=C3)cc1
REMARK SMILES IDX 5 1 4 2 3 3 1 4 2 5 28 7 29 8 87 9 30 10 86 11 31 12 32 13
REMARK SMILES IDX 33 14 80 15 34 16 85 17 79 18 81 19 35 20 84 21 78 22 77 23
REMARK SMILES IDX 36 25 66 26 47 27 65 28 48 29 51 30 64 31 82 32 49 33 50 34
REMARK SMILES IDX 63 36 83 37 52 38 37 39 38 40 46 41 39 42 45 43 40 44 41 45
REMARK SMILES IDX 42 46 43 47 44 48 67 49 68 50 76 51 69 52 75 53 70 54 71 55
REMARK SMILES IDX 72 56 73 57 74 58 53 59 54 60 62 61 55 62 61 63 56 64 57 65
REMARK SMILES IDX 58 66 59 67 60 68 6 69 7 70 8 71 9 72 10 74 11 75 12 76
REMARK SMILES IDX 27 77 13 78 15 79 14 80 16 81 17 82 26 83 18 84 20 85 19 86
REMARK SMILES IDX 21 87 22 88 23 89 24 90 25 91
REMARK H PARENT 3 6 81 24 51 35 8 73
REMARK Flexibility Score: inf
ROOT
ATOM      1  C   UNL A   1      32.865  27.848  26.155  1.00  0.00     0.023 C 
ENDROOT
BRANCH   1   2
ATOM      2  C   UNL A   1      33.621  28.338  27.384  1.00  0.00     0.116 C 
BRANCH   2   3
ATOM      3  N   UNL A   1      33.529  29.781  27.559  1.00  0.00    -0.352 N 
ATOM      4  O   UNL A   1      34.157  31.813  28.305  1.00  0.00    -0.269 OA
ATOM      5  C   UNL A   1      34.464  30.650  28.066  1.00  0.00     0.251 C 
ATOM      6  H   UNL A   1      32.679  30.189  27.276  1.00  0.00     0.163 HD
BRANCH   5   7
ATOM      7  C   UNL A   1      35.828  30.160  28.344  1.00  0.00     0.039 A 
ATOM      8  C   UNL A   1      36.163  29.677  29.612  1.00  0.00     0.014 A 
ATOM      9  C   UNL A   1      36.786  30.213  27.331  1.00  0.00     0.014 A 
ATOM     10  C   UNL A   1      37.487  29.382  29.910  1.00  0.00     0.010 A 
ATOM     11  C   UNL A   1      38.101  29.835  27.609  1.00  0.00     0.010 A 
ATOM     12  C   UNL A   1      38.469  29.449  28.910  1.00  0.00    -0.014 A 
BRANCH  12  13
ATOM     13  C   UNL A   1      39.870  29.069  29.213  1.00  0.00     0.031 A 
ATOM     14  C   UNL A   1      40.820  30.059  29.825  1.00  0.00     0.074 A 
ATOM     15  C   UNL A   1      40.289  27.826  28.908  1.00  0.00     0.049 A 
ATOM     16  N   UNL A   1      42.096  29.925  30.081  1.00  0.00    -0.248 NA
ATOM     17  C   UNL A   1      40.270  31.375  30.187  1.00  0.00     0.031 C 
ATOM     18  C   UNL A   1      39.453  26.775  28.323  1.00  0.00     0.029 A 
ATOM     19  N   UNL A   1      41.520  27.238  29.039  1.00  0.00    -0.354 N 
ATOM     20  C   UNL A   1      42.509  31.143  30.608  1.00  0.00     0.074 A 
ATOM     21  C   UNL A   1      41.351  32.013  30.612  1.00  0.00     0.031 C 
ATOM     22  C   UNL A   1      40.191  25.668  28.159  1.00  0.00     0.029 A 
ATOM     23  C   UNL A   1      41.565  25.951  28.561  1.00  0.00     0.049 A 
ATOM     24  H   UNL A   1      42.297  27.694  29.436  1.00  0.00     0.167 HD
ATOM     25  C   UNL A   1      43.742  31.503  31.044  1.00  0.00     0.031 A 
ATOM     26  C   UNL A   1      42.599  25.102  28.421  1.00  0.00     0.031 A 
ATOM     27  C   UNL A   1      44.890  30.633  31.018  1.00  0.00     0.049 A 
ATOM     28  C   UNL A   1      43.966  25.537  28.861  1.00  0.00     0.074 A 
ATOM     29  C   UNL A   1      46.175  30.892  31.460  1.00  0.00     0.029 A 
ATOM     30  N   UNL A   1      44.895  29.341  30.512  1.00  0.00    -0.354 N 
ATOM     31  N   UNL A   1      44.334  26.684  29.381  1.00  0.00    -0.248 NA
ATOM     32  C   UNL A   1      45.055  24.565  28.704  1.00  0.00     0.031 C 
ATOM     33  C   UNL A   1      46.971  29.781  31.163  1.00  0.00     0.029 A 
ATOM     34  C   UNL A   1      46.166  28.800  30.606  1.00  0.00     0.049 A 
ATOM     35  H   UNL A   1      44.109  28.876  30.140  1.00  0.00     0.167 HD
ATOM     36  C   UNL A   1      45.694  26.561  29.643  1.00  0.00     0.074 A 
ATOM     37  C   UNL A   1      46.079  25.227  29.227  1.00  0.00     0.031 C 
ATOM     38  C   UNL A   1      46.539  27.469  30.191  1.00  0.00     0.031 A 
BRANCH  25  39
ATOM     39  C   UNL A   1      43.919  32.917  31.539  1.00  0.00    -0.014 A 
ATOM     40  C   UNL A   1      43.721  33.254  32.891  1.00  0.00     0.010 A 
ATOM     41  C   UNL A   1      44.306  33.924  30.636  1.00  0.00     0.010 A 
ATOM     42  C   UNL A   1      43.843  34.580  33.315  1.00  0.00     0.020 A 
ATOM     43  C   UNL A   1      44.460  35.247  31.063  1.00  0.00     0.020 A 
ATOM     44  C   UNL A   1      44.202  35.571  32.395  1.00  0.00     0.054 A 
BRANCH  44  45
ATOM     45  S   UNL A   1      44.329  37.287  32.968  1.00  0.00     0.124 S 
ATOM     46  O   UNL A   1      43.543  37.251  34.199  1.00  0.00    -0.237 OA
ATOM     47  O   UNL A   1      45.769  37.460  33.148  1.00  0.00    -0.237 OA
ATOM     48  O   UNL A   1      43.744  38.062  31.877  1.00  0.00    -0.744 OA
ENDBRANCH  44  45
ENDBRANCH  25  39
BRANCH  26  49
ATOM     49  C   UNL A   1      42.359  23.760  27.825  1.00  0.00    -0.014 A 
ATOM     50  C   UNL A   1      42.624  23.525  26.465  1.00  0.00     0.010 A 
ATOM     51  C   UNL A   1      41.935  22.692  28.637  1.00  0.00     0.010 A 
ATOM     52  C   UNL A   1      42.470  22.243  25.929  1.00  0.00     0.020 A 
ATOM     53  C   UNL A   1      41.809  21.404  28.112  1.00  0.00     0.020 A 
ATOM     54  C   UNL A   1      42.073  21.189  26.758  1.00  0.00     0.054 A 
BRANCH  54  55
ATOM     55  S   UNL A   1      41.967  19.519  26.057  1.00  0.00     0.124 S 
ATOM     56  O   UNL A   1      42.803  19.636  24.867  1.00  0.00    -0.237 OA
ATOM     57  O   UNL A   1      42.509  18.693  27.133  1.00  0.00    -0.237 OA
ATOM     58  O   UNL A   1      40.539  19.343  25.806  1.00  0.00    -0.744 OA
ENDBRANCH  54  55
ENDBRANCH  26  49
BRANCH  38  59
ATOM     59  C   UNL A   1      47.964  27.041  30.428  1.00  0.00    -0.014 A 
ATOM     60  C   UNL A   1      49.002  27.426  29.563  1.00  0.00     0.010 A 
ATOM     61  C   UNL A   1      48.273  26.309  31.589  1.00  0.00     0.010 A 
ATOM     62  C   UNL A   1      50.325  27.074  29.850  1.00  0.00     0.020 A 
ATOM     63  C   UNL A   1      49.595  25.981  31.895  1.00  0.00     0.020 A 
ATOM     64  C   UNL A   1      50.613  26.359  31.019  1.00  0.00     0.054 A 
BRANCH  64  65
ATOM     65  S   UNL A   1      52.344  25.982  31.407  1.00  0.00     0.124 S 
ATOM     66  O   UNL A   1      52.239  24.656  32.011  1.00  0.00    -0.237 OA
ATOM     67  O   UNL A   1      52.983  26.026  30.094  1.00  0.00    -0.237 OA
ATOM     68  O   UNL A   1      52.736  27.054  32.320  1.00  0.00    -0.744 OA
ENDBRANCH  64  65
ENDBRANCH  38  59
ENDBRANCH  12  13
ENDBRANCH   5   7
ENDBRANCH   2   3
ENDBRANCH   1   2
BRANCH   1  69
ATOM     69  C   UNL A   1      31.806  28.815  25.636  1.00  0.00     0.023 C 
BRANCH  69  70
ATOM     70  C   UNL A   1      31.308  28.488  24.234  1.00  0.00     0.116 C 
BRANCH  70  71
ATOM     71  N   UNL A   1      32.323  28.764  23.230  1.00  0.00    -0.356 N 
ATOM     72  C   UNL A   1      33.164  27.876  22.620  1.00  0.00     0.225 C 
ATOM     73  H   UNL A   1      32.414  29.705  22.955  1.00  0.00     0.163 HD
ATOM     74  O   UNL A   1      34.026  28.279  21.845  1.00  0.00    -0.275 OA
BRANCH  72  75
ATOM     75  C   UNL A   1      32.941  26.416  22.912  1.00  0.00     0.107 C 
ATOM     76  C   UNL A   1      33.000  25.618  21.610  1.00  0.00     0.116 C 
ATOM     77  C   UNL A   1      34.016  25.778  23.766  1.00  0.00     0.139 C 
ATOM     78  C   UNL A   1      33.446  24.262  22.064  1.00  0.00     0.227 C 
ATOM     79  N   UNL A   1      33.977  24.397  23.347  1.00  0.00    -0.311 N 
ATOM     80  O   UNL A   1      33.321  23.247  21.393  1.00  0.00    -0.274 OA
BRANCH  79  81
ATOM     81  C   UNL A   1      34.558  23.351  24.082  1.00  0.00     0.047 A 
ATOM     82  C   UNL A   1      35.693  23.566  24.867  1.00  0.00     0.026 A 
ATOM     83  C   UNL A   1      33.978  22.077  24.040  1.00  0.00     0.073 A 
ATOM     84  C   UNL A   1      36.212  22.526  25.637  1.00  0.00     0.006 A 
ATOM     85  C   UNL A   1      34.534  21.015  24.749  1.00  0.00     0.131 A 
ATOM     86  C   UNL A   1      35.635  21.255  25.574  1.00  0.00     0.047 A 
BRANCH  85  87
ATOM     87  O   UNL A   1      34.094  19.722  24.721  1.00  0.00    -0.406 OA
BRANCH  87  88
ATOM     88  C   UNL A   1      32.783  19.478  25.212  1.00  0.00     0.573 C 
ATOM     89  F   UNL A   1      32.784  18.496  26.137  1.00  0.00    -0.132 F 
ATOM     90  F   UNL A   1      32.230  20.596  25.733  1.00  0.00    -0.132 F 
ATOM     91  F   UNL A   1      32.005  19.076  24.180  1.00  0.00    -0.132 F 
ENDBRANCH  87  88
ENDBRANCH  85  87
ENDBRANCH  79  81
ENDBRANCH  72  75
ENDBRANCH  70  71
ENDBRANCH  69  70
ENDBRANCH   1  69
TORSDOF 17
ENDMDL
MODEL 3
REMARK VINA RESULT:     -11.1      1.082      8.226
REMARK SMILES O=C(NCCCCNC(=O)[C@H]1CC(=O)N(c2cccc(OC(F)(F)F)c2)C1)c1ccc(-c2c3nc(c(-c4ccc(S(=O)(=O)[O-])cc4)c4ccc([nH]4)c(-c4ccc(S(=O)(=O)[O-])cc4)c4nc(c(-c5ccc(S(=O)(=O)[O-])cc5)c5ccc2[nH]5)C=C4)C=C3)cc1
REMARK SMILES IDX 5 1 4 2 3 3 1 4 2 5 28 7 29 8 87 9 30 10 86 11 31 12 32 13
REMARK SMILES IDX 33 14 80 15 34 16 85 17 79 18 81 19 35 20 84 21 78 22 77 23
REMARK SMILES IDX 36 25 66 26 47 27 65 28 48 29 51 30 64 31 82 32 49 33 50 34
REMARK SMILES IDX 63 36 83 37 52 38 37 39 38 40 46 41 39 42 45 43 40 44 41 45
REMARK SMILES IDX 42 46 43 47 44 48 67 49 68 50 76 51 69 52 75 53 70 54 71 55
REMARK SMILES IDX 72 56 73 57 74 58 53 59 54 60 62 61 55 62 61 63 56 64 57 65
REMARK SMILES IDX 58 66 59 67 60 68 6 69 7 70 8 71 9 72 10 74 11 75 12 76
REMARK SMILES IDX 27 77 13 78 15 79 14 80 16 81 17 82 26 83 18 84 20 85 19 86
REMARK SMILES IDX 21 87 22 88 23 89 24 90 25 91
REMARK H PARENT 3 6 81 24 51 35 8 73
REMARK Flexibility Score: inf
ROOT
ATOM      1  C   UNL A   1      38.015  23.331  26.091  1.00  0.00     0.023 C 
ENDROOT
BRANCH   1   2
ATOM      2  C   UNL A   1      39.236  23.448  26.998  1.00  0.00     0.116 C 
BRANCH   2   3
ATOM      3  N   UNL A   1      40.472  23.629  26.251  1.00  0.00    -0.352 N 
ATOM      4  O   UNL A   1      42.262  24.751  25.464  1.00  0.00    -0.269 OA
ATOM      5  C   UNL A   1      41.358  24.679  26.289  1.00  0.00     0.251 C 
ATOM      6  H   UNL A   1      40.706  22.898  25.634  1.00  0.00     0.163 HD
BRANCH   5   7
ATOM      7  C   UNL A   1      41.188  25.728  27.313  1.00  0.00     0.039 A 
ATOM      8  C   UNL A   1      41.988  26.874  27.291  1.00  0.00     0.014 A 
ATOM      9  C   UNL A   1      40.239  25.546  28.319  1.00  0.00     0.014 A 
ATOM     10  C   UNL A   1      41.939  27.768  28.354  1.00  0.00     0.010 A 
ATOM     11  C   UNL A   1      40.132  26.490  29.341  1.00  0.00     0.010 A 
ATOM     12  C   UNL A   1      41.005  27.591  29.385  1.00  0.00    -0.014 A 
BRANCH  12  13
ATOM     13  C   UNL A   1      40.908  28.583  30.483  1.00  0.00     0.031 A 
ATOM     14  C   UNL A   1      41.811  28.495  31.680  1.00  0.00     0.074 A 
ATOM     15  C   UNL A   1      39.979  29.555  30.404  1.00  0.00     0.049 A 
ATOM     16  N   UNL A   1      41.811  29.225  32.766  1.00  0.00    -0.248 NA
ATOM     17  C   UNL A   1      42.841  27.445  31.662  1.00  0.00     0.031 C 
ATOM     18  C   UNL A   1      39.055  29.748  29.284  1.00  0.00     0.029 A 
ATOM     19  N   UNL A   1      39.652  30.555  31.282  1.00  0.00    -0.354 N 
ATOM     20  C   UNL A   1      42.819  28.708  33.573  1.00  0.00     0.074 A 
ATOM     21  C   UNL A   1      43.393  27.586  32.860  1.00  0.00     0.031 C 
ATOM     22  C   UNL A   1      38.276  30.810  29.536  1.00  0.00     0.029 A 
ATOM     23  C   UNL A   1      38.597  31.328  30.862  1.00  0.00     0.049 A 
ATOM     24  H   UNL A   1      40.126  30.704  32.132  1.00  0.00     0.167 HD
ATOM     25  C   UNL A   1      43.224  29.129  34.797  1.00  0.00     0.031 A 
ATOM     26  C   UNL A   1      37.931  32.318  31.483  1.00  0.00     0.031 A 
ATOM     27  C   UNL A   1      42.632  30.236  35.503  1.00  0.00     0.049 A 
ATOM     28  C   UNL A   1      38.361  32.736  32.859  1.00  0.00     0.074 A 
ATOM     29  C   UNL A   1      42.986  30.759  36.734  1.00  0.00     0.029 A 
ATOM     30  N   UNL A   1      41.555  30.984  35.047  1.00  0.00    -0.354 N 
ATOM     31  N   UNL A   1      39.332  32.253  33.597  1.00  0.00    -0.248 NA
ATOM     32  C   UNL A   1      37.612  33.833  33.485  1.00  0.00     0.031 C 
ATOM     33  C   UNL A   1      42.083  31.779  37.051  1.00  0.00     0.029 A 
ATOM     34  C   UNL A   1      41.214  31.945  35.984  1.00  0.00     0.049 A 
ATOM     35  H   UNL A   1      41.100  30.850  34.183  1.00  0.00     0.167 HD
ATOM     36  C   UNL A   1      39.333  33.010  34.763  1.00  0.00     0.074 A 
ATOM     37  C   UNL A   1      38.267  33.983  34.629  1.00  0.00     0.031 C 
ATOM     38  C   UNL A   1      40.153  32.911  35.839  1.00  0.00     0.031 A 
BRANCH  25  39
ATOM     39  C   UNL A   1      44.330  28.353  35.468  1.00  0.00    -0.014 A 
ATOM     40  C   UNL A   1      44.059  27.233  36.275  1.00  0.00     0.010 A 
ATOM     41  C   UNL A   1      45.668  28.745  35.275  1.00  0.00     0.010 A 
ATOM     42  C   UNL A   1      45.097  26.561  36.926  1.00  0.00     0.020 A 
ATOM     43  C   UNL A   1      46.712  28.056  35.900  1.00  0.00     0.020 A 
ATOM     44  C   UNL A   1      46.418  26.984  36.742  1.00  0.00     0.054 A 
BRANCH  44  45
ATOM     45  S   UNL A   1      47.743  26.110  37.619  1.00  0.00     0.124 S 
ATOM     46  O   UNL A   1      47.901  24.909  36.802  1.00  0.00    -0.237 OA
ATOM     47  O   UNL A   1      48.851  27.061  37.557  1.00  0.00    -0.237 OA
ATOM     48  O   UNL A   1      47.190  25.889  38.953  1.00  0.00    -0.744 OA
ENDBRANCH  44  45
ENDBRANCH  25  39
BRANCH  26  49
ATOM     49  C   UNL A   1      36.781  32.963  30.794  1.00  0.00    -0.014 A 
ATOM     50  C   UNL A   1      35.462  32.651  31.160  1.00  0.00     0.010 A 
ATOM     51  C   UNL A   1      37.008  33.950  29.817  1.00  0.00     0.010 A 
ATOM     52  C   UNL A   1      34.388  33.317  30.562  1.00  0.00     0.020 A 
ATOM     53  C   UNL A   1      35.939  34.639  29.238  1.00  0.00     0.020 A 
ATOM     54  C   UNL A   1      34.634  34.313  29.612  1.00  0.00     0.054 A 
BRANCH  54  55
ATOM     55  S   UNL A   1      33.227  35.223  28.917  1.00  0.00     0.124 S 
ATOM     56  O   UNL A   1      33.892  36.255  28.128  1.00  0.00    -0.237 OA
ATOM     57  O   UNL A   1      32.534  34.190  28.152  1.00  0.00    -0.237 OA
ATOM     58  O   UNL A   1      32.510  35.700  30.097  1.00  0.00    -0.744 OA
ENDBRANCH  54  55
ENDBRANCH  26  49
BRANCH  38  59
ATOM     59  C   UNL A   1      39.973  33.916  36.946  1.00  0.00    -0.014 A 
ATOM     60  C   UNL A   1      40.576  35.185  36.895  1.00  0.00     0.010 A 
ATOM     61  C   UNL A   1      39.115  33.607  38.018  1.00  0.00     0.010 A 
ATOM     62  C   UNL A   1      40.332  36.122  37.904  1.00  0.00     0.020 A 
ATOM     63  C   UNL A   1      38.846  34.549  39.012  1.00  0.00     0.020 A 
ATOM     64  C   UNL A   1      39.462  35.800  38.953  1.00  0.00     0.054 A 
BRANCH  64  65
ATOM     65  S   UNL A   1      39.103  37.060  40.207  1.00  0.00     0.124 S 
ATOM     66  O   UNL A   1      38.195  36.348  41.103  1.00  0.00    -0.237 OA
ATOM     67  O   UNL A   1      40.425  37.352  40.754  1.00  0.00    -0.237 OA
ATOM     68  O   UNL A   1      38.498  38.148  39.442  1.00  0.00    -0.744 OA
ENDBRANCH  64  65
ENDBRANCH  38  59
ENDBRANCH  12  13
ENDBRANCH   5   7
ENDBRANCH   2   3
ENDBRANCH   1   2
BRANCH   1  69
ATOM     69  C   UNL A   1      37.816  21.951  25.473  1.00  0.00     0.023 C 
BRANCH  69  70
ATOM     70  C   UNL A   1      36.941  21.955  24.226  1.00  0.00     0.116 C 
BRANCH  70  71
ATOM     71  N   UNL A   1      35.602  21.467  24.512  1.00  0.00    -0.356 N 
ATOM     72  C   UNL A   1      34.440  22.183  24.566  1.00  0.00     0.225 C 
ATOM     73  H   UNL A   1      35.524  20.501  24.689  1.00  0.00     0.163 HD
ATOM     74  O   UNL A   1      33.395  21.634  24.900  1.00  0.00    -0.275 OA
BRANCH  72  75
ATOM     75  C   UNL A   1      34.512  23.629  24.153  1.00  0.00     0.107 C 
ATOM     76  C   UNL A   1      34.217  23.752  22.659  1.00  0.00     0.116 C 
ATOM     77  C   UNL A   1      33.463  24.515  24.794  1.00  0.00     0.139 C 
ATOM     78  C   UNL A   1      33.659  25.137  22.536  1.00  0.00     0.227 C 
ATOM     79  N   UNL A   1      33.289  25.560  23.813  1.00  0.00    -0.311 N 
ATOM     80  O   UNL A   1      33.586  25.747  21.479  1.00  0.00    -0.274 OA
BRANCH  79  81
ATOM     81  C   UNL A   1      32.665  26.786  24.095  1.00  0.00     0.047 A 
ATOM     82  C   UNL A   1      31.388  27.072  23.608  1.00  0.00     0.026 A 
ATOM     83  C   UNL A   1      33.328  27.727  24.892  1.00  0.00     0.073 A 
ATOM     84  C   UNL A   1      30.765  28.270  23.957  1.00  0.00     0.006 A 
ATOM     85  C   UNL A   1      32.742  28.956  25.184  1.00  0.00     0.131 A 
ATOM     86  C   UNL A   1      31.443  29.209  24.739  1.00  0.00     0.047 A 
BRANCH  85  87
ATOM     87  O   UNL A   1      33.328  29.970  25.887  1.00  0.00    -0.406 OA
BRANCH  87  88
ATOM     88  C   UNL A   1      33.335  29.851  27.304  1.00  0.00     0.573 C 
ATOM     89  F   UNL A   1      33.411  31.061  27.894  1.00  0.00    -0.132 F 
ATOM     90  F   UNL A   1      32.245  29.190  27.753  1.00  0.00    -0.132 F 
ATOM     91  F   UNL A   1      34.427  29.140  27.670  1.00  0.00    -0.132 F 
ENDBRANCH  87  88
ENDBRANCH  85  87
ENDBRANCH  79  81
ENDBRANCH  72  75
ENDBRANCH  70  71
ENDBRANCH  69  70
ENDBRANCH   1  69
TORSDOF 17
ENDMDL
