MODEL 1
REMARK VINA RESULT:     -10.9      0.000      0.000
REMARK SMILES Cc1c(CC(=O)N[C@H](CO)C(=O)NCCCCNC(=O)c2ccc(-c3c4nc(c(-c5ccc(S(=O)(=O)[O-])cc5)c5ccc([nH]5)c(-c5ccc(S(=O)(=O)[O-])cc5)c5nc(c(-c6ccc(S(=O)(=O)[O-])cc6)c6ccc3[nH]6)C=C5)C=C4)cc2)cc(-c2ccc(S(C)(=O)=O)cc2)n1-c1ccc(F)cc1
REMARK SMILES IDX 14 1 13 2 11 3 12 4 8 6 7 7 5 8 6 9 4 11 3 12 1 13 2 14
REMARK SMILES IDX 93 15 81 16 82 17 94 18 95 19 100 20 96 21 99 22 97 23 98 24
REMARK SMILES IDX 83 25 84 26 92 27 85 28 91 29 86 30 87 31 88 32 89 33 90 34
REMARK SMILES IDX 9 35 10 36 15 38 16 39 17 40 18 41 19 42 20 44 21 45 22 46
REMARK SMILES IDX 80 47 23 48 79 49 24 50 25 51 26 52 73 53 27 54 78 55 72 56
REMARK SMILES IDX 74 57 28 58 77 59 71 60 70 61 29 63 59 64 40 65 58 66 41 67
REMARK SMILES IDX 44 68 57 69 75 70 42 71 43 72 56 74 76 75 45 76 30 77 31 78
REMARK SMILES IDX 39 79 32 80 38 81 33 82 34 83 35 84 36 85 37 86 60 87 61 88
REMARK SMILES IDX 69 89 62 90 68 91 63 92 64 93 65 94 66 95 67 96 46 97 47 98
REMARK SMILES IDX 55 99 48 100 54 101 49 102 50 103 51 104 52 105 53 106
REMARK H PARENT 13 5 7 10 10 37 18 43 74 62 44 73
REMARK Flexibility Score: inf
ROOT
ATOM      1  C   UNL A   1      43.535  22.189  27.575  1.00  0.00     0.116 C 
ENDROOT
BRANCH   1   2
ATOM      2  N   UNL A   1      43.302  21.332  26.422  1.00  0.00    -0.354 N 
ATOM      3  C   UNL A   1      42.331  20.421  26.135  1.00  0.00     0.244 C 
ATOM      4  O   UNL A   1      42.492  19.718  25.134  1.00  0.00    -0.273 OA
ATOM      5  H   UNL A   1      43.977  21.430  25.713  1.00  0.00     0.163 HD
BRANCH   3   6
ATOM      6  C   UNL A   1      41.160  20.157  27.094  1.00  0.00     0.197 C 
BRANCH   6   7
ATOM      7  N   UNL A   1      40.661  21.414  27.655  1.00  0.00    -0.342 N 
ATOM      8  C   UNL A   1      39.988  22.439  27.067  1.00  0.00     0.225 C 
ATOM      9  O   UNL A   1      39.736  23.427  27.763  1.00  0.00    -0.275 OA
ATOM     10  H   UNL A   1      40.844  21.537  28.614  1.00  0.00     0.164 HD
BRANCH   8  11
ATOM     11  C   UNL A   1      39.536  22.366  25.621  1.00  0.00     0.137 C 
BRANCH  11  12
ATOM     12  C   UNL A   1      38.047  22.422  25.473  1.00  0.00    -0.017 A 
ATOM     13  C   UNL A   1      37.591  20.039  24.587  1.00  0.00     0.065 C 
ATOM     14  C   UNL A   1      37.198  21.396  25.078  1.00  0.00     0.024 A 
ATOM     15  N   UNL A   1      35.891  21.868  25.130  1.00  0.00    -0.314 N 
ATOM     16  C   UNL A   1      37.239  23.566  25.684  1.00  0.00     0.033 A 
ATOM     17  C   UNL A   1      35.914  23.208  25.523  1.00  0.00     0.053 A 
BRANCH  15  18
ATOM     18  C   UNL A   1      34.718  21.129  24.821  1.00  0.00     0.046 A 
ATOM     19  C   UNL A   1      34.408  19.982  25.567  1.00  0.00     0.029 A 
ATOM     20  C   UNL A   1      33.927  21.501  23.726  1.00  0.00     0.029 A 
ATOM     21  C   UNL A   1      33.317  19.197  25.207  1.00  0.00     0.041 A 
ATOM     22  C   UNL A   1      32.841  20.700  23.365  1.00  0.00     0.041 A 
ATOM     23  C   UNL A   1      32.550  19.558  24.105  1.00  0.00     0.123 A 
ATOM     24  F   UNL A   1      31.518  18.784  23.745  1.00  0.00    -0.207 F 
ENDBRANCH  15  18
BRANCH  17  25
ATOM     25  C   UNL A   1      34.733  24.042  25.778  1.00  0.00    -0.001 A 
ATOM     26  C   UNL A   1      33.699  23.600  26.618  1.00  0.00     0.011 A 
ATOM     27  C   UNL A   1      34.623  25.296  25.163  1.00  0.00     0.011 A 
ATOM     28  C   UNL A   1      32.544  24.366  26.788  1.00  0.00     0.021 A 
ATOM     29  C   UNL A   1      33.473  26.070  25.331  1.00  0.00     0.021 A 
ATOM     30  C   UNL A   1      32.429  25.588  26.124  1.00  0.00     0.067 A 
BRANCH  30  31
ATOM     31  S   UNL A   1      30.944  26.547  26.296  1.00  0.00     0.175 S 
ATOM     32  C   UNL A   1      30.896  27.538  24.825  1.00  0.00     0.163 C 
ATOM     33  O   UNL A   1      29.826  25.608  26.249  1.00  0.00    -0.224 OA
ATOM     34  O   UNL A   1      31.115  27.437  27.415  1.00  0.00    -0.224 OA
ENDBRANCH  30  31
ENDBRANCH  17  25
ENDBRANCH  11  12
ENDBRANCH   8  11
ENDBRANCH   6   7
BRANCH   6  35
ATOM     35  C   UNL A   1      41.600  19.074  28.099  1.00  0.00     0.191 C 
BRANCH  35  36
ATOM     36  O   UNL A   1      42.767  18.345  27.721  1.00  0.00    -0.394 OA
ATOM     37  H   UNL A   1      42.532  17.417  27.567  1.00  0.00     0.210 HD
ENDBRANCH  35  36
ENDBRANCH   6  35
ENDBRANCH   3   6
ENDBRANCH   1   2
BRANCH   1  38
ATOM     38  C   UNL A   1      44.824  22.997  27.455  1.00  0.00     0.023 C 
BRANCH  38  39
ATOM     39  C   UNL A   1      45.760  22.619  26.300  1.00  0.00     0.023 C 
BRANCH  39  40
ATOM     40  C   UNL A   1      45.672  23.424  25.002  1.00  0.00     0.116 C 
BRANCH  40  41
ATOM     41  N   UNL A   1      46.722  24.381  24.778  1.00  0.00    -0.352 N 
ATOM     42  C   UNL A   1      46.689  25.716  25.160  1.00  0.00     0.251 C 
ATOM     43  H   UNL A   1      47.531  24.064  24.316  1.00  0.00     0.163 HD
ATOM     44  O   UNL A   1      47.615  26.444  24.823  1.00  0.00    -0.269 OA
BRANCH  42  45
ATOM     45  C   UNL A   1      45.501  26.249  25.922  1.00  0.00     0.039 A 
ATOM     46  C   UNL A   1      44.506  26.931  25.238  1.00  0.00     0.014 A 
ATOM     47  C   UNL A   1      45.386  26.182  27.320  1.00  0.00     0.014 A 
ATOM     48  C   UNL A   1      43.394  27.474  25.937  1.00  0.00     0.010 A 
ATOM     49  C   UNL A   1      44.292  26.805  28.035  1.00  0.00     0.010 A 
ATOM     50  C   UNL A   1      43.252  27.484  27.370  1.00  0.00    -0.014 A 
BRANCH  50  51
ATOM     51  C   UNL A   1      42.396  28.685  27.963  1.00  0.00     0.031 A 
ATOM     52  C   UNL A   1      43.428  29.743  28.158  1.00  0.00     0.074 A 
ATOM     53  C   UNL A   1      41.133  29.004  28.443  1.00  0.00     0.049 A 
ATOM     54  N   UNL A   1      44.450  29.491  28.922  1.00  0.00    -0.248 NA
ATOM     55  C   UNL A   1      43.610  30.866  27.238  1.00  0.00     0.031 C 
ATOM     56  C   UNL A   1      39.981  28.113  28.639  1.00  0.00     0.029 A 
ATOM     57  N   UNL A   1      40.564  30.237  28.876  1.00  0.00    -0.354 N 
ATOM     58  C   UNL A   1      45.329  30.533  28.770  1.00  0.00     0.074 A 
ATOM     59  C   UNL A   1      44.851  31.233  27.580  1.00  0.00     0.031 C 
ATOM     60  C   UNL A   1      38.854  28.813  28.969  1.00  0.00     0.029 A 
ATOM     61  C   UNL A   1      39.141  30.241  29.096  1.00  0.00     0.049 A 
ATOM     62  H   UNL A   1      41.114  31.041  29.017  1.00  0.00     0.167 HD
ATOM     63  C   UNL A   1      45.791  31.090  29.926  1.00  0.00     0.031 A 
ATOM     64  C   UNL A   1      38.280  31.285  29.426  1.00  0.00     0.031 A 
ATOM     65  C   UNL A   1      44.981  32.220  30.309  1.00  0.00     0.049 A 
ATOM     66  C   UNL A   1      39.114  32.250  30.155  1.00  0.00     0.074 A 
ATOM     67  C   UNL A   1      44.535  33.323  29.609  1.00  0.00     0.029 A 
ATOM     68  N   UNL A   1      44.123  32.045  31.379  1.00  0.00    -0.354 N 
ATOM     69  N   UNL A   1      39.526  32.033  31.366  1.00  0.00    -0.248 NA
ATOM     70  C   UNL A   1      39.472  33.544  29.584  1.00  0.00     0.031 C 
ATOM     71  C   UNL A   1      43.177  33.446  29.969  1.00  0.00     0.029 A 
ATOM     72  C   UNL A   1      42.941  32.717  31.128  1.00  0.00     0.049 A 
ATOM     73  H   UNL A   1      44.322  31.525  32.190  1.00  0.00     0.167 HD
ATOM     74  C   UNL A   1      40.581  32.890  31.488  1.00  0.00     0.074 A 
ATOM     75  C   UNL A   1      40.333  33.943  30.522  1.00  0.00     0.031 C 
ATOM     76  C   UNL A   1      41.767  32.377  31.905  1.00  0.00     0.031 A 
BRANCH  63  77
ATOM     77  C   UNL A   1      46.369  30.121  30.924  1.00  0.00    -0.014 A 
ATOM     78  C   UNL A   1      47.600  29.515  30.639  1.00  0.00     0.010 A 
ATOM     79  C   UNL A   1      45.699  29.752  32.112  1.00  0.00     0.010 A 
ATOM     80  C   UNL A   1      48.122  28.538  31.497  1.00  0.00     0.020 A 
ATOM     81  C   UNL A   1      46.201  28.761  32.957  1.00  0.00     0.020 A 
ATOM     82  C   UNL A   1      47.413  28.157  32.641  1.00  0.00     0.054 A 
BRANCH  82  83
ATOM     83  S   UNL A   1      48.084  26.834  33.684  1.00  0.00     0.124 S 
ATOM     84  O   UNL A   1      47.032  25.819  33.620  1.00  0.00    -0.237 OA
ATOM     85  O   UNL A   1      49.317  26.488  32.984  1.00  0.00    -0.237 OA
ATOM     86  O   UNL A   1      48.247  27.460  34.992  1.00  0.00    -0.744 OA
ENDBRANCH  82  83
ENDBRANCH  63  77
BRANCH  64  87
ATOM     87  C   UNL A   1      36.795  31.736  29.479  1.00  0.00    -0.014 A 
ATOM     88  C   UNL A   1      36.351  32.582  30.554  1.00  0.00     0.010 A 
ATOM     89  C   UNL A   1      35.951  31.736  28.356  1.00  0.00     0.010 A 
ATOM     90  C   UNL A   1      35.256  33.475  30.459  1.00  0.00     0.020 A 
ATOM     91  C   UNL A   1      34.821  32.609  28.263  1.00  0.00     0.020 A 
ATOM     92  C   UNL A   1      34.511  33.511  29.290  1.00  0.00     0.054 A 
BRANCH  92  93
ATOM     93  S   UNL A   1      33.264  34.840  29.071  1.00  0.00     0.124 S 
ATOM     94  O   UNL A   1      34.061  35.962  28.584  1.00  0.00    -0.237 OA
ATOM     95  O   UNL A   1      32.342  34.256  28.098  1.00  0.00    -0.237 OA
ATOM     96  O   UNL A   1      32.706  35.010  30.411  1.00  0.00    -0.744 OA
ENDBRANCH  92  93
ENDBRANCH  64  87
BRANCH  76  97
ATOM     97  C   UNL A   1      41.738  31.371  33.043  1.00  0.00    -0.014 A 
ATOM     98  C   UNL A   1      41.903  31.677  34.413  1.00  0.00     0.010 A 
ATOM     99  C   UNL A   1      41.616  30.014  32.698  1.00  0.00     0.010 A 
ATOM    100  C   UNL A   1      42.026  30.667  35.382  1.00  0.00     0.020 A 
ATOM    101  C   UNL A   1      41.697  29.001  33.662  1.00  0.00     0.020 A 
ATOM    102  C   UNL A   1      41.939  29.331  34.995  1.00  0.00     0.054 A 
BRANCH 102 103
ATOM    103  S   UNL A   1      42.193  28.031  36.236  1.00  0.00     0.124 S 
ATOM    104  O   UNL A   1      42.645  26.906  35.419  1.00  0.00    -0.237 OA
ATOM    105  O   UNL A   1      43.207  28.611  37.112  1.00  0.00    -0.237 OA
ATOM    106  O   UNL A   1      40.870  27.857  36.833  1.00  0.00    -0.744 OA
ENDBRANCH 102 103
ENDBRANCH  76  97
ENDBRANCH  50  51
ENDBRANCH  42  45
ENDBRANCH  40  41
ENDBRANCH  39  40
ENDBRANCH  38  39
ENDBRANCH   1  38
TORSDOF 22
ENDMDL
MODEL 2
REMARK VINA RESULT:     -10.1      4.141      8.157
REMARK SMILES Cc1c(CC(=O)N[C@H](CO)C(=O)NCCCCNC(=O)c2ccc(-c3c4nc(c(-c5ccc(S(=O)(=O)[O-])cc5)c5ccc([nH]5)c(-c5ccc(S(=O)(=O)[O-])cc5)c5nc(c(-c6ccc(S(=O)(=O)[O-])cc6)c6ccc3[nH]6)C=C5)C=C4)cc2)cc(-c2ccc(S(C)(=O)=O)cc2)n1-c1ccc(F)cc1
REMARK SMILES IDX 14 1 13 2 11 3 12 4 8 6 7 7 5 8 6 9 4 11 3 12 1 13 2 14
REMARK SMILES IDX 93 15 81 16 82 17 94 18 95 19 100 20 96 21 99 22 97 23 98 24
REMARK SMILES IDX 83 25 84 26 92 27 85 28 91 29 86 30 87 31 88 32 89 33 90 34
REMARK SMILES IDX 9 35 10 36 15 38 16 39 17 40 18 41 19 42 20 44 21 45 22 46
REMARK SMILES IDX 80 47 23 48 79 49 24 50 25 51 26 52 73 53 27 54 78 55 72 56
REMARK SMILES IDX 74 57 28 58 77 59 71 60 70 61 29 63 59 64 40 65 58 66 41 67
REMARK SMILES IDX 44 68 57 69 75 70 42 71 43 72 56 74 76 75 45 76 30 77 31 78
REMARK SMILES IDX 39 79 32 80 38 81 33 82 34 83 35 84 36 85 37 86 60 87 61 88
REMARK SMILES IDX 69 89 62 90 68 91 63 92 64 93 65 94 66 95 67 96 46 97 47 98
REMARK SMILES IDX 55 99 48 100 54 101 49 102 50 103 51 104 52 105 53 106
REMARK H PARENT 13 5 7 10 10 37 18 43 74 62 44 73
REMARK Flexibility Score: inf
ROOT
ATOM      1  C   UNL A   1      40.212  28.038  29.624  1.00  0.00     0.116 C 
ENDROOT
BRANCH   1   2
ATOM      2  N   UNL A   1      40.197  27.732  31.047  1.00  0.00    -0.354 N 
ATOM      3  C   UNL A   1      39.730  28.415  32.129  1.00  0.00     0.244 C 
ATOM      4  O   UNL A   1      40.012  27.969  33.244  1.00  0.00    -0.273 OA
ATOM      5  H   UNL A   1      40.602  26.863  31.270  1.00  0.00     0.163 HD
BRANCH   3   6
ATOM      6  C   UNL A   1      39.020  29.770  31.986  1.00  0.00     0.197 C 
BRANCH   6   7
ATOM      7  N   UNL A   1      39.917  30.863  32.365  1.00  0.00    -0.342 N 
ATOM      8  C   UNL A   1      40.546  31.797  31.602  1.00  0.00     0.225 C 
ATOM      9  O   UNL A   1      41.310  32.579  32.175  1.00  0.00    -0.275 OA
ATOM     10  H   UNL A   1      40.095  30.933  33.331  1.00  0.00     0.164 HD
BRANCH   8  11
ATOM     11  C   UNL A   1      40.301  31.896  30.108  1.00  0.00     0.137 C 
BRANCH  11  12
ATOM     12  C   UNL A   1      38.849  32.011  29.764  1.00  0.00    -0.017 A 
ATOM     13  C   UNL A   1      38.338  34.345  30.745  1.00  0.00     0.065 C 
ATOM     14  C   UNL A   1      38.011  33.096  29.991  1.00  0.00     0.024 A 
ATOM     15  N   UNL A   1      36.758  32.796  29.466  1.00  0.00    -0.314 N 
ATOM     16  C   UNL A   1      38.059  30.999  29.166  1.00  0.00     0.033 A 
ATOM     17  C   UNL A   1      36.792  31.503  28.939  1.00  0.00     0.053 A 
BRANCH  15  18
ATOM     18  C   UNL A   1      35.619  33.645  29.474  1.00  0.00     0.046 A 
ATOM     19  C   UNL A   1      35.372  34.477  28.372  1.00  0.00     0.029 A 
ATOM     20  C   UNL A   1      34.801  33.705  30.610  1.00  0.00     0.029 A 
ATOM     21  C   UNL A   1      34.316  35.383  28.414  1.00  0.00     0.041 A 
ATOM     22  C   UNL A   1      33.752  34.625  30.647  1.00  0.00     0.041 A 
ATOM     23  C   UNL A   1      33.522  35.455  29.554  1.00  0.00     0.123 A 
ATOM     24  F   UNL A   1      32.525  36.348  29.600  1.00  0.00    -0.207 F 
ENDBRANCH  15  18
BRANCH  17  25
ATOM     25  C   UNL A   1      35.693  30.847  28.219  1.00  0.00    -0.001 A 
ATOM     26  C   UNL A   1      34.476  31.509  27.991  1.00  0.00     0.011 A 
ATOM     27  C   UNL A   1      35.850  29.532  27.763  1.00  0.00     0.011 A 
ATOM     28  C   UNL A   1      33.410  30.848  27.379  1.00  0.00     0.021 A 
ATOM     29  C   UNL A   1      34.790  28.864  27.146  1.00  0.00     0.021 A 
ATOM     30  C   UNL A   1      33.567  29.519  26.979  1.00  0.00     0.067 A 
BRANCH  30  31
ATOM     31  S   UNL A   1      32.202  28.655  26.242  1.00  0.00     0.175 S 
ATOM     32  C   UNL A   1      31.398  29.885  25.248  1.00  0.00     0.163 C 
ATOM     33  O   UNL A   1      32.771  27.649  25.348  1.00  0.00    -0.224 OA
ATOM     34  O   UNL A   1      31.291  28.281  27.292  1.00  0.00    -0.224 OA
ENDBRANCH  30  31
ENDBRANCH  17  25
ENDBRANCH  11  12
ENDBRANCH   8  11
ENDBRANCH   6   7
BRANCH   6  35
ATOM     35  C   UNL A   1      37.674  29.685  32.733  1.00  0.00     0.191 C 
BRANCH  35  36
ATOM     36  O   UNL A   1      37.338  28.385  33.215  1.00  0.00    -0.394 OA
ATOM     37  H   UNL A   1      36.400  28.208  33.039  1.00  0.00     0.210 HD
ENDBRANCH  35  36
ENDBRANCH   6  35
ENDBRANCH   3   6
ENDBRANCH   1   2
BRANCH   1  38
ATOM     38  C   UNL A   1      39.139  27.277  28.848  1.00  0.00     0.023 C 
BRANCH  38  39
ATOM     39  C   UNL A   1      39.264  25.748  28.837  1.00  0.00     0.023 C 
BRANCH  39  40
ATOM     40  C   UNL A   1      39.181  25.024  27.492  1.00  0.00     0.116 C 
BRANCH  40  41
ATOM     41  N   UNL A   1      39.535  23.629  27.501  1.00  0.00    -0.352 N 
ATOM     42  C   UNL A   1      40.831  23.129  27.513  1.00  0.00     0.251 C 
ATOM     43  H   UNL A   1      38.799  22.976  27.499  1.00  0.00     0.163 HD
ATOM     44  O   UNL A   1      40.990  21.917  27.425  1.00  0.00    -0.269 OA
BRANCH  42  45
ATOM     45  C   UNL A   1      42.002  24.078  27.574  1.00  0.00     0.039 A 
ATOM     46  C   UNL A   1      42.459  24.513  28.809  1.00  0.00     0.014 A 
ATOM     47  C   UNL A   1      42.605  24.637  26.436  1.00  0.00     0.014 A 
ATOM     48  C   UNL A   1      43.537  25.435  28.894  1.00  0.00     0.010 A 
ATOM     49  C   UNL A   1      43.650  25.635  26.527  1.00  0.00     0.010 A 
ATOM     50  C   UNL A   1      44.155  26.080  27.765  1.00  0.00    -0.014 A 
BRANCH  50  51
ATOM     51  C   UNL A   1      44.779  27.514  28.053  1.00  0.00     0.031 A 
ATOM     52  C   UNL A   1      46.066  27.169  28.723  1.00  0.00     0.074 A 
ATOM     53  C   UNL A   1      44.487  28.870  28.010  1.00  0.00     0.049 A 
ATOM     54  N   UNL A   1      46.037  26.458  29.812  1.00  0.00    -0.248 NA
ATOM     55  C   UNL A   1      47.358  27.196  28.038  1.00  0.00     0.031 C 
ATOM     56  C   UNL A   1      43.214  29.517  27.660  1.00  0.00     0.029 A 
ATOM     57  N   UNL A   1      45.283  30.023  28.268  1.00  0.00    -0.354 N 
ATOM     58  C   UNL A   1      47.334  26.120  30.102  1.00  0.00     0.074 A 
ATOM     59  C   UNL A   1      48.067  26.428  28.875  1.00  0.00     0.031 C 
ATOM     60  C   UNL A   1      43.349  30.874  27.563  1.00  0.00     0.029 A 
ATOM     61  C   UNL A   1      44.709  31.291  27.900  1.00  0.00     0.049 A 
ATOM     62  H   UNL A   1      46.176  29.956  28.677  1.00  0.00     0.167 HD
ATOM     63  C   UNL A   1      47.735  26.358  31.384  1.00  0.00     0.031 A 
ATOM     64  C   UNL A   1      45.252  32.573  27.933  1.00  0.00     0.031 A 
ATOM     65  C   UNL A   1      48.362  27.652  31.493  1.00  0.00     0.049 A 
ATOM     66  C   UNL A   1      46.257  32.533  29.005  1.00  0.00     0.074 A 
ATOM     67  C   UNL A   1      49.353  28.269  30.756  1.00  0.00     0.029 A 
ATOM     68  N   UNL A   1      47.636  28.652  32.113  1.00  0.00    -0.354 N 
ATOM     69  N   UNL A   1      45.929  32.497  30.259  1.00  0.00    -0.248 NA
ATOM     70  C   UNL A   1      47.686  32.602  28.722  1.00  0.00     0.031 C 
ATOM     71  C   UNL A   1      48.877  29.581  30.550  1.00  0.00     0.029 A 
ATOM     72  C   UNL A   1      47.862  29.850  31.461  1.00  0.00     0.049 A 
ATOM     73  H   UNL A   1      47.051  28.530  32.895  1.00  0.00     0.167 HD
ATOM     74  C   UNL A   1      47.060  32.023  30.856  1.00  0.00     0.074 A 
ATOM     75  C   UNL A   1      48.143  32.364  29.953  1.00  0.00     0.031 C 
ATOM     76  C   UNL A   1      46.940  30.946  31.674  1.00  0.00     0.031 A 
BRANCH  63  77
ATOM     77  C   UNL A   1      46.842  25.787  32.455  1.00  0.00    -0.014 A 
ATOM     78  C   UNL A   1      47.432  25.131  33.544  1.00  0.00     0.010 A 
ATOM     79  C   UNL A   1      45.432  25.834  32.384  1.00  0.00     0.010 A 
ATOM     80  C   UNL A   1      46.633  24.504  34.509  1.00  0.00     0.020 A 
ATOM     81  C   UNL A   1      44.631  25.191  33.329  1.00  0.00     0.020 A 
ATOM     82  C   UNL A   1      45.239  24.526  34.387  1.00  0.00     0.054 A 
BRANCH  82  83
ATOM     83  S   UNL A   1      44.243  23.637  35.614  1.00  0.00     0.124 S 
ATOM     84  O   UNL A   1      43.178  24.597  35.909  1.00  0.00    -0.237 OA
ATOM     85  O   UNL A   1      43.819  22.456  34.868  1.00  0.00    -0.237 OA
ATOM     86  O   UNL A   1      45.168  23.396  36.717  1.00  0.00    -0.744 OA
ENDBRANCH  82  83
ENDBRANCH  63  77
BRANCH  64  87
ATOM     87  C   UNL A   1      45.097  34.031  27.420  1.00  0.00    -0.014 A 
ATOM     88  C   UNL A   1      43.867  34.432  26.790  1.00  0.00     0.010 A 
ATOM     89  C   UNL A   1      45.884  35.097  27.884  1.00  0.00     0.010 A 
ATOM     90  C   UNL A   1      43.384  35.763  26.773  1.00  0.00     0.020 A 
ATOM     91  C   UNL A   1      45.421  36.450  27.840  1.00  0.00     0.020 A 
ATOM     92  C   UNL A   1      44.153  36.770  27.336  1.00  0.00     0.054 A 
BRANCH  92  93
ATOM     93  S   UNL A   1      43.419  38.439  27.543  1.00  0.00     0.124 S 
ATOM     94  O   UNL A   1      43.835  38.817  28.890  1.00  0.00    -0.237 OA
ATOM     95  O   UNL A   1      44.041  39.200  26.460  1.00  0.00    -0.237 OA
ATOM     96  O   UNL A   1      41.986  38.207  27.377  1.00  0.00    -0.744 OA
ENDBRANCH  92  93
ENDBRANCH  64  87
BRANCH  76  97
ATOM     97  C   UNL A   1      45.757  30.914  32.628  1.00  0.00    -0.014 A 
ATOM     98  C   UNL A   1      45.691  31.577  33.875  1.00  0.00     0.010 A 
ATOM     99  C   UNL A   1      44.671  30.095  32.277  1.00  0.00     0.010 A 
ATOM    100  C   UNL A   1      44.626  31.362  34.765  1.00  0.00     0.020 A 
ATOM    101  C   UNL A   1      43.585  29.905  33.141  1.00  0.00     0.020 A 
ATOM    102  C   UNL A   1      43.585  30.510  34.397  1.00  0.00     0.054 A 
BRANCH 102 103
ATOM    103  S   UNL A   1      42.262  30.162  35.590  1.00  0.00     0.124 S 
ATOM    104  O   UNL A   1      42.242  28.701  35.613  1.00  0.00    -0.237 OA
ATOM    105  O   UNL A   1      42.748  30.797  36.811  1.00  0.00    -0.237 OA
ATOM    106  O   UNL A   1      41.081  30.778  34.987  1.00  0.00    -0.744 OA
ENDBRANCH 102 103
ENDBRANCH  76  97
ENDBRANCH  50  51
ENDBRANCH  42  45
ENDBRANCH  40  41
ENDBRANCH  39  40
ENDBRANCH  38  39
ENDBRANCH   1  38
TORSDOF 22
ENDMDL
MODEL 3
REMARK VINA RESULT:     -10.0      8.896     16.844
REMARK SMILES Cc1c(CC(=O)N[C@H](CO)C(=O)NCCCCNC(=O)c2ccc(-c3c4nc(c(-c5ccc(S(=O)(=O)[O-])cc5)c5ccc([nH]5)c(-c5ccc(S(=O)(=O)[O-])cc5)c5nc(c(-c6ccc(S(=O)(=O)[O-])cc6)c6ccc3[nH]6)C=C5)C=C4)cc2)cc(-c2ccc(S(C)(=O)=O)cc2)n1-c1ccc(F)cc1
REMARK SMILES IDX 14 1 13 2 11 3 12 4 8 6 7 7 5 8 6 9 4 11 3 12 1 13 2 14
REMARK SMILES IDX 93 15 81 16 82 17 94 18 95 19 100 20 96 21 99 22 97 23 98 24
REMARK SMILES IDX 83 25 84 26 92 27 85 28 91 29 86 30 87 31 88 32 89 33 90 34
REMARK SMILES IDX 9 35 10 36 15 38 16 39 17 40 18 41 19 42 20 44 21 45 22 46
REMARK SMILES IDX 80 47 23 48 79 49 24 50 25 51 26 52 73 53 27 54 78 55 72 56
REMARK SMILES IDX 74 57 28 58 77 59 71 60 70 61 29 63 59 64 40 65 58 66 41 67
REMARK SMILES IDX 44 68 57 69 75 70 42 71 43 72 56 74 76 75 45 76 30 77 31 78
REMARK SMILES IDX 39 79 32 80 38 81 33 82 34 83 35 84 36 85 37 86 60 87 61 88
REMARK SMILES IDX 69 89 62 90 68 91 63 92 64 93 65 94 66 95 67 96 46 97 47 98
REMARK SMILES IDX 55 99 48 100 54 101 49 102 50 103 51 104 52 105 53 106
REMARK H PARENT 13 5 7 10 10 37 18 43 74 62 44 73
REMARK Flexibility Score: inf
ROOT
ATOM      1  C   UNL A   1      46.921  39.248  28.023  1.00  0.00     0.116 C 
ENDROOT
BRANCH   1   2
ATOM      2  N   UNL A   1      46.184  39.489  29.256  1.00  0.00    -0.354 N 
ATOM      3  C   UNL A   1      44.951  40.010  29.502  1.00  0.00     0.244 C 
ATOM      4  O   UNL A   1      44.661  40.246  30.678  1.00  0.00    -0.273 OA
ATOM      5  H   UNL A   1      46.673  39.223  30.068  1.00  0.00     0.163 HD
BRANCH   3   6
ATOM      6  C   UNL A   1      44.012  40.440  28.365  1.00  0.00     0.197 C 
BRANCH   6   7
ATOM      7  N   UNL A   1      44.245  41.841  28.008  1.00  0.00    -0.342 N 
ATOM      8  C   UNL A   1      44.509  42.415  26.804  1.00  0.00     0.225 C 
ATOM      9  O   UNL A   1      44.731  43.629  26.789  1.00  0.00    -0.275 OA
ATOM     10  H   UNL A   1      44.204  42.470  28.765  1.00  0.00     0.164 HD
BRANCH   8  11
ATOM     11  C   UNL A   1      44.506  41.604  25.521  1.00  0.00     0.137 C 
BRANCH  11  12
ATOM     12  C   UNL A   1      45.126  42.334  24.371  1.00  0.00    -0.017 A 
ATOM     13  C   UNL A   1      43.087  43.688  23.545  1.00  0.00     0.065 C 
ATOM     14  C   UNL A   1      44.526  43.279  23.548  1.00  0.00     0.024 A 
ATOM     15  N   UNL A   1      45.479  43.738  22.645  1.00  0.00    -0.314 N 
ATOM     16  C   UNL A   1      46.448  42.156  23.896  1.00  0.00     0.033 A 
ATOM     17  C   UNL A   1      46.676  43.055  22.871  1.00  0.00     0.053 A 
BRANCH  15  18
ATOM     18  C   UNL A   1      45.279  44.724  21.642  1.00  0.00     0.046 A 
ATOM     19  C   UNL A   1      44.811  44.337  20.377  1.00  0.00     0.029 A 
ATOM     20  C   UNL A   1      45.626  46.058  21.895  1.00  0.00     0.029 A 
ATOM     21  C   UNL A   1      44.708  45.282  19.360  1.00  0.00     0.041 A 
ATOM     22  C   UNL A   1      45.531  46.995  20.865  1.00  0.00     0.041 A 
ATOM     23  C   UNL A   1      45.078  46.599  19.611  1.00  0.00     0.123 A 
ATOM     24  F   UNL A   1      45.003  47.497  18.620  1.00  0.00    -0.207 F 
ENDBRANCH  15  18
BRANCH  17  25
ATOM     25  C   UNL A   1      47.947  43.311  22.182  1.00  0.00    -0.001 A 
ATOM     26  C   UNL A   1      48.917  44.160  22.738  1.00  0.00     0.011 A 
ATOM     27  C   UNL A   1      48.195  42.713  20.941  1.00  0.00     0.011 A 
ATOM     28  C   UNL A   1      50.085  44.461  22.036  1.00  0.00     0.021 A 
ATOM     29  C   UNL A   1      49.363  43.005  20.233  1.00  0.00     0.021 A 
ATOM     30  C   UNL A   1      50.291  43.898  20.775  1.00  0.00     0.067 A 
BRANCH  30  31
ATOM     31  S   UNL A   1      51.752  44.312  19.854  1.00  0.00     0.175 S 
ATOM     32  C   UNL A   1      52.181  42.804  19.024  1.00  0.00     0.163 C 
ATOM     33  O   UNL A   1      51.353  45.289  18.844  1.00  0.00    -0.224 OA
ATOM     34  O   UNL A   1      52.802  44.605  20.793  1.00  0.00    -0.224 OA
ENDBRANCH  30  31
ENDBRANCH  17  25
ENDBRANCH  11  12
ENDBRANCH   8  11
ENDBRANCH   6   7
BRANCH   6  35
ATOM     35  C   UNL A   1      42.573  40.054  28.762  1.00  0.00     0.191 C 
BRANCH  35  36
ATOM     36  O   UNL A   1      41.744  41.149  29.148  1.00  0.00    -0.394 OA
ATOM     37  H   UNL A   1      41.307  41.516  28.363  1.00  0.00     0.210 HD
ENDBRANCH  35  36
ENDBRANCH   6  35
ENDBRANCH   3   6
ENDBRANCH   1   2
BRANCH   1  38
ATOM     38  C   UNL A   1      47.705  37.939  28.054  1.00  0.00     0.023 C 
BRANCH  38  39
ATOM     39  C   UNL A   1      47.247  36.848  27.077  1.00  0.00     0.023 C 
BRANCH  39  40
ATOM     40  C   UNL A   1      46.223  35.821  27.565  1.00  0.00     0.116 C 
BRANCH  40  41
ATOM     41  N   UNL A   1      44.982  36.351  28.064  1.00  0.00    -0.352 N 
ATOM     42  C   UNL A   1      43.801  35.635  28.205  1.00  0.00     0.251 C 
ATOM     43  H   UNL A   1      44.970  37.299  28.327  1.00  0.00     0.163 HD
ATOM     44  O   UNL A   1      42.791  36.236  28.555  1.00  0.00    -0.269 OA
BRANCH  42  45
ATOM     45  C   UNL A   1      43.770  34.164  27.873  1.00  0.00     0.039 A 
ATOM     46  C   UNL A   1      43.739  33.236  28.904  1.00  0.00     0.014 A 
ATOM     47  C   UNL A   1      43.873  33.664  26.565  1.00  0.00     0.014 A 
ATOM     48  C   UNL A   1      43.746  31.844  28.620  1.00  0.00     0.010 A 
ATOM     49  C   UNL A   1      43.958  32.246  26.285  1.00  0.00     0.010 A 
ATOM     50  C   UNL A   1      43.905  31.276  27.307  1.00  0.00    -0.014 A 
BRANCH  50  51
ATOM     51  C   UNL A   1      44.583  29.839  27.261  1.00  0.00     0.031 A 
ATOM     52  C   UNL A   1      43.441  28.963  26.871  1.00  0.00     0.074 A 
ATOM     53  C   UNL A   1      45.759  29.166  27.565  1.00  0.00     0.049 A 
ATOM     54  N   UNL A   1      42.380  28.942  27.624  1.00  0.00    -0.248 NA
ATOM     55  C   UNL A   1      43.242  28.462  25.511  1.00  0.00     0.031 C 
ATOM     56  C   UNL A   1      46.967  29.693  28.215  1.00  0.00     0.029 A 
ATOM     57  N   UNL A   1      46.165  27.817  27.353  1.00  0.00    -0.354 N 
ATOM     58  C   UNL A   1      41.424  28.228  26.946  1.00  0.00     0.074 A 
ATOM     59  C   UNL A   1      41.944  28.138  25.583  1.00  0.00     0.031 C 
ATOM     60  C   UNL A   1      47.986  28.782  28.197  1.00  0.00     0.029 A 
ATOM     61  C   UNL A   1      47.554  27.523  27.594  1.00  0.00     0.049 A 
ATOM     62  H   UNL A   1      45.530  27.124  27.060  1.00  0.00     0.167 HD
ATOM     63  C   UNL A   1      40.805  27.244  27.660  1.00  0.00     0.031 A 
ATOM     64  C   UNL A   1      48.277  26.349  27.395  1.00  0.00     0.031 A 
ATOM     65  C   UNL A   1      41.464  25.977  27.464  1.00  0.00     0.049 A 
ATOM     66  C   UNL A   1      47.290  25.268  27.524  1.00  0.00     0.074 A 
ATOM     67  C   UNL A   1      41.867  25.305  26.327  1.00  0.00     0.029 A 
ATOM     68  N   UNL A   1      42.230  25.498  28.510  1.00  0.00    -0.354 N 
ATOM     69  N   UNL A   1      46.788  24.921  28.669  1.00  0.00    -0.248 NA
ATOM     70  C   UNL A   1      46.866  24.473  26.376  1.00  0.00     0.031 C 
ATOM     71  C   UNL A   1      43.168  24.849  26.628  1.00  0.00     0.029 A 
ATOM     72  C   UNL A   1      43.361  24.886  28.003  1.00  0.00     0.049 A 
ATOM     73  H   UNL A   1      42.005  25.580  29.465  1.00  0.00     0.167 HD
ATOM     74  C   UNL A   1      45.650  24.258  28.314  1.00  0.00     0.074 A 
ATOM     75  C   UNL A   1      45.887  23.784  26.964  1.00  0.00     0.031 C 
ATOM     76  C   UNL A   1      44.483  24.652  28.887  1.00  0.00     0.031 A 
BRANCH  63  77
ATOM     77  C   UNL A   1      40.230  27.673  28.985  1.00  0.00    -0.014 A 
ATOM     78  C   UNL A   1      38.860  27.957  29.064  1.00  0.00     0.010 A 
ATOM     79  C   UNL A   1      41.020  27.856  30.141  1.00  0.00     0.010 A 
ATOM     80  C   UNL A   1      38.308  28.450  30.254  1.00  0.00     0.020 A 
ATOM     81  C   UNL A   1      40.482  28.369  31.322  1.00  0.00     0.020 A 
ATOM     82  C   UNL A   1      39.125  28.667  31.369  1.00  0.00     0.054 A 
BRANCH  82  83
ATOM     83  S   UNL A   1      38.388  29.378  32.865  1.00  0.00     0.124 S 
ATOM     84  O   UNL A   1      37.282  28.460  33.139  1.00  0.00    -0.237 OA
ATOM     85  O   UNL A   1      39.494  29.310  33.815  1.00  0.00    -0.237 OA
ATOM     86  O   UNL A   1      37.979  30.719  32.457  1.00  0.00    -0.744 OA
ENDBRANCH  82  83
ENDBRANCH  63  77
BRANCH  64  87
ATOM     87  C   UNL A   1      49.700  25.741  27.271  1.00  0.00    -0.014 A 
ATOM     88  C   UNL A   1      50.289  25.578  25.969  1.00  0.00     0.010 A 
ATOM     89  C   UNL A   1      50.623  25.722  28.331  1.00  0.00     0.010 A 
ATOM     90  C   UNL A   1      51.684  25.566  25.727  1.00  0.00     0.020 A 
ATOM     91  C   UNL A   1      52.034  25.674  28.099  1.00  0.00     0.020 A 
ATOM     92  C   UNL A   1      52.559  25.651  26.799  1.00  0.00     0.054 A 
BRANCH  92  93
ATOM     93  S   UNL A   1      54.348  25.894  26.471  1.00  0.00     0.124 S 
ATOM     94  O   UNL A   1      54.685  24.753  25.625  1.00  0.00    -0.237 OA
ATOM     95  O   UNL A   1      54.377  27.196  25.806  1.00  0.00    -0.237 OA
ATOM     96  O   UNL A   1      54.947  25.878  27.804  1.00  0.00    -0.744 OA
ENDBRANCH  92  93
ENDBRANCH  64  87
BRANCH  76  97
ATOM     97  C   UNL A   1      44.500  24.965  30.374  1.00  0.00    -0.014 A 
ATOM     98  C   UNL A   1      44.477  24.009  31.415  1.00  0.00     0.010 A 
ATOM     99  C   UNL A   1      44.456  26.320  30.746  1.00  0.00     0.010 A 
ATOM    100  C   UNL A   1      44.329  24.390  32.759  1.00  0.00     0.020 A 
ATOM    101  C   UNL A   1      44.350  26.711  32.086  1.00  0.00     0.020 A 
ATOM    102  C   UNL A   1      44.249  25.743  33.084  1.00  0.00     0.054 A 
BRANCH 102 103
ATOM    103  S   UNL A   1      43.963  26.224  34.811  1.00  0.00     0.124 S 
ATOM    104  O   UNL A   1      43.587  27.631  34.683  1.00  0.00    -0.237 OA
ATOM    105  O   UNL A   1      42.887  25.328  35.225  1.00  0.00    -0.237 OA
ATOM    106  O   UNL A   1      45.256  25.994  35.454  1.00  0.00    -0.744 OA
ENDBRANCH 102 103
ENDBRANCH  76  97
ENDBRANCH  50  51
ENDBRANCH  42  45
ENDBRANCH  40  41
ENDBRANCH  39  40
ENDBRANCH  38  39
ENDBRANCH   1  38
TORSDOF 22
ENDMDL
