MODEL 1
REMARK VINA RESULT:     -12.1      0.000      0.000
REMARK SMILES CC(C)(C)OC(=O)N[C@H](c1ccccc1)[C@@H](O)CC(=O)NCCCCNC(=O)c1ccc(-c2c3nc(c(-c4ccc(S(=O)(=O)[O-])cc4)c4ccc([nH]4)c(-c4ccc(S(=O)(=O)[O-])cc4)c4nc(c(-c5ccc(S(=O)(=O)[O-])cc5)c5ccc2[nH]5)C=C4)C=C3)cc1
REMARK SMILES IDX 22 1 21 2 19 3 20 4 18 6 16 7 9 8 8 9 6 10 7 11 5 13 2 14
REMARK SMILES IDX 1 15 3 16 4 17 10 18 11 19 15 20 12 21 14 22 13 23 17 24
REMARK SMILES IDX 23 26 24 27 25 28 26 29 27 30 28 32 29 33 30 34 88 35 31 36
REMARK SMILES IDX 87 37 32 38 33 39 34 40 81 41 35 42 86 43 80 44 82 45 36 46
REMARK SMILES IDX 85 47 79 48 78 49 37 51 67 52 48 53 66 54 49 55 52 56 65 57
REMARK SMILES IDX 83 58 50 59 51 60 64 62 84 63 53 64 38 65 39 66 47 67 40 68
REMARK SMILES IDX 46 69 41 70 42 71 43 72 44 73 45 74 68 75 69 76 77 77 70 78
REMARK SMILES IDX 76 79 71 80 72 81 73 82 74 83 75 84 54 85 55 86 63 87 56 88
REMARK SMILES IDX 62 89 57 90 58 91 59 92 60 93 61 94
REMARK H PARENT 21 5 8 12 17 25 26 31 82 50 52 61
REMARK Flexibility Score: inf
ROOT
ATOM      1  C   UNL A   1      33.990  22.787  25.294  1.00  0.00     0.116 C 
ENDROOT
BRANCH   1   2
ATOM      2  N   UNL A   1      33.655  23.713  24.129  1.00  0.00    -0.356 N 
ATOM      3  C   UNL A   1      32.697  24.615  23.755  1.00  0.00     0.222 C 
ATOM      4  O   UNL A   1      32.741  25.069  22.608  1.00  0.00    -0.275 OA
ATOM      5  H   UNL A   1      34.344  23.641  23.428  1.00  0.00     0.163 HD
BRANCH   3   6
ATOM      6  C   UNL A   1      31.618  25.081  24.692  1.00  0.00     0.134 C 
BRANCH   6   7
ATOM      7  C   UNL A   1      32.074  25.929  25.890  1.00  0.00     0.150 C 
BRANCH   7   8
ATOM      8  C   UNL A   1      31.962  27.446  25.553  1.00  0.00     0.145 C 
BRANCH   8   9
ATOM      9  N   UNL A   1      31.576  27.832  24.004  1.00  0.00    -0.312 N 
ATOM     10  C   UNL A   1      30.494  28.432  23.134  1.00  0.00     0.408 C 
ATOM     11  O   UNL A   1      30.477  27.918  22.001  1.00  0.00    -0.225 OA
ATOM     12  H   UNL A   1      32.331  27.577  23.426  1.00  0.00     0.167 HD
BRANCH  10  13
ATOM     13  O   UNL A   1      29.502  29.565  23.302  1.00  0.00    -0.444 OA
BRANCH  13  14
ATOM     14  C   UNL A   1      28.788  31.159  23.351  1.00  0.00     0.106 C 
ATOM     15  C   UNL A   1      28.859  32.201  22.171  1.00  0.00     0.056 C 
ATOM     16  C   UNL A   1      29.664  31.832  24.429  1.00  0.00     0.056 C 
ATOM     17  C   UNL A   1      27.255  31.311  23.685  1.00  0.00     0.056 C 
ENDBRANCH  13  14
ENDBRANCH  10  13
ENDBRANCH   8   9
BRANCH   8  18
ATOM     18  C   UNL A   1      32.693  28.435  26.511  1.00  0.00    -0.023 A 
ATOM     19  C   UNL A   1      31.997  29.662  26.821  1.00  0.00     0.006 A 
ATOM     20  C   UNL A   1      34.033  28.352  26.858  1.00  0.00     0.006 A 
ATOM     21  C   UNL A   1      32.680  30.823  27.181  1.00  0.00     0.000 A 
ATOM     22  C   UNL A   1      34.697  29.509  27.307  1.00  0.00     0.000 A 
ATOM     23  C   UNL A   1      34.044  30.746  27.403  1.00  0.00     0.000 A 
ENDBRANCH   8  18
ENDBRANCH   7   8
BRANCH   7  24
ATOM     24  O   UNL A   1      31.169  25.501  26.939  1.00  0.00    -0.390 OA
ATOM     25  H   UNL A   1      31.478  25.844  27.792  1.00  0.00     0.211 HD
ENDBRANCH   7  24
ENDBRANCH   6   7
ENDBRANCH   3   6
ENDBRANCH   1   2
BRANCH   1  26
ATOM     26  C   UNL A   1      35.252  21.468  25.422  1.00  0.00     0.023 C 
BRANCH  26  27
ATOM     27  C   UNL A   1      36.887  21.071  24.931  1.00  0.00     0.023 C 
BRANCH  27  28
ATOM     28  C   UNL A   1      38.412  21.361  25.414  1.00  0.00     0.116 C 
BRANCH  28  29
ATOM     29  N   UNL A   1      38.842  22.216  26.519  1.00  0.00    -0.352 N 
ATOM     30  C   UNL A   1      40.001  22.975  26.507  1.00  0.00     0.251 C 
ATOM     31  H   UNL A   1      38.272  22.254  27.321  1.00  0.00     0.163 HD
ATOM     32  O   UNL A   1      41.106  22.604  26.119  1.00  0.00    -0.269 OA
BRANCH  30  33
ATOM     33  C   UNL A   1      39.882  24.403  26.816  1.00  0.00     0.039 A 
ATOM     34  C   UNL A   1      39.287  24.665  28.066  1.00  0.00     0.014 A 
ATOM     35  C   UNL A   1      40.552  25.392  26.098  1.00  0.00     0.014 A 
ATOM     36  C   UNL A   1      39.490  25.873  28.680  1.00  0.00     0.010 A 
ATOM     37  C   UNL A   1      40.796  26.591  26.734  1.00  0.00     0.010 A 
ATOM     38  C   UNL A   1      40.313  26.791  28.036  1.00  0.00    -0.014 A 
BRANCH  38  39
ATOM     39  C   UNL A   1      40.757  27.966  28.769  1.00  0.00     0.031 A 
ATOM     40  C   UNL A   1      42.100  27.913  29.392  1.00  0.00     0.074 A 
ATOM     41  C   UNL A   1      39.872  28.969  28.900  1.00  0.00     0.049 A 
ATOM     42  N   UNL A   1      42.669  28.784  30.167  1.00  0.00    -0.248 NA
ATOM     43  C   UNL A   1      42.891  26.691  29.153  1.00  0.00     0.031 C 
ATOM     44  C   UNL A   1      38.517  28.984  28.325  1.00  0.00     0.029 A 
ATOM     45  N   UNL A   1      39.959  30.154  29.564  1.00  0.00    -0.354 N 
ATOM     46  C   UNL A   1      43.870  28.203  30.542  1.00  0.00     0.074 A 
ATOM     47  C   UNL A   1      43.928  26.889  29.949  1.00  0.00     0.031 C 
ATOM     48  C   UNL A   1      37.910  30.133  28.654  1.00  0.00     0.029 A 
ATOM     49  C   UNL A   1      38.814  30.909  29.488  1.00  0.00     0.049 A 
ATOM     50  H   UNL A   1      40.765  30.442  30.051  1.00  0.00     0.167 HD
ATOM     51  C   UNL A   1      44.829  28.751  31.317  1.00  0.00     0.031 A 
ATOM     52  C   UNL A   1      38.545  32.098  30.051  1.00  0.00     0.031 A 
ATOM     53  C   UNL A   1      44.681  30.065  31.877  1.00  0.00     0.049 A 
ATOM     54  C   UNL A   1      39.653  32.712  30.856  1.00  0.00     0.074 A 
ATOM     55  C   UNL A   1      45.576  30.793  32.632  1.00  0.00     0.029 A 
ATOM     56  N   UNL A   1      43.538  30.849  31.731  1.00  0.00    -0.354 N 
ATOM     57  N   UNL A   1      40.831  32.199  31.145  1.00  0.00    -0.248 NA
ATOM     58  C   UNL A   1      39.422  34.053  31.390  1.00  0.00     0.031 C 
ATOM     59  C   UNL A   1      44.953  31.997  32.982  1.00  0.00     0.029 A 
ATOM     60  C   UNL A   1      43.693  32.047  32.397  1.00  0.00     0.049 A 
ATOM     61  H   UNL A   1      42.735  30.586  31.225  1.00  0.00     0.167 HD
ATOM     62  C   UNL A   1      41.494  33.161  31.887  1.00  0.00     0.074 A 
ATOM     63  C   UNL A   1      40.587  34.297  31.978  1.00  0.00     0.031 C 
ATOM     64  C   UNL A   1      42.730  33.123  32.449  1.00  0.00     0.031 A 
BRANCH  51  65
ATOM     65  C   UNL A   1      46.044  27.912  31.601  1.00  0.00    -0.014 A 
ATOM     66  C   UNL A   1      45.983  26.804  32.468  1.00  0.00     0.010 A 
ATOM     67  C   UNL A   1      47.281  28.265  31.034  1.00  0.00     0.010 A 
ATOM     68  C   UNL A   1      47.141  26.100  32.805  1.00  0.00     0.020 A 
ATOM     69  C   UNL A   1      48.438  27.543  31.344  1.00  0.00     0.020 A 
ATOM     70  C   UNL A   1      48.364  26.477  32.243  1.00  0.00     0.054 A 
BRANCH  70  71
ATOM     71  S   UNL A   1      49.850  25.538  32.688  1.00  0.00     0.124 S 
ATOM     72  O   UNL A   1      49.458  24.934  33.958  1.00  0.00    -0.237 OA
ATOM     73  O   UNL A   1      49.989  24.610  31.569  1.00  0.00    -0.237 OA
ATOM     74  O   UNL A   1      50.891  26.559  32.779  1.00  0.00    -0.744 OA
ENDBRANCH  70  71
ENDBRANCH  51  65
BRANCH  52  75
ATOM     75  C   UNL A   1      37.225  32.746  29.829  1.00  0.00    -0.014 A 
ATOM     76  C   UNL A   1      36.206  32.646  30.791  1.00  0.00     0.010 A 
ATOM     77  C   UNL A   1      37.010  33.554  28.695  1.00  0.00     0.010 A 
ATOM     78  C   UNL A   1      34.997  33.331  30.621  1.00  0.00     0.020 A 
ATOM     79  C   UNL A   1      35.814  34.260  28.532  1.00  0.00     0.020 A 
ATOM     80  C   UNL A   1      34.810  34.138  29.494  1.00  0.00     0.054 A 
BRANCH  80  81
ATOM     81  S   UNL A   1      33.259  35.067  29.328  1.00  0.00     0.124 S 
ATOM     82  O   UNL A   1      32.551  34.298  28.311  1.00  0.00    -0.237 OA
ATOM     83  O   UNL A   1      32.702  34.994  30.678  1.00  0.00    -0.237 OA
ATOM     84  O   UNL A   1      33.697  36.398  28.916  1.00  0.00    -0.744 OA
ENDBRANCH  80  81
ENDBRANCH  52  75
BRANCH  64  85
ATOM     85  C   UNL A   1      43.147  34.353  33.196  1.00  0.00    -0.014 A 
ATOM     86  C   UNL A   1      43.652  35.470  32.512  1.00  0.00     0.010 A 
ATOM     87  C   UNL A   1      42.963  34.406  34.588  1.00  0.00     0.010 A 
ATOM     88  C   UNL A   1      43.997  36.620  33.220  1.00  0.00     0.020 A 
ATOM     89  C   UNL A   1      43.273  35.566  35.292  1.00  0.00     0.020 A 
ATOM     90  C   UNL A   1      43.801  36.661  34.604  1.00  0.00     0.054 A 
BRANCH  90  91
ATOM     91  S   UNL A   1      44.205  38.187  35.491  1.00  0.00     0.124 S 
ATOM     92  O   UNL A   1      45.664  38.151  35.501  1.00  0.00    -0.237 OA
ATOM     93  O   UNL A   1      43.605  39.216  34.644  1.00  0.00    -0.237 OA
ATOM     94  O   UNL A   1      43.566  38.009  36.793  1.00  0.00    -0.744 OA
ENDBRANCH  90  91
ENDBRANCH  64  85
ENDBRANCH  38  39
ENDBRANCH  30  33
ENDBRANCH  28  29
ENDBRANCH  27  28
ENDBRANCH  26  27
ENDBRANCH   1  26
TORSDOF 21
ENDMDL
MODEL 2
REMARK VINA RESULT:     -12.0      3.140      4.790
REMARK SMILES CC(C)(C)OC(=O)N[C@H](c1ccccc1)[C@@H](O)CC(=O)NCCCCNC(=O)c1ccc(-c2c3nc(c(-c4ccc(S(=O)(=O)[O-])cc4)c4ccc([nH]4)c(-c4ccc(S(=O)(=O)[O-])cc4)c4nc(c(-c5ccc(S(=O)(=O)[O-])cc5)c5ccc2[nH]5)C=C4)C=C3)cc1
REMARK SMILES IDX 22 1 21 2 19 3 20 4 18 6 16 7 9 8 8 9 6 10 7 11 5 13 2 14
REMARK SMILES IDX 1 15 3 16 4 17 10 18 11 19 15 20 12 21 14 22 13 23 17 24
REMARK SMILES IDX 23 26 24 27 25 28 26 29 27 30 28 32 29 33 30 34 88 35 31 36
REMARK SMILES IDX 87 37 32 38 33 39 34 40 81 41 35 42 86 43 80 44 82 45 36 46
REMARK SMILES IDX 85 47 79 48 78 49 37 51 67 52 48 53 66 54 49 55 52 56 65 57
REMARK SMILES IDX 83 58 50 59 51 60 64 62 84 63 53 64 38 65 39 66 47 67 40 68
REMARK SMILES IDX 46 69 41 70 42 71 43 72 44 73 45 74 68 75 69 76 77 77 70 78
REMARK SMILES IDX 76 79 71 80 72 81 73 82 74 83 75 84 54 85 55 86 63 87 56 88
REMARK SMILES IDX 62 89 57 90 58 91 59 92 60 93 61 94
REMARK H PARENT 21 5 8 12 17 25 26 31 82 50 52 61
REMARK Flexibility Score: inf
ROOT
ATOM      1  C   UNL A   1      34.524  23.874  24.133  1.00  0.00     0.116 C 
ENDROOT
BRANCH   1   2
ATOM      2  N   UNL A   1      34.132  24.528  22.812  1.00  0.00    -0.356 N 
ATOM      3  C   UNL A   1      33.457  25.624  22.350  1.00  0.00     0.222 C 
ATOM      4  O   UNL A   1      33.250  25.712  21.137  1.00  0.00    -0.275 OA
ATOM      5  H   UNL A   1      34.472  23.997  22.056  1.00  0.00     0.163 HD
BRANCH   3   6
ATOM      6  C   UNL A   1      32.985  26.724  23.260  1.00  0.00     0.134 C 
BRANCH   6   7
ATOM      7  C   UNL A   1      32.046  27.769  22.638  1.00  0.00     0.150 C 
BRANCH   7   8
ATOM      8  C   UNL A   1      31.203  28.468  23.746  1.00  0.00     0.145 C 
BRANCH   8   9
ATOM      9  N   UNL A   1      31.454  27.967  25.290  1.00  0.00    -0.312 N 
ATOM     10  C   UNL A   1      31.306  26.787  26.225  1.00  0.00     0.408 C 
ATOM     11  O   UNL A   1      31.079  27.152  27.392  1.00  0.00    -0.225 OA
ATOM     12  H   UNL A   1      31.848  28.714  25.796  1.00  0.00     0.167 HD
BRANCH  10  13
ATOM     13  O   UNL A   1      31.461  25.287  26.076  1.00  0.00    -0.444 OA
BRANCH  13  14
ATOM     14  C   UNL A   1      31.163  23.568  26.149  1.00  0.00     0.106 C 
ATOM     15  C   UNL A   1      32.230  22.499  26.602  1.00  0.00     0.056 C 
ATOM     16  C   UNL A   1      30.995  23.241  24.650  1.00  0.00     0.056 C 
ATOM     17  C   UNL A   1      29.944  23.028  26.991  1.00  0.00     0.056 C 
ENDBRANCH  13  14
ENDBRANCH  10  13
ENDBRANCH   8   9
BRANCH   8  18
ATOM     18  C   UNL A   1      29.889  29.173  23.292  1.00  0.00    -0.023 A 
ATOM     19  C   UNL A   1      29.782  30.583  23.584  1.00  0.00     0.006 A 
ATOM     20  C   UNL A   1      28.740  28.513  22.885  1.00  0.00     0.006 A 
ATOM     21  C   UNL A   1      28.546  31.209  23.744  1.00  0.00     0.000 A 
ATOM     22  C   UNL A   1      27.503  29.181  22.963  1.00  0.00     0.000 A 
ATOM     23  C   UNL A   1      27.399  30.492  23.451  1.00  0.00     0.000 A 
ENDBRANCH   8  18
ENDBRANCH   7   8
BRANCH   7  24
ATOM     24  O   UNL A   1      32.971  28.661  21.965  1.00  0.00    -0.390 OA
ATOM     25  H   UNL A   1      32.481  29.403  21.579  1.00  0.00     0.211 HD
ENDBRANCH   7  24
ENDBRANCH   6   7
ENDBRANCH   3   6
ENDBRANCH   1   2
BRANCH   1  26
ATOM     26  C   UNL A   1      36.180  23.497  24.813  1.00  0.00     0.023 C 
BRANCH  26  27
ATOM     27  C   UNL A   1      37.271  23.936  26.112  1.00  0.00     0.023 C 
BRANCH  27  28
ATOM     28  C   UNL A   1      38.858  23.854  26.456  1.00  0.00     0.116 C 
BRANCH  28  29
ATOM     29  N   UNL A   1      39.605  24.693  27.390  1.00  0.00    -0.352 N 
ATOM     30  C   UNL A   1      40.124  25.938  27.071  1.00  0.00     0.251 C 
ATOM     31  H   UNL A   1      39.748  24.353  28.303  1.00  0.00     0.163 HD
ATOM     32  O   UNL A   1      40.725  26.229  26.039  1.00  0.00    -0.269 OA
BRANCH  30  33
ATOM     33  C   UNL A   1      39.785  27.062  27.948  1.00  0.00     0.039 A 
ATOM     34  C   UNL A   1      39.098  26.681  29.117  1.00  0.00     0.014 A 
ATOM     35  C   UNL A   1      40.340  28.332  27.801  1.00  0.00     0.014 A 
ATOM     36  C   UNL A   1      39.094  27.510  30.209  1.00  0.00     0.010 A 
ATOM     37  C   UNL A   1      40.377  29.147  28.912  1.00  0.00     0.010 A 
ATOM     38  C   UNL A   1      39.806  28.700  30.114  1.00  0.00    -0.014 A 
BRANCH  38  39
ATOM     39  C   UNL A   1      40.040  29.474  31.323  1.00  0.00     0.031 A 
ATOM     40  C   UNL A   1      41.200  29.093  32.162  1.00  0.00     0.074 A 
ATOM     41  C   UNL A   1      39.126  30.410  31.630  1.00  0.00     0.049 A 
ATOM     42  N   UNL A   1      41.552  29.561  33.321  1.00  0.00    -0.248 NA
ATOM     43  C   UNL A   1      42.052  28.001  31.654  1.00  0.00     0.031 C 
ATOM     44  C   UNL A   1      37.944  30.739  30.816  1.00  0.00     0.029 A 
ATOM     45  N   UNL A   1      39.028  31.244  32.701  1.00  0.00    -0.354 N 
ATOM     46  C   UNL A   1      42.644  28.798  33.701  1.00  0.00     0.074 A 
ATOM     47  C   UNL A   1      42.869  27.808  32.676  1.00  0.00     0.031 C 
ATOM     48  C   UNL A   1      37.250  31.715  31.418  1.00  0.00     0.029 A 
ATOM     49  C   UNL A   1      37.916  32.050  32.667  1.00  0.00     0.049 A 
ATOM     50  H   UNL A   1      39.690  31.268  33.429  1.00  0.00     0.167 HD
ATOM     51  C   UNL A   1      43.382  28.941  34.821  1.00  0.00     0.031 A 
ATOM     52  C   UNL A   1      37.495  32.951  33.570  1.00  0.00     0.031 A 
ATOM     53  C   UNL A   1      43.077  29.949  35.797  1.00  0.00     0.049 A 
ATOM     54  C   UNL A   1      38.370  33.132  34.776  1.00  0.00     0.074 A 
ATOM     55  C   UNL A   1      43.753  30.270  36.955  1.00  0.00     0.029 A 
ATOM     56  N   UNL A   1      41.982  30.808  35.712  1.00  0.00    -0.354 N 
ATOM     57  N   UNL A   1      39.458  32.466  35.101  1.00  0.00    -0.248 NA
ATOM     58  C   UNL A   1      37.990  34.182  35.721  1.00  0.00     0.031 C 
ATOM     59  C   UNL A   1      43.038  31.291  37.593  1.00  0.00     0.029 A 
ATOM     60  C   UNL A   1      41.950  31.648  36.806  1.00  0.00     0.049 A 
ATOM     61  H   UNL A   1      41.327  30.815  34.978  1.00  0.00     0.167 HD
ATOM     62  C   UNL A   1      39.907  33.025  36.286  1.00  0.00     0.074 A 
ATOM     63  C   UNL A   1      38.978  34.101  36.602  1.00  0.00     0.031 C 
ATOM     64  C   UNL A   1      40.977  32.688  37.052  1.00  0.00     0.031 A 
BRANCH  51  65
ATOM     65  C   UNL A   1      44.515  27.974  35.024  1.00  0.00    -0.014 A 
ATOM     66  C   UNL A   1      45.803  28.239  34.520  1.00  0.00     0.010 A 
ATOM     67  C   UNL A   1      44.280  26.755  35.683  1.00  0.00     0.010 A 
ATOM     68  C   UNL A   1      46.818  27.285  34.623  1.00  0.00     0.020 A 
ATOM     69  C   UNL A   1      45.302  25.809  35.818  1.00  0.00     0.020 A 
ATOM     70  C   UNL A   1      46.560  26.072  35.269  1.00  0.00     0.054 A 
BRANCH  70  71
ATOM     71  S   UNL A   1      47.898  24.857  35.401  1.00  0.00     0.124 S 
ATOM     72  O   UNL A   1      47.355  23.725  34.653  1.00  0.00    -0.237 OA
ATOM     73  O   UNL A   1      49.019  25.545  34.768  1.00  0.00    -0.237 OA
ATOM     74  O   UNL A   1      48.034  24.645  36.840  1.00  0.00    -0.744 OA
ENDBRANCH  70  71
ENDBRANCH  51  65
BRANCH  52  75
ATOM     75  C   UNL A   1      36.250  33.725  33.325  1.00  0.00    -0.014 A 
ATOM     76  C   UNL A   1      36.294  34.966  32.667  1.00  0.00     0.010 A 
ATOM     77  C   UNL A   1      34.995  33.180  33.661  1.00  0.00     0.010 A 
ATOM     78  C   UNL A   1      35.112  35.650  32.359  1.00  0.00     0.020 A 
ATOM     79  C   UNL A   1      33.811  33.849  33.334  1.00  0.00     0.020 A 
ATOM     80  C   UNL A   1      33.877  35.085  32.690  1.00  0.00     0.054 A 
BRANCH  80  81
ATOM     81  S   UNL A   1      32.358  35.961  32.222  1.00  0.00     0.124 S 
ATOM     82  O   UNL A   1      31.324  35.004  32.600  1.00  0.00    -0.237 OA
ATOM     83  O   UNL A   1      32.428  37.172  33.038  1.00  0.00    -0.237 OA
ATOM     84  O   UNL A   1      32.514  36.179  30.785  1.00  0.00    -0.744 OA
ENDBRANCH  80  81
ENDBRANCH  52  75
BRANCH  64  85
ATOM     85  C   UNL A   1      41.180  33.508  38.289  1.00  0.00    -0.014 A 
ATOM     86  C   UNL A   1      40.691  33.069  39.529  1.00  0.00     0.010 A 
ATOM     87  C   UNL A   1      41.931  34.694  38.211  1.00  0.00     0.010 A 
ATOM     88  C   UNL A   1      40.925  33.825  40.676  1.00  0.00     0.020 A 
ATOM     89  C   UNL A   1      42.196  35.433  39.361  1.00  0.00     0.020 A 
ATOM     90  C   UNL A   1      41.679  34.999  40.584  1.00  0.00     0.054 A 
BRANCH  90  91
ATOM     91  S   UNL A   1      42.016  35.932  42.098  1.00  0.00     0.124 S 
ATOM     92  O   UNL A   1      40.670  36.157  42.619  1.00  0.00    -0.237 OA
ATOM     93  O   UNL A   1      42.843  35.005  42.867  1.00  0.00    -0.237 OA
ATOM     94  O   UNL A   1      42.708  37.127  41.621  1.00  0.00    -0.744 OA
ENDBRANCH  90  91
ENDBRANCH  64  85
ENDBRANCH  38  39
ENDBRANCH  30  33
ENDBRANCH  28  29
ENDBRANCH  27  28
ENDBRANCH  26  27
ENDBRANCH   1  26
TORSDOF 21
ENDMDL
MODEL 3
REMARK VINA RESULT:     -11.6      3.124      3.896
REMARK SMILES CC(C)(C)OC(=O)N[C@H](c1ccccc1)[C@@H](O)CC(=O)NCCCCNC(=O)c1ccc(-c2c3nc(c(-c4ccc(S(=O)(=O)[O-])cc4)c4ccc([nH]4)c(-c4ccc(S(=O)(=O)[O-])cc4)c4nc(c(-c5ccc(S(=O)(=O)[O-])cc5)c5ccc2[nH]5)C=C4)C=C3)cc1
REMARK SMILES IDX 22 1 21 2 19 3 20 4 18 6 16 7 9 8 8 9 6 10 7 11 5 13 2 14
REMARK SMILES IDX 1 15 3 16 4 17 10 18 11 19 15 20 12 21 14 22 13 23 17 24
REMARK SMILES IDX 23 26 24 27 25 28 26 29 27 30 28 32 29 33 30 34 88 35 31 36
REMARK SMILES IDX 87 37 32 38 33 39 34 40 81 41 35 42 86 43 80 44 82 45 36 46
REMARK SMILES IDX 85 47 79 48 78 49 37 51 67 52 48 53 66 54 49 55 52 56 65 57
REMARK SMILES IDX 83 58 50 59 51 60 64 62 84 63 53 64 38 65 39 66 47 67 40 68
REMARK SMILES IDX 46 69 41 70 42 71 43 72 44 73 45 74 68 75 69 76 77 77 70 78
REMARK SMILES IDX 76 79 71 80 72 81 73 82 74 83 75 84 54 85 55 86 63 87 56 88
REMARK SMILES IDX 62 89 57 90 58 91 59 92 60 93 61 94
REMARK H PARENT 21 5 8 12 17 25 26 31 82 50 52 61
REMARK Flexibility Score: inf
ROOT
ATOM      1  C   UNL A   1      36.801  22.349  24.290  1.00  0.00     0.116 C 
ENDROOT
BRANCH   1   2
ATOM      2  N   UNL A   1      35.817  22.849  23.237  1.00  0.00    -0.356 N 
ATOM      3  C   UNL A   1      34.504  23.216  23.127  1.00  0.00     0.222 C 
ATOM      4  O   UNL A   1      34.056  23.443  22.000  1.00  0.00    -0.275 OA
ATOM      5  H   UNL A   1      36.267  22.936  22.365  1.00  0.00     0.163 HD
BRANCH   3   6
ATOM      6  C   UNL A   1      33.606  23.370  24.322  1.00  0.00     0.134 C 
BRANCH   6   7
ATOM      7  C   UNL A   1      33.946  24.517  25.288  1.00  0.00     0.150 C 
BRANCH   7   8
ATOM      8  C   UNL A   1      33.147  25.799  24.908  1.00  0.00     0.145 C 
BRANCH   8   9
ATOM      9  N   UNL A   1      32.899  26.067  23.306  1.00  0.00    -0.312 N 
ATOM     10  C   UNL A   1      31.886  26.564  22.299  1.00  0.00     0.408 C 
ATOM     11  O   UNL A   1      31.998  25.977  21.208  1.00  0.00    -0.225 OA
ATOM     12  H   UNL A   1      33.716  25.807  22.821  1.00  0.00     0.167 HD
BRANCH  10  13
ATOM     13  O   UNL A   1      30.844  27.663  22.294  1.00  0.00    -0.444 OA
BRANCH  13  14
ATOM     14  C   UNL A   1      29.841  29.008  22.781  1.00  0.00     0.106 C 
ATOM     15  C   UNL A   1      30.123  29.918  24.037  1.00  0.00     0.056 C 
ATOM     16  C   UNL A   1      28.554  28.268  23.202  1.00  0.00     0.056 C 
ATOM     17  C   UNL A   1      29.527  30.155  21.746  1.00  0.00     0.056 C 
ENDBRANCH  13  14
ENDBRANCH  10  13
ENDBRANCH   8   9
BRANCH   8  18
ATOM     18  C   UNL A   1      33.099  26.938  25.971  1.00  0.00    -0.023 A 
ATOM     19  C   UNL A   1      31.882  27.048  26.741  1.00  0.00     0.006 A 
ATOM     20  C   UNL A   1      34.000  27.990  26.041  1.00  0.00     0.006 A 
ATOM     21  C   UNL A   1      31.472  28.258  27.299  1.00  0.00     0.000 A 
ATOM     22  C   UNL A   1      33.613  29.180  26.686  1.00  0.00     0.000 A 
ATOM     23  C   UNL A   1      32.338  29.336  27.250  1.00  0.00     0.000 A 
ENDBRANCH   8  18
ENDBRANCH   7   8
BRANCH   7  24
ATOM     24  O   UNL A   1      33.573  23.963  26.576  1.00  0.00    -0.390 OA
ATOM     25  H   UNL A   1      33.437  23.007  26.488  1.00  0.00     0.211 HD
ENDBRANCH   7  24
ENDBRANCH   6   7
ENDBRANCH   3   6
ENDBRANCH   1   2
BRANCH   1  26
ATOM     26  C   UNL A   1      37.783  23.285  25.518  1.00  0.00     0.023 C 
BRANCH  26  27
ATOM     27  C   UNL A   1      38.957  23.067  26.800  1.00  0.00     0.023 C 
BRANCH  27  28
ATOM     28  C   UNL A   1      40.517  23.416  27.101  1.00  0.00     0.116 C 
BRANCH  28  29
ATOM     29  N   UNL A   1      41.085  24.725  27.417  1.00  0.00    -0.352 N 
ATOM     30  C   UNL A   1      40.731  25.900  26.775  1.00  0.00     0.251 C 
ATOM     31  H   UNL A   1      41.762  24.773  28.131  1.00  0.00     0.163 HD
ATOM     32  O   UNL A   1      40.586  26.049  25.564  1.00  0.00    -0.269 OA
BRANCH  30  33
ATOM     33  C   UNL A   1      40.317  27.033  27.609  1.00  0.00     0.039 A 
ATOM     34  C   UNL A   1      39.490  26.669  28.690  1.00  0.00     0.014 A 
ATOM     35  C   UNL A   1      40.914  28.290  27.529  1.00  0.00     0.014 A 
ATOM     36  C   UNL A   1      39.378  27.499  29.774  1.00  0.00     0.010 A 
ATOM     37  C   UNL A   1      40.840  29.105  28.639  1.00  0.00     0.010 A 
ATOM     38  C   UNL A   1      40.122  28.673  29.765  1.00  0.00    -0.014 A 
BRANCH  38  39
ATOM     39  C   UNL A   1      40.231  29.443  30.994  1.00  0.00     0.031 A 
ATOM     40  C   UNL A   1      41.342  29.104  31.914  1.00  0.00     0.074 A 
ATOM     41  C   UNL A   1      39.255  30.334  31.239  1.00  0.00     0.049 A 
ATOM     42  N   UNL A   1      41.586  29.575  33.099  1.00  0.00    -0.248 NA
ATOM     43  C   UNL A   1      42.278  28.058  31.462  1.00  0.00     0.031 C 
ATOM     44  C   UNL A   1      38.123  30.618  30.342  1.00  0.00     0.029 A 
ATOM     45  N   UNL A   1      39.041  31.150  32.306  1.00  0.00    -0.354 N 
ATOM     46  C   UNL A   1      42.680  28.857  33.553  1.00  0.00     0.074 A 
ATOM     47  C   UNL A   1      43.025  27.890  32.540  1.00  0.00     0.031 C 
ATOM     48  C   UNL A   1      37.343  31.556  30.899  1.00  0.00     0.029 A 
ATOM     49  C   UNL A   1      37.899  31.906  32.196  1.00  0.00     0.049 A 
ATOM     50  H   UNL A   1      39.646  31.196  33.082  1.00  0.00     0.167 HD
ATOM     51  C   UNL A   1      43.326  29.020  34.726  1.00  0.00     0.031 A 
ATOM     52  C   UNL A   1      37.373  32.777  33.073  1.00  0.00     0.031 A 
ATOM     53  C   UNL A   1      42.905  30.003  35.685  1.00  0.00     0.049 A 
ATOM     54  C   UNL A   1      38.146  32.984  34.342  1.00  0.00     0.074 A 
ATOM     55  C   UNL A   1      43.479  30.341  36.892  1.00  0.00     0.029 A 
ATOM     56  N   UNL A   1      41.781  30.813  35.526  1.00  0.00    -0.354 N 
ATOM     57  N   UNL A   1      39.237  32.364  34.742  1.00  0.00    -0.248 NA
ATOM     58  C   UNL A   1      37.651  34.005  35.264  1.00  0.00     0.031 C 
ATOM     59  C   UNL A   1      42.673  31.322  37.483  1.00  0.00     0.029 A 
ATOM     60  C   UNL A   1      41.630  31.639  36.620  1.00  0.00     0.049 A 
ATOM     61  H   UNL A   1      41.183  30.799  34.744  1.00  0.00     0.167 HD
ATOM     62  C   UNL A   1      39.571  32.928  35.961  1.00  0.00     0.074 A 
ATOM     63  C   UNL A   1      38.574  33.958  36.216  1.00  0.00     0.031 C 
ATOM     64  C   UNL A   1      40.596  32.632  36.801  1.00  0.00     0.031 A 
BRANCH  51  65
ATOM     65  C   UNL A   1      44.484  28.103  35.005  1.00  0.00    -0.014 A 
ATOM     66  C   UNL A   1      44.300  26.870  35.660  1.00  0.00     0.010 A 
ATOM     67  C   UNL A   1      45.786  28.500  34.656  1.00  0.00     0.010 A 
ATOM     68  C   UNL A   1      45.397  26.078  36.007  1.00  0.00     0.020 A 
ATOM     69  C   UNL A   1      46.885  27.695  34.973  1.00  0.00     0.020 A 
ATOM     70  C   UNL A   1      46.685  26.498  35.664  1.00  0.00     0.054 A 
BRANCH  70  71
ATOM     71  S   UNL A   1      48.091  25.445  36.116  1.00  0.00     0.124 S 
ATOM     72  O   UNL A   1      48.845  26.314  37.014  1.00  0.00    -0.237 OA
ATOM     73  O   UNL A   1      47.442  24.300  36.749  1.00  0.00    -0.237 OA
ATOM     74  O   UNL A   1      48.736  25.161  34.836  1.00  0.00    -0.744 OA
ENDBRANCH  70  71
ENDBRANCH  51  65
BRANCH  52  75
ATOM     75  C   UNL A   1      36.115  33.498  32.742  1.00  0.00    -0.014 A 
ATOM     76  C   UNL A   1      34.902  33.145  33.358  1.00  0.00     0.010 A 
ATOM     77  C   UNL A   1      36.139  34.613  31.881  1.00  0.00     0.010 A 
ATOM     78  C   UNL A   1      33.738  33.883  33.112  1.00  0.00     0.020 A 
ATOM     79  C   UNL A   1      34.984  35.368  31.651  1.00  0.00     0.020 A 
ATOM     80  C   UNL A   1      33.788  34.994  32.264  1.00  0.00     0.054 A 
BRANCH  80  81
ATOM     81  S   UNL A   1      32.279  35.973  32.013  1.00  0.00     0.124 S 
ATOM     82  O   UNL A   1      32.220  36.074  30.558  1.00  0.00    -0.237 OA
ATOM     83  O   UNL A   1      31.253  35.135  32.630  1.00  0.00    -0.237 OA
ATOM     84  O   UNL A   1      32.558  37.222  32.717  1.00  0.00    -0.744 OA
ENDBRANCH  80  81
ENDBRANCH  52  75
BRANCH  64  85
ATOM     85  C   UNL A   1      40.670  33.446  38.056  1.00  0.00    -0.014 A 
ATOM     86  C   UNL A   1      41.473  34.596  38.120  1.00  0.00     0.010 A 
ATOM     87  C   UNL A   1      39.868  33.089  39.155  1.00  0.00     0.010 A 
ATOM     88  C   UNL A   1      41.497  35.364  39.282  1.00  0.00     0.020 A 
ATOM     89  C   UNL A   1      39.864  33.874  40.304  1.00  0.00     0.020 A 
ATOM     90  C   UNL A   1      40.689  34.999  40.364  1.00  0.00     0.054 A 
BRANCH  90  91
ATOM     91  S   UNL A   1      40.697  36.046  41.841  1.00  0.00     0.124 S 
ATOM     92  O   UNL A   1      39.363  35.809  42.386  1.00  0.00    -0.237 OA
ATOM     93  O   UNL A   1      41.804  35.493  42.619  1.00  0.00    -0.237 OA
ATOM     94  O   UNL A   1      40.925  37.389  41.311  1.00  0.00    -0.744 OA
ENDBRANCH  90  91
ENDBRANCH  64  85
ENDBRANCH  38  39
ENDBRANCH  30  33
ENDBRANCH  28  29
ENDBRANCH  27  28
ENDBRANCH  26  27
ENDBRANCH   1  26
TORSDOF 21
ENDMDL
