MODEL 1
REMARK VINA RESULT:     -12.3      0.000      0.000
REMARK SMILES O=C(NCCCCNC(=O)c1ccc(F)c(S(=O)(=O)N2CCOc3ccccc32)c1)c1ccc(-c2c3nc(c(-c4ccc(S(=O)(=O)[O-])cc4)c4ccc([nH]4)c(-c4ccc(S(=O)(=O)[O-])cc4)c4nc(c(-c5ccc(S(=O)(=O)[O-])cc5)c5ccc2[nH]5)C=C4)C=C3)cc1
REMARK SMILES IDX 5 1 4 2 3 3 1 4 2 5 31 7 32 8 90 9 33 10 89 11 34 12 35 13
REMARK SMILES IDX 36 14 83 15 37 16 88 17 82 18 84 19 38 20 87 21 81 22 80 23
REMARK SMILES IDX 39 25 69 26 50 27 68 28 51 29 54 30 67 31 85 32 52 33 53 34
REMARK SMILES IDX 66 36 86 37 55 38 40 39 41 40 49 41 42 42 48 43 43 44 44 45
REMARK SMILES IDX 45 46 46 47 47 48 70 49 71 50 79 51 72 52 78 53 73 54 74 55
REMARK SMILES IDX 75 56 76 57 77 58 56 59 57 60 65 61 58 62 64 63 59 64 60 65
REMARK SMILES IDX 61 66 62 67 63 68 6 69 7 70 8 71 9 72 10 74 11 75 12 76
REMARK SMILES IDX 30 77 13 78 16 79 14 80 15 81 17 82 18 83 19 84 20 85 21 86
REMARK SMILES IDX 29 87 22 88 24 89 28 90 23 91 25 92 27 93 26 94
REMARK H PARENT 3 6 84 24 54 35 8 73
REMARK Flexibility Score: inf
ROOT
ATOM      1  C   UNL A   1      33.167  28.332  25.032  1.00  0.00     0.023 C 
ENDROOT
BRANCH   1   2
ATOM      2  C   UNL A   1      33.833  28.574  26.383  1.00  0.00     0.116 C 
BRANCH   2   3
ATOM      3  N   UNL A   1      33.670  29.940  26.857  1.00  0.00    -0.352 N 
ATOM      4  O   UNL A   1      34.078  31.773  28.095  1.00  0.00    -0.269 OA
ATOM      5  C   UNL A   1      34.470  30.682  27.692  1.00  0.00     0.251 C 
ATOM      6  H   UNL A   1      32.865  30.402  26.528  1.00  0.00     0.163 HD
BRANCH   5   7
ATOM      7  C   UNL A   1      35.784  30.158  28.125  1.00  0.00     0.039 A 
ATOM      8  C   UNL A   1      35.966  29.637  29.409  1.00  0.00     0.014 A 
ATOM      9  C   UNL A   1      36.848  30.176  27.219  1.00  0.00     0.014 A 
ATOM     10  C   UNL A   1      37.238  29.263  29.834  1.00  0.00     0.010 A 
ATOM     11  C   UNL A   1      38.110  29.734  27.624  1.00  0.00     0.010 A 
ATOM     12  C   UNL A   1      38.322  29.303  28.944  1.00  0.00    -0.014 A 
BRANCH  12  13
ATOM     13  C   UNL A   1      39.671  28.863  29.381  1.00  0.00     0.031 A 
ATOM     14  C   UNL A   1      40.568  29.791  30.152  1.00  0.00     0.074 A 
ATOM     15  C   UNL A   1      40.099  27.629  29.053  1.00  0.00     0.049 A 
ATOM     16  N   UNL A   1      41.804  29.607  30.542  1.00  0.00    -0.248 NA
ATOM     17  C   UNL A   1      40.008  31.099  30.526  1.00  0.00     0.031 C 
ATOM     18  C   UNL A   1      39.318  26.636  28.313  1.00  0.00     0.029 A 
ATOM     19  N   UNL A   1      41.298  27.005  29.287  1.00  0.00    -0.354 N 
ATOM     20  C   UNL A   1      42.180  30.783  31.181  1.00  0.00     0.074 A 
ATOM     21  C   UNL A   1      41.046  31.680  31.111  1.00  0.00     0.031 C 
ATOM     22  C   UNL A   1      40.054  25.525  28.162  1.00  0.00     0.029 A 
ATOM     23  C   UNL A   1      41.376  25.749  28.737  1.00  0.00     0.049 A 
ATOM     24  H   UNL A   1      42.030  27.418  29.799  1.00  0.00     0.167 HD
ATOM     25  C   UNL A   1      43.363  31.086  31.770  1.00  0.00     0.031 A 
ATOM     26  C   UNL A   1      42.404  24.881  28.670  1.00  0.00     0.031 A 
ATOM     27  C   UNL A   1      44.489  30.191  31.827  1.00  0.00     0.049 A 
ATOM     28  C   UNL A   1      43.717  25.249  29.293  1.00  0.00     0.074 A 
ATOM     29  C   UNL A   1      45.721  30.394  32.426  1.00  0.00     0.029 A 
ATOM     30  N   UNL A   1      44.526  28.927  31.255  1.00  0.00    -0.354 N 
ATOM     31  N   UNL A   1      44.047  26.354  29.919  1.00  0.00    -0.248 NA
ATOM     32  C   UNL A   1      44.797  24.256  29.209  1.00  0.00     0.031 C 
ATOM     33  C   UNL A   1      46.520  29.274  32.170  1.00  0.00     0.029 A 
ATOM     34  C   UNL A   1      45.767  28.347  31.466  1.00  0.00     0.049 A 
ATOM     35  H   UNL A   1      43.781  28.504  30.771  1.00  0.00     0.167 HD
ATOM     36  C   UNL A   1      45.363  26.180  30.327  1.00  0.00     0.074 A 
ATOM     37  C   UNL A   1      45.769  24.862  29.878  1.00  0.00     0.031 C 
ATOM     38  C   UNL A   1      46.158  27.033  31.019  1.00  0.00     0.031 A 
BRANCH  25  39
ATOM     39  C   UNL A   1      43.510  32.466  32.356  1.00  0.00    -0.014 A 
ATOM     40  C   UNL A   1      43.246  32.718  33.715  1.00  0.00     0.010 A 
ATOM     41  C   UNL A   1      43.926  33.529  31.534  1.00  0.00     0.010 A 
ATOM     42  C   UNL A   1      43.332  34.018  34.223  1.00  0.00     0.020 A 
ATOM     43  C   UNL A   1      44.040  34.825  32.045  1.00  0.00     0.020 A 
ATOM     44  C   UNL A   1      43.716  35.065  33.381  1.00  0.00     0.054 A 
BRANCH  44  45
ATOM     45  S   UNL A   1      43.792  36.747  34.056  1.00  0.00     0.124 S 
ATOM     46  O   UNL A   1      44.158  37.526  32.875  1.00  0.00    -0.237 OA
ATOM     47  O   UNL A   1      42.434  36.959  34.550  1.00  0.00    -0.237 OA
ATOM     48  O   UNL A   1      44.821  36.662  35.088  1.00  0.00    -0.744 OA
ENDBRANCH  44  45
ENDBRANCH  25  39
BRANCH  26  49
ATOM     49  C   UNL A   1      42.208  23.587  27.965  1.00  0.00    -0.014 A 
ATOM     50  C   UNL A   1      42.771  23.371  26.696  1.00  0.00     0.010 A 
ATOM     51  C   UNL A   1      41.530  22.532  28.605  1.00  0.00     0.010 A 
ATOM     52  C   UNL A   1      42.669  22.119  26.083  1.00  0.00     0.020 A 
ATOM     53  C   UNL A   1      41.449  21.271  28.007  1.00  0.00     0.020 A 
ATOM     54  C   UNL A   1      42.019  21.074  26.748  1.00  0.00     0.054 A 
BRANCH  54  55
ATOM     55  S   UNL A   1      41.995  19.430  25.981  1.00  0.00     0.124 S 
ATOM     56  O   UNL A   1      42.535  18.590  27.044  1.00  0.00    -0.237 OA
ATOM     57  O   UNL A   1      40.577  19.241  25.683  1.00  0.00    -0.237 OA
ATOM     58  O   UNL A   1      42.853  19.587  24.808  1.00  0.00    -0.744 OA
ENDBRANCH  54  55
ENDBRANCH  26  49
BRANCH  38  59
ATOM     59  C   UNL A   1      47.541  26.564  31.380  1.00  0.00    -0.014 A 
ATOM     60  C   UNL A   1      47.785  25.853  32.568  1.00  0.00     0.010 A 
ATOM     61  C   UNL A   1      48.593  26.759  30.467  1.00  0.00     0.010 A 
ATOM     62  C   UNL A   1      49.061  25.352  32.838  1.00  0.00     0.020 A 
ATOM     63  C   UNL A   1      49.864  26.239  30.723  1.00  0.00     0.020 A 
ATOM     64  C   UNL A   1      50.092  25.542  31.911  1.00  0.00     0.054 A 
BRANCH  64  65
ATOM     65  S   UNL A   1      51.717  24.809  32.244  1.00  0.00     0.124 S 
ATOM     66  O   UNL A   1      51.456  23.386  32.043  1.00  0.00    -0.237 OA
ATOM     67  O   UNL A   1      52.566  25.441  31.236  1.00  0.00    -0.237 OA
ATOM     68  O   UNL A   1      51.999  25.202  33.622  1.00  0.00    -0.744 OA
ENDBRANCH  64  65
ENDBRANCH  38  59
ENDBRANCH  12  13
ENDBRANCH   5   7
ENDBRANCH   2   3
ENDBRANCH   1   2
BRANCH   1  69
ATOM     69  C   UNL A   1      34.112  28.301  23.832  1.00  0.00     0.023 C 
BRANCH  69  70
ATOM     70  C   UNL A   1      33.453  28.497  22.472  1.00  0.00     0.116 C 
BRANCH  70  71
ATOM     71  N   UNL A   1      33.572  27.339  21.599  1.00  0.00    -0.352 N 
ATOM     72  C   UNL A   1      32.903  26.139  21.659  1.00  0.00     0.251 C 
ATOM     73  H   UNL A   1      34.221  27.426  20.863  1.00  0.00     0.163 HD
ATOM     74  O   UNL A   1      33.185  25.217  20.903  1.00  0.00    -0.269 OA
BRANCH  72  75
ATOM     75  C   UNL A   1      31.847  25.948  22.675  1.00  0.00     0.041 A 
ATOM     76  C   UNL A   1      30.671  26.702  22.626  1.00  0.00     0.017 A 
ATOM     77  C   UNL A   1      32.051  25.021  23.702  1.00  0.00     0.039 A 
ATOM     78  C   UNL A   1      29.768  26.635  23.680  1.00  0.00     0.041 A 
ATOM     79  C   UNL A   1      31.114  24.927  24.740  1.00  0.00     0.124 A 
ATOM     80  C   UNL A   1      30.010  25.774  24.748  1.00  0.00     0.143 A 
ATOM     81  F   UNL A   1      29.142  25.825  25.763  1.00  0.00    -0.205 F 
BRANCH  79  82
ATOM     82  S   UNL A   1      31.418  23.729  26.013  1.00  0.00     0.267 S 
ATOM     83  O   UNL A   1      31.596  24.488  27.235  1.00  0.00    -0.201 OA
ATOM     84  O   UNL A   1      30.340  22.769  25.894  1.00  0.00    -0.201 OA
BRANCH  82  85
ATOM     85  N   UNL A   1      32.912  23.033  25.637  1.00  0.00    -0.259 N 
ATOM     86  C   UNL A   1      34.102  23.553  26.359  1.00  0.00     0.177 C 
ATOM     87  C   UNL A   1      33.045  21.687  25.131  1.00  0.00     0.094 A 
ATOM     88  C   UNL A   1      34.680  22.442  27.217  1.00  0.00     0.252 C 
ATOM     89  C   UNL A   1      34.174  20.928  25.502  1.00  0.00     0.143 A 
ATOM     90  C   UNL A   1      32.187  21.162  24.160  1.00  0.00     0.031 A 
ATOM     91  O   UNL A   1      35.124  21.345  26.409  1.00  0.00    -0.489 OA
ATOM     92  C   UNL A   1      34.424  19.683  24.920  1.00  0.00     0.049 A 
ATOM     93  C   UNL A   1      32.419  19.898  23.606  1.00  0.00     0.002 A 
ATOM     94  C   UNL A   1      33.540  19.162  23.981  1.00  0.00     0.004 A 
ENDBRANCH  82  85
ENDBRANCH  79  82
ENDBRANCH  72  75
ENDBRANCH  70  71
ENDBRANCH  69  70
ENDBRANCH   1  69
TORSDOF 16
ENDMDL
MODEL 2
REMARK VINA RESULT:     -11.8      2.625      9.195
REMARK SMILES O=C(NCCCCNC(=O)c1ccc(F)c(S(=O)(=O)N2CCOc3ccccc32)c1)c1ccc(-c2c3nc(c(-c4ccc(S(=O)(=O)[O-])cc4)c4ccc([nH]4)c(-c4ccc(S(=O)(=O)[O-])cc4)c4nc(c(-c5ccc(S(=O)(=O)[O-])cc5)c5ccc2[nH]5)C=C4)C=C3)cc1
REMARK SMILES IDX 5 1 4 2 3 3 1 4 2 5 31 7 32 8 90 9 33 10 89 11 34 12 35 13
REMARK SMILES IDX 36 14 83 15 37 16 88 17 82 18 84 19 38 20 87 21 81 22 80 23
REMARK SMILES IDX 39 25 69 26 50 27 68 28 51 29 54 30 67 31 85 32 52 33 53 34
REMARK SMILES IDX 66 36 86 37 55 38 40 39 41 40 49 41 42 42 48 43 43 44 44 45
REMARK SMILES IDX 45 46 46 47 47 48 70 49 71 50 79 51 72 52 78 53 73 54 74 55
REMARK SMILES IDX 75 56 76 57 77 58 56 59 57 60 65 61 58 62 64 63 59 64 60 65
REMARK SMILES IDX 61 66 62 67 63 68 6 69 7 70 8 71 9 72 10 74 11 75 12 76
REMARK SMILES IDX 30 77 13 78 16 79 14 80 15 81 17 82 18 83 19 84 20 85 21 86
REMARK SMILES IDX 29 87 22 88 24 89 28 90 23 91 25 92 27 93 26 94
REMARK H PARENT 3 6 84 24 54 35 8 73
REMARK Flexibility Score: inf
ROOT
ATOM      1  C   UNL A   1      35.452  23.552  26.032  1.00  0.00     0.023 C 
ENDROOT
BRANCH   1   2
ATOM      2  C   UNL A   1      36.744  23.761  25.248  1.00  0.00     0.116 C 
BRANCH   2   3
ATOM      3  N   UNL A   1      37.755  22.759  25.550  1.00  0.00    -0.352 N 
ATOM      4  O   UNL A   1      39.754  21.952  26.192  1.00  0.00    -0.269 OA
ATOM      5  C   UNL A   1      38.975  22.900  26.167  1.00  0.00     0.251 C 
ATOM      6  H   UNL A   1      37.531  21.842  25.271  1.00  0.00     0.163 HD
BRANCH   5   7
ATOM      7  C   UNL A   1      39.359  24.194  26.772  1.00  0.00     0.039 A 
ATOM      8  C   UNL A   1      40.059  25.156  26.036  1.00  0.00     0.014 A 
ATOM      9  C   UNL A   1      38.997  24.452  28.096  1.00  0.00     0.014 A 
ATOM     10  C   UNL A   1      40.514  26.313  26.663  1.00  0.00     0.010 A 
ATOM     11  C   UNL A   1      39.394  25.646  28.703  1.00  0.00     0.010 A 
ATOM     12  C   UNL A   1      40.183  26.572  28.001  1.00  0.00    -0.014 A 
BRANCH  12  13
ATOM     13  C   UNL A   1      40.630  27.826  28.658  1.00  0.00     0.031 A 
ATOM     14  C   UNL A   1      42.004  27.929  29.259  1.00  0.00     0.074 A 
ATOM     15  C   UNL A   1      39.778  28.866  28.738  1.00  0.00     0.049 A 
ATOM     16  N   UNL A   1      42.533  28.913  29.942  1.00  0.00    -0.248 NA
ATOM     17  C   UNL A   1      42.897  26.774  29.077  1.00  0.00     0.031 C 
ATOM     18  C   UNL A   1      38.422  28.889  28.188  1.00  0.00     0.029 A 
ATOM     19  N   UNL A   1      39.923  30.098  29.324  1.00  0.00    -0.354 N 
ATOM     20  C   UNL A   1      43.808  28.487  30.296  1.00  0.00     0.074 A 
ATOM     21  C   UNL A   1      43.966  27.149  29.767  1.00  0.00     0.031 C 
ATOM     22  C   UNL A   1      37.862  30.079  28.455  1.00  0.00     0.029 A 
ATOM     23  C   UNL A   1      38.793  30.876  29.245  1.00  0.00     0.049 A 
ATOM     24  H   UNL A   1      40.755  30.396  29.759  1.00  0.00     0.167 HD
ATOM     25  C   UNL A   1      44.758  29.150  31.000  1.00  0.00     0.031 A 
ATOM     26  C   UNL A   1      38.518  32.083  29.777  1.00  0.00     0.031 A 
ATOM     27  C   UNL A   1      44.589  30.478  31.531  1.00  0.00     0.049 A 
ATOM     28  C   UNL A   1      39.567  32.786  30.585  1.00  0.00     0.074 A 
ATOM     29  C   UNL A   1      45.501  31.247  32.232  1.00  0.00     0.029 A 
ATOM     30  N   UNL A   1      43.427  31.230  31.429  1.00  0.00    -0.354 N 
ATOM     31  N   UNL A   1      40.778  32.381  30.886  1.00  0.00    -0.248 NA
ATOM     32  C   UNL A   1      39.221  34.109  31.121  1.00  0.00     0.031 C 
ATOM     33  C   UNL A   1      44.874  32.442  32.600  1.00  0.00     0.029 A 
ATOM     34  C   UNL A   1      43.590  32.444  32.075  1.00  0.00     0.049 A 
ATOM     35  H   UNL A   1      42.607  30.943  30.966  1.00  0.00     0.167 HD
ATOM     36  C   UNL A   1      41.349  33.410  31.624  1.00  0.00     0.074 A 
ATOM     37  C   UNL A   1      40.351  34.457  31.724  1.00  0.00     0.031 C 
ATOM     38  C   UNL A   1      42.591  33.481  32.163  1.00  0.00     0.031 A 
BRANCH  25  39
ATOM     39  C   UNL A   1      46.049  28.424  31.276  1.00  0.00    -0.014 A 
ATOM     40  C   UNL A   1      46.222  27.650  32.437  1.00  0.00     0.010 A 
ATOM     41  C   UNL A   1      47.107  28.514  30.352  1.00  0.00     0.010 A 
ATOM     42  C   UNL A   1      47.449  27.034  32.701  1.00  0.00     0.020 A 
ATOM     43  C   UNL A   1      48.326  27.877  30.599  1.00  0.00     0.020 A 
ATOM     44  C   UNL A   1      48.497  27.163  31.786  1.00  0.00     0.054 A 
BRANCH  44  45
ATOM     45  S   UNL A   1      50.089  26.379  32.164  1.00  0.00     0.124 S 
ATOM     46  O   UNL A   1      49.677  25.256  33.002  1.00  0.00    -0.237 OA
ATOM     47  O   UNL A   1      50.596  26.022  30.841  1.00  0.00    -0.237 OA
ATOM     48  O   UNL A   1      50.838  27.427  32.853  1.00  0.00    -0.744 OA
ENDBRANCH  44  45
ENDBRANCH  25  39
BRANCH  26  49
ATOM     49  C   UNL A   1      37.173  32.676  29.556  1.00  0.00    -0.014 A 
ATOM     50  C   UNL A   1      36.187  32.605  30.553  1.00  0.00     0.010 A 
ATOM     51  C   UNL A   1      36.905  33.395  28.375  1.00  0.00     0.010 A 
ATOM     52  C   UNL A   1      34.960  33.252  30.380  1.00  0.00     0.020 A 
ATOM     53  C   UNL A   1      35.690  34.066  28.210  1.00  0.00     0.020 A 
ATOM     54  C   UNL A   1      34.724  33.987  29.215  1.00  0.00     0.054 A 
BRANCH  54  55
ATOM     55  S   UNL A   1      33.168  34.907  29.061  1.00  0.00     0.124 S 
ATOM     56  O   UNL A   1      33.633  36.225  28.640  1.00  0.00    -0.237 OA
ATOM     57  O   UNL A   1      32.445  34.138  28.050  1.00  0.00    -0.237 OA
ATOM     58  O   UNL A   1      32.597  34.843  30.405  1.00  0.00    -0.744 OA
ENDBRANCH  54  55
ENDBRANCH  26  49
BRANCH  38  59
ATOM     59  C   UNL A   1      42.972  34.749  32.877  1.00  0.00    -0.014 A 
ATOM     60  C   UNL A   1      42.580  34.988  34.205  1.00  0.00     0.010 A 
ATOM     61  C   UNL A   1      43.815  35.673  32.232  1.00  0.00     0.010 A 
ATOM     62  C   UNL A   1      43.021  36.133  34.875  1.00  0.00     0.020 A 
ATOM     63  C   UNL A   1      44.276  36.807  32.905  1.00  0.00     0.020 A 
ATOM     64  C   UNL A   1      43.872  37.032  34.223  1.00  0.00     0.054 A 
BRANCH  64  65
ATOM     65  S   UNL A   1      44.499  38.466  35.139  1.00  0.00     0.124 S 
ATOM     66  O   UNL A   1      43.584  39.522  34.714  1.00  0.00    -0.237 OA
ATOM     67  O   UNL A   1      44.366  38.041  36.531  1.00  0.00    -0.237 OA
ATOM     68  O   UNL A   1      45.874  38.606  34.666  1.00  0.00    -0.744 OA
ENDBRANCH  64  65
ENDBRANCH  38  59
ENDBRANCH  12  13
ENDBRANCH   5   7
ENDBRANCH   2   3
ENDBRANCH   1   2
BRANCH   1  69
ATOM     69  C   UNL A   1      35.308  22.190  26.708  1.00  0.00     0.023 C 
BRANCH  69  70
ATOM     70  C   UNL A   1      33.918  21.865  27.241  1.00  0.00     0.116 C 
BRANCH  70  71
ATOM     71  N   UNL A   1      33.312  20.704  26.607  1.00  0.00    -0.352 N 
ATOM     72  C   UNL A   1      32.699  20.611  25.380  1.00  0.00     0.251 C 
ATOM     73  H   UNL A   1      33.345  19.869  27.128  1.00  0.00     0.163 HD
ATOM     74  O   UNL A   1      32.147  19.577  25.023  1.00  0.00    -0.269 OA
BRANCH  72  75
ATOM     75  C   UNL A   1      32.679  21.789  24.488  1.00  0.00     0.041 A 
ATOM     76  C   UNL A   1      33.593  21.897  23.435  1.00  0.00     0.017 A 
ATOM     77  C   UNL A   1      31.752  22.809  24.728  1.00  0.00     0.039 A 
ATOM     78  C   UNL A   1      33.674  23.084  22.716  1.00  0.00     0.041 A 
ATOM     79  C   UNL A   1      31.813  23.986  23.970  1.00  0.00     0.124 A 
ATOM     80  C   UNL A   1      32.808  24.135  23.010  1.00  0.00     0.143 A 
ATOM     81  F   UNL A   1      33.001  25.272  22.335  1.00  0.00    -0.205 F 
BRANCH  79  82
ATOM     82  S   UNL A   1      30.608  25.242  24.311  1.00  0.00     0.267 S 
ATOM     83  O   UNL A   1      29.540  25.035  23.353  1.00  0.00    -0.201 OA
ATOM     84  O   UNL A   1      30.348  25.142  25.733  1.00  0.00    -0.201 OA
BRANCH  82  85
ATOM     85  N   UNL A   1      31.352  26.708  23.919  1.00  0.00    -0.259 N 
ATOM     86  C   UNL A   1      30.696  27.543  22.880  1.00  0.00     0.177 C 
ATOM     87  C   UNL A   1      32.194  27.431  24.842  1.00  0.00     0.094 A 
ATOM     88  C   UNL A   1      30.236  28.844  23.513  1.00  0.00     0.252 C 
ATOM     89  C   UNL A   1      32.188  28.842  24.808  1.00  0.00     0.143 A 
ATOM     90  C   UNL A   1      33.136  26.795  25.656  1.00  0.00     0.031 A 
ATOM     91  O   UNL A   1      31.348  29.594  24.017  1.00  0.00    -0.489 OA
ATOM     92  C   UNL A   1      33.094  29.580  25.572  1.00  0.00     0.049 A 
ATOM     93  C   UNL A   1      34.018  27.538  26.449  1.00  0.00     0.002 A 
ATOM     94  C   UNL A   1      34.002  28.929  26.402  1.00  0.00     0.004 A 
ENDBRANCH  82  85
ENDBRANCH  79  82
ENDBRANCH  72  75
ENDBRANCH  70  71
ENDBRANCH  69  70
ENDBRANCH   1  69
TORSDOF 16
ENDMDL
MODEL 3
REMARK VINA RESULT:     -11.8      3.987     10.001
REMARK SMILES O=C(NCCCCNC(=O)c1ccc(F)c(S(=O)(=O)N2CCOc3ccccc32)c1)c1ccc(-c2c3nc(c(-c4ccc(S(=O)(=O)[O-])cc4)c4ccc([nH]4)c(-c4ccc(S(=O)(=O)[O-])cc4)c4nc(c(-c5ccc(S(=O)(=O)[O-])cc5)c5ccc2[nH]5)C=C4)C=C3)cc1
REMARK SMILES IDX 5 1 4 2 3 3 1 4 2 5 31 7 32 8 90 9 33 10 89 11 34 12 35 13
REMARK SMILES IDX 36 14 83 15 37 16 88 17 82 18 84 19 38 20 87 21 81 22 80 23
REMARK SMILES IDX 39 25 69 26 50 27 68 28 51 29 54 30 67 31 85 32 52 33 53 34
REMARK SMILES IDX 66 36 86 37 55 38 40 39 41 40 49 41 42 42 48 43 43 44 44 45
REMARK SMILES IDX 45 46 46 47 47 48 70 49 71 50 79 51 72 52 78 53 73 54 74 55
REMARK SMILES IDX 75 56 76 57 77 58 56 59 57 60 65 61 58 62 64 63 59 64 60 65
REMARK SMILES IDX 61 66 62 67 63 68 6 69 7 70 8 71 9 72 10 74 11 75 12 76
REMARK SMILES IDX 30 77 13 78 16 79 14 80 15 81 17 82 18 83 19 84 20 85 21 86
REMARK SMILES IDX 29 87 22 88 24 89 28 90 23 91 25 92 27 93 26 94
REMARK H PARENT 3 6 84 24 54 35 8 73
REMARK Flexibility Score: inf
ROOT
ATOM      1  C   UNL A   1      37.358  23.465  25.639  1.00  0.00     0.023 C 
ENDROOT
BRANCH   1   2
ATOM      2  C   UNL A   1      38.414  23.925  26.640  1.00  0.00     0.116 C 
BRANCH   2   3
ATOM      3  N   UNL A   1      39.767  23.842  26.111  1.00  0.00    -0.352 N 
ATOM      4  O   UNL A   1      41.900  24.461  25.754  1.00  0.00    -0.269 OA
ATOM      5  C   UNL A   1      40.880  24.584  26.426  1.00  0.00     0.251 C 
ATOM      6  H   UNL A   1      39.905  23.150  25.425  1.00  0.00     0.163 HD
BRANCH   5   7
ATOM      7  C   UNL A   1      40.842  25.545  27.550  1.00  0.00     0.039 A 
ATOM      8  C   UNL A   1      39.795  25.533  28.476  1.00  0.00     0.014 A 
ATOM      9  C   UNL A   1      41.886  26.464  27.684  1.00  0.00     0.014 A 
ATOM     10  C   UNL A   1      39.720  26.523  29.452  1.00  0.00     0.010 A 
ATOM     11  C   UNL A   1      41.845  27.413  28.708  1.00  0.00     0.010 A 
ATOM     12  C   UNL A   1      40.746  27.471  29.581  1.00  0.00    -0.014 A 
BRANCH  12  13
ATOM     13  C   UNL A   1      40.690  28.500  30.649  1.00  0.00     0.031 A 
ATOM     14  C   UNL A   1      41.604  28.421  31.840  1.00  0.00     0.074 A 
ATOM     15  C   UNL A   1      39.786  29.495  30.557  1.00  0.00     0.049 A 
ATOM     16  N   UNL A   1      41.638  29.181  32.905  1.00  0.00    -0.248 NA
ATOM     17  C   UNL A   1      42.605  27.342  31.838  1.00  0.00     0.031 C 
ATOM     18  C   UNL A   1      38.849  29.682  29.448  1.00  0.00     0.029 A 
ATOM     19  N   UNL A   1      39.500  30.526  31.415  1.00  0.00    -0.354 N 
ATOM     20  C   UNL A   1      42.641  28.658  33.713  1.00  0.00     0.074 A 
ATOM     21  C   UNL A   1      43.178  27.505  33.023  1.00  0.00     0.031 C 
ATOM     22  C   UNL A   1      38.098  30.767  29.689  1.00  0.00     0.029 A 
ATOM     23  C   UNL A   1      38.456  31.313  30.993  1.00  0.00     0.049 A 
ATOM     24  H   UNL A   1      39.994  30.686  32.252  1.00  0.00     0.167 HD
ATOM     25  C   UNL A   1      43.071  29.098  34.921  1.00  0.00     0.031 A 
ATOM     26  C   UNL A   1      37.830  32.341  31.598  1.00  0.00     0.031 A 
ATOM     27  C   UNL A   1      42.524  30.241  35.605  1.00  0.00     0.049 A 
ATOM     28  C   UNL A   1      38.294  32.790  32.951  1.00  0.00     0.074 A 
ATOM     29  C   UNL A   1      42.910  30.784  36.819  1.00  0.00     0.029 A 
ATOM     30  N   UNL A   1      41.466  31.010  35.142  1.00  0.00    -0.354 N 
ATOM     31  N   UNL A   1      39.263  32.302  33.689  1.00  0.00    -0.248 NA
ATOM     32  C   UNL A   1      37.589  33.930  33.554  1.00  0.00     0.031 C 
ATOM     33  C   UNL A   1      42.052  31.849  37.114  1.00  0.00     0.029 A 
ATOM     34  C   UNL A   1      41.170  32.008  36.056  1.00  0.00     0.049 A 
ATOM     35  H   UNL A   1      40.995  30.868  34.290  1.00  0.00     0.167 HD
ATOM     36  C   UNL A   1      39.303  33.091  34.832  1.00  0.00     0.074 A 
ATOM     37  C   UNL A   1      38.261  34.089  34.687  1.00  0.00     0.031 C 
ATOM     38  C   UNL A   1      40.134  32.999  35.899  1.00  0.00     0.031 A 
BRANCH  25  39
ATOM     39  C   UNL A   1      44.158  28.306  35.599  1.00  0.00    -0.014 A 
ATOM     40  C   UNL A   1      43.860  27.318  36.555  1.00  0.00     0.010 A 
ATOM     41  C   UNL A   1      45.504  28.552  35.270  1.00  0.00     0.010 A 
ATOM     42  C   UNL A   1      44.888  26.638  37.214  1.00  0.00     0.020 A 
ATOM     43  C   UNL A   1      46.534  27.854  35.907  1.00  0.00     0.020 A 
ATOM     44  C   UNL A   1      46.219  26.920  36.895  1.00  0.00     0.054 A 
BRANCH  44  45
ATOM     45  S   UNL A   1      47.536  26.046  37.786  1.00  0.00     0.124 S 
ATOM     46  O   UNL A   1      48.643  26.993  37.685  1.00  0.00    -0.237 OA
ATOM     47  O   UNL A   1      46.970  25.883  39.122  1.00  0.00    -0.237 OA
ATOM     48  O   UNL A   1      47.706  24.809  37.028  1.00  0.00    -0.744 OA
ENDBRANCH  44  45
ENDBRANCH  25  39
BRANCH  26  49
ATOM     49  C   UNL A   1      36.685  32.991  30.908  1.00  0.00    -0.014 A 
ATOM     50  C   UNL A   1      35.376  32.844  31.398  1.00  0.00     0.010 A 
ATOM     51  C   UNL A   1      36.914  33.837  29.806  1.00  0.00     0.010 A 
ATOM     52  C   UNL A   1      34.318  33.539  30.807  1.00  0.00     0.020 A 
ATOM     53  C   UNL A   1      35.862  34.555  29.229  1.00  0.00     0.020 A 
ATOM     54  C   UNL A   1      34.570  34.399  29.733  1.00  0.00     0.054 A 
BRANCH  54  55
ATOM     55  S   UNL A   1      33.199  35.373  29.052  1.00  0.00     0.124 S 
ATOM     56  O   UNL A   1      33.903  36.442  28.353  1.00  0.00    -0.237 OA
ATOM     57  O   UNL A   1      32.515  34.403  28.201  1.00  0.00    -0.237 OA
ATOM     58  O   UNL A   1      32.450  35.785  30.237  1.00  0.00    -0.744 OA
ENDBRANCH  54  55
ENDBRANCH  26  49
BRANCH  38  59
ATOM     59  C   UNL A   1      39.991  34.029  36.987  1.00  0.00    -0.014 A 
ATOM     60  C   UNL A   1      40.635  35.276  36.903  1.00  0.00     0.010 A 
ATOM     61  C   UNL A   1      39.124  33.773  38.064  1.00  0.00     0.010 A 
ATOM     62  C   UNL A   1      40.417  36.248  37.883  1.00  0.00     0.020 A 
ATOM     63  C   UNL A   1      38.886  34.751  39.034  1.00  0.00     0.020 A 
ATOM     64  C   UNL A   1      39.538  35.982  38.939  1.00  0.00     0.054 A 
BRANCH  64  65
ATOM     65  S   UNL A   1      39.205  37.288  40.152  1.00  0.00     0.124 S 
ATOM     66  O   UNL A   1      38.380  38.215  39.382  1.00  0.00    -0.237 OA
ATOM     67  O   UNL A   1      38.512  36.568  41.219  1.00  0.00    -0.237 OA
ATOM     68  O   UNL A   1      40.534  37.782  40.504  1.00  0.00    -0.744 OA
ENDBRANCH  64  65
ENDBRANCH  38  59
ENDBRANCH  12  13
ENDBRANCH   5   7
ENDBRANCH   2   3
ENDBRANCH   1   2
BRANCH   1  69
ATOM     69  C   UNL A   1      37.023  21.976  25.678  1.00  0.00     0.023 C 
BRANCH  69  70
ATOM     70  C   UNL A   1      35.934  21.522  24.712  1.00  0.00     0.116 C 
BRANCH  70  71
ATOM     71  N   UNL A   1      35.164  20.388  25.199  1.00  0.00    -0.352 N 
ATOM     72  C   UNL A   1      33.800  20.223  25.240  1.00  0.00     0.251 C 
ATOM     73  H   UNL A   1      35.693  19.633  25.547  1.00  0.00     0.163 HD
ATOM     74  O   UNL A   1      33.296  19.242  25.772  1.00  0.00    -0.269 OA
BRANCH  72  75
ATOM     75  C   UNL A   1      32.927  21.264  24.660  1.00  0.00     0.041 A 
ATOM     76  C   UNL A   1      32.500  21.172  23.332  1.00  0.00     0.017 A 
ATOM     77  C   UNL A   1      32.552  22.356  25.450  1.00  0.00     0.039 A 
ATOM     78  C   UNL A   1      31.825  22.240  22.752  1.00  0.00     0.041 A 
ATOM     79  C   UNL A   1      31.834  23.410  24.870  1.00  0.00     0.124 A 
ATOM     80  C   UNL A   1      31.525  23.367  23.514  1.00  0.00     0.143 A 
ATOM     81  F   UNL A   1      30.951  24.386  22.868  1.00  0.00    -0.205 F 
BRANCH  79  82
ATOM     82  S   UNL A   1      31.379  24.766  25.919  1.00  0.00     0.267 S 
ATOM     83  O   UNL A   1      30.186  25.339  25.328  1.00  0.00    -0.201 OA
ATOM     84  O   UNL A   1      31.342  24.214  27.257  1.00  0.00    -0.201 OA
BRANCH  82  85
ATOM     85  N   UNL A   1      32.615  25.907  25.753  1.00  0.00    -0.259 N 
ATOM     86  C   UNL A   1      33.685  25.606  24.767  1.00  0.00     0.177 C 
ATOM     87  C   UNL A   1      32.433  27.308  26.049  1.00  0.00     0.094 A 
ATOM     88  C   UNL A   1      33.641  26.646  23.662  1.00  0.00     0.252 C 
ATOM     89  C   UNL A   1      33.128  28.263  25.278  1.00  0.00     0.143 A 
ATOM     90  C   UNL A   1      31.727  27.754  27.171  1.00  0.00     0.031 A 
ATOM     91  O   UNL A   1      33.899  27.957  24.178  1.00  0.00    -0.489 OA
ATOM     92  C   UNL A   1      33.105  29.616  25.622  1.00  0.00     0.049 A 
ATOM     93  C   UNL A   1      31.675  29.114  27.492  1.00  0.00     0.002 A 
ATOM     94  C   UNL A   1      32.368  30.044  26.722  1.00  0.00     0.004 A 
ENDBRANCH  82  85
ENDBRANCH  79  82
ENDBRANCH  72  75
ENDBRANCH  70  71
ENDBRANCH  69  70
ENDBRANCH   1  69
TORSDOF 16
ENDMDL
