MODEL 1
REMARK VINA RESULT:     -12.2      0.000      0.000
REMARK SMILES Cc1ccccc1NC(=S)NN1C(=O)CS[C@H]1c1ccccc1C(=O)NCCCCNC(=O)c1ccc(-c2c3nc(c(-c4ccc(S(=O)(=O)[O-])cc4)c4ccc([nH]4)c(-c4ccc(S(=O)(=O)[O-])cc4)c4nc(c(-c5ccc(S(=O)(=O)[O-])cc5)c5ccc2[nH]5)C=C4)C=C3)cc1
REMARK SMILES IDX 27 1 26 2 24 3 25 4 23 6 18 7 19 8 20 9 22 10 21 11 17 12
REMARK SMILES IDX 12 13 13 14 14 15 15 16 16 17 11 18 9 20 10 21 8 22 7 24
REMARK SMILES IDX 1 25 2 26 3 27 4 28 6 29 5 30 28 31 29 32 30 33 31 34 32 35
REMARK SMILES IDX 33 37 34 38 35 39 93 40 36 41 92 42 37 43 38 44 39 45 86 46
REMARK SMILES IDX 40 47 91 48 85 49 87 50 41 51 90 52 84 53 83 54 42 56 72 57
REMARK SMILES IDX 53 58 71 59 54 60 57 61 70 62 88 63 55 64 56 65 69 67 89 68
REMARK SMILES IDX 58 69 43 70 44 71 52 72 45 73 51 74 46 75 47 76 48 77 49 78
REMARK SMILES IDX 50 79 73 80 74 81 82 82 75 83 81 84 76 85 77 86 78 87 79 88
REMARK SMILES IDX 80 89 59 90 60 91 68 92 61 93 67 94 62 95 63 96 64 97 65 98
REMARK SMILES IDX 66 99
REMARK H PARENT 26 5 11 19 8 23 31 36 87 55 57 66
REMARK Flexibility Score: inf
ROOT
ATOM      1  C   UNL A   1      44.983  23.092  33.434  1.00  0.00     0.116 C 
ENDROOT
BRANCH   1   2
ATOM      2  N   UNL A   1      44.992  23.891  34.838  1.00  0.00    -0.352 N 
ATOM      3  C   UNL A   1      45.812  24.858  35.318  1.00  0.00     0.251 C 
ATOM      4  O   UNL A   1      45.762  25.264  36.469  1.00  0.00    -0.269 OA
ATOM      5  H   UNL A   1      44.272  23.629  35.455  1.00  0.00     0.163 HD
BRANCH   3   6
ATOM      6  C   UNL A   1      46.694  25.463  34.331  1.00  0.00     0.046 A 
ATOM      7  C   UNL A   1      47.936  24.878  34.049  1.00  0.00    -0.001 A 
ATOM      8  C   UNL A   1      48.410  25.129  32.734  1.00  0.00     0.007 A 
ATOM      9  C   UNL A   1      47.719  25.984  31.835  1.00  0.00     0.000 A 
ATOM     10  C   UNL A   1      46.060  26.405  33.489  1.00  0.00     0.014 A 
ATOM     11  C   UNL A   1      46.578  26.672  32.235  1.00  0.00     0.001 A 
BRANCH   7  12
ATOM     12  C   UNL A   1      48.660  23.850  35.069  1.00  0.00     0.197 C 
ATOM     13  N   UNL A   1      48.436  21.974  34.885  1.00  0.00    -0.236 N 
ATOM     14  C   UNL A   1      49.677  21.025  33.997  1.00  0.00     0.252 C 
ATOM     15  O   UNL A   1      49.321  20.122  33.226  1.00  0.00    -0.272 OA
ATOM     16  C   UNL A   1      51.426  22.079  33.866  1.00  0.00     0.174 C 
ATOM     17  S   UNL A   1      50.946  24.296  34.635  1.00  0.00    -0.120 SA
BRANCH  13  18
ATOM     18  N   UNL A   1      47.306  21.297  35.370  1.00  0.00    -0.270 N 
ATOM     19  H   UNL A   1      46.581  21.103  34.732  1.00  0.00     0.191 HD
BRANCH  18  20
ATOM     20  C   UNL A   1      47.137  20.882  36.671  1.00  0.00     0.189 C 
ATOM     21  S   UNL A   1      46.199  21.890  37.641  1.00  0.00    -0.039 S 
BRANCH  20  22
ATOM     22  N   UNL A   1      47.610  19.708  37.228  1.00  0.00    -0.331 N 
ATOM     23  H   UNL A   1      48.257  19.216  36.672  1.00  0.00     0.169 HD
BRANCH  22  24
ATOM     24  C   UNL A   1      47.304  19.096  38.488  1.00  0.00     0.043 A 
ATOM     25  C   UNL A   1      49.242  20.464  39.885  1.00  0.00     0.046 C 
ATOM     26  C   UNL A   1      48.646  19.080  39.659  1.00  0.00    -0.028 A 
ATOM     27  C   UNL A   1      48.689  17.843  40.964  1.00  0.00     0.005 A 
ATOM     28  C   UNL A   1      47.337  16.673  41.179  1.00  0.00     0.000 A 
ATOM     29  C   UNL A   1      45.873  17.995  38.776  1.00  0.00     0.026 A 
ATOM     30  C   UNL A   1      45.934  16.719  40.056  1.00  0.00     0.002 A 
ENDBRANCH  22  24
ENDBRANCH  20  22
ENDBRANCH  18  20
ENDBRANCH  13  18
ENDBRANCH   7  12
ENDBRANCH   3   6
ENDBRANCH   1   2
BRANCH   1  31
ATOM     31  C   UNL A   1      43.991  23.683  31.562  1.00  0.00     0.023 C 
BRANCH  31  32
ATOM     32  C   UNL A   1      43.427  22.985  29.810  1.00  0.00     0.023 C 
BRANCH  32  33
ATOM     33  C   UNL A   1      41.728  22.546  28.471  1.00  0.00     0.116 C 
BRANCH  33  34
ATOM     34  N   UNL A   1      41.353  23.024  26.907  1.00  0.00    -0.352 N 
ATOM     35  C   UNL A   1      40.041  23.307  26.513  1.00  0.00     0.251 C 
ATOM     36  H   UNL A   1      42.079  23.108  26.247  1.00  0.00     0.163 HD
ATOM     37  O   UNL A   1      39.101  22.528  26.481  1.00  0.00    -0.269 OA
BRANCH  35  38
ATOM     38  C   UNL A   1      39.813  24.772  26.586  1.00  0.00     0.039 A 
ATOM     39  C   UNL A   1      40.593  25.682  25.862  1.00  0.00     0.014 A 
ATOM     40  C   UNL A   1      39.344  25.071  27.862  1.00  0.00     0.014 A 
ATOM     41  C   UNL A   1      41.038  26.838  26.501  1.00  0.00     0.010 A 
ATOM     42  C   UNL A   1      40.012  26.039  28.558  1.00  0.00     0.010 A 
ATOM     43  C   UNL A   1      40.829  26.945  27.873  1.00  0.00    -0.014 A 
BRANCH  43  44
ATOM     44  C   UNL A   1      41.200  28.065  28.711  1.00  0.00     0.031 A 
ATOM     45  C   UNL A   1      40.198  29.152  28.777  1.00  0.00     0.074 A 
ATOM     46  C   UNL A   1      42.272  27.988  29.527  1.00  0.00     0.049 A 
ATOM     47  N   UNL A   1      40.407  30.301  29.303  1.00  0.00    -0.248 NA
ATOM     48  C   UNL A   1      38.853  29.036  28.191  1.00  0.00     0.031 C 
ATOM     49  C   UNL A   1      42.594  28.830  30.675  1.00  0.00     0.029 A 
ATOM     50  N   UNL A   1      43.429  27.239  29.317  1.00  0.00    -0.354 N 
ATOM     51  C   UNL A   1      39.186  30.927  29.410  1.00  0.00     0.074 A 
ATOM     52  C   UNL A   1      38.271  30.155  28.619  1.00  0.00     0.031 C 
ATOM     53  C   UNL A   1      43.919  28.765  30.904  1.00  0.00     0.029 A 
ATOM     54  C   UNL A   1      44.506  27.999  29.814  1.00  0.00     0.049 A 
ATOM     55  H   UNL A   1      43.483  26.349  28.902  1.00  0.00     0.167 HD
ATOM     56  C   UNL A   1      39.069  31.955  30.286  1.00  0.00     0.031 A 
ATOM     57  C   UNL A   1      45.421  28.507  28.931  1.00  0.00     0.031 A 
ATOM     58  C   UNL A   1      40.394  32.408  30.698  1.00  0.00     0.049 A 
ATOM     59  C   UNL A   1      45.345  30.018  28.810  1.00  0.00     0.074 A 
ATOM     60  C   UNL A   1      41.156  32.190  31.830  1.00  0.00     0.029 A 
ATOM     61  N   UNL A   1      41.269  32.849  29.708  1.00  0.00    -0.354 N 
ATOM     62  N   UNL A   1      44.324  30.741  29.189  1.00  0.00    -0.248 NA
ATOM     63  C   UNL A   1      46.427  30.834  28.263  1.00  0.00     0.031 C 
ATOM     64  C   UNL A   1      42.523  32.351  31.458  1.00  0.00     0.029 A 
ATOM     65  C   UNL A   1      42.581  32.724  30.125  1.00  0.00     0.049 A 
ATOM     66  H   UNL A   1      40.991  33.203  28.831  1.00  0.00     0.167 HD
ATOM     67  C   UNL A   1      44.574  32.064  28.941  1.00  0.00     0.074 A 
ATOM     68  C   UNL A   1      45.912  32.070  28.374  1.00  0.00     0.031 C 
ATOM     69  C   UNL A   1      43.670  33.054  29.209  1.00  0.00     0.031 A 
BRANCH  56  70
ATOM     70  C   UNL A   1      37.771  32.385  30.920  1.00  0.00    -0.014 A 
ATOM     71  C   UNL A   1      36.913  33.234  30.198  1.00  0.00     0.010 A 
ATOM     72  C   UNL A   1      37.398  32.111  32.255  1.00  0.00     0.010 A 
ATOM     73  C   UNL A   1      35.756  33.782  30.774  1.00  0.00     0.020 A 
ATOM     74  C   UNL A   1      36.231  32.627  32.835  1.00  0.00     0.020 A 
ATOM     75  C   UNL A   1      35.421  33.473  32.091  1.00  0.00     0.054 A 
BRANCH  75  76
ATOM     76  S   UNL A   1      33.932  34.200  32.822  1.00  0.00     0.124 S 
ATOM     77  O   UNL A   1      33.308  34.853  31.674  1.00  0.00    -0.237 OA
ATOM     78  O   UNL A   1      33.232  33.029  33.340  1.00  0.00    -0.237 OA
ATOM     79  O   UNL A   1      34.453  35.108  33.843  1.00  0.00    -0.744 OA
ENDBRANCH  75  76
ENDBRANCH  56  70
BRANCH  57  80
ATOM     80  C   UNL A   1      45.726  27.551  27.817  1.00  0.00    -0.014 A 
ATOM     81  C   UNL A   1      46.131  26.248  28.183  1.00  0.00     0.010 A 
ATOM     82  C   UNL A   1      45.184  27.750  26.533  1.00  0.00     0.010 A 
ATOM     83  C   UNL A   1      45.825  25.149  27.374  1.00  0.00     0.020 A 
ATOM     84  C   UNL A   1      44.888  26.647  25.714  1.00  0.00     0.020 A 
ATOM     85  C   UNL A   1      45.152  25.352  26.169  1.00  0.00     0.054 A 
BRANCH  85  86
ATOM     86  S   UNL A   1      44.389  23.911  25.358  1.00  0.00     0.124 S 
ATOM     87  O   UNL A   1      43.077  24.422  24.984  1.00  0.00    -0.237 OA
ATOM     88  O   UNL A   1      45.311  23.656  24.251  1.00  0.00    -0.237 OA
ATOM     89  O   UNL A   1      44.402  22.888  26.399  1.00  0.00    -0.744 OA
ENDBRANCH  85  86
ENDBRANCH  57  80
BRANCH  69  90
ATOM     90  C   UNL A   1      43.757  34.470  28.679  1.00  0.00    -0.014 A 
ATOM     91  C   UNL A   1      43.181  34.893  27.472  1.00  0.00     0.010 A 
ATOM     92  C   UNL A   1      44.337  35.473  29.494  1.00  0.00     0.010 A 
ATOM     93  C   UNL A   1      43.268  36.226  27.050  1.00  0.00     0.020 A 
ATOM     94  C   UNL A   1      44.370  36.817  29.116  1.00  0.00     0.020 A 
ATOM     95  C   UNL A   1      43.871  37.178  27.872  1.00  0.00     0.054 A 
BRANCH  95  96
ATOM     96  S   UNL A   1      43.967  38.896  27.319  1.00  0.00     0.124 S 
ATOM     97  O   UNL A   1      44.020  39.614  28.591  1.00  0.00    -0.237 OA
ATOM     98  O   UNL A   1      45.200  38.918  26.536  1.00  0.00    -0.237 OA
ATOM     99  O   UNL A   1      42.741  39.078  26.547  1.00  0.00    -0.744 OA
ENDBRANCH  95  96
ENDBRANCH  69  90
ENDBRANCH  43  44
ENDBRANCH  35  38
ENDBRANCH  33  34
ENDBRANCH  32  33
ENDBRANCH  31  32
ENDBRANCH   1  31
TORSDOF 19
ENDMDL
MODEL 2
REMARK VINA RESULT:     -11.9      3.651     14.041
REMARK SMILES Cc1ccccc1NC(=S)NN1C(=O)CS[C@H]1c1ccccc1C(=O)NCCCCNC(=O)c1ccc(-c2c3nc(c(-c4ccc(S(=O)(=O)[O-])cc4)c4ccc([nH]4)c(-c4ccc(S(=O)(=O)[O-])cc4)c4nc(c(-c5ccc(S(=O)(=O)[O-])cc5)c5ccc2[nH]5)C=C4)C=C3)cc1
REMARK SMILES IDX 27 1 26 2 24 3 25 4 23 6 18 7 19 8 20 9 22 10 21 11 17 12
REMARK SMILES IDX 12 13 13 14 14 15 15 16 16 17 11 18 9 20 10 21 8 22 7 24
REMARK SMILES IDX 1 25 2 26 3 27 4 28 6 29 5 30 28 31 29 32 30 33 31 34 32 35
REMARK SMILES IDX 33 37 34 38 35 39 93 40 36 41 92 42 37 43 38 44 39 45 86 46
REMARK SMILES IDX 40 47 91 48 85 49 87 50 41 51 90 52 84 53 83 54 42 56 72 57
REMARK SMILES IDX 53 58 71 59 54 60 57 61 70 62 88 63 55 64 56 65 69 67 89 68
REMARK SMILES IDX 58 69 43 70 44 71 52 72 45 73 51 74 46 75 47 76 48 77 49 78
REMARK SMILES IDX 50 79 73 80 74 81 82 82 75 83 81 84 76 85 77 86 78 87 79 88
REMARK SMILES IDX 80 89 59 90 60 91 68 92 61 93 67 94 62 95 63 96 64 97 65 98
REMARK SMILES IDX 66 99
REMARK H PARENT 26 5 11 19 8 23 31 36 87 55 57 66
REMARK Flexibility Score: inf
ROOT
ATOM      1  C   UNL A   1      41.130  34.892  29.416  1.00  0.00     0.116 C 
ENDROOT
BRANCH   1   2
ATOM      2  N   UNL A   1      42.548  35.036  30.177  1.00  0.00    -0.352 N 
ATOM      3  C   UNL A   1      43.823  34.910  29.736  1.00  0.00     0.251 C 
ATOM      4  O   UNL A   1      44.791  34.915  30.482  1.00  0.00    -0.269 OA
ATOM      5  H   UNL A   1      42.471  35.254  31.134  1.00  0.00     0.163 HD
BRANCH   3   6
ATOM      6  C   UNL A   1      43.973  34.877  28.289  1.00  0.00     0.046 A 
ATOM      7  C   UNL A   1      44.357  36.035  27.597  1.00  0.00    -0.001 A 
ATOM      8  C   UNL A   1      45.052  35.783  26.385  1.00  0.00     0.007 A 
ATOM      9  C   UNL A   1      45.242  34.467  25.885  1.00  0.00     0.000 A 
ATOM     10  C   UNL A   1      44.055  33.575  27.746  1.00  0.00     0.014 A 
ATOM     11  C   UNL A   1      44.688  33.368  26.534  1.00  0.00     0.001 A 
BRANCH   7  12
ATOM     12  C   UNL A   1      44.190  37.516  28.230  1.00  0.00     0.197 C 
ATOM     13  N   UNL A   1      45.217  38.975  27.581  1.00  0.00    -0.236 N 
ATOM     14  C   UNL A   1      44.502  40.074  26.352  1.00  0.00     0.252 C 
ATOM     15  O   UNL A   1      45.201  40.476  25.411  1.00  0.00    -0.272 OA
ATOM     16  C   UNL A   1      42.464  39.888  26.326  1.00  0.00     0.174 C 
ATOM     17  S   UNL A   1      41.932  37.999  27.697  1.00  0.00    -0.120 SA
BRANCH  13  18
ATOM     18  N   UNL A   1      46.542  39.204  27.983  1.00  0.00    -0.270 N 
ATOM     19  H   UNL A   1      47.233  38.583  27.656  1.00  0.00     0.191 HD
BRANCH  18  20
ATOM     20  C   UNL A   1      46.948  40.234  28.801  1.00  0.00     0.189 C 
ATOM     21  S   UNL A   1      47.787  41.481  28.041  1.00  0.00    -0.039 S 
BRANCH  20  22
ATOM     22  N   UNL A   1      46.683  40.363  30.153  1.00  0.00    -0.331 N 
ATOM     23  H   UNL A   1      47.242  39.805  30.740  1.00  0.00     0.169 HD
BRANCH  22  24
ATOM     24  C   UNL A   1      45.722  41.184  30.830  1.00  0.00     0.043 A 
ATOM     25  C   UNL A   1      44.112  39.081  31.581  1.00  0.00     0.046 C 
ATOM     26  C   UNL A   1      44.094  40.474  30.966  1.00  0.00    -0.028 A 
ATOM     27  C   UNL A   1      42.660  41.543  31.164  1.00  0.00     0.005 A 
ATOM     28  C   UNL A   1      42.846  43.325  31.335  1.00  0.00     0.000 A 
ATOM     29  C   UNL A   1      45.928  42.976  31.128  1.00  0.00     0.026 A 
ATOM     30  C   UNL A   1      44.487  44.057  31.279  1.00  0.00     0.002 A 
ENDBRANCH  22  24
ENDBRANCH  20  22
ENDBRANCH  18  20
ENDBRANCH  13  18
ENDBRANCH   7  12
ENDBRANCH   3   6
ENDBRANCH   1   2
BRANCH   1  31
ATOM     31  C   UNL A   1      39.129  34.772  30.321  1.00  0.00     0.023 C 
BRANCH  31  32
ATOM     32  C   UNL A   1      37.687  33.503  30.751  1.00  0.00     0.023 C 
BRANCH  32  33
ATOM     33  C   UNL A   1      35.564  32.972  30.461  1.00  0.00     0.116 C 
BRANCH  33  34
ATOM     34  N   UNL A   1      34.802  31.694  29.685  1.00  0.00    -0.352 N 
ATOM     35  C   UNL A   1      35.232  31.220  28.441  1.00  0.00     0.251 C 
ATOM     36  H   UNL A   1      34.029  31.266  30.119  1.00  0.00     0.163 HD
ATOM     37  O   UNL A   1      35.239  31.832  27.386  1.00  0.00    -0.269 OA
BRANCH  35  38
ATOM     38  C   UNL A   1      36.115  30.044  28.645  1.00  0.00     0.039 A 
ATOM     39  C   UNL A   1      36.343  29.498  29.914  1.00  0.00     0.014 A 
ATOM     40  C   UNL A   1      37.118  30.087  27.681  1.00  0.00     0.014 A 
ATOM     41  C   UNL A   1      37.645  29.142  30.264  1.00  0.00     0.010 A 
ATOM     42  C   UNL A   1      38.409  30.013  28.124  1.00  0.00     0.010 A 
ATOM     43  C   UNL A   1      38.674  29.506  29.400  1.00  0.00    -0.014 A 
BRANCH  43  44
ATOM     44  C   UNL A   1      40.082  29.218  29.576  1.00  0.00     0.031 A 
ATOM     45  C   UNL A   1      40.477  27.828  29.252  1.00  0.00     0.074 A 
ATOM     46  C   UNL A   1      40.965  30.213  29.796  1.00  0.00     0.049 A 
ATOM     47  N   UNL A   1      41.623  27.320  29.516  1.00  0.00    -0.248 NA
ATOM     48  C   UNL A   1      39.561  26.861  28.628  1.00  0.00     0.031 C 
ATOM     49  C   UNL A   1      42.417  30.181  29.643  1.00  0.00     0.029 A 
ATOM     50  N   UNL A   1      40.717  31.422  30.444  1.00  0.00    -0.354 N 
ATOM     51  C   UNL A   1      41.702  26.124  28.839  1.00  0.00     0.074 A 
ATOM     52  C   UNL A   1      40.371  25.831  28.390  1.00  0.00     0.031 C 
ATOM     53  C   UNL A   1      42.956  31.154  30.400  1.00  0.00     0.029 A 
ATOM     54  C   UNL A   1      41.875  31.739  31.181  1.00  0.00     0.049 A 
ATOM     55  H   UNL A   1      39.891  31.954  30.395  1.00  0.00     0.167 HD
ATOM     56  C   UNL A   1      42.930  25.596  28.617  1.00  0.00     0.031 A 
ATOM     57  C   UNL A   1      41.818  31.709  32.549  1.00  0.00     0.031 A 
ATOM     58  C   UNL A   1      43.917  26.262  29.461  1.00  0.00     0.049 A 
ATOM     59  C   UNL A   1      42.620  30.566  33.145  1.00  0.00     0.074 A 
ATOM     60  C   UNL A   1      44.852  27.251  29.220  1.00  0.00     0.029 A 
ATOM     61  N   UNL A   1      43.729  26.220  30.840  1.00  0.00    -0.354 N 
ATOM     62  N   UNL A   1      43.020  29.515  32.479  1.00  0.00    -0.248 NA
ATOM     63  C   UNL A   1      43.047  30.531  34.542  1.00  0.00     0.031 C 
ATOM     64  C   UNL A   1      45.099  27.911  30.459  1.00  0.00     0.029 A 
ATOM     65  C   UNL A   1      44.365  27.283  31.452  1.00  0.00     0.049 A 
ATOM     66  H   UNL A   1      43.214  25.527  31.315  1.00  0.00     0.167 HD
ATOM     67  C   UNL A   1      43.715  28.677  33.308  1.00  0.00     0.074 A 
ATOM     68  C   UNL A   1      43.717  29.367  34.587  1.00  0.00     0.031 C 
ATOM     69  C   UNL A   1      44.232  27.481  32.893  1.00  0.00     0.031 A 
BRANCH  56  70
ATOM     70  C   UNL A   1      43.254  24.646  27.491  1.00  0.00    -0.014 A 
ATOM     71  C   UNL A   1      43.665  23.338  27.805  1.00  0.00     0.010 A 
ATOM     72  C   UNL A   1      43.308  25.005  26.126  1.00  0.00     0.010 A 
ATOM     73  C   UNL A   1      44.110  22.444  26.819  1.00  0.00     0.020 A 
ATOM     74  C   UNL A   1      43.722  24.114  25.126  1.00  0.00     0.020 A 
ATOM     75  C   UNL A   1      44.135  22.838  25.483  1.00  0.00     0.054 A 
BRANCH  75  76
ATOM     76  S   UNL A   1      44.724  21.677  24.225  1.00  0.00     0.124 S 
ATOM     77  O   UNL A   1      43.936  20.481  24.511  1.00  0.00    -0.237 OA
ATOM     78  O   UNL A   1      44.399  22.368  22.981  1.00  0.00    -0.237 OA
ATOM     79  O   UNL A   1      46.155  21.556  24.506  1.00  0.00    -0.744 OA
ENDBRANCH  75  76
ENDBRANCH  56  70
BRANCH  57  80
ATOM     80  C   UNL A   1      40.517  32.237  33.075  1.00  0.00    -0.014 A 
ATOM     81  C   UNL A   1      39.559  31.284  33.487  1.00  0.00     0.010 A 
ATOM     82  C   UNL A   1      40.430  33.543  33.592  1.00  0.00     0.010 A 
ATOM     83  C   UNL A   1      38.666  31.570  34.525  1.00  0.00     0.020 A 
ATOM     84  C   UNL A   1      39.525  33.834  34.626  1.00  0.00     0.020 A 
ATOM     85  C   UNL A   1      38.695  32.827  35.127  1.00  0.00     0.054 A 
BRANCH  85  86
ATOM     86  S   UNL A   1      37.852  33.033  36.729  1.00  0.00     0.124 S 
ATOM     87  O   UNL A   1      38.457  34.253  37.245  1.00  0.00    -0.237 OA
ATOM     88  O   UNL A   1      36.449  33.138  36.327  1.00  0.00    -0.237 OA
ATOM     89  O   UNL A   1      38.181  31.805  37.447  1.00  0.00    -0.744 OA
ENDBRANCH  85  86
ENDBRANCH  57  80
BRANCH  69  90
ATOM     90  C   UNL A   1      44.726  26.387  33.815  1.00  0.00    -0.014 A 
ATOM     91  C   UNL A   1      43.913  25.364  34.328  1.00  0.00     0.010 A 
ATOM     92  C   UNL A   1      46.113  26.294  34.088  1.00  0.00     0.010 A 
ATOM     93  C   UNL A   1      44.437  24.360  35.151  1.00  0.00     0.020 A 
ATOM     94  C   UNL A   1      46.657  25.260  34.852  1.00  0.00     0.020 A 
ATOM     95  C   UNL A   1      45.806  24.320  35.416  1.00  0.00     0.054 A 
BRANCH  95  96
ATOM     96  S   UNL A   1      46.469  23.013  36.473  1.00  0.00     0.124 S 
ATOM     97  O   UNL A   1      47.829  23.489  36.715  1.00  0.00    -0.237 OA
ATOM     98  O   UNL A   1      45.579  23.046  37.631  1.00  0.00    -0.237 OA
ATOM     99  O   UNL A   1      46.362  21.814  35.647  1.00  0.00    -0.744 OA
ENDBRANCH  95  96
ENDBRANCH  69  90
ENDBRANCH  43  44
ENDBRANCH  35  38
ENDBRANCH  33  34
ENDBRANCH  32  33
ENDBRANCH  31  32
ENDBRANCH   1  31
TORSDOF 19
ENDMDL
MODEL 3
REMARK VINA RESULT:     -11.7      3.627     12.474
REMARK SMILES Cc1ccccc1NC(=S)NN1C(=O)CS[C@H]1c1ccccc1C(=O)NCCCCNC(=O)c1ccc(-c2c3nc(c(-c4ccc(S(=O)(=O)[O-])cc4)c4ccc([nH]4)c(-c4ccc(S(=O)(=O)[O-])cc4)c4nc(c(-c5ccc(S(=O)(=O)[O-])cc5)c5ccc2[nH]5)C=C4)C=C3)cc1
REMARK SMILES IDX 27 1 26 2 24 3 25 4 23 6 18 7 19 8 20 9 22 10 21 11 17 12
REMARK SMILES IDX 12 13 13 14 14 15 15 16 16 17 11 18 9 20 10 21 8 22 7 24
REMARK SMILES IDX 1 25 2 26 3 27 4 28 6 29 5 30 28 31 29 32 30 33 31 34 32 35
REMARK SMILES IDX 33 37 34 38 35 39 93 40 36 41 92 42 37 43 38 44 39 45 86 46
REMARK SMILES IDX 40 47 91 48 85 49 87 50 41 51 90 52 84 53 83 54 42 56 72 57
REMARK SMILES IDX 53 58 71 59 54 60 57 61 70 62 88 63 55 64 56 65 69 67 89 68
REMARK SMILES IDX 58 69 43 70 44 71 52 72 45 73 51 74 46 75 47 76 48 77 49 78
REMARK SMILES IDX 50 79 73 80 74 81 82 82 75 83 81 84 76 85 77 86 78 87 79 88
REMARK SMILES IDX 80 89 59 90 60 91 68 92 61 93 67 94 62 95 63 96 64 97 65 98
REMARK SMILES IDX 66 99
REMARK H PARENT 26 5 11 19 8 23 31 36 87 55 57 66
REMARK Flexibility Score: inf
ROOT
ATOM      1  C   UNL A   1      42.855  34.685  30.688  1.00  0.00     0.116 C 
ENDROOT
BRANCH   1   2
ATOM      2  N   UNL A   1      43.544  36.138  30.850  1.00  0.00    -0.352 N 
ATOM      3  C   UNL A   1      44.026  37.012  29.934  1.00  0.00     0.251 C 
ATOM      4  O   UNL A   1      44.648  38.020  30.236  1.00  0.00    -0.269 OA
ATOM      5  H   UNL A   1      43.628  36.442  31.782  1.00  0.00     0.163 HD
BRANCH   3   6
ATOM      6  C   UNL A   1      43.658  36.726  28.556  1.00  0.00     0.046 A 
ATOM      7  C   UNL A   1      44.471  35.895  27.771  1.00  0.00    -0.001 A 
ATOM      8  C   UNL A   1      43.774  35.201  26.747  1.00  0.00     0.007 A 
ATOM      9  C   UNL A   1      42.394  35.421  26.493  1.00  0.00     0.000 A 
ATOM     10  C   UNL A   1      42.317  37.038  28.239  1.00  0.00     0.014 A 
ATOM     11  C   UNL A   1      41.681  36.386  27.198  1.00  0.00     0.001 A 
BRANCH   7  12
ATOM     12  C   UNL A   1      46.024  35.612  28.134  1.00  0.00     0.197 C 
ATOM     13  N   UNL A   1      46.724  33.847  28.108  1.00  0.00    -0.236 N 
ATOM     14  C   UNL A   1      47.584  33.265  26.641  1.00  0.00     0.252 C 
ATOM     15  O   UNL A   1      47.391  32.110  26.237  1.00  0.00    -0.272 OA
ATOM     16  C   UNL A   1      48.174  34.847  25.484  1.00  0.00     0.174 C 
ATOM     17  S   UNL A   1      47.129  36.795  26.404  1.00  0.00    -0.120 SA
BRANCH  13  18
ATOM     18  N   UNL A   1      46.551  32.950  29.173  1.00  0.00    -0.270 N 
ATOM     19  H   UNL A   1      45.812  32.301  29.109  1.00  0.00     0.191 HD
BRANCH  18  20
ATOM     20  C   UNL A   1      47.338  32.909  30.301  1.00  0.00     0.189 C 
ATOM     21  S   UNL A   1      48.883  33.560  30.136  1.00  0.00    -0.039 S 
BRANCH  20  22
ATOM     22  N   UNL A   1      46.963  32.445  31.549  1.00  0.00    -0.331 N 
ATOM     23  H   UNL A   1      47.037  31.471  31.669  1.00  0.00     0.169 HD
BRANCH  22  24
ATOM     24  C   UNL A   1      46.484  33.163  32.695  1.00  0.00     0.043 A 
ATOM     25  C   UNL A   1      46.145  30.916  34.249  1.00  0.00     0.046 C 
ATOM     26  C   UNL A   1      45.472  32.209  33.807  1.00  0.00    -0.028 A 
ATOM     27  C   UNL A   1      44.287  33.036  34.880  1.00  0.00     0.005 A 
ATOM     28  C   UNL A   1      44.176  34.831  34.930  1.00  0.00     0.000 A 
ATOM     29  C   UNL A   1      46.463  34.986  32.831  1.00  0.00     0.026 A 
ATOM     30  C   UNL A   1      45.242  35.819  33.872  1.00  0.00     0.002 A 
ENDBRANCH  22  24
ENDBRANCH  20  22
ENDBRANCH  18  20
ENDBRANCH  13  18
ENDBRANCH   7  12
ENDBRANCH   3   6
ENDBRANCH   1   2
BRANCH   1  31
ATOM     31  C   UNL A   1      40.706  34.215  30.683  1.00  0.00     0.023 C 
BRANCH  31  32
ATOM     32  C   UNL A   1      39.080  34.370  29.583  1.00  0.00     0.023 C 
BRANCH  32  33
ATOM     33  C   UNL A   1      37.302  33.336  28.784  1.00  0.00     0.116 C 
BRANCH  33  34
ATOM     34  N   UNL A   1      36.241  32.214  29.441  1.00  0.00    -0.352 N 
ATOM     35  C   UNL A   1      35.707  31.168  28.682  1.00  0.00     0.251 C 
ATOM     36  H   UNL A   1      35.987  32.295  30.388  1.00  0.00     0.163 HD
ATOM     37  O   UNL A   1      34.973  31.265  27.711  1.00  0.00    -0.269 OA
BRANCH  35  38
ATOM     38  C   UNL A   1      36.511  29.940  28.906  1.00  0.00     0.039 A 
ATOM     39  C   UNL A   1      36.659  29.371  30.178  1.00  0.00     0.014 A 
ATOM     40  C   UNL A   1      37.551  29.932  27.982  1.00  0.00     0.014 A 
ATOM     41  C   UNL A   1      37.923  28.937  30.572  1.00  0.00     0.010 A 
ATOM     42  C   UNL A   1      38.817  29.779  28.472  1.00  0.00     0.010 A 
ATOM     43  C   UNL A   1      39.004  29.247  29.752  1.00  0.00    -0.014 A 
BRANCH  43  44
ATOM     44  C   UNL A   1      40.385  28.875  29.977  1.00  0.00     0.031 A 
ATOM     45  C   UNL A   1      40.753  27.527  29.488  1.00  0.00     0.074 A 
ATOM     46  C   UNL A   1      41.284  29.790  30.394  1.00  0.00     0.049 A 
ATOM     47  N   UNL A   1      41.860  26.937  29.752  1.00  0.00    -0.248 NA
ATOM     48  C   UNL A   1      39.851  26.697  28.674  1.00  0.00     0.031 C 
ATOM     49  C   UNL A   1      42.741  29.715  30.333  1.00  0.00     0.029 A 
ATOM     50  N   UNL A   1      41.032  30.907  31.188  1.00  0.00    -0.354 N 
ATOM     51  C   UNL A   1      41.945  25.844  28.919  1.00  0.00     0.074 A 
ATOM     52  C   UNL A   1      40.640  25.675  28.346  1.00  0.00     0.031 C 
ATOM     53  C   UNL A   1      43.258  30.549  31.255  1.00  0.00     0.029 A 
ATOM     54  C   UNL A   1      42.145  31.068  32.037  1.00  0.00     0.049 A 
ATOM     55  H   UNL A   1      40.230  31.477  31.160  1.00  0.00     0.167 HD
ATOM     56  C   UNL A   1      43.167  25.298  28.706  1.00  0.00     0.031 A 
ATOM     57  C   UNL A   1      41.989  30.851  33.380  1.00  0.00     0.031 A 
ATOM     58  C   UNL A   1      44.113  25.796  29.699  1.00  0.00     0.049 A 
ATOM     59  C   UNL A   1      42.706  29.602  33.861  1.00  0.00     0.074 A 
ATOM     60  C   UNL A   1      45.097  26.767  29.662  1.00  0.00     0.029 A 
ATOM     61  N   UNL A   1      43.826  25.572  31.044  1.00  0.00    -0.354 N 
ATOM     62  N   UNL A   1      43.116  28.637  33.081  1.00  0.00    -0.248 NA
ATOM     63  C   UNL A   1      43.031  29.355  35.263  1.00  0.00     0.031 C 
ATOM     64  C   UNL A   1      45.278  27.238  30.996  1.00  0.00     0.029 A 
ATOM     65  C   UNL A   1      44.454  26.511  31.840  1.00  0.00     0.049 A 
ATOM     66  H   UNL A   1      43.255  24.844  31.380  1.00  0.00     0.167 HD
ATOM     67  C   UNL A   1      43.721  27.662  33.827  1.00  0.00     0.074 A 
ATOM     68  C   UNL A   1      43.656  28.167  35.188  1.00  0.00     0.031 C 
ATOM     69  C   UNL A   1      44.224  26.513  33.282  1.00  0.00     0.031 A 
BRANCH  56  70
ATOM     70  C   UNL A   1      43.537  24.500  27.482  1.00  0.00    -0.014 A 
ATOM     71  C   UNL A   1      43.316  23.111  27.486  1.00  0.00     0.010 A 
ATOM     72  C   UNL A   1      44.222  25.019  26.360  1.00  0.00     0.010 A 
ATOM     73  C   UNL A   1      43.758  22.287  26.439  1.00  0.00     0.020 A 
ATOM     74  C   UNL A   1      44.643  24.213  25.293  1.00  0.00     0.020 A 
ATOM     75  C   UNL A   1      44.419  22.845  25.346  1.00  0.00     0.054 A 
BRANCH  75  76
ATOM     76  S   UNL A   1      44.993  21.766  24.010  1.00  0.00     0.124 S 
ATOM     77  O   UNL A   1      44.460  20.466  24.408  1.00  0.00    -0.237 OA
ATOM     78  O   UNL A   1      44.378  22.369  22.832  1.00  0.00    -0.237 OA
ATOM     79  O   UNL A   1      46.450  21.882  24.071  1.00  0.00    -0.744 OA
ENDBRANCH  75  76
ENDBRANCH  56  70
BRANCH  57  80
ATOM     80  C   UNL A   1      40.673  31.358  33.889  1.00  0.00    -0.014 A 
ATOM     81  C   UNL A   1      39.728  30.390  34.296  1.00  0.00     0.010 A 
ATOM     82  C   UNL A   1      40.556  32.666  34.396  1.00  0.00     0.010 A 
ATOM     83  C   UNL A   1      38.818  30.666  35.323  1.00  0.00     0.020 A 
ATOM     84  C   UNL A   1      39.634  32.947  35.419  1.00  0.00     0.020 A 
ATOM     85  C   UNL A   1      38.818  31.927  35.917  1.00  0.00     0.054 A 
BRANCH  85  86
ATOM     86  S   UNL A   1      37.954  32.127  37.508  1.00  0.00     0.124 S 
ATOM     87  O   UNL A   1      37.320  30.827  37.685  1.00  0.00    -0.237 OA
ATOM     88  O   UNL A   1      39.056  32.426  38.422  1.00  0.00    -0.237 OA
ATOM     89  O   UNL A   1      37.051  33.249  37.267  1.00  0.00    -0.744 OA
ENDBRANCH  85  86
ENDBRANCH  57  80
BRANCH  69  90
ATOM     90  C   UNL A   1      44.613  25.281  34.071  1.00  0.00    -0.014 A 
ATOM     91  C   UNL A   1      43.691  24.396  34.651  1.00  0.00     0.010 A 
ATOM     92  C   UNL A   1      45.978  24.908  34.132  1.00  0.00     0.010 A 
ATOM     93  C   UNL A   1      44.114  23.253  35.342  1.00  0.00     0.020 A 
ATOM     94  C   UNL A   1      46.406  23.737  34.760  1.00  0.00     0.020 A 
ATOM     95  C   UNL A   1      45.471  22.937  35.400  1.00  0.00     0.054 A 
BRANCH  95  96
ATOM     96  S   UNL A   1      46.000  21.454  36.288  1.00  0.00     0.124 S 
ATOM     97  O   UNL A   1      45.265  20.407  35.582  1.00  0.00    -0.237 OA
ATOM     98  O   UNL A   1      47.447  21.449  36.083  1.00  0.00    -0.237 OA
ATOM     99  O   UNL A   1      45.573  21.704  37.662  1.00  0.00    -0.744 OA
ENDBRANCH  95  96
ENDBRANCH  69  90
ENDBRANCH  43  44
ENDBRANCH  35  38
ENDBRANCH  33  34
ENDBRANCH  32  33
ENDBRANCH  31  32
ENDBRANCH   1  31
TORSDOF 19
ENDMDL
