MODEL 1
REMARK VINA RESULT:     -10.5      0.000      0.000
REMARK SMILES CC[C@H]1CC[C@](O)([C@H](F)C(=O)NCCCCNC(=O)c2ccc(-c3c4nc(c(-c5ccc(S(=O)(=O)[O-])cc5)c5ccc([nH]5)c(-c5ccc(S(=O)(=O)[O-])cc5)c5nc(c(-c6ccc(S(=O)(=O)[O-])cc6)c6ccc3[nH]6)C=C5)C=C4)cc2)CC1
REMARK SMILES IDX 15 1 14 2 13 3 12 4 10 5 11 6 8 8 9 9 6 10 3 11 4 12 81 13
REMARK SMILES IDX 5 14 80 15 2 16 1 17 7 18 16 20 17 21 18 22 19 24 20 25
REMARK SMILES IDX 21 26 79 27 22 28 78 29 23 30 24 31 25 32 72 33 26 34 77 35
REMARK SMILES IDX 71 36 73 37 27 38 76 39 70 40 69 41 28 43 58 44 39 45 57 46
REMARK SMILES IDX 40 47 43 48 56 49 74 50 41 51 42 52 55 54 75 55 44 56 29 57
REMARK SMILES IDX 30 58 38 59 31 60 37 61 32 62 33 63 34 64 35 65 36 66 59 67
REMARK SMILES IDX 60 68 68 69 61 70 67 71 62 72 63 73 64 74 65 75 66 76 45 77
REMARK SMILES IDX 46 78 54 79 47 80 53 81 48 82 49 83 50 84 51 85 52 86
REMARK H PARENT 12 7 7 19 17 23 73 42 43 53
REMARK Flexibility Score: inf
ROOT
ATOM      1  C   UNL A   1      40.757  20.231  26.997  1.00  0.00     0.023 C 
ENDROOT
BRANCH   1   2
ATOM      2  C   UNL A   1      41.544  19.251  26.125  1.00  0.00     0.023 C 
BRANCH   2   3
ATOM      3  C   UNL A   1      43.042  19.513  26.100  1.00  0.00     0.116 C 
BRANCH   3   4
ATOM      4  N   UNL A   1      43.667  19.032  24.882  1.00  0.00    -0.353 N 
ATOM      5  C   UNL A   1      44.720  19.571  24.198  1.00  0.00     0.257 C 
ATOM      6  O   UNL A   1      45.127  18.979  23.195  1.00  0.00    -0.272 OA
ATOM      7  H   UNL A   1      43.281  18.212  24.498  1.00  0.00     0.163 HD
BRANCH   5   8
ATOM      8  C   UNL A   1      45.399  20.841  24.700  1.00  0.00     0.286 C 
ATOM      9  F   UNL A   1      46.762  20.743  24.565  1.00  0.00    -0.234 F 
BRANCH   8  10
ATOM     10  C   UNL A   1      44.893  22.193  24.088  1.00  0.00     0.105 C 
ATOM     11  C   UNL A   1      45.139  24.554  25.988  1.00  0.00    -0.011 C 
ATOM     12  C   UNL A   1      46.354  23.824  25.399  1.00  0.00     0.006 C 
ATOM     13  C   UNL A   1      43.943  23.590  26.074  1.00  0.00     0.006 C 
ATOM     14  C   UNL A   1      46.050  23.215  24.035  1.00  0.00     0.039 C 
ATOM     15  C   UNL A   1      43.669  22.874  24.747  1.00  0.00     0.039 C 
BRANCH  11  16
ATOM     16  C   UNL A   1      44.731  25.837  25.229  1.00  0.00    -0.000 C 
ATOM     17  C   UNL A   1      44.189  26.952  26.108  1.00  0.00     0.004 C 
ENDBRANCH  11  16
BRANCH  10  18
ATOM     18  O   UNL A   1      44.528  21.930  22.711  1.00  0.00    -0.386 OA
ATOM     19  H   UNL A   1      44.576  22.755  22.201  1.00  0.00     0.211 HD
ENDBRANCH  10  18
ENDBRANCH   8  10
ENDBRANCH   5   8
ENDBRANCH   3   4
ENDBRANCH   2   3
ENDBRANCH   1   2
BRANCH   1  20
ATOM     20  C   UNL A   1      40.706  21.666  26.480  1.00  0.00     0.116 C 
BRANCH  20  21
ATOM     21  N   UNL A   1      39.440  21.986  25.837  1.00  0.00    -0.352 N 
ATOM     22  C   UNL A   1      38.662  23.109  25.969  1.00  0.00     0.251 C 
ATOM     23  H   UNL A   1      39.095  21.302  25.220  1.00  0.00     0.163 HD
ATOM     24  O   UNL A   1      37.534  23.133  25.479  1.00  0.00    -0.269 OA
BRANCH  22  25
ATOM     25  C   UNL A   1      39.172  24.271  26.721  1.00  0.00     0.039 A 
ATOM     26  C   UNL A   1      39.980  25.200  26.063  1.00  0.00     0.014 A 
ATOM     27  C   UNL A   1      38.847  24.451  28.070  1.00  0.00     0.014 A 
ATOM     28  C   UNL A   1      40.418  26.337  26.743  1.00  0.00     0.010 A 
ATOM     29  C   UNL A   1      39.213  25.627  28.719  1.00  0.00     0.010 A 
ATOM     30  C   UNL A   1      40.012  26.578  28.068  1.00  0.00    -0.014 A 
BRANCH  30  31
ATOM     31  C   UNL A   1      40.431  27.813  28.779  1.00  0.00     0.031 A 
ATOM     32  C   UNL A   1      41.808  27.908  29.385  1.00  0.00     0.074 A 
ATOM     33  C   UNL A   1      39.563  28.837  28.907  1.00  0.00     0.049 A 
ATOM     34  N   UNL A   1      42.354  28.905  30.033  1.00  0.00    -0.248 NA
ATOM     35  C   UNL A   1      42.680  26.726  29.268  1.00  0.00     0.031 C 
ATOM     36  C   UNL A   1      38.186  28.851  28.406  1.00  0.00     0.029 A 
ATOM     37  N   UNL A   1      39.710  30.070  29.494  1.00  0.00    -0.354 N 
ATOM     38  C   UNL A   1      43.616  28.465  30.414  1.00  0.00     0.074 A 
ATOM     39  C   UNL A   1      43.742  27.097  29.967  1.00  0.00     0.031 C 
ATOM     40  C   UNL A   1      37.632  30.045  28.668  1.00  0.00     0.029 A 
ATOM     41  C   UNL A   1      38.593  30.868  29.395  1.00  0.00     0.049 A 
ATOM     42  H   UNL A   1      40.537  30.357  29.943  1.00  0.00     0.167 HD
ATOM     43  C   UNL A   1      44.592  29.147  31.060  1.00  0.00     0.031 A 
ATOM     44  C   UNL A   1      38.368  32.120  29.839  1.00  0.00     0.031 A 
ATOM     45  C   UNL A   1      44.474  30.517  31.478  1.00  0.00     0.049 A 
ATOM     46  C   UNL A   1      39.471  32.849  30.561  1.00  0.00     0.074 A 
ATOM     47  C   UNL A   1      45.436  31.318  32.069  1.00  0.00     0.029 A 
ATOM     48  N   UNL A   1      43.329  31.289  31.359  1.00  0.00    -0.354 N 
ATOM     49  N   UNL A   1      40.692  32.448  30.822  1.00  0.00    -0.248 NA
ATOM     50  C   UNL A   1      39.170  34.208  31.035  1.00  0.00     0.031 C 
ATOM     51  C   UNL A   1      44.852  32.552  32.369  1.00  0.00     0.029 A 
ATOM     52  C   UNL A   1      43.550  32.544  31.898  1.00  0.00     0.049 A 
ATOM     53  H   UNL A   1      42.484  30.988  30.952  1.00  0.00     0.167 HD
ATOM     54  C   UNL A   1      41.313  33.516  31.460  1.00  0.00     0.074 A 
ATOM     55  C   UNL A   1      40.341  34.587  31.525  1.00  0.00     0.031 C 
ATOM     56  C   UNL A   1      42.576  33.604  31.946  1.00  0.00     0.031 A 
BRANCH  43  57
ATOM     57  C   UNL A   1      45.881  28.428  31.362  1.00  0.00    -0.014 A 
ATOM     58  C   UNL A   1      46.983  28.509  30.493  1.00  0.00     0.010 A 
ATOM     59  C   UNL A   1      46.019  27.738  32.581  1.00  0.00     0.010 A 
ATOM     60  C   UNL A   1      48.195  27.898  30.829  1.00  0.00     0.020 A 
ATOM     61  C   UNL A   1      47.237  27.150  32.934  1.00  0.00     0.020 A 
ATOM     62  C   UNL A   1      48.316  27.228  32.051  1.00  0.00     0.054 A 
BRANCH  62  63
ATOM     63  S   UNL A   1      49.920  26.505  32.489  1.00  0.00     0.124 S 
ATOM     64  O   UNL A   1      50.079  26.942  33.874  1.00  0.00    -0.237 OA
ATOM     65  O   UNL A   1      49.687  25.075  32.304  1.00  0.00    -0.237 OA
ATOM     66  O   UNL A   1      50.848  27.110  31.538  1.00  0.00    -0.744 OA
ENDBRANCH  62  63
ENDBRANCH  43  57
BRANCH  44  67
ATOM     67  C   UNL A   1      37.047  32.777  29.619  1.00  0.00    -0.014 A 
ATOM     68  C   UNL A   1      36.754  33.406  28.395  1.00  0.00     0.010 A 
ATOM     69  C   UNL A   1      36.091  32.815  30.650  1.00  0.00     0.010 A 
ATOM     70  C   UNL A   1      35.552  34.101  28.225  1.00  0.00     0.020 A 
ATOM     71  C   UNL A   1      34.873  33.477  30.471  1.00  0.00     0.020 A 
ATOM     72  C   UNL A   1      34.621  34.136  29.267  1.00  0.00     0.054 A 
BRANCH  72  73
ATOM     73  S   UNL A   1      33.069  35.044  29.025  1.00  0.00     0.124 S 
ATOM     74  O   UNL A   1      33.548  36.349  28.582  1.00  0.00    -0.237 OA
ATOM     75  O   UNL A   1      32.388  34.241  28.013  1.00  0.00    -0.237 OA
ATOM     76  O   UNL A   1      32.450  35.020  30.349  1.00  0.00    -0.744 OA
ENDBRANCH  72  73
ENDBRANCH  44  67
BRANCH  56  77
ATOM     77  C   UNL A   1      42.999  34.917  32.552  1.00  0.00    -0.014 A 
ATOM     78  C   UNL A   1      43.615  35.917  31.780  1.00  0.00     0.010 A 
ATOM     79  C   UNL A   1      42.720  35.172  33.908  1.00  0.00     0.010 A 
ATOM     80  C   UNL A   1      43.978  37.135  32.363  1.00  0.00     0.020 A 
ATOM     81  C   UNL A   1      43.049  36.401  34.484  1.00  0.00     0.020 A 
ATOM     82  C   UNL A   1      43.690  37.370  33.711  1.00  0.00     0.054 A 
BRANCH  82  83
ATOM     83  S   UNL A   1      44.131  38.975  34.429  1.00  0.00     0.124 S 
ATOM     84  O   UNL A   1      44.088  38.691  35.861  1.00  0.00    -0.237 OA
ATOM     85  O   UNL A   1      45.461  39.218  33.876  1.00  0.00    -0.237 OA
ATOM     86  O   UNL A   1      43.086  39.872  33.941  1.00  0.00    -0.744 OA
ENDBRANCH  82  83
ENDBRANCH  56  77
ENDBRANCH  30  31
ENDBRANCH  22  25
ENDBRANCH  20  21
ENDBRANCH   1  20
TORSDOF 17
ENDMDL
MODEL 2
REMARK VINA RESULT:      -9.9      3.932     10.579
REMARK SMILES CC[C@H]1CC[C@](O)([C@H](F)C(=O)NCCCCNC(=O)c2ccc(-c3c4nc(c(-c5ccc(S(=O)(=O)[O-])cc5)c5ccc([nH]5)c(-c5ccc(S(=O)(=O)[O-])cc5)c5nc(c(-c6ccc(S(=O)(=O)[O-])cc6)c6ccc3[nH]6)C=C5)C=C4)cc2)CC1
REMARK SMILES IDX 15 1 14 2 13 3 12 4 10 5 11 6 8 8 9 9 6 10 3 11 4 12 81 13
REMARK SMILES IDX 5 14 80 15 2 16 1 17 7 18 16 20 17 21 18 22 19 24 20 25
REMARK SMILES IDX 21 26 79 27 22 28 78 29 23 30 24 31 25 32 72 33 26 34 77 35
REMARK SMILES IDX 71 36 73 37 27 38 76 39 70 40 69 41 28 43 58 44 39 45 57 46
REMARK SMILES IDX 40 47 43 48 56 49 74 50 41 51 42 52 55 54 75 55 44 56 29 57
REMARK SMILES IDX 30 58 38 59 31 60 37 61 32 62 33 63 34 64 35 65 36 66 59 67
REMARK SMILES IDX 60 68 68 69 61 70 67 71 62 72 63 73 64 74 65 75 66 76 45 77
REMARK SMILES IDX 46 78 54 79 47 80 53 81 48 82 49 83 50 84 51 85 52 86
REMARK H PARENT 12 7 7 19 17 23 73 42 43 53
REMARK Flexibility Score: inf
ROOT
ATOM      1  C   UNL A   1      32.880  27.906  25.883  1.00  0.00     0.023 C 
ENDROOT
BRANCH   1   2
ATOM      2  C   UNL A   1      31.446  27.376  25.914  1.00  0.00     0.023 C 
BRANCH   2   3
ATOM      3  C   UNL A   1      31.349  25.859  25.974  1.00  0.00     0.116 C 
BRANCH   3   4
ATOM      4  N   UNL A   1      30.770  25.294  24.770  1.00  0.00    -0.353 N 
ATOM      5  C   UNL A   1      31.065  24.107  24.161  1.00  0.00     0.257 C 
ATOM      6  O   UNL A   1      30.423  23.792  23.156  1.00  0.00    -0.272 OA
ATOM      7  H   UNL A   1      30.073  25.837  24.334  1.00  0.00     0.163 HD
BRANCH   5   8
ATOM      8  C   UNL A   1      32.127  23.182  24.747  1.00  0.00     0.286 C 
ATOM      9  F   UNL A   1      31.656  21.894  24.816  1.00  0.00    -0.234 F 
BRANCH   8  10
ATOM     10  C   UNL A   1      33.533  23.204  24.053  1.00  0.00     0.105 C 
ATOM     11  C   UNL A   1      35.843  23.554  26.000  1.00  0.00    -0.011 C 
ATOM     12  C   UNL A   1      34.962  22.297  25.964  1.00  0.00     0.006 C 
ATOM     13  C   UNL A   1      35.040  24.767  25.497  1.00  0.00     0.006 C 
ATOM     14  C   UNL A   1      34.397  22.034  24.572  1.00  0.00     0.039 C 
ATOM     15  C   UNL A   1      34.366  24.506  24.145  1.00  0.00     0.039 C 
BRANCH  11  16
ATOM     16  C   UNL A   1      37.167  23.433  25.214  1.00  0.00    -0.000 C 
ATOM     17  C   UNL A   1      38.374  23.046  26.053  1.00  0.00     0.004 C 
ENDBRANCH  11  16
BRANCH  10  18
ATOM     18  O   UNL A   1      33.320  22.949  22.643  1.00  0.00    -0.386 OA
ATOM     19  H   UNL A   1      34.038  22.392  22.303  1.00  0.00     0.211 HD
ENDBRANCH  10  18
ENDBRANCH   8  10
ENDBRANCH   5   8
ENDBRANCH   3   4
ENDBRANCH   2   3
ENDBRANCH   1   2
BRANCH   1  20
ATOM     20  C   UNL A   1      33.440  28.342  27.234  1.00  0.00     0.116 C 
BRANCH  20  21
ATOM     21  N   UNL A   1      33.368  29.782  27.433  1.00  0.00    -0.352 N 
ATOM     22  C   UNL A   1      34.310  30.634  27.952  1.00  0.00     0.251 C 
ATOM     23  H   UNL A   1      32.523  30.205  27.155  1.00  0.00     0.163 HD
ATOM     24  O   UNL A   1      34.011  31.799  28.206  1.00  0.00    -0.269 OA
BRANCH  22  25
ATOM     25  C   UNL A   1      35.673  30.138  28.228  1.00  0.00     0.039 A 
ATOM     26  C   UNL A   1      36.625  30.177  27.207  1.00  0.00     0.014 A 
ATOM     27  C   UNL A   1      36.015  29.647  29.492  1.00  0.00     0.014 A 
ATOM     28  C   UNL A   1      37.935  29.773  27.471  1.00  0.00     0.010 A 
ATOM     29  C   UNL A   1      37.340  29.326  29.774  1.00  0.00     0.010 A 
ATOM     30  C   UNL A   1      38.312  29.373  28.765  1.00  0.00    -0.014 A 
BRANCH  30  31
ATOM     31  C   UNL A   1      39.717  28.992  29.063  1.00  0.00     0.031 A 
ATOM     32  C   UNL A   1      40.644  29.977  29.729  1.00  0.00     0.074 A 
ATOM     33  C   UNL A   1      40.168  27.772  28.707  1.00  0.00     0.049 A 
ATOM     34  N   UNL A   1      41.896  29.822  30.075  1.00  0.00    -0.248 NA
ATOM     35  C   UNL A   1      40.105  31.315  30.028  1.00  0.00     0.031 C 
ATOM     36  C   UNL A   1      39.384  26.746  28.014  1.00  0.00     0.029 A 
ATOM     37  N   UNL A   1      41.397  27.183  28.881  1.00  0.00    -0.354 N 
ATOM     38  C   UNL A   1      42.296  31.040  30.611  1.00  0.00     0.074 A 
ATOM     39  C   UNL A   1      41.171  31.941  30.504  1.00  0.00     0.031 C 
ATOM     40  C   UNL A   1      40.135  25.643  27.863  1.00  0.00     0.029 A 
ATOM     41  C   UNL A   1      41.466  25.894  28.404  1.00  0.00     0.049 A 
ATOM     42  H   UNL A   1      42.156  27.640  29.308  1.00  0.00     0.167 HD
ATOM     43  C   UNL A   1      43.487  31.374  31.163  1.00  0.00     0.031 A 
ATOM     44  C   UNL A   1      42.487  25.014  28.400  1.00  0.00     0.031 A 
ATOM     45  C   UNL A   1      44.595  30.467  31.294  1.00  0.00     0.049 A 
ATOM     46  C   UNL A   1      43.801  25.418  29.015  1.00  0.00     0.074 A 
ATOM     47  C   UNL A   1      45.814  30.688  31.909  1.00  0.00     0.029 A 
ATOM     48  N   UNL A   1      44.625  29.172  30.798  1.00  0.00    -0.354 N 
ATOM     49  N   UNL A   1      44.125  26.543  29.606  1.00  0.00    -0.248 NA
ATOM     50  C   UNL A   1      44.885  24.426  28.976  1.00  0.00     0.031 C 
ATOM     51  C   UNL A   1      46.608  29.551  31.727  1.00  0.00     0.029 A 
ATOM     52  C   UNL A   1      45.856  28.597  31.063  1.00  0.00     0.049 A 
ATOM     53  H   UNL A   1      43.882  28.730  30.329  1.00  0.00     0.167 HD
ATOM     54  C   UNL A   1      45.437  26.380  30.038  1.00  0.00     0.074 A 
ATOM     55  C   UNL A   1      45.839  25.041  29.659  1.00  0.00     0.031 C 
ATOM     56  C   UNL A   1      46.237  27.259  30.691  1.00  0.00     0.031 A 
BRANCH  43  57
ATOM     57  C   UNL A   1      43.666  32.781  31.670  1.00  0.00    -0.014 A 
ATOM     58  C   UNL A   1      44.259  33.775  30.872  1.00  0.00     0.010 A 
ATOM     59  C   UNL A   1      43.148  33.134  32.930  1.00  0.00     0.010 A 
ATOM     60  C   UNL A   1      44.346  35.093  31.331  1.00  0.00     0.020 A 
ATOM     61  C   UNL A   1      43.208  34.455  33.382  1.00  0.00     0.020 A 
ATOM     62  C   UNL A   1      43.814  35.425  32.580  1.00  0.00     0.054 A 
BRANCH  62  63
ATOM     63  S   UNL A   1      43.880  37.155  33.119  1.00  0.00     0.124 S 
ATOM     64  O   UNL A   1      43.792  37.870  31.849  1.00  0.00    -0.237 OA
ATOM     65  O   UNL A   1      42.708  37.265  33.984  1.00  0.00    -0.237 OA
ATOM     66  O   UNL A   1      45.167  37.259  33.802  1.00  0.00    -0.744 OA
ENDBRANCH  62  63
ENDBRANCH  43  57
BRANCH  44  67
ATOM     67  C   UNL A   1      42.319  23.659  27.800  1.00  0.00    -0.014 A 
ATOM     68  C   UNL A   1      41.857  22.582  28.578  1.00  0.00     0.010 A 
ATOM     69  C   UNL A   1      42.662  23.430  26.456  1.00  0.00     0.010 A 
ATOM     70  C   UNL A   1      41.790  21.294  28.037  1.00  0.00     0.020 A 
ATOM     71  C   UNL A   1      42.561  22.151  25.900  1.00  0.00     0.020 A 
ATOM     72  C   UNL A   1      42.147  21.086  26.702  1.00  0.00     0.054 A 
BRANCH  72  73
ATOM     73  S   UNL A   1      42.053  19.408  26.021  1.00  0.00     0.124 S 
ATOM     74  O   UNL A   1      42.897  19.514  24.836  1.00  0.00    -0.237 OA
ATOM     75  O   UNL A   1      42.588  18.595  27.110  1.00  0.00    -0.237 OA
ATOM     76  O   UNL A   1      40.627  19.225  25.760  1.00  0.00    -0.744 OA
ENDBRANCH  72  73
ENDBRANCH  44  67
BRANCH  56  77
ATOM     77  C   UNL A   1      47.615  26.789  31.081  1.00  0.00    -0.014 A 
ATOM     78  C   UNL A   1      47.813  25.919  32.166  1.00  0.00     0.010 A 
ATOM     79  C   UNL A   1      48.723  27.184  30.308  1.00  0.00     0.010 A 
ATOM     80  C   UNL A   1      49.100  25.480  32.494  1.00  0.00     0.020 A 
ATOM     81  C   UNL A   1      50.005  26.721  30.611  1.00  0.00     0.020 A 
ATOM     82  C   UNL A   1      50.187  25.883  31.712  1.00  0.00     0.054 A 
BRANCH  82  83
ATOM     83  S   UNL A   1      51.838  25.264  32.132  1.00  0.00     0.124 S 
ATOM     84  O   UNL A   1      52.168  26.053  33.316  1.00  0.00    -0.237 OA
ATOM     85  O   UNL A   1      51.596  23.843  32.370  1.00  0.00    -0.237 OA
ATOM     86  O   UNL A   1      52.634  25.564  30.943  1.00  0.00    -0.744 OA
ENDBRANCH  82  83
ENDBRANCH  56  77
ENDBRANCH  30  31
ENDBRANCH  22  25
ENDBRANCH  20  21
ENDBRANCH   1  20
TORSDOF 17
ENDMDL
MODEL 3
REMARK VINA RESULT:      -9.8      3.681      6.183
REMARK SMILES CC[C@H]1CC[C@](O)([C@H](F)C(=O)NCCCCNC(=O)c2ccc(-c3c4nc(c(-c5ccc(S(=O)(=O)[O-])cc5)c5ccc([nH]5)c(-c5ccc(S(=O)(=O)[O-])cc5)c5nc(c(-c6ccc(S(=O)(=O)[O-])cc6)c6ccc3[nH]6)C=C5)C=C4)cc2)CC1
REMARK SMILES IDX 15 1 14 2 13 3 12 4 10 5 11 6 8 8 9 9 6 10 3 11 4 12 81 13
REMARK SMILES IDX 5 14 80 15 2 16 1 17 7 18 16 20 17 21 18 22 19 24 20 25
REMARK SMILES IDX 21 26 79 27 22 28 78 29 23 30 24 31 25 32 72 33 26 34 77 35
REMARK SMILES IDX 71 36 73 37 27 38 76 39 70 40 69 41 28 43 58 44 39 45 57 46
REMARK SMILES IDX 40 47 43 48 56 49 74 50 41 51 42 52 55 54 75 55 44 56 29 57
REMARK SMILES IDX 30 58 38 59 31 60 37 61 32 62 33 63 34 64 35 65 36 66 59 67
REMARK SMILES IDX 60 68 68 69 61 70 67 71 62 72 63 73 64 74 65 75 66 76 45 77
REMARK SMILES IDX 46 78 54 79 47 80 53 81 48 82 49 83 50 84 51 85 52 86
REMARK H PARENT 12 7 7 19 17 23 73 42 43 53
REMARK Flexibility Score: inf
ROOT
ATOM      1  C   UNL A   1      35.920  24.113  25.798  1.00  0.00     0.023 C 
ENDROOT
BRANCH   1   2
ATOM      2  C   UNL A   1      34.784  23.099  25.941  1.00  0.00     0.023 C 
BRANCH   2   3
ATOM      3  C   UNL A   1      33.479  23.539  25.295  1.00  0.00     0.116 C 
BRANCH   3   4
ATOM      4  N   UNL A   1      33.567  23.584  23.848  1.00  0.00    -0.353 N 
ATOM      5  C   UNL A   1      33.451  24.667  23.023  1.00  0.00     0.257 C 
ATOM      6  O   UNL A   1      33.597  24.495  21.810  1.00  0.00    -0.272 OA
ATOM      7  H   UNL A   1      33.732  22.722  23.402  1.00  0.00     0.163 HD
BRANCH   5   8
ATOM      8  C   UNL A   1      33.195  26.055  23.602  1.00  0.00     0.286 C 
ATOM      9  F   UNL A   1      34.331  26.542  24.202  1.00  0.00    -0.234 F 
BRANCH   8  10
ATOM     10  C   UNL A   1      32.605  27.126  22.620  1.00  0.00     0.105 C 
ATOM     11  C   UNL A   1      30.190  28.598  23.737  1.00  0.00    -0.011 C 
ATOM     12  C   UNL A   1      31.604  28.749  24.316  1.00  0.00     0.006 C 
ATOM     13  C   UNL A   1      30.041  27.213  23.083  1.00  0.00     0.006 C 
ATOM     14  C   UNL A   1      32.681  28.529  23.260  1.00  0.00     0.039 C 
ATOM     15  C   UNL A   1      31.167  26.907  22.090  1.00  0.00     0.039 C 
BRANCH  11  16
ATOM     16  C   UNL A   1      29.785  29.702  22.735  1.00  0.00    -0.000 C 
ATOM     17  C   UNL A   1      28.293  29.799  22.461  1.00  0.00     0.004 C 
ENDBRANCH  11  16
BRANCH  10  18
ATOM     18  O   UNL A   1      33.471  27.167  21.460  1.00  0.00    -0.386 OA
ATOM     19  H   UNL A   1      34.278  27.661  21.676  1.00  0.00     0.211 HD
ENDBRANCH  10  18
ENDBRANCH   8  10
ENDBRANCH   5   8
ENDBRANCH   3   4
ENDBRANCH   2   3
ENDBRANCH   1   2
BRANCH   1  20
ATOM     20  C   UNL A   1      37.009  23.731  24.799  1.00  0.00     0.116 C 
BRANCH  20  21
ATOM     21  N   UNL A   1      37.870  22.664  25.289  1.00  0.00    -0.352 N 
ATOM     22  C   UNL A   1      38.974  22.745  26.100  1.00  0.00     0.251 C 
ATOM     23  H   UNL A   1      37.626  21.757  24.997  1.00  0.00     0.163 HD
ATOM     24  O   UNL A   1      39.683  21.755  26.271  1.00  0.00    -0.269 OA
BRANCH  22  25
ATOM     25  C   UNL A   1      39.319  24.028  26.743  1.00  0.00     0.039 A 
ATOM     26  C   UNL A   1      38.902  24.260  28.054  1.00  0.00     0.014 A 
ATOM     27  C   UNL A   1      40.061  24.996  26.058  1.00  0.00     0.014 A 
ATOM     28  C   UNL A   1      39.275  25.441  28.698  1.00  0.00     0.010 A 
ATOM     29  C   UNL A   1      40.504  26.132  26.730  1.00  0.00     0.010 A 
ATOM     30  C   UNL A   1      40.106  26.374  28.053  1.00  0.00    -0.014 A 
BRANCH  30  31
ATOM     31  C   UNL A   1      40.550  27.608  28.752  1.00  0.00     0.031 A 
ATOM     32  C   UNL A   1      41.938  27.691  29.333  1.00  0.00     0.074 A 
ATOM     33  C   UNL A   1      39.694  28.641  28.891  1.00  0.00     0.049 A 
ATOM     34  N   UNL A   1      42.504  28.685  29.969  1.00  0.00    -0.248 NA
ATOM     35  C   UNL A   1      42.796  26.500  29.206  1.00  0.00     0.031 C 
ATOM     36  C   UNL A   1      38.309  28.666  28.414  1.00  0.00     0.029 A 
ATOM     37  N   UNL A   1      39.863  29.875  29.471  1.00  0.00    -0.354 N 
ATOM     38  C   UNL A   1      43.769  28.235  30.329  1.00  0.00     0.074 A 
ATOM     39  C   UNL A   1      43.874  26.863  29.886  1.00  0.00     0.031 C 
ATOM     40  C   UNL A   1      37.771  29.867  28.681  1.00  0.00     0.029 A 
ATOM     41  C   UNL A   1      38.752  30.683  29.387  1.00  0.00     0.049 A 
ATOM     42  H   UNL A   1      40.701  30.155  29.904  1.00  0.00     0.167 HD
ATOM     43  C   UNL A   1      44.762  28.909  30.956  1.00  0.00     0.031 A 
ATOM     44  C   UNL A   1      38.547  31.939  29.831  1.00  0.00     0.031 A 
ATOM     45  C   UNL A   1      44.665  30.282  31.370  1.00  0.00     0.049 A 
ATOM     46  C   UNL A   1      39.670  32.660  30.530  1.00  0.00     0.074 A 
ATOM     47  C   UNL A   1      45.645  31.075  31.941  1.00  0.00     0.029 A 
ATOM     48  N   UNL A   1      43.525  31.064  31.268  1.00  0.00    -0.354 N 
ATOM     49  N   UNL A   1      40.891  32.247  30.772  1.00  0.00    -0.248 NA
ATOM     50  C   UNL A   1      39.390  34.023  31.004  1.00  0.00     0.031 C 
ATOM     51  C   UNL A   1      45.078  32.317  32.246  1.00  0.00     0.029 A 
ATOM     52  C   UNL A   1      43.768  32.320  31.798  1.00  0.00     0.049 A 
ATOM     53  H   UNL A   1      42.671  30.770  30.877  1.00  0.00     0.167 HD
ATOM     54  C   UNL A   1      41.534  33.312  31.395  1.00  0.00     0.074 A 
ATOM     55  C   UNL A   1      40.573  34.393  31.473  1.00  0.00     0.031 C 
ATOM     56  C   UNL A   1      42.805  33.390  31.859  1.00  0.00     0.031 A 
BRANCH  43  57
ATOM     57  C   UNL A   1      46.049  28.178  31.238  1.00  0.00    -0.014 A 
ATOM     58  C   UNL A   1      46.239  27.473  32.439  1.00  0.00     0.010 A 
ATOM     59  C   UNL A   1      47.045  28.121  30.245  1.00  0.00     0.010 A 
ATOM     60  C   UNL A   1      47.410  26.737  32.649  1.00  0.00     0.020 A 
ATOM     61  C   UNL A   1      48.204  27.365  30.439  1.00  0.00     0.020 A 
ATOM     62  C   UNL A   1      48.381  26.683  31.645  1.00  0.00     0.054 A 
BRANCH  62  63
ATOM     63  S   UNL A   1      49.857  25.665  31.919  1.00  0.00     0.124 S 
ATOM     64  O   UNL A   1      49.386  24.717  32.926  1.00  0.00    -0.237 OA
ATOM     65  O   UNL A   1      50.106  25.102  30.594  1.00  0.00    -0.237 OA
ATOM     66  O   UNL A   1      50.858  26.620  32.386  1.00  0.00    -0.744 OA
ENDBRANCH  62  63
ENDBRANCH  43  57
BRANCH  44  67
ATOM     67  C   UNL A   1      37.229  32.608  29.631  1.00  0.00    -0.014 A 
ATOM     68  C   UNL A   1      36.938  33.275  28.427  1.00  0.00     0.010 A 
ATOM     69  C   UNL A   1      36.274  32.619  30.663  1.00  0.00     0.010 A 
ATOM     70  C   UNL A   1      35.740  33.980  28.278  1.00  0.00     0.020 A 
ATOM     71  C   UNL A   1      35.059  33.292  30.505  1.00  0.00     0.020 A 
ATOM     72  C   UNL A   1      34.809  33.988  29.321  1.00  0.00     0.054 A 
BRANCH  72  73
ATOM     73  S   UNL A   1      33.262  34.909  29.107  1.00  0.00     0.124 S 
ATOM     74  O   UNL A   1      33.742  36.198  28.622  1.00  0.00    -0.237 OA
ATOM     75  O   UNL A   1      32.540  34.094  28.133  1.00  0.00    -0.237 OA
ATOM     76  O   UNL A   1      32.683  34.921  30.449  1.00  0.00    -0.744 OA
ENDBRANCH  72  73
ENDBRANCH  44  67
BRANCH  56  77
ATOM     77  C   UNL A   1      43.252  34.701  32.453  1.00  0.00    -0.014 A 
ATOM     78  C   UNL A   1      43.136  34.960  33.829  1.00  0.00     0.010 A 
ATOM     79  C   UNL A   1      43.851  35.665  31.622  1.00  0.00     0.010 A 
ATOM     80  C   UNL A   1      43.579  36.176  34.358  1.00  0.00     0.020 A 
ATOM     81  C   UNL A   1      44.326  36.866  32.151  1.00  0.00     0.020 A 
ATOM     82  C   UNL A   1      44.174  37.120  33.515  1.00  0.00     0.054 A 
BRANCH  82  83
ATOM     83  S   UNL A   1      44.780  38.670  34.235  1.00  0.00     0.124 S 
ATOM     84  O   UNL A   1      46.005  38.902  33.474  1.00  0.00    -0.237 OA
ATOM     85  O   UNL A   1      43.684  39.598  33.962  1.00  0.00    -0.237 OA
ATOM     86  O   UNL A   1      44.976  38.344  35.646  1.00  0.00    -0.744 OA
ENDBRANCH  82  83
ENDBRANCH  56  77
ENDBRANCH  30  31
ENDBRANCH  22  25
ENDBRANCH  20  21
ENDBRANCH   1  20
TORSDOF 17
ENDMDL
