MODEL 1
REMARK VINA RESULT:     -11.5      0.000      0.000
REMARK SMILES C[C@]1(CNC(=O)N[C@H]2CC[C@@H](C(=O)NCCCCNC(=O)c3ccc(-c4c5nc(c(-c6ccc(S(=O)(=O)[O-])cc6)c6ccc([nH]6)c(-c6ccc(S(=O)(=O)[O-])cc6)c6nc(c(-c7ccc(S(=O)(=O)[O-])cc7)c7ccc4[nH]7)C=C6)C=C5)cc3)CC2)CCCO1
REMARK SMILES IDX 16 1 15 2 14 3 12 4 13 5 11 7 8 8 9 9 83 10 10 11 82 12 7 13
REMARK SMILES IDX 4 14 5 15 6 17 3 19 2 20 1 21 84 22 87 23 85 24 86 25 17 26
REMARK SMILES IDX 18 27 19 28 20 29 21 31 22 32 23 33 81 34 24 35 80 36 25 37
REMARK SMILES IDX 26 38 27 39 74 40 28 41 79 42 73 43 75 44 29 45 78 46 72 47
REMARK SMILES IDX 71 48 30 50 60 51 41 52 59 53 42 54 45 55 58 56 76 57 43 58
REMARK SMILES IDX 44 59 57 61 77 62 46 63 31 64 32 65 40 66 33 67 39 68 34 69
REMARK SMILES IDX 35 70 36 71 37 72 38 73 61 74 62 75 70 76 63 77 69 78 64 79
REMARK SMILES IDX 65 80 66 81 67 82 68 83 47 84 48 85 56 86 49 87 55 88 50 89
REMARK SMILES IDX 51 90 52 91 53 92 54 93
REMARK H PARENT 14 6 4 16 7 18 19 30 75 49 45 60
REMARK Flexibility Score: inf
ROOT
ATOM      1  C   UNL A   1      32.938  29.317  24.720  1.00  0.00     0.023 C 
ENDROOT
BRANCH   1   2
ATOM      2  C   UNL A   1      32.979  28.678  23.338  1.00  0.00     0.116 C 
BRANCH   2   3
ATOM      3  N   UNL A   1      33.662  27.405  23.265  1.00  0.00    -0.356 N 
ATOM      4  C   UNL A   1      33.096  26.295  22.703  1.00  0.00     0.223 C 
ATOM      5  O   UNL A   1      33.640  25.804  21.710  1.00  0.00    -0.275 OA
ATOM      6  H   UNL A   1      34.572  27.333  23.637  1.00  0.00     0.163 HD
BRANCH   4   7
ATOM      7  C   UNL A   1      31.893  25.595  23.351  1.00  0.00     0.078 C 
ATOM      8  C   UNL A   1      32.530  23.302  25.136  1.00  0.00     0.083 C 
ATOM      9  C   UNL A   1      32.222  24.646  25.770  1.00  0.00     0.026 C 
ATOM     10  C   UNL A   1      32.152  23.058  23.669  1.00  0.00     0.026 C 
ATOM     11  C   UNL A   1      31.761  25.785  24.861  1.00  0.00     0.015 C 
ATOM     12  C   UNL A   1      31.510  24.200  22.903  1.00  0.00     0.015 C 
BRANCH   8  13
ATOM     13  N   UNL A   1      33.832  22.694  25.461  1.00  0.00    -0.335 N 
ATOM     14  N   UNL A   1      34.114  20.331  25.213  1.00  0.00    -0.335 N 
ATOM     15  C   UNL A   1      34.508  21.557  25.520  1.00  0.00     0.315 C 
ATOM     16  H   UNL A   1      34.877  19.708  25.237  1.00  0.00     0.165 HD
ATOM     17  O   UNL A   1      35.668  21.663  25.932  1.00  0.00    -0.249 OA
ATOM     18  H   UNL A   1      34.436  23.417  25.747  1.00  0.00     0.165 HD
BRANCH  14  19
ATOM     19  C   UNL A   1      32.892  19.625  24.853  1.00  0.00     0.152 C 
BRANCH  19  20
ATOM     20  C   UNL A   1      33.072  18.184  24.292  1.00  0.00     0.083 C 
ATOM     21  C   UNL A   1      32.443  18.081  22.892  1.00  0.00     0.044 C 
ATOM     22  C   UNL A   1      34.494  17.627  24.328  1.00  0.00     0.039 C 
ATOM     23  O   UNL A   1      32.340  17.261  25.137  1.00  0.00    -0.373 OA
ATOM     24  C   UNL A   1      34.266  16.132  24.290  1.00  0.00     0.031 C 
ATOM     25  C   UNL A   1      32.965  15.967  25.054  1.00  0.00     0.161 C 
ENDBRANCH  19  20
ENDBRANCH  14  19
ENDBRANCH   8  13
ENDBRANCH   4   7
ENDBRANCH   2   3
ENDBRANCH   1   2
BRANCH   1  26
ATOM     26  C   UNL A   1      33.726  28.552  25.784  1.00  0.00     0.023 C 
BRANCH  26  27
ATOM     27  C   UNL A   1      33.348  28.831  27.240  1.00  0.00     0.116 C 
BRANCH  27  28
ATOM     28  N   UNL A   1      33.394  30.232  27.631  1.00  0.00    -0.352 N 
ATOM     29  C   UNL A   1      34.441  30.921  28.207  1.00  0.00     0.251 C 
ATOM     30  H   UNL A   1      32.574  30.753  27.465  1.00  0.00     0.163 HD
ATOM     31  O   UNL A   1      34.301  32.079  28.589  1.00  0.00    -0.269 OA
BRANCH  29  32
ATOM     32  C   UNL A   1      35.735  30.233  28.414  1.00  0.00     0.039 A 
ATOM     33  C   UNL A   1      36.662  30.223  27.370  1.00  0.00     0.014 A 
ATOM     34  C   UNL A   1      36.060  29.668  29.652  1.00  0.00     0.014 A 
ATOM     35  C   UNL A   1      37.953  29.744  27.600  1.00  0.00     0.010 A 
ATOM     36  C   UNL A   1      37.368  29.262  29.901  1.00  0.00     0.010 A 
ATOM     37  C   UNL A   1      38.333  29.314  28.884  1.00  0.00    -0.014 A 
BRANCH  37  38
ATOM     38  C   UNL A   1      39.748  28.975  29.185  1.00  0.00     0.031 A 
ATOM     39  C   UNL A   1      40.655  29.980  29.836  1.00  0.00     0.074 A 
ATOM     40  C   UNL A   1      40.231  27.773  28.810  1.00  0.00     0.049 A 
ATOM     41  N   UNL A   1      41.917  29.861  30.160  1.00  0.00    -0.248 NA
ATOM     42  C   UNL A   1      40.079  31.300  30.141  1.00  0.00     0.031 C 
ATOM     43  C   UNL A   1      39.469  26.732  28.111  1.00  0.00     0.029 A 
ATOM     44  N   UNL A   1      41.478  27.220  28.961  1.00  0.00    -0.354 N 
ATOM     45  C   UNL A   1      42.289  31.088  30.694  1.00  0.00     0.074 A 
ATOM     46  C   UNL A   1      41.134  31.955  30.604  1.00  0.00     0.031 C 
ATOM     47  C   UNL A   1      40.254  25.659  27.928  1.00  0.00     0.029 A 
ATOM     48  C   UNL A   1      41.581  25.941  28.466  1.00  0.00     0.049 A 
ATOM     49  H   UNL A   1      42.229  27.694  29.386  1.00  0.00     0.167 HD
ATOM     50  C   UNL A   1      43.479  31.456  31.228  1.00  0.00     0.031 A 
ATOM     51  C   UNL A   1      42.622  25.086  28.452  1.00  0.00     0.031 A 
ATOM     52  C   UNL A   1      44.623  30.590  31.326  1.00  0.00     0.049 A 
ATOM     53  C   UNL A   1      43.923  25.507  29.076  1.00  0.00     0.074 A 
ATOM     54  C   UNL A   1      45.855  30.852  31.900  1.00  0.00     0.029 A 
ATOM     55  N   UNL A   1      44.677  29.292  30.839  1.00  0.00    -0.354 N 
ATOM     56  N   UNL A   1      44.232  26.650  29.642  1.00  0.00    -0.248 NA
ATOM     57  C   UNL A   1      45.009  24.518  29.076  1.00  0.00     0.031 C 
ATOM     58  C   UNL A   1      46.666  29.724  31.727  1.00  0.00     0.029 A 
ATOM     59  C   UNL A   1      45.923  28.744  31.089  1.00  0.00     0.049 A 
ATOM     60  H   UNL A   1      43.937  28.829  30.384  1.00  0.00     0.167 HD
ATOM     61  C   UNL A   1      45.540  26.507  30.090  1.00  0.00     0.074 A 
ATOM     62  C   UNL A   1      45.959  25.165  29.740  1.00  0.00     0.031 C 
ATOM     63  C   UNL A   1      46.323  27.407  30.735  1.00  0.00     0.031 A 
BRANCH  50  64
ATOM     64  C   UNL A   1      43.594  32.864  31.752  1.00  0.00    -0.014 A 
ATOM     65  C   UNL A   1      43.276  33.165  33.089  1.00  0.00     0.010 A 
ATOM     66  C   UNL A   1      44.047  33.891  30.907  1.00  0.00     0.010 A 
ATOM     67  C   UNL A   1      43.363  34.479  33.557  1.00  0.00     0.020 A 
ATOM     68  C   UNL A   1      44.161  35.202  31.379  1.00  0.00     0.020 A 
ATOM     69  C   UNL A   1      43.798  35.491  32.697  1.00  0.00     0.054 A 
BRANCH  69  70
ATOM     70  S   UNL A   1      43.911  37.186  33.333  1.00  0.00     0.124 S 
ATOM     71  O   UNL A   1      42.727  37.266  34.185  1.00  0.00    -0.237 OA
ATOM     72  O   UNL A   1      45.191  37.182  34.038  1.00  0.00    -0.237 OA
ATOM     73  O   UNL A   1      43.869  38.011  32.129  1.00  0.00    -0.744 OA
ENDBRANCH  69  70
ENDBRANCH  50  64
BRANCH  51  74
ATOM     74  C   UNL A   1      42.463  23.732  27.858  1.00  0.00    -0.014 A 
ATOM     75  C   UNL A   1      42.784  23.505  26.507  1.00  0.00     0.010 A 
ATOM     76  C   UNL A   1      42.006  22.657  28.642  1.00  0.00     0.010 A 
ATOM     77  C   UNL A   1      42.634  22.233  25.947  1.00  0.00     0.020 A 
ATOM     78  C   UNL A   1      41.878  21.378  28.091  1.00  0.00     0.020 A 
ATOM     79  C   UNL A   1      42.183  21.177  26.743  1.00  0.00     0.054 A 
BRANCH  79  80
ATOM     80  S   UNL A   1      42.047  19.522  26.011  1.00  0.00     0.124 S 
ATOM     81  O   UNL A   1      42.526  18.670  27.094  1.00  0.00    -0.237 OA
ATOM     82  O   UNL A   1      40.620  19.423  25.712  1.00  0.00    -0.237 OA
ATOM     83  O   UNL A   1      42.915  19.597  24.839  1.00  0.00    -0.744 OA
ENDBRANCH  79  80
ENDBRANCH  51  74
BRANCH  63  84
ATOM     84  C   UNL A   1      47.702  26.957  31.136  1.00  0.00    -0.014 A 
ATOM     85  C   UNL A   1      48.820  27.222  30.325  1.00  0.00     0.010 A 
ATOM     86  C   UNL A   1      47.885  26.298  32.365  1.00  0.00     0.010 A 
ATOM     87  C   UNL A   1      50.093  26.807  30.722  1.00  0.00     0.020 A 
ATOM     88  C   UNL A   1      49.160  25.902  32.777  1.00  0.00     0.020 A 
ATOM     89  C   UNL A   1      50.255  26.146  31.945  1.00  0.00     0.054 A 
BRANCH  89  90
ATOM     90  S   UNL A   1      51.921  25.649  32.459  1.00  0.00     0.124 S 
ATOM     91  O   UNL A   1      51.911  25.982  33.882  1.00  0.00    -0.237 OA
ATOM     92  O   UNL A   1      51.943  24.221  32.149  1.00  0.00    -0.237 OA
ATOM     93  O   UNL A   1      52.799  26.473  31.632  1.00  0.00    -0.744 OA
ENDBRANCH  89  90
ENDBRANCH  63  84
ENDBRANCH  37  38
ENDBRANCH  29  32
ENDBRANCH  27  28
ENDBRANCH  26  27
ENDBRANCH   1  26
TORSDOF 17
ENDMDL
MODEL 2
REMARK VINA RESULT:     -11.3      0.676      8.159
REMARK SMILES C[C@]1(CNC(=O)N[C@H]2CC[C@@H](C(=O)NCCCCNC(=O)c3ccc(-c4c5nc(c(-c6ccc(S(=O)(=O)[O-])cc6)c6ccc([nH]6)c(-c6ccc(S(=O)(=O)[O-])cc6)c6nc(c(-c7ccc(S(=O)(=O)[O-])cc7)c7ccc4[nH]7)C=C6)C=C5)cc3)CC2)CCCO1
REMARK SMILES IDX 16 1 15 2 14 3 12 4 13 5 11 7 8 8 9 9 83 10 10 11 82 12 7 13
REMARK SMILES IDX 4 14 5 15 6 17 3 19 2 20 1 21 84 22 87 23 85 24 86 25 17 26
REMARK SMILES IDX 18 27 19 28 20 29 21 31 22 32 23 33 81 34 24 35 80 36 25 37
REMARK SMILES IDX 26 38 27 39 74 40 28 41 79 42 73 43 75 44 29 45 78 46 72 47
REMARK SMILES IDX 71 48 30 50 60 51 41 52 59 53 42 54 45 55 58 56 76 57 43 58
REMARK SMILES IDX 44 59 57 61 77 62 46 63 31 64 32 65 40 66 33 67 39 68 34 69
REMARK SMILES IDX 35 70 36 71 37 72 38 73 61 74 62 75 70 76 63 77 69 78 64 79
REMARK SMILES IDX 65 80 66 81 67 82 68 83 47 84 48 85 56 86 49 87 55 88 50 89
REMARK SMILES IDX 51 90 52 91 53 92 54 93
REMARK H PARENT 14 6 4 16 7 18 19 30 75 49 45 60
REMARK Flexibility Score: inf
ROOT
ATOM      1  C   UNL A   1      33.320  29.172  24.831  1.00  0.00     0.023 C 
ENDROOT
BRANCH   1   2
ATOM      2  C   UNL A   1      32.990  28.538  23.485  1.00  0.00     0.116 C 
BRANCH   2   3
ATOM      3  N   UNL A   1      33.690  27.306  23.194  1.00  0.00    -0.356 N 
ATOM      4  C   UNL A   1      33.109  26.269  22.520  1.00  0.00     0.223 C 
ATOM      5  O   UNL A   1      33.595  25.934  21.436  1.00  0.00    -0.275 OA
ATOM      6  H   UNL A   1      34.624  27.210  23.494  1.00  0.00     0.163 HD
BRANCH   4   7
ATOM      7  C   UNL A   1      31.966  25.453  23.139  1.00  0.00     0.078 C 
ATOM      8  C   UNL A   1      32.781  23.224  24.934  1.00  0.00     0.083 C 
ATOM      9  C   UNL A   1      32.331  24.530  25.563  1.00  0.00     0.026 C 
ATOM     10  C   UNL A   1      32.462  22.952  23.458  1.00  0.00     0.026 C 
ATOM     11  C   UNL A   1      31.782  25.623  24.646  1.00  0.00     0.015 C 
ATOM     12  C   UNL A   1      31.729  24.030  22.680  1.00  0.00     0.015 C 
BRANCH   8  13
ATOM     13  N   UNL A   1      34.129  22.745  25.287  1.00  0.00    -0.335 N 
ATOM     14  N   UNL A   1      34.471  20.411  25.690  1.00  0.00    -0.335 N 
ATOM     15  C   UNL A   1      34.847  21.677  25.598  1.00  0.00     0.315 C 
ATOM     16  H   UNL A   1      35.254  19.827  25.813  1.00  0.00     0.165 HD
ATOM     17  O   UNL A   1      36.036  21.905  25.846  1.00  0.00    -0.249 OA
ATOM     18  H   UNL A   1      34.731  23.524  25.296  1.00  0.00     0.165 HD
BRANCH  14  19
ATOM     19  C   UNL A   1      33.246  19.622  25.665  1.00  0.00     0.152 C 
BRANCH  19  20
ATOM     20  C   UNL A   1      33.211  18.443  24.650  1.00  0.00     0.083 C 
ATOM     21  C   UNL A   1      32.372  18.831  23.420  1.00  0.00     0.044 C 
ATOM     22  C   UNL A   1      34.566  17.855  24.262  1.00  0.00     0.039 C 
ATOM     23  O   UNL A   1      32.533  17.319  25.266  1.00  0.00    -0.373 OA
ATOM     24  C   UNL A   1      34.201  16.466  23.786  1.00  0.00     0.031 C 
ATOM     25  C   UNL A   1      33.020  16.104  24.667  1.00  0.00     0.161 C 
ENDBRANCH  19  20
ENDBRANCH  14  19
ENDBRANCH   8  13
ENDBRANCH   4   7
ENDBRANCH   2   3
ENDBRANCH   1   2
BRANCH   1  26
ATOM     26  C   UNL A   1      33.876  28.191  25.862  1.00  0.00     0.023 C 
BRANCH  26  27
ATOM     27  C   UNL A   1      33.532  28.476  27.325  1.00  0.00     0.116 C 
BRANCH  27  28
ATOM     28  N   UNL A   1      33.513  29.884  27.691  1.00  0.00    -0.352 N 
ATOM     29  C   UNL A   1      34.537  30.638  28.225  1.00  0.00     0.251 C 
ATOM     30  H   UNL A   1      32.663  30.358  27.539  1.00  0.00     0.163 HD
ATOM     31  O   UNL A   1      34.346  31.794  28.591  1.00  0.00    -0.269 OA
BRANCH  29  32
ATOM     32  C   UNL A   1      35.871  30.024  28.408  1.00  0.00     0.039 A 
ATOM     33  C   UNL A   1      36.769  30.042  27.338  1.00  0.00     0.014 A 
ATOM     34  C   UNL A   1      36.259  29.500  29.646  1.00  0.00     0.014 A 
ATOM     35  C   UNL A   1      38.089  29.636  27.541  1.00  0.00     0.010 A 
ATOM     36  C   UNL A   1      37.593  29.167  29.865  1.00  0.00     0.010 A 
ATOM     37  C   UNL A   1      38.526  29.252  28.820  1.00  0.00    -0.014 A 
BRANCH  37  38
ATOM     38  C   UNL A   1      39.964  28.993  29.087  1.00  0.00     0.031 A 
ATOM     39  C   UNL A   1      40.583  27.669  28.734  1.00  0.00     0.074 A 
ATOM     40  C   UNL A   1      40.700  29.937  29.709  1.00  0.00     0.049 A 
ATOM     41  N   UNL A   1      41.815  27.266  28.906  1.00  0.00    -0.248 NA
ATOM     42  C   UNL A   1      39.698  26.658  28.134  1.00  0.00     0.031 C 
ATOM     43  C   UNL A   1      40.200  31.239  30.162  1.00  0.00     0.029 A 
ATOM     44  N   UNL A   1      42.024  29.950  30.071  1.00  0.00    -0.354 N 
ATOM     45  C   UNL A   1      41.853  25.955  28.448  1.00  0.00     0.074 A 
ATOM     46  C   UNL A   1      40.507  25.613  28.038  1.00  0.00     0.031 C 
ATOM     47  C   UNL A   1      41.212  31.934  30.707  1.00  0.00     0.029 A 
ATOM     48  C   UNL A   1      42.423  31.121  30.671  1.00  0.00     0.049 A 
ATOM     49  H   UNL A   1      42.632  29.191  29.914  1.00  0.00     0.167 HD
ATOM     50  C   UNL A   1      42.913  25.116  28.359  1.00  0.00     0.031 A 
ATOM     51  C   UNL A   1      43.628  31.504  31.134  1.00  0.00     0.031 A 
ATOM     52  C   UNL A   1      44.252  25.460  28.757  1.00  0.00     0.049 A 
ATOM     53  C   UNL A   1      44.795  30.566  30.999  1.00  0.00     0.074 A 
ATOM     54  C   UNL A   1      45.403  24.700  28.656  1.00  0.00     0.029 A 
ATOM     55  N   UNL A   1      44.619  26.667  29.333  1.00  0.00    -0.354 N 
ATOM     56  N   UNL A   1      44.823  29.355  30.495  1.00  0.00    -0.248 NA
ATOM     57  C   UNL A   1      46.096  31.053  31.477  1.00  0.00     0.031 C 
ATOM     58  C   UNL A   1      46.461  25.434  29.204  1.00  0.00     0.029 A 
ATOM     59  C   UNL A   1      45.976  26.669  29.603  1.00  0.00     0.049 A 
ATOM     60  H   UNL A   1      44.005  27.414  29.522  1.00  0.00     0.167 HD
ATOM     61  C   UNL A   1      46.150  28.946  30.570  1.00  0.00     0.074 A 
ATOM     62  C   UNL A   1      46.894  30.042  31.157  1.00  0.00     0.031 C 
ATOM     63  C   UNL A   1      46.702  27.768  30.186  1.00  0.00     0.031 A 
BRANCH  50  64
ATOM     64  C   UNL A   1      42.659  23.740  27.802  1.00  0.00    -0.014 A 
ATOM     65  C   UNL A   1      42.284  22.677  28.645  1.00  0.00     0.010 A 
ATOM     66  C   UNL A   1      42.773  23.510  26.420  1.00  0.00     0.010 A 
ATOM     67  C   UNL A   1      42.075  21.399  28.121  1.00  0.00     0.020 A 
ATOM     68  C   UNL A   1      42.538  22.238  25.888  1.00  0.00     0.020 A 
ATOM     69  C   UNL A   1      42.210  21.185  26.746  1.00  0.00     0.054 A 
BRANCH  69  70
ATOM     70  S   UNL A   1      41.924  19.519  26.091  1.00  0.00     0.124 S 
ATOM     71  O   UNL A   1      42.769  19.516  24.900  1.00  0.00    -0.237 OA
ATOM     72  O   UNL A   1      42.377  18.660  27.183  1.00  0.00    -0.237 OA
ATOM     73  O   UNL A   1      40.486  19.490  25.836  1.00  0.00    -0.744 OA
ENDBRANCH  69  70
ENDBRANCH  50  64
BRANCH  51  74
ATOM     74  C   UNL A   1      43.799  32.853  31.736  1.00  0.00    -0.014 A 
ATOM     75  C   UNL A   1      43.650  33.037  33.123  1.00  0.00     0.010 A 
ATOM     76  C   UNL A   1      44.127  33.958  30.931  1.00  0.00     0.010 A 
ATOM     77  C   UNL A   1      43.809  34.305  33.691  1.00  0.00     0.020 A 
ATOM     78  C   UNL A   1      44.311  35.223  31.499  1.00  0.00     0.020 A 
ATOM     79  C   UNL A   1      44.139  35.390  32.874  1.00  0.00     0.054 A 
BRANCH  79  80
ATOM     80  S   UNL A   1      44.394  37.016  33.638  1.00  0.00     0.124 S 
ATOM     81  O   UNL A   1      44.843  37.817  32.504  1.00  0.00    -0.237 OA
ATOM     82  O   UNL A   1      43.065  37.338  34.153  1.00  0.00    -0.237 OA
ATOM     83  O   UNL A   1      45.402  36.757  34.662  1.00  0.00    -0.744 OA
ENDBRANCH  79  80
ENDBRANCH  51  74
BRANCH  63  84
ATOM     84  C   UNL A   1      48.189  27.617  30.356  1.00  0.00    -0.014 A 
ATOM     85  C   UNL A   1      49.083  28.014  29.346  1.00  0.00     0.010 A 
ATOM     86  C   UNL A   1      48.699  27.109  31.566  1.00  0.00     0.010 A 
ATOM     87  C   UNL A   1      50.461  27.876  29.530  1.00  0.00     0.020 A 
ATOM     88  C   UNL A   1      50.077  26.992  31.762  1.00  0.00     0.020 A 
ATOM     89  C   UNL A   1      50.950  27.363  30.736  1.00  0.00     0.054 A 
BRANCH  89  90
ATOM     90  S   UNL A   1      52.743  27.227  30.969  1.00  0.00     0.124 S 
ATOM     91  O   UNL A   1      52.973  28.139  32.087  1.00  0.00    -0.237 OA
ATOM     92  O   UNL A   1      52.924  25.808  31.268  1.00  0.00    -0.237 OA
ATOM     93  O   UNL A   1      53.292  27.662  29.687  1.00  0.00    -0.744 OA
ENDBRANCH  89  90
ENDBRANCH  63  84
ENDBRANCH  37  38
ENDBRANCH  29  32
ENDBRANCH  27  28
ENDBRANCH  26  27
ENDBRANCH   1  26
TORSDOF 17
ENDMDL
MODEL 3
REMARK VINA RESULT:     -11.3      1.699      2.444
REMARK SMILES C[C@]1(CNC(=O)N[C@H]2CC[C@@H](C(=O)NCCCCNC(=O)c3ccc(-c4c5nc(c(-c6ccc(S(=O)(=O)[O-])cc6)c6ccc([nH]6)c(-c6ccc(S(=O)(=O)[O-])cc6)c6nc(c(-c7ccc(S(=O)(=O)[O-])cc7)c7ccc4[nH]7)C=C6)C=C5)cc3)CC2)CCCO1
REMARK SMILES IDX 16 1 15 2 14 3 12 4 13 5 11 7 8 8 9 9 83 10 10 11 82 12 7 13
REMARK SMILES IDX 4 14 5 15 6 17 3 19 2 20 1 21 84 22 87 23 85 24 86 25 17 26
REMARK SMILES IDX 18 27 19 28 20 29 21 31 22 32 23 33 81 34 24 35 80 36 25 37
REMARK SMILES IDX 26 38 27 39 74 40 28 41 79 42 73 43 75 44 29 45 78 46 72 47
REMARK SMILES IDX 71 48 30 50 60 51 41 52 59 53 42 54 45 55 58 56 76 57 43 58
REMARK SMILES IDX 44 59 57 61 77 62 46 63 31 64 32 65 40 66 33 67 39 68 34 69
REMARK SMILES IDX 35 70 36 71 37 72 38 73 61 74 62 75 70 76 63 77 69 78 64 79
REMARK SMILES IDX 65 80 66 81 67 82 68 83 47 84 48 85 56 86 49 87 55 88 50 89
REMARK SMILES IDX 51 90 52 91 53 92 54 93
REMARK H PARENT 14 6 4 16 7 18 19 30 75 49 45 60
REMARK Flexibility Score: inf
ROOT
ATOM      1  C   UNL A   1      31.244  28.515  26.537  1.00  0.00     0.023 C 
ENDROOT
BRANCH   1   2
ATOM      2  C   UNL A   1      30.942  27.824  25.213  1.00  0.00     0.116 C 
BRANCH   2   3
ATOM      3  N   UNL A   1      31.088  28.653  24.036  1.00  0.00    -0.356 N 
ATOM      4  C   UNL A   1      31.048  28.146  22.768  1.00  0.00     0.223 C 
ATOM      5  O   UNL A   1      30.146  28.528  22.017  1.00  0.00    -0.275 OA
ATOM      6  H   UNL A   1      31.223  29.621  24.153  1.00  0.00     0.163 HD
BRANCH   4   7
ATOM      7  C   UNL A   1      32.157  27.227  22.238  1.00  0.00     0.078 C 
ATOM      8  C   UNL A   1      32.962  24.993  24.031  1.00  0.00     0.083 C 
ATOM      9  C   UNL A   1      32.019  24.692  22.881  1.00  0.00     0.026 C 
ATOM     10  C   UNL A   1      33.755  26.307  24.028  1.00  0.00     0.026 C 
ATOM     11  C   UNL A   1      31.717  25.809  21.881  1.00  0.00     0.015 C 
ATOM     12  C   UNL A   1      33.530  27.269  22.876  1.00  0.00     0.015 C 
BRANCH   8  13
ATOM     13  N   UNL A   1      32.490  24.656  25.386  1.00  0.00    -0.335 N 
ATOM     14  N   UNL A   1      33.317  22.680  26.453  1.00  0.00    -0.335 N 
ATOM     15  C   UNL A   1      32.580  23.778  26.372  1.00  0.00     0.315 C 
ATOM     16  H   UNL A   1      33.270  22.301  27.361  1.00  0.00     0.165 HD
ATOM     17  O   UNL A   1      31.862  24.018  27.349  1.00  0.00    -0.249 OA
ATOM     18  H   UNL A   1      31.861  25.359  25.667  1.00  0.00     0.165 HD
BRANCH  14  19
ATOM     19  C   UNL A   1      34.174  21.865  25.604  1.00  0.00     0.152 C 
BRANCH  19  20
ATOM     20  C   UNL A   1      35.539  22.495  25.201  1.00  0.00     0.083 C 
ATOM     21  C   UNL A   1      35.573  22.751  23.684  1.00  0.00     0.044 C 
ATOM     22  C   UNL A   1      35.970  23.722  26.002  1.00  0.00     0.039 C 
ATOM     23  O   UNL A   1      36.593  21.540  25.476  1.00  0.00    -0.373 OA
ATOM     24  C   UNL A   1      37.470  23.735  25.807  1.00  0.00     0.031 C 
ATOM     25  C   UNL A   1      37.815  22.259  25.720  1.00  0.00     0.161 C 
ENDBRANCH  19  20
ENDBRANCH  14  19
ENDBRANCH   8  13
ENDBRANCH   4   7
ENDBRANCH   2   3
ENDBRANCH   1   2
BRANCH   1  26
ATOM     26  C   UNL A   1      32.490  27.986  27.247  1.00  0.00     0.023 C 
BRANCH  26  27
ATOM     27  C   UNL A   1      33.775  28.794  27.054  1.00  0.00     0.116 C 
BRANCH  27  28
ATOM     28  N   UNL A   1      33.760  30.125  27.640  1.00  0.00    -0.352 N 
ATOM     29  C   UNL A   1      34.762  30.753  28.351  1.00  0.00     0.251 C 
ATOM     30  H   UNL A   1      32.931  30.642  27.516  1.00  0.00     0.163 HD
ATOM     31  O   UNL A   1      34.571  31.841  28.886  1.00  0.00    -0.269 OA
BRANCH  29  32
ATOM     32  C   UNL A   1      36.070  30.078  28.512  1.00  0.00     0.039 A 
ATOM     33  C   UNL A   1      36.992  30.146  27.466  1.00  0.00     0.014 A 
ATOM     34  C   UNL A   1      36.410  29.448  29.713  1.00  0.00     0.014 A 
ATOM     35  C   UNL A   1      38.292  29.678  27.663  1.00  0.00     0.010 A 
ATOM     36  C   UNL A   1      37.726  29.051  29.933  1.00  0.00     0.010 A 
ATOM     37  C   UNL A   1      38.686  29.181  28.918  1.00  0.00    -0.014 A 
BRANCH  37  38
ATOM     38  C   UNL A   1      40.108  28.850  29.193  1.00  0.00     0.031 A 
ATOM     39  C   UNL A   1      41.016  29.854  29.844  1.00  0.00     0.074 A 
ATOM     40  C   UNL A   1      40.596  27.657  28.794  1.00  0.00     0.049 A 
ATOM     41  N   UNL A   1      42.283  29.742  30.148  1.00  0.00    -0.248 NA
ATOM     42  C   UNL A   1      40.433  31.164  30.176  1.00  0.00     0.031 C 
ATOM     43  C   UNL A   1      39.833  26.620  28.092  1.00  0.00     0.029 A 
ATOM     44  N   UNL A   1      41.850  27.113  28.919  1.00  0.00    -0.354 N 
ATOM     45  C   UNL A   1      42.653  30.964  30.693  1.00  0.00     0.074 A 
ATOM     46  C   UNL A   1      41.489  31.822  30.633  1.00  0.00     0.031 C 
ATOM     47  C   UNL A   1      40.625  25.556  27.883  1.00  0.00     0.029 A 
ATOM     48  C   UNL A   1      41.956  25.842  28.405  1.00  0.00     0.049 A 
ATOM     49  H   UNL A   1      42.603  27.589  29.339  1.00  0.00     0.167 HD
ATOM     50  C   UNL A   1      43.847  31.336  31.215  1.00  0.00     0.031 A 
ATOM     51  C   UNL A   1      43.004  24.997  28.364  1.00  0.00     0.031 A 
ATOM     52  C   UNL A   1      45.001  30.479  31.284  1.00  0.00     0.049 A 
ATOM     53  C   UNL A   1      44.311  25.422  28.974  1.00  0.00     0.074 A 
ATOM     54  C   UNL A   1      46.238  30.744  31.843  1.00  0.00     0.029 A 
ATOM     55  N   UNL A   1      45.058  29.189  30.778  1.00  0.00    -0.354 N 
ATOM     56  N   UNL A   1      44.618  26.559  29.551  1.00  0.00    -0.248 NA
ATOM     57  C   UNL A   1      45.406  24.443  28.944  1.00  0.00     0.031 C 
ATOM     58  C   UNL A   1      47.057  29.626  31.642  1.00  0.00     0.029 A 
ATOM     59  C   UNL A   1      46.312  28.649  31.001  1.00  0.00     0.049 A 
ATOM     60  H   UNL A   1      44.315  28.725  30.328  1.00  0.00     0.167 HD
ATOM     61  C   UNL A   1      45.934  26.422  29.977  1.00  0.00     0.074 A 
ATOM     62  C   UNL A   1      46.360  25.089  29.602  1.00  0.00     0.031 C 
ATOM     63  C   UNL A   1      46.719  27.320  30.623  1.00  0.00     0.031 A 
BRANCH  50  64
ATOM     64  C   UNL A   1      43.958  32.737  31.756  1.00  0.00    -0.014 A 
ATOM     65  C   UNL A   1      43.644  33.020  33.099  1.00  0.00     0.010 A 
ATOM     66  C   UNL A   1      44.401  33.778  30.922  1.00  0.00     0.010 A 
ATOM     67  C   UNL A   1      43.727  34.328  33.584  1.00  0.00     0.020 A 
ATOM     68  C   UNL A   1      44.511  35.084  31.412  1.00  0.00     0.020 A 
ATOM     69  C   UNL A   1      44.153  35.354  32.735  1.00  0.00     0.054 A 
BRANCH  69  70
ATOM     70  S   UNL A   1      44.260  37.040  33.392  1.00  0.00     0.124 S 
ATOM     71  O   UNL A   1      44.795  37.774  32.248  1.00  0.00    -0.237 OA
ATOM     72  O   UNL A   1      42.874  37.341  33.738  1.00  0.00    -0.237 OA
ATOM     73  O   UNL A   1      45.169  36.911  34.529  1.00  0.00    -0.744 OA
ENDBRANCH  69  70
ENDBRANCH  50  64
BRANCH  51  74
ATOM     74  C   UNL A   1      42.849  23.650  27.754  1.00  0.00    -0.014 A 
ATOM     75  C   UNL A   1      43.193  23.435  26.407  1.00  0.00     0.010 A 
ATOM     76  C   UNL A   1      42.371  22.571  28.518  1.00  0.00     0.010 A 
ATOM     77  C   UNL A   1      43.046  22.169  25.831  1.00  0.00     0.020 A 
ATOM     78  C   UNL A   1      42.246  21.298  27.952  1.00  0.00     0.020 A 
ATOM     79  C   UNL A   1      42.574  21.108  26.608  1.00  0.00     0.054 A 
BRANCH  79  80
ATOM     80  S   UNL A   1      42.442  19.461  25.857  1.00  0.00     0.124 S 
ATOM     81  O   UNL A   1      41.042  19.426  25.448  1.00  0.00    -0.237 OA
ATOM     82  O   UNL A   1      43.417  19.528  24.771  1.00  0.00    -0.237 OA
ATOM     83  O   UNL A   1      42.800  18.560  26.949  1.00  0.00    -0.744 OA
ENDBRANCH  79  80
ENDBRANCH  51  74
BRANCH  63  84
ATOM     84  C   UNL A   1      48.108  26.877  30.997  1.00  0.00    -0.014 A 
ATOM     85  C   UNL A   1      48.348  26.144  32.173  1.00  0.00     0.010 A 
ATOM     86  C   UNL A   1      49.181  27.164  30.134  1.00  0.00     0.010 A 
ATOM     87  C   UNL A   1      49.643  25.732  32.494  1.00  0.00     0.020 A 
ATOM     88  C   UNL A   1      50.474  26.733  30.440  1.00  0.00     0.020 A 
ATOM     89  C   UNL A   1      50.700  26.032  31.627  1.00  0.00     0.054 A 
BRANCH  89  90
ATOM     90  S   UNL A   1      52.368  25.456  32.045  1.00  0.00     0.124 S 
ATOM     91  O   UNL A   1      52.143  24.034  32.295  1.00  0.00    -0.237 OA
ATOM     92  O   UNL A   1      53.130  25.768  30.838  1.00  0.00    -0.237 OA
ATOM     93  O   UNL A   1      52.724  26.248  33.220  1.00  0.00    -0.744 OA
ENDBRANCH  89  90
ENDBRANCH  63  84
ENDBRANCH  37  38
ENDBRANCH  29  32
ENDBRANCH  27  28
ENDBRANCH  26  27
ENDBRANCH   1  26
TORSDOF 17
ENDMDL
