MODEL 1
REMARK VINA RESULT:     -10.1      0.000      0.000
REMARK SMILES CC(C)Oc1ccc([C@H](O)[C@H](F)C(=O)NCCCCNC(=O)c2ccc(-c3c4nc(c(-c5ccc(S(=O)(=O)[O-])cc5)c5ccc([nH]5)c(-c5ccc(S(=O)(=O)[O-])cc5)c5nc(c(-c6ccc(S(=O)(=O)[O-])cc6)c6ccc3[nH]6)C=C5)C=C4)cc2)cc1
REMARK SMILES IDX 17 1 16 2 15 3 13 4 14 5 11 7 12 8 9 9 8 10 5 11 6 12 84 13
REMARK SMILES IDX 7 14 83 15 4 16 2 17 1 18 3 19 10 20 18 22 19 23 20 24 21 25
REMARK SMILES IDX 22 27 23 28 24 29 82 30 25 31 81 32 26 33 27 34 28 35 75 36
REMARK SMILES IDX 29 37 80 38 74 39 76 40 30 41 79 42 73 43 72 44 31 46 61 47
REMARK SMILES IDX 42 48 60 49 43 50 46 51 59 52 77 53 44 54 45 55 58 57 78 58
REMARK SMILES IDX 47 59 32 60 33 61 41 62 34 63 40 64 35 65 36 66 37 67 38 68
REMARK SMILES IDX 39 69 62 70 63 71 71 72 64 73 70 74 65 75 66 76 67 77 68 78
REMARK SMILES IDX 69 79 48 80 49 81 57 82 50 83 56 84 51 85 52 86 53 87 54 88
REMARK SMILES IDX 55 89
REMARK H PARENT 15 6 10 21 20 26 76 45 46 56
REMARK Flexibility Score: inf
ROOT
ATOM      1  C   UNL A   1      31.601  29.468  25.010  1.00  0.00     0.023 C 
ENDROOT
BRANCH   1   2
ATOM      2  C   UNL A   1      30.731  28.649  24.065  1.00  0.00     0.116 C 
BRANCH   2   3
ATOM      3  N   UNL A   1      31.486  27.773  23.186  1.00  0.00    -0.353 N 
ATOM      4  C   UNL A   1      31.262  26.458  22.891  1.00  0.00     0.257 C 
ATOM      5  O   UNL A   1      31.871  25.978  21.927  1.00  0.00    -0.272 OA
ATOM      6  H   UNL A   1      32.264  28.183  22.742  1.00  0.00     0.163 HD
BRANCH   4   7
ATOM      7  C   UNL A   1      30.282  25.593  23.676  1.00  0.00     0.288 C 
ATOM      8  F   UNL A   1      29.989  24.393  23.098  1.00  0.00    -0.234 F 
BRANCH   7   9
ATOM      9  C   UNL A   1      30.707  25.414  25.149  1.00  0.00     0.188 C 
BRANCH   9  10
ATOM     10  C   UNL A   1      32.066  24.765  25.327  1.00  0.00    -0.016 A 
ATOM     11  C   UNL A   1      34.544  23.461  25.783  1.00  0.00     0.119 A 
ATOM     12  C   UNL A   1      34.375  24.813  26.089  1.00  0.00     0.047 A 
ATOM     13  C   UNL A   1      33.472  22.769  25.234  1.00  0.00     0.047 A 
ATOM     14  C   UNL A   1      33.153  25.458  25.874  1.00  0.00     0.010 A 
ATOM     15  C   UNL A   1      32.256  23.421  24.979  1.00  0.00     0.010 A 
BRANCH  11  16
ATOM     16  O   UNL A   1      35.782  22.980  26.077  1.00  0.00    -0.491 OA
BRANCH  16  17
ATOM     17  C   UNL A   1      36.919  23.111  25.220  1.00  0.00     0.167 C 
ATOM     18  C   UNL A   1      38.239  23.175  25.973  1.00  0.00     0.052 C 
ATOM     19  C   UNL A   1      36.923  22.150  24.037  1.00  0.00     0.052 C 
ENDBRANCH  16  17
ENDBRANCH  11  16
ENDBRANCH   9  10
BRANCH   9  20
ATOM     20  O   UNL A   1      29.722  24.642  25.864  1.00  0.00    -0.385 OA
ATOM     21  H   UNL A   1      29.663  23.755  25.475  1.00  0.00     0.211 HD
ENDBRANCH   9  20
ENDBRANCH   7   9
ENDBRANCH   4   7
ENDBRANCH   2   3
ENDBRANCH   1   2
BRANCH   1  22
ATOM     22  C   UNL A   1      31.829  28.852  26.394  1.00  0.00     0.023 C 
BRANCH  22  23
ATOM     23  C   UNL A   1      33.197  29.096  27.031  1.00  0.00     0.116 C 
BRANCH  23  24
ATOM     24  N   UNL A   1      33.332  30.414  27.628  1.00  0.00    -0.352 N 
ATOM     25  C   UNL A   1      34.370  30.968  28.339  1.00  0.00     0.251 C 
ATOM     26  H   UNL A   1      32.555  31.006  27.502  1.00  0.00     0.163 HD
ATOM     27  O   UNL A   1      34.212  32.066  28.873  1.00  0.00    -0.269 OA
BRANCH  25  28
ATOM     28  C   UNL A   1      35.659  30.258  28.507  1.00  0.00     0.039 A 
ATOM     29  C   UNL A   1      36.519  30.204  27.406  1.00  0.00     0.014 A 
ATOM     30  C   UNL A   1      36.045  29.673  29.717  1.00  0.00     0.014 A 
ATOM     31  C   UNL A   1      37.806  29.691  27.555  1.00  0.00     0.010 A 
ATOM     32  C   UNL A   1      37.358  29.238  29.888  1.00  0.00     0.010 A 
ATOM     33  C   UNL A   1      38.262  29.279  28.817  1.00  0.00    -0.014 A 
BRANCH  33  34
ATOM     34  C   UNL A   1      39.706  29.009  29.031  1.00  0.00     0.031 A 
ATOM     35  C   UNL A   1      40.612  30.038  29.639  1.00  0.00     0.074 A 
ATOM     36  C   UNL A   1      40.199  27.817  28.637  1.00  0.00     0.049 A 
ATOM     37  N   UNL A   1      41.879  29.933  29.950  1.00  0.00    -0.248 NA
ATOM     38  C   UNL A   1      40.031  31.360  29.916  1.00  0.00     0.031 C 
ATOM     39  C   UNL A   1      39.422  26.757  27.983  1.00  0.00     0.029 A 
ATOM     40  N   UNL A   1      41.457  27.282  28.742  1.00  0.00    -0.354 N 
ATOM     41  C   UNL A   1      42.246  31.169  30.467  1.00  0.00     0.074 A 
ATOM     42  C   UNL A   1      41.084  32.026  30.368  1.00  0.00     0.031 C 
ATOM     43  C   UNL A   1      40.203  25.681  27.806  1.00  0.00     0.029 A 
ATOM     44  C   UNL A   1      41.545  25.986  28.288  1.00  0.00     0.049 A 
ATOM     45  H   UNL A   1      42.224  27.777  29.109  1.00  0.00     0.167 HD
ATOM     46  C   UNL A   1      43.435  31.547  30.995  1.00  0.00     0.031 A 
ATOM     47  C   UNL A   1      42.585  25.131  28.269  1.00  0.00     0.031 A 
ATOM     48  C   UNL A   1      44.594  30.692  31.063  1.00  0.00     0.049 A 
ATOM     49  C   UNL A   1      43.901  25.584  28.835  1.00  0.00     0.074 A 
ATOM     50  C   UNL A   1      45.838  30.966  31.603  1.00  0.00     0.029 A 
ATOM     51  N   UNL A   1      44.654  29.398  30.564  1.00  0.00    -0.354 N 
ATOM     52  N   UNL A   1      44.210  26.734  29.384  1.00  0.00    -0.248 NA
ATOM     53  C   UNL A   1      45.005  24.617  28.789  1.00  0.00     0.031 C 
ATOM     54  C   UNL A   1      46.667  29.861  31.377  1.00  0.00     0.029 A 
ATOM     55  C   UNL A   1      45.920  28.871  30.757  1.00  0.00     0.049 A 
ATOM     56  H   UNL A   1      43.905  28.925  30.134  1.00  0.00     0.167 HD
ATOM     57  C   UNL A   1      45.539  26.622  29.774  1.00  0.00     0.074 A 
ATOM     58  C   UNL A   1      45.965  25.283  29.415  1.00  0.00     0.031 C 
ATOM     59  C   UNL A   1      46.333  27.541  30.377  1.00  0.00     0.031 A 
BRANCH  46  60
ATOM     60  C   UNL A   1      43.539  32.957  31.522  1.00  0.00    -0.014 A 
ATOM     61  C   UNL A   1      43.902  34.023  30.676  1.00  0.00     0.010 A 
ATOM     62  C   UNL A   1      43.264  33.225  32.874  1.00  0.00     0.010 A 
ATOM     63  C   UNL A   1      44.051  35.315  31.186  1.00  0.00     0.020 A 
ATOM     64  C   UNL A   1      43.379  34.523  33.382  1.00  0.00     0.020 A 
ATOM     65  C   UNL A   1      43.796  35.555  32.539  1.00  0.00     0.054 A 
BRANCH  65  66
ATOM     66  S   UNL A   1      44.010  37.240  33.177  1.00  0.00     0.124 S 
ATOM     67  O   UNL A   1      42.821  37.399  34.011  1.00  0.00    -0.237 OA
ATOM     68  O   UNL A   1      45.276  37.150  33.900  1.00  0.00    -0.237 OA
ATOM     69  O   UNL A   1      44.042  38.066  31.973  1.00  0.00    -0.744 OA
ENDBRANCH  65  66
ENDBRANCH  46  60
BRANCH  47  70
ATOM     70  C   UNL A   1      42.406  23.754  27.731  1.00  0.00    -0.014 A 
ATOM     71  C   UNL A   1      42.496  23.510  26.349  1.00  0.00     0.010 A 
ATOM     72  C   UNL A   1      42.174  22.672  28.600  1.00  0.00     0.010 A 
ATOM     73  C   UNL A   1      42.346  22.214  25.846  1.00  0.00     0.020 A 
ATOM     74  C   UNL A   1      42.054  21.371  28.104  1.00  0.00     0.020 A 
ATOM     75  C   UNL A   1      42.130  21.152  26.727  1.00  0.00     0.054 A 
BRANCH  75  76
ATOM     76  S   UNL A   1      41.999  19.471  26.056  1.00  0.00     0.124 S 
ATOM     77  O   UNL A   1      42.393  18.656  27.200  1.00  0.00    -0.237 OA
ATOM     78  O   UNL A   1      40.590  19.394  25.677  1.00  0.00    -0.237 OA
ATOM     79  O   UNL A   1      42.937  19.476  24.936  1.00  0.00    -0.744 OA
ENDBRANCH  75  76
ENDBRANCH  47  70
BRANCH  59  80
ATOM     80  C   UNL A   1      47.741  27.117  30.708  1.00  0.00    -0.014 A 
ATOM     81  C   UNL A   1      48.822  27.448  29.870  1.00  0.00     0.010 A 
ATOM     82  C   UNL A   1      47.988  26.394  31.890  1.00  0.00     0.010 A 
ATOM     83  C   UNL A   1      50.115  27.024  30.185  1.00  0.00     0.020 A 
ATOM     84  C   UNL A   1      49.284  25.998  32.225  1.00  0.00     0.020 A 
ATOM     85  C   UNL A   1      50.337  26.299  31.360  1.00  0.00     0.054 A 
BRANCH  85  86
ATOM     86  S   UNL A   1      52.028  25.779  31.757  1.00  0.00     0.124 S 
ATOM     87  O   UNL A   1      51.829  24.393  32.175  1.00  0.00    -0.237 OA
ATOM     88  O   UNL A   1      52.726  25.957  30.486  1.00  0.00    -0.237 OA
ATOM     89  O   UNL A   1      52.434  26.697  32.818  1.00  0.00    -0.744 OA
ENDBRANCH  85  86
ENDBRANCH  59  80
ENDBRANCH  33  34
ENDBRANCH  25  28
ENDBRANCH  23  24
ENDBRANCH  22  23
ENDBRANCH   1  22
TORSDOF 19
ENDMDL
MODEL 2
REMARK VINA RESULT:      -9.9      1.154      8.419
REMARK SMILES CC(C)Oc1ccc([C@H](O)[C@H](F)C(=O)NCCCCNC(=O)c2ccc(-c3c4nc(c(-c5ccc(S(=O)(=O)[O-])cc5)c5ccc([nH]5)c(-c5ccc(S(=O)(=O)[O-])cc5)c5nc(c(-c6ccc(S(=O)(=O)[O-])cc6)c6ccc3[nH]6)C=C5)C=C4)cc2)cc1
REMARK SMILES IDX 17 1 16 2 15 3 13 4 14 5 11 7 12 8 9 9 8 10 5 11 6 12 84 13
REMARK SMILES IDX 7 14 83 15 4 16 2 17 1 18 3 19 10 20 18 22 19 23 20 24 21 25
REMARK SMILES IDX 22 27 23 28 24 29 82 30 25 31 81 32 26 33 27 34 28 35 75 36
REMARK SMILES IDX 29 37 80 38 74 39 76 40 30 41 79 42 73 43 72 44 31 46 61 47
REMARK SMILES IDX 42 48 60 49 43 50 46 51 59 52 77 53 44 54 45 55 58 57 78 58
REMARK SMILES IDX 47 59 32 60 33 61 41 62 34 63 40 64 35 65 36 66 37 67 38 68
REMARK SMILES IDX 39 69 62 70 63 71 71 72 64 73 70 74 65 75 66 76 67 77 68 78
REMARK SMILES IDX 69 79 48 80 49 81 57 82 50 83 56 84 51 85 52 86 53 87 54 88
REMARK SMILES IDX 55 89
REMARK H PARENT 15 6 10 21 20 26 76 45 46 56
REMARK Flexibility Score: inf
ROOT
ATOM      1  C   UNL A   1      31.882  28.181  26.018  1.00  0.00     0.023 C 
ENDROOT
BRANCH   1   2
ATOM      2  C   UNL A   1      31.928  27.751  24.558  1.00  0.00     0.116 C 
BRANCH   2   3
ATOM      3  N   UNL A   1      30.643  27.324  24.033  1.00  0.00    -0.353 N 
ATOM      4  C   UNL A   1      29.829  26.320  24.476  1.00  0.00     0.257 C 
ATOM      5  O   UNL A   1      28.670  26.292  24.045  1.00  0.00    -0.272 OA
ATOM      6  H   UNL A   1      30.314  27.825  23.251  1.00  0.00     0.163 HD
BRANCH   4   7
ATOM      7  C   UNL A   1      30.286  25.276  25.489  1.00  0.00     0.288 C 
ATOM      8  F   UNL A   1      29.374  24.987  26.462  1.00  0.00    -0.234 F 
BRANCH   7   9
ATOM      9  C   UNL A   1      30.808  23.991  24.814  1.00  0.00     0.188 C 
BRANCH   9  10
ATOM     10  C   UNL A   1      32.316  23.834  24.861  1.00  0.00    -0.016 A 
ATOM     11  C   UNL A   1      35.149  23.696  24.898  1.00  0.00     0.119 A 
ATOM     12  C   UNL A   1      34.406  22.976  23.960  1.00  0.00     0.047 A 
ATOM     13  C   UNL A   1      34.468  24.473  25.826  1.00  0.00     0.047 A 
ATOM     14  C   UNL A   1      33.009  23.048  23.932  1.00  0.00     0.010 A 
ATOM     15  C   UNL A   1      33.066  24.517  25.829  1.00  0.00     0.010 A 
BRANCH  11  16
ATOM     16  O   UNL A   1      36.495  23.539  24.772  1.00  0.00    -0.491 OA
BRANCH  16  17
ATOM     17  C   UNL A   1      37.274  22.629  25.554  1.00  0.00     0.167 C 
ATOM     18  C   UNL A   1      37.504  21.290  24.872  1.00  0.00     0.052 C 
ATOM     19  C   UNL A   1      38.530  23.243  26.160  1.00  0.00     0.052 C 
ENDBRANCH  16  17
ENDBRANCH  11  16
ENDBRANCH   9  10
BRANCH   9  20
ATOM     20  O   UNL A   1      30.376  23.936  23.440  1.00  0.00    -0.385 OA
ATOM     21  H   UNL A   1      31.043  23.474  22.909  1.00  0.00     0.211 HD
ENDBRANCH   9  20
ENDBRANCH   7   9
ENDBRANCH   4   7
ENDBRANCH   2   3
ENDBRANCH   1   2
BRANCH   1  22
ATOM     22  C   UNL A   1      32.448  29.575  26.311  1.00  0.00     0.023 C 
BRANCH  22  23
ATOM     23  C   UNL A   1      33.765  29.627  27.086  1.00  0.00     0.116 C 
BRANCH  23  24
ATOM     24  N   UNL A   1      33.867  30.769  27.979  1.00  0.00    -0.352 N 
ATOM     25  C   UNL A   1      34.869  31.133  28.848  1.00  0.00     0.251 C 
ATOM     26  H   UNL A   1      33.095  31.380  27.959  1.00  0.00     0.163 HD
ATOM     27  O   UNL A   1      34.682  32.077  29.615  1.00  0.00    -0.269 OA
BRANCH  25  28
ATOM     28  C   UNL A   1      36.150  30.392  28.906  1.00  0.00     0.039 A 
ATOM     29  C   UNL A   1      36.980  30.441  27.782  1.00  0.00     0.014 A 
ATOM     30  C   UNL A   1      36.559  29.681  30.038  1.00  0.00     0.014 A 
ATOM     31  C   UNL A   1      38.262  29.897  27.841  1.00  0.00     0.010 A 
ATOM     32  C   UNL A   1      37.869  29.213  30.128  1.00  0.00     0.010 A 
ATOM     33  C   UNL A   1      38.744  29.352  29.042  1.00  0.00    -0.014 A 
BRANCH  33  34
ATOM     34  C   UNL A   1      40.189  29.042  29.186  1.00  0.00     0.031 A 
ATOM     35  C   UNL A   1      40.743  27.701  28.805  1.00  0.00     0.074 A 
ATOM     36  C   UNL A   1      40.998  29.991  29.700  1.00  0.00     0.049 A 
ATOM     37  N   UNL A   1      41.988  27.297  28.810  1.00  0.00    -0.248 NA
ATOM     38  C   UNL A   1      39.778  26.675  28.382  1.00  0.00     0.031 C 
ATOM     39  C   UNL A   1      40.561  31.315  30.158  1.00  0.00     0.029 A 
ATOM     40  N   UNL A   1      42.353  30.005  29.908  1.00  0.00    -0.354 N 
ATOM     41  C   UNL A   1      41.959  25.976  28.385  1.00  0.00     0.074 A 
ATOM     42  C   UNL A   1      40.568  25.627  28.192  1.00  0.00     0.031 C 
ATOM     43  C   UNL A   1      41.632  32.030  30.529  1.00  0.00     0.029 A 
ATOM     44  C   UNL A   1      42.826  31.206  30.383  1.00  0.00     0.049 A 
ATOM     45  H   UNL A   1      42.933  29.229  29.732  1.00  0.00     0.167 HD
ATOM     46  C   UNL A   1      42.998  25.136  28.156  1.00  0.00     0.031 A 
ATOM     47  C   UNL A   1      44.081  31.607  30.661  1.00  0.00     0.031 A 
ATOM     48  C   UNL A   1      44.379  25.486  28.379  1.00  0.00     0.049 A 
ATOM     49  C   UNL A   1      45.214  30.649  30.426  1.00  0.00     0.074 A 
ATOM     50  C   UNL A   1      45.510  24.721  28.153  1.00  0.00     0.029 A 
ATOM     51  N   UNL A   1      44.816  26.701  28.891  1.00  0.00    -0.354 N 
ATOM     52  N   UNL A   1      45.174  29.425  29.956  1.00  0.00    -0.248 NA
ATOM     53  C   UNL A   1      46.563  31.131  30.747  1.00  0.00     0.031 C 
ATOM     54  C   UNL A   1      46.624  25.450  28.584  1.00  0.00     0.029 A 
ATOM     55  C   UNL A   1      46.195  26.696  29.015  1.00  0.00     0.049 A 
ATOM     56  H   UNL A   1      44.230  27.454  29.132  1.00  0.00     0.167 HD
ATOM     57  C   UNL A   1      46.494  28.998  29.900  1.00  0.00     0.074 A 
ATOM     58  C   UNL A   1      47.308  30.104  30.365  1.00  0.00     0.031 C 
ATOM     59  C   UNL A   1      46.989  27.800  29.497  1.00  0.00     0.031 A 
BRANCH  46  60
ATOM     60  C   UNL A   1      42.669  23.752  27.655  1.00  0.00    -0.014 A 
ATOM     61  C   UNL A   1      42.437  22.692  28.552  1.00  0.00     0.010 A 
ATOM     62  C   UNL A   1      42.584  23.504  26.274  1.00  0.00     0.010 A 
ATOM     63  C   UNL A   1      42.189  21.401  28.078  1.00  0.00     0.020 A 
ATOM     64  C   UNL A   1      42.304  22.221  25.795  1.00  0.00     0.020 A 
ATOM     65  C   UNL A   1      42.132  21.172  26.701  1.00  0.00     0.054 A 
BRANCH  65  66
ATOM     66  S   UNL A   1      41.823  19.484  26.113  1.00  0.00     0.124 S 
ATOM     67  O   UNL A   1      42.164  18.689  27.290  1.00  0.00    -0.237 OA
ATOM     68  O   UNL A   1      40.404  19.520  25.769  1.00  0.00    -0.237 OA
ATOM     69  O   UNL A   1      42.732  19.339  24.979  1.00  0.00    -0.744 OA
ENDBRANCH  65  66
ENDBRANCH  46  60
BRANCH  47  70
ATOM     70  C   UNL A   1      44.328  32.990  31.155  1.00  0.00    -0.014 A 
ATOM     71  C   UNL A   1      44.508  34.050  30.248  1.00  0.00     0.010 A 
ATOM     72  C   UNL A   1      44.353  33.262  32.535  1.00  0.00     0.010 A 
ATOM     73  C   UNL A   1      44.722  35.352  30.712  1.00  0.00     0.020 A 
ATOM     74  C   UNL A   1      44.536  34.567  33.003  1.00  0.00     0.020 A 
ATOM     75  C   UNL A   1      44.729  35.603  32.086  1.00  0.00     0.054 A 
BRANCH  75  76
ATOM     76  S   UNL A   1      44.947  37.310  32.662  1.00  0.00     0.124 S 
ATOM     77  O   UNL A   1      44.100  37.340  33.850  1.00  0.00    -0.237 OA
ATOM     78  O   UNL A   1      46.386  37.376  32.908  1.00  0.00    -0.237 OA
ATOM     79  O   UNL A   1      44.478  38.114  31.536  1.00  0.00    -0.744 OA
ENDBRANCH  75  76
ENDBRANCH  47  70
BRANCH  59  80
ATOM     80  C   UNL A   1      48.487  27.637  29.521  1.00  0.00    -0.014 A 
ATOM     81  C   UNL A   1      49.284  28.026  28.428  1.00  0.00     0.010 A 
ATOM     82  C   UNL A   1      49.109  27.108  30.667  1.00  0.00     0.010 A 
ATOM     83  C   UNL A   1      50.669  27.844  28.464  1.00  0.00     0.020 A 
ATOM     84  C   UNL A   1      50.496  26.956  30.720  1.00  0.00     0.020 A 
ATOM     85  C   UNL A   1      51.266  27.308  29.609  1.00  0.00     0.054 A 
BRANCH  85  86
ATOM     86  S   UNL A   1      53.067  27.102  29.639  1.00  0.00     0.124 S 
ATOM     87  O   UNL A   1      53.532  28.480  29.507  1.00  0.00    -0.237 OA
ATOM     88  O   UNL A   1      53.297  26.482  30.942  1.00  0.00    -0.237 OA
ATOM     89  O   UNL A   1      53.337  26.241  28.490  1.00  0.00    -0.744 OA
ENDBRANCH  85  86
ENDBRANCH  59  80
ENDBRANCH  33  34
ENDBRANCH  25  28
ENDBRANCH  23  24
ENDBRANCH  22  23
ENDBRANCH   1  22
TORSDOF 19
ENDMDL
MODEL 3
REMARK VINA RESULT:      -9.8      1.639      2.329
REMARK SMILES CC(C)Oc1ccc([C@H](O)[C@H](F)C(=O)NCCCCNC(=O)c2ccc(-c3c4nc(c(-c5ccc(S(=O)(=O)[O-])cc5)c5ccc([nH]5)c(-c5ccc(S(=O)(=O)[O-])cc5)c5nc(c(-c6ccc(S(=O)(=O)[O-])cc6)c6ccc3[nH]6)C=C5)C=C4)cc2)cc1
REMARK SMILES IDX 17 1 16 2 15 3 13 4 14 5 11 7 12 8 9 9 8 10 5 11 6 12 84 13
REMARK SMILES IDX 7 14 83 15 4 16 2 17 1 18 3 19 10 20 18 22 19 23 20 24 21 25
REMARK SMILES IDX 22 27 23 28 24 29 82 30 25 31 81 32 26 33 27 34 28 35 75 36
REMARK SMILES IDX 29 37 80 38 74 39 76 40 30 41 79 42 73 43 72 44 31 46 61 47
REMARK SMILES IDX 42 48 60 49 43 50 46 51 59 52 77 53 44 54 45 55 58 57 78 58
REMARK SMILES IDX 47 59 32 60 33 61 41 62 34 63 40 64 35 65 36 66 37 67 38 68
REMARK SMILES IDX 39 69 62 70 63 71 71 72 64 73 70 74 65 75 66 76 67 77 68 78
REMARK SMILES IDX 69 79 48 80 49 81 57 82 50 83 56 84 51 85 52 86 53 87 54 88
REMARK SMILES IDX 55 89
REMARK H PARENT 15 6 10 21 20 26 76 45 46 56
REMARK Flexibility Score: inf
ROOT
ATOM      1  C   UNL A   1      31.547  28.340  25.253  1.00  0.00     0.023 C 
ENDROOT
BRANCH   1   2
ATOM      2  C   UNL A   1      31.712  26.994  24.561  1.00  0.00     0.116 C 
BRANCH   2   3
ATOM      3  N   UNL A   1      32.611  27.029  23.420  1.00  0.00    -0.353 N 
ATOM      4  C   UNL A   1      33.393  26.028  22.916  1.00  0.00     0.257 C 
ATOM      5  O   UNL A   1      33.883  26.197  21.793  1.00  0.00    -0.272 OA
ATOM      6  H   UNL A   1      32.663  27.890  22.946  1.00  0.00     0.163 HD
BRANCH   4   7
ATOM      7  C   UNL A   1      33.645  24.724  23.665  1.00  0.00     0.288 C 
ATOM      8  F   UNL A   1      33.308  24.751  24.987  1.00  0.00    -0.234 F 
BRANCH   7   9
ATOM      9  C   UNL A   1      33.018  23.507  22.954  1.00  0.00     0.188 C 
BRANCH   9  10
ATOM     10  C   UNL A   1      33.198  22.196  23.695  1.00  0.00    -0.016 A 
ATOM     11  C   UNL A   1      33.618  19.687  24.950  1.00  0.00     0.119 A 
ATOM     12  C   UNL A   1      32.346  20.075  24.524  1.00  0.00     0.047 A 
ATOM     13  C   UNL A   1      34.676  20.566  24.759  1.00  0.00     0.047 A 
ATOM     14  C   UNL A   1      32.135  21.307  23.897  1.00  0.00     0.010 A 
ATOM     15  C   UNL A   1      34.463  21.820  24.167  1.00  0.00     0.010 A 
BRANCH  11  16
ATOM     16  O   UNL A   1      33.657  18.450  25.515  1.00  0.00    -0.491 OA
BRANCH  16  17
ATOM     17  C   UNL A   1      33.727  17.230  24.772  1.00  0.00     0.167 C 
ATOM     18  C   UNL A   1      32.680  16.209  25.188  1.00  0.00     0.052 C 
ATOM     19  C   UNL A   1      33.846  17.422  23.265  1.00  0.00     0.052 C 
ENDBRANCH  16  17
ENDBRANCH  11  16
ENDBRANCH   9  10
BRANCH   9  20
ATOM     20  O   UNL A   1      33.558  23.371  21.624  1.00  0.00    -0.385 OA
ATOM     21  H   UNL A   1      32.839  23.440  20.976  1.00  0.00     0.211 HD
ENDBRANCH   9  20
ENDBRANCH   7   9
ENDBRANCH   4   7
ENDBRANCH   2   3
ENDBRANCH   1   2
BRANCH   1  22
ATOM     22  C   UNL A   1      32.040  28.400  26.702  1.00  0.00     0.023 C 
BRANCH  22  23
ATOM     23  C   UNL A   1      33.482  28.863  26.913  1.00  0.00     0.116 C 
BRANCH  23  24
ATOM     24  N   UNL A   1      33.585  30.178  27.523  1.00  0.00    -0.352 N 
ATOM     25  C   UNL A   1      34.601  30.741  28.260  1.00  0.00     0.251 C 
ATOM     26  H   UNL A   1      32.801  30.759  27.388  1.00  0.00     0.163 HD
ATOM     27  O   UNL A   1      34.416  31.831  28.801  1.00  0.00    -0.269 OA
BRANCH  25  28
ATOM     28  C   UNL A   1      35.896  30.048  28.446  1.00  0.00     0.039 A 
ATOM     29  C   UNL A   1      36.790  30.041  27.370  1.00  0.00     0.014 A 
ATOM     30  C   UNL A   1      36.258  29.436  29.650  1.00  0.00     0.014 A 
ATOM     31  C   UNL A   1      38.081  29.545  27.543  1.00  0.00     0.010 A 
ATOM     32  C   UNL A   1      37.573  29.019  29.849  1.00  0.00     0.010 A 
ATOM     33  C   UNL A   1      38.507  29.106  28.807  1.00  0.00    -0.014 A 
BRANCH  33  34
ATOM     34  C   UNL A   1      39.948  28.854  29.056  1.00  0.00     0.031 A 
ATOM     35  C   UNL A   1      40.822  29.889  29.702  1.00  0.00     0.074 A 
ATOM     36  C   UNL A   1      40.470  27.676  28.660  1.00  0.00     0.049 A 
ATOM     37  N   UNL A   1      42.081  29.799  30.046  1.00  0.00    -0.248 NA
ATOM     38  C   UNL A   1      40.213  31.198  29.982  1.00  0.00     0.031 C 
ATOM     39  C   UNL A   1      39.727  26.613  27.971  1.00  0.00     0.029 A 
ATOM     40  N   UNL A   1      41.733  27.158  28.792  1.00  0.00    -0.354 N 
ATOM     41  C   UNL A   1      42.415  31.032  30.590  1.00  0.00     0.074 A 
ATOM     42  C   UNL A   1      41.243  31.874  30.470  1.00  0.00     0.031 C 
ATOM     43  C   UNL A   1      40.529  25.552  27.801  1.00  0.00     0.029 A 
ATOM     44  C   UNL A   1      41.854  25.871  28.323  1.00  0.00     0.049 A 
ATOM     45  H   UNL A   1      42.483  27.661  29.186  1.00  0.00     0.167 HD
ATOM     46  C   UNL A   1      43.584  31.422  31.155  1.00  0.00     0.031 A 
ATOM     47  C   UNL A   1      42.907  25.032  28.321  1.00  0.00     0.031 A 
ATOM     48  C   UNL A   1      44.753  30.584  31.243  1.00  0.00     0.049 A 
ATOM     49  C   UNL A   1      44.200  25.496  28.928  1.00  0.00     0.074 A 
ATOM     50  C   UNL A   1      45.978  30.869  31.820  1.00  0.00     0.029 A 
ATOM     51  N   UNL A   1      44.846  29.297  30.728  1.00  0.00    -0.354 N 
ATOM     52  N   UNL A   1      44.476  26.643  29.501  1.00  0.00    -0.248 NA
ATOM     53  C   UNL A   1      45.320  24.547  28.900  1.00  0.00     0.031 C 
ATOM     54  C   UNL A   1      46.829  29.780  31.602  1.00  0.00     0.029 A 
ATOM     55  C   UNL A   1      46.114  28.787  30.949  1.00  0.00     0.049 A 
ATOM     56  H   UNL A   1      44.117  28.819  30.272  1.00  0.00     0.167 HD
ATOM     57  C   UNL A   1      45.795  26.546  29.926  1.00  0.00     0.074 A 
ATOM     58  C   UNL A   1      46.252  25.219  29.561  1.00  0.00     0.031 C 
ATOM     59  C   UNL A   1      46.559  27.469  30.563  1.00  0.00     0.031 A 
BRANCH  46  60
ATOM     60  C   UNL A   1      43.651  32.825  31.703  1.00  0.00    -0.014 A 
ATOM     61  C   UNL A   1      43.962  33.916  30.869  1.00  0.00     0.010 A 
ATOM     62  C   UNL A   1      43.395  33.063  33.065  1.00  0.00     0.010 A 
ATOM     63  C   UNL A   1      44.077  35.205  31.397  1.00  0.00     0.020 A 
ATOM     64  C   UNL A   1      43.477  34.355  33.592  1.00  0.00     0.020 A 
ATOM     65  C   UNL A   1      43.842  35.414  32.759  1.00  0.00     0.054 A 
BRANCH  65  66
ATOM     66  S   UNL A   1      44.013  37.095  33.421  1.00  0.00     0.124 S 
ATOM     67  O   UNL A   1      44.264  37.871  32.209  1.00  0.00    -0.237 OA
ATOM     68  O   UNL A   1      42.717  37.323  34.055  1.00  0.00    -0.237 OA
ATOM     69  O   UNL A   1      45.144  36.992  34.340  1.00  0.00    -0.744 OA
ENDBRANCH  65  66
ENDBRANCH  46  60
BRANCH  47  70
ATOM     70  C   UNL A   1      42.764  23.660  27.760  1.00  0.00    -0.014 A 
ATOM     71  C   UNL A   1      42.235  22.620  28.543  1.00  0.00     0.010 A 
ATOM     72  C   UNL A   1      43.129  23.392  26.428  1.00  0.00     0.010 A 
ATOM     73  C   UNL A   1      42.084  21.336  28.010  1.00  0.00     0.020 A 
ATOM     74  C   UNL A   1      42.952  22.117  25.881  1.00  0.00     0.020 A 
ATOM     75  C   UNL A   1      42.439  21.094  26.681  1.00  0.00     0.054 A 
BRANCH  75  76
ATOM     76  S   UNL A   1      42.178  19.435  25.993  1.00  0.00     0.124 S 
ATOM     77  O   UNL A   1      40.732  19.411  25.799  1.00  0.00    -0.237 OA
ATOM     78  O   UNL A   1      42.981  19.471  24.774  1.00  0.00    -0.237 OA
ATOM     79  O   UNL A   1      42.685  18.548  27.038  1.00  0.00    -0.744 OA
ENDBRANCH  75  76
ENDBRANCH  47  70
BRANCH  59  80
ATOM     80  C   UNL A   1      47.964  27.062  30.925  1.00  0.00    -0.014 A 
ATOM     81  C   UNL A   1      48.232  26.310  32.084  1.00  0.00     0.010 A 
ATOM     82  C   UNL A   1      49.029  27.417  30.078  1.00  0.00     0.010 A 
ATOM     83  C   UNL A   1      49.545  25.963  32.413  1.00  0.00     0.020 A 
ATOM     84  C   UNL A   1      50.339  27.043  30.386  1.00  0.00     0.020 A 
ATOM     85  C   UNL A   1      50.591  26.334  31.562  1.00  0.00     0.054 A 
BRANCH  85  86
ATOM     86  S   UNL A   1      52.283  25.853  31.999  1.00  0.00     0.124 S 
ATOM     87  O   UNL A   1      52.096  24.486  32.477  1.00  0.00    -0.237 OA
ATOM     88  O   UNL A   1      52.992  25.983  30.728  1.00  0.00    -0.237 OA
ATOM     89  O   UNL A   1      52.667  26.824  33.021  1.00  0.00    -0.744 OA
ENDBRANCH  85  86
ENDBRANCH  59  80
ENDBRANCH  33  34
ENDBRANCH  25  28
ENDBRANCH  23  24
ENDBRANCH  22  23
ENDBRANCH   1  22
TORSDOF 19
ENDMDL
