MODEL 1
REMARK VINA RESULT:     -10.5      0.000      0.000
REMARK SMILES Cc1ccsc1/C=C/C(=O)NC[C@H](CC(C)C)C(=O)NCCCCNC(=O)c1ccc(-c2c3nc(c(-c4ccc(S(=O)(=O)[O-])cc4)c4ccc([nH]4)c(-c4ccc(S(=O)(=O)[O-])cc4)c4nc(c(-c5ccc(S(=O)(=O)[O-])cc5)c5ccc2[nH]5)C=C4)C=C3)cc1
REMARK SMILES IDX 22 1 21 2 20 3 18 4 19 5 13 7 12 8 11 9 9 10 10 11 8 13 7 14
REMARK SMILES IDX 6 15 1 16 2 17 3 18 4 19 5 20 14 21 15 22 16 23 17 24 23 25
REMARK SMILES IDX 24 26 25 27 26 28 27 30 28 31 29 32 87 33 30 34 86 35 31 36
REMARK SMILES IDX 32 37 33 38 80 39 34 40 85 41 79 42 81 43 35 44 84 45 78 46
REMARK SMILES IDX 77 47 36 49 66 50 47 51 65 52 48 53 51 54 64 55 82 56 49 57
REMARK SMILES IDX 50 58 63 60 83 61 52 62 37 63 38 64 46 65 39 66 45 67 40 68
REMARK SMILES IDX 41 69 42 70 43 71 44 72 67 73 68 74 76 75 69 76 75 77 70 78
REMARK SMILES IDX 71 79 72 80 73 81 74 82 53 83 54 84 62 85 55 86 61 87 56 88
REMARK SMILES IDX 57 89 58 90 59 91 60 92
REMARK H PARENT 20 6 11 12 25 29 81 48 51 59
REMARK Flexibility Score: inf
ROOT
ATOM      1  C   UNL A   1      32.817  28.611  24.859  1.00  0.00     0.023 C 
ENDROOT
BRANCH   1   2
ATOM      2  C   UNL A   1      31.451  28.513  25.538  1.00  0.00     0.116 C 
BRANCH   2   3
ATOM      3  N   UNL A   1      30.405  28.116  24.621  1.00  0.00    -0.356 N 
ATOM      4  C   UNL A   1      30.011  26.911  24.137  1.00  0.00     0.224 C 
ATOM      5  O   UNL A   1      29.024  26.922  23.390  1.00  0.00    -0.275 OA
ATOM      6  H   UNL A   1      29.871  28.870  24.282  1.00  0.00     0.163 HD
BRANCH   4   7
ATOM      7  C   UNL A   1      30.708  25.577  24.419  1.00  0.00     0.098 C 
BRANCH   7   8
ATOM      8  C   UNL A   1      30.781  24.595  23.252  1.00  0.00     0.129 C 
BRANCH   8   9
ATOM      9  N   UNL A   1      31.519  25.050  22.093  1.00  0.00    -0.352 N 
ATOM     10  C   UNL A   1      32.840  24.902  21.801  1.00  0.00     0.244 C 
ATOM     11  O   UNL A   1      33.273  25.396  20.759  1.00  0.00    -0.270 OA
ATOM     12  H   UNL A   1      30.990  25.537  21.420  1.00  0.00     0.163 HD
BRANCH  10  13
ATOM     13  C   UNL A   1      33.813  24.231  22.715  1.00  0.00     0.072 C 
ATOM     14  C   UNL A   1      33.917  22.937  23.062  1.00  0.00     0.025 C 
BRANCH  14  15
ATOM     15  C   UNL A   1      34.936  22.415  23.931  1.00  0.00     0.030 A 
ATOM     16  C   UNL A   1      33.692  20.386  24.918  1.00  0.00     0.046 C 
ATOM     17  C   UNL A   1      34.879  21.275  24.739  1.00  0.00    -0.033 A 
ATOM     18  C   UNL A   1      36.120  21.029  25.415  1.00  0.00     0.016 A 
ATOM     19  C   UNL A   1      37.077  21.964  25.118  1.00  0.00     0.066 A 
ATOM     20  S   UNL A   1      36.501  23.142  24.037  1.00  0.00    -0.144 S 
ENDBRANCH  14  15
ENDBRANCH  10  13
ENDBRANCH   8   9
ENDBRANCH   7   8
BRANCH   7  21
ATOM     21  C   UNL A   1      30.326  24.953  25.787  1.00  0.00     0.018 C 
BRANCH  21  22
ATOM     22  C   UNL A   1      30.766  23.529  26.181  1.00  0.00    -0.017 C 
ATOM     23  C   UNL A   1      32.138  23.419  26.827  1.00  0.00     0.007 C 
ATOM     24  C   UNL A   1      29.738  22.906  27.132  1.00  0.00     0.007 C 
ENDBRANCH  21  22
ENDBRANCH   7  21
ENDBRANCH   4   7
ENDBRANCH   2   3
ENDBRANCH   1   2
BRANCH   1  25
ATOM     25  C   UNL A   1      34.025  28.581  25.779  1.00  0.00     0.023 C 
BRANCH  25  26
ATOM     26  C   UNL A   1      33.726  28.740  27.260  1.00  0.00     0.116 C 
BRANCH  26  27
ATOM     27  N   UNL A   1      33.752  30.116  27.739  1.00  0.00    -0.352 N 
ATOM     28  C   UNL A   1      34.814  30.796  28.304  1.00  0.00     0.251 C 
ATOM     29  H   UNL A   1      32.912  30.622  27.649  1.00  0.00     0.163 HD
ATOM     30  O   UNL A   1      34.683  31.935  28.713  1.00  0.00    -0.269 OA
BRANCH  28  31
ATOM     31  C   UNL A   1      36.098  30.074  28.449  1.00  0.00     0.039 A 
ATOM     32  C   UNL A   1      37.032  30.144  27.414  1.00  0.00     0.014 A 
ATOM     33  C   UNL A   1      36.420  29.461  29.660  1.00  0.00     0.014 A 
ATOM     34  C   UNL A   1      38.332  29.682  27.634  1.00  0.00     0.010 A 
ATOM     35  C   UNL A   1      37.736  29.095  29.909  1.00  0.00     0.010 A 
ATOM     36  C   UNL A   1      38.708  29.205  28.902  1.00  0.00    -0.014 A 
BRANCH  36  37
ATOM     37  C   UNL A   1      40.108  28.816  29.203  1.00  0.00     0.031 A 
ATOM     38  C   UNL A   1      41.029  29.803  29.866  1.00  0.00     0.074 A 
ATOM     39  C   UNL A   1      40.575  27.613  28.808  1.00  0.00     0.049 A 
ATOM     40  N   UNL A   1      42.305  29.692  30.133  1.00  0.00    -0.248 NA
ATOM     41  C   UNL A   1      40.447  31.102  30.248  1.00  0.00     0.031 C 
ATOM     42  C   UNL A   1      39.800  26.586  28.106  1.00  0.00     0.029 A 
ATOM     43  N   UNL A   1      41.821  27.053  28.939  1.00  0.00    -0.354 N 
ATOM     44  C   UNL A   1      42.680  30.910  30.685  1.00  0.00     0.074 A 
ATOM     45  C   UNL A   1      41.515  31.766  30.661  1.00  0.00     0.031 C 
ATOM     46  C   UNL A   1      40.578  25.508  27.904  1.00  0.00     0.029 A 
ATOM     47  C   UNL A   1      41.913  25.780  28.425  1.00  0.00     0.049 A 
ATOM     48  H   UNL A   1      42.579  27.518  29.361  1.00  0.00     0.167 HD
ATOM     49  C   UNL A   1      43.879  31.280  31.195  1.00  0.00     0.031 A 
ATOM     50  C   UNL A   1      42.955  24.927  28.381  1.00  0.00     0.031 A 
ATOM     51  C   UNL A   1      45.028  30.419  31.247  1.00  0.00     0.049 A 
ATOM     52  C   UNL A   1      44.273  25.351  28.969  1.00  0.00     0.074 A 
ATOM     53  C   UNL A   1      46.272  30.675  31.796  1.00  0.00     0.029 A 
ATOM     54  N   UNL A   1      45.071  29.129  30.739  1.00  0.00    -0.354 N 
ATOM     55  N   UNL A   1      44.593  26.489  29.538  1.00  0.00    -0.248 NA
ATOM     56  C   UNL A   1      45.368  24.371  28.918  1.00  0.00     0.031 C 
ATOM     57  C   UNL A   1      47.079  29.551  31.589  1.00  0.00     0.029 A 
ATOM     58  C   UNL A   1      46.323  28.580  30.952  1.00  0.00     0.049 A 
ATOM     59  H   UNL A   1      44.322  28.673  30.294  1.00  0.00     0.167 HD
ATOM     60  C   UNL A   1      45.918  26.352  29.937  1.00  0.00     0.074 A 
ATOM     61  C   UNL A   1      46.336  25.018  29.554  1.00  0.00     0.031 C 
ATOM     62  C   UNL A   1      46.717  27.249  30.565  1.00  0.00     0.031 A 
BRANCH  49  63
ATOM     63  C   UNL A   1      43.992  32.677  31.741  1.00  0.00    -0.014 A 
ATOM     64  C   UNL A   1      44.367  33.749  30.910  1.00  0.00     0.010 A 
ATOM     65  C   UNL A   1      43.722  32.924  33.098  1.00  0.00     0.010 A 
ATOM     66  C   UNL A   1      44.524  35.033  31.439  1.00  0.00     0.020 A 
ATOM     67  C   UNL A   1      43.850  34.213  33.625  1.00  0.00     0.020 A 
ATOM     68  C   UNL A   1      44.273  35.255  32.795  1.00  0.00     0.054 A 
BRANCH  68  69
ATOM     69  S   UNL A   1      44.485  36.929  33.456  1.00  0.00     0.124 S 
ATOM     70  O   UNL A   1      45.919  37.142  33.276  1.00  0.00    -0.237 OA
ATOM     71  O   UNL A   1      43.619  37.729  32.594  1.00  0.00    -0.237 OA
ATOM     72  O   UNL A   1      44.041  36.813  34.843  1.00  0.00    -0.744 OA
ENDBRANCH  68  69
ENDBRANCH  49  63
BRANCH  50  73
ATOM     73  C   UNL A   1      42.784  23.570  27.792  1.00  0.00    -0.014 A 
ATOM     74  C   UNL A   1      42.198  22.541  28.549  1.00  0.00     0.010 A 
ATOM     75  C   UNL A   1      43.192  23.303  26.473  1.00  0.00     0.010 A 
ATOM     76  C   UNL A   1      42.035  21.264  28.004  1.00  0.00     0.020 A 
ATOM     77  C   UNL A   1      43.010  22.034  25.916  1.00  0.00     0.020 A 
ATOM     78  C   UNL A   1      42.441  21.019  26.689  1.00  0.00     0.054 A 
BRANCH  78  79
ATOM     79  S   UNL A   1      42.167  19.370  25.982  1.00  0.00     0.124 S 
ATOM     80  O   UNL A   1      42.913  19.448  24.731  1.00  0.00    -0.237 OA
ATOM     81  O   UNL A   1      42.731  18.489  27.002  1.00  0.00    -0.237 OA
ATOM     82  O   UNL A   1      40.714  19.297  25.844  1.00  0.00    -0.744 OA
ENDBRANCH  78  79
ENDBRANCH  50  73
BRANCH  62  83
ATOM     83  C   UNL A   1      48.113  26.809  30.908  1.00  0.00    -0.014 A 
ATOM     84  C   UNL A   1      49.165  26.946  29.987  1.00  0.00     0.010 A 
ATOM     85  C   UNL A   1      48.384  26.306  32.194  1.00  0.00     0.010 A 
ATOM     86  C   UNL A   1      50.462  26.562  30.337  1.00  0.00     0.020 A 
ATOM     87  C   UNL A   1      49.683  25.944  32.555  1.00  0.00     0.020 A 
ATOM     88  C   UNL A   1      50.713  26.063  31.619  1.00  0.00     0.054 A 
BRANCH  88  89
ATOM     89  S   UNL A   1      52.412  25.616  32.068  1.00  0.00     0.124 S 
ATOM     90  O   UNL A   1      52.606  26.365  33.305  1.00  0.00    -0.237 OA
ATOM     91  O   UNL A   1      52.335  24.164  32.216  1.00  0.00    -0.237 OA
ATOM     92  O   UNL A   1      53.203  26.077  30.928  1.00  0.00    -0.744 OA
ENDBRANCH  88  89
ENDBRANCH  62  83
ENDBRANCH  36  37
ENDBRANCH  28  31
ENDBRANCH  26  27
ENDBRANCH  25  26
ENDBRANCH   1  25
TORSDOF 20
ENDMDL
MODEL 2
REMARK VINA RESULT:     -10.2      3.202      8.940
REMARK SMILES Cc1ccsc1/C=C/C(=O)NC[C@H](CC(C)C)C(=O)NCCCCNC(=O)c1ccc(-c2c3nc(c(-c4ccc(S(=O)(=O)[O-])cc4)c4ccc([nH]4)c(-c4ccc(S(=O)(=O)[O-])cc4)c4nc(c(-c5ccc(S(=O)(=O)[O-])cc5)c5ccc2[nH]5)C=C4)C=C3)cc1
REMARK SMILES IDX 22 1 21 2 20 3 18 4 19 5 13 7 12 8 11 9 9 10 10 11 8 13 7 14
REMARK SMILES IDX 6 15 1 16 2 17 3 18 4 19 5 20 14 21 15 22 16 23 17 24 23 25
REMARK SMILES IDX 24 26 25 27 26 28 27 30 28 31 29 32 87 33 30 34 86 35 31 36
REMARK SMILES IDX 32 37 33 38 80 39 34 40 85 41 79 42 81 43 35 44 84 45 78 46
REMARK SMILES IDX 77 47 36 49 66 50 47 51 65 52 48 53 51 54 64 55 82 56 49 57
REMARK SMILES IDX 50 58 63 60 83 61 52 62 37 63 38 64 46 65 39 66 45 67 40 68
REMARK SMILES IDX 41 69 42 70 43 71 44 72 67 73 68 74 76 75 69 76 75 77 70 78
REMARK SMILES IDX 71 79 72 80 73 81 74 82 53 83 54 84 62 85 55 86 61 87 56 88
REMARK SMILES IDX 57 89 58 90 59 91 60 92
REMARK H PARENT 20 6 11 12 25 29 81 48 51 59
REMARK Flexibility Score: inf
ROOT
ATOM      1  C   UNL A   1      33.263  29.902  27.007  1.00  0.00     0.023 C 
ENDROOT
BRANCH   1   2
ATOM      2  C   UNL A   1      32.385  30.010  25.760  1.00  0.00     0.116 C 
BRANCH   2   3
ATOM      3  N   UNL A   1      33.078  29.599  24.558  1.00  0.00    -0.356 N 
ATOM      4  C   UNL A   1      32.664  29.000  23.414  1.00  0.00     0.224 C 
ATOM      5  O   UNL A   1      33.529  28.832  22.546  1.00  0.00    -0.275 OA
ATOM      6  H   UNL A   1      34.043  29.794  24.574  1.00  0.00     0.163 HD
BRANCH   4   7
ATOM      7  C   UNL A   1      31.241  28.503  23.144  1.00  0.00     0.098 C 
BRANCH   7   8
ATOM      8  C   UNL A   1      31.103  27.031  22.762  1.00  0.00     0.129 C 
BRANCH   8   9
ATOM      9  N   UNL A   1      31.721  26.646  21.511  1.00  0.00    -0.352 N 
ATOM     10  C   UNL A   1      32.631  25.664  21.267  1.00  0.00     0.244 C 
ATOM     11  O   UNL A   1      33.052  25.522  20.119  1.00  0.00    -0.270 OA
ATOM     12  H   UNL A   1      31.444  27.170  20.724  1.00  0.00     0.163 HD
BRANCH  10  13
ATOM     13  C   UNL A   1      33.203  24.791  22.336  1.00  0.00     0.072 C 
ATOM     14  C   UNL A   1      33.084  23.466  22.522  1.00  0.00     0.025 C 
BRANCH  14  15
ATOM     15  C   UNL A   1      33.726  22.739  23.583  1.00  0.00     0.030 A 
ATOM     16  C   UNL A   1      32.415  20.524  23.472  1.00  0.00     0.046 C 
ATOM     17  C   UNL A   1      33.476  21.430  24.006  1.00  0.00    -0.033 A 
ATOM     18  C   UNL A   1      34.368  21.020  25.052  1.00  0.00     0.016 A 
ATOM     19  C   UNL A   1      35.261  22.000  25.399  1.00  0.00     0.066 A 
ATOM     20  S   UNL A   1      35.036  23.416  24.485  1.00  0.00    -0.144 S 
ENDBRANCH  14  15
ENDBRANCH  10  13
ENDBRANCH   8   9
ENDBRANCH   7   8
BRANCH   7  21
ATOM     21  C   UNL A   1      30.386  29.488  22.305  1.00  0.00     0.018 C 
BRANCH  21  22
ATOM     22  C   UNL A   1      29.007  29.981  22.787  1.00  0.00    -0.017 C 
ATOM     23  C   UNL A   1      29.016  31.258  23.613  1.00  0.00     0.007 C 
ATOM     24  C   UNL A   1      28.077  30.194  21.588  1.00  0.00     0.007 C 
ENDBRANCH  21  22
ENDBRANCH   7  21
ENDBRANCH   4   7
ENDBRANCH   2   3
ENDBRANCH   1   2
BRANCH   1  25
ATOM     25  C   UNL A   1      34.609  29.224  26.820  1.00  0.00     0.023 C 
BRANCH  25  26
ATOM     26  C   UNL A   1      35.743  29.774  27.669  1.00  0.00     0.116 C 
BRANCH  26  27
ATOM     27  N   UNL A   1      35.540  29.647  29.106  1.00  0.00    -0.352 N 
ATOM     28  C   UNL A   1      36.504  29.587  30.095  1.00  0.00     0.251 C 
ATOM     29  H   UNL A   1      34.605  29.599  29.409  1.00  0.00     0.163 HD
ATOM     30  O   UNL A   1      36.196  29.427  31.262  1.00  0.00    -0.269 OA
BRANCH  28  31
ATOM     31  C   UNL A   1      37.923  29.666  29.683  1.00  0.00     0.039 A 
ATOM     32  C   UNL A   1      38.916  29.574  30.660  1.00  0.00     0.014 A 
ATOM     33  C   UNL A   1      38.256  29.684  28.328  1.00  0.00     0.014 A 
ATOM     34  C   UNL A   1      40.245  29.399  30.269  1.00  0.00     0.010 A 
ATOM     35  C   UNL A   1      39.561  29.410  27.944  1.00  0.00     0.010 A 
ATOM     36  C   UNL A   1      40.570  29.259  28.908  1.00  0.00    -0.014 A 
BRANCH  36  37
ATOM     37  C   UNL A   1      41.953  28.956  28.465  1.00  0.00     0.031 A 
ATOM     38  C   UNL A   1      42.309  27.559  28.036  1.00  0.00     0.074 A 
ATOM     39  C   UNL A   1      42.907  29.908  28.528  1.00  0.00     0.049 A 
ATOM     40  N   UNL A   1      43.474  27.068  27.701  1.00  0.00    -0.248 NA
ATOM     41  C   UNL A   1      41.214  26.572  28.016  1.00  0.00     0.031 C 
ATOM     42  C   UNL A   1      42.706  31.288  28.979  1.00  0.00     0.029 A 
ATOM     43  N   UNL A   1      44.242  29.857  28.213  1.00  0.00    -0.354 N 
ATOM     44  C   UNL A   1      43.258  25.718  27.459  1.00  0.00     0.074 A 
ATOM     45  C   UNL A   1      41.865  25.453  27.742  1.00  0.00     0.031 C 
ATOM     46  C   UNL A   1      43.866  31.960  28.874  1.00  0.00     0.029 A 
ATOM     47  C   UNL A   1      44.900  31.053  28.387  1.00  0.00     0.049 A 
ATOM     48  H   UNL A   1      44.689  29.040  27.892  1.00  0.00     0.167 HD
ATOM     49  C   UNL A   1      44.131  24.784  27.012  1.00  0.00     0.031 A 
ATOM     50  C   UNL A   1      46.188  31.382  28.176  1.00  0.00     0.031 A 
ATOM     51  C   UNL A   1      45.507  25.055  26.701  1.00  0.00     0.049 A 
ATOM     52  C   UNL A   1      47.137  30.333  27.662  1.00  0.00     0.074 A 
ATOM     53  C   UNL A   1      46.459  24.193  26.187  1.00  0.00     0.029 A 
ATOM     54  N   UNL A   1      46.125  26.285  26.868  1.00  0.00    -0.354 N 
ATOM     55  N   UNL A   1      46.900  29.073  27.385  1.00  0.00    -0.248 NA
ATOM     56  C   UNL A   1      48.526  30.754  27.424  1.00  0.00     0.031 C 
ATOM     57  C   UNL A   1      47.665  24.894  26.075  1.00  0.00     0.029 A 
ATOM     58  C   UNL A   1      47.450  26.203  26.476  1.00  0.00     0.049 A 
ATOM     59  H   UNL A   1      45.686  27.095  27.213  1.00  0.00     0.167 HD
ATOM     60  C   UNL A   1      48.102  28.557  26.914  1.00  0.00     0.074 A 
ATOM     61  C   UNL A   1      49.061  29.643  26.934  1.00  0.00     0.031 C 
ATOM     62  C   UNL A   1      48.387  27.298  26.501  1.00  0.00     0.031 A 
BRANCH  49  63
ATOM     63  C   UNL A   1      43.605  23.386  26.830  1.00  0.00    -0.014 A 
ATOM     64  C   UNL A   1      43.237  22.602  27.940  1.00  0.00     0.010 A 
ATOM     65  C   UNL A   1      43.478  22.846  25.538  1.00  0.00     0.010 A 
ATOM     66  C   UNL A   1      42.805  21.285  27.764  1.00  0.00     0.020 A 
ATOM     67  C   UNL A   1      43.018  21.538  25.357  1.00  0.00     0.020 A 
ATOM     68  C   UNL A   1      42.706  20.759  26.474  1.00  0.00     0.054 A 
BRANCH  68  69
ATOM     69  S   UNL A   1      42.143  19.048  26.274  1.00  0.00     0.124 S 
ATOM     70  O   UNL A   1      43.096  18.532  25.295  1.00  0.00    -0.237 OA
ATOM     71  O   UNL A   1      42.274  18.504  27.623  1.00  0.00    -0.237 OA
ATOM     72  O   UNL A   1      40.770  19.189  25.794  1.00  0.00    -0.744 OA
ENDBRANCH  68  69
ENDBRANCH  49  63
BRANCH  50  73
ATOM     73  C   UNL A   1      46.651  32.777  28.411  1.00  0.00    -0.014 A 
ATOM     74  C   UNL A   1      46.725  33.686  27.342  1.00  0.00     0.010 A 
ATOM     75  C   UNL A   1      47.004  33.209  29.702  1.00  0.00     0.010 A 
ATOM     76  C   UNL A   1      47.159  34.998  27.554  1.00  0.00     0.020 A 
ATOM     77  C   UNL A   1      47.417  34.526  29.923  1.00  0.00     0.020 A 
ATOM     78  C   UNL A   1      47.501  35.410  28.845  1.00  0.00     0.054 A 
BRANCH  78  79
ATOM     79  S   UNL A   1      48.006  37.134  29.108  1.00  0.00     0.124 S 
ATOM     80  O   UNL A   1      49.256  37.202  28.359  1.00  0.00    -0.237 OA
ATOM     81  O   UNL A   1      46.887  37.883  28.542  1.00  0.00    -0.237 OA
ATOM     82  O   UNL A   1      48.138  37.231  30.560  1.00  0.00    -0.744 OA
ENDBRANCH  78  79
ENDBRANCH  50  73
BRANCH  62  83
ATOM     83  C   UNL A   1      49.780  27.032  26.005  1.00  0.00    -0.014 A 
ATOM     84  C   UNL A   1      50.783  26.565  26.871  1.00  0.00     0.010 A 
ATOM     85  C   UNL A   1      50.072  27.197  24.639  1.00  0.00     0.010 A 
ATOM     86  C   UNL A   1      52.064  26.292  26.384  1.00  0.00     0.020 A 
ATOM     87  C   UNL A   1      51.344  26.902  24.144  1.00  0.00     0.020 A 
ATOM     88  C   UNL A   1      52.337  26.463  25.023  1.00  0.00     0.054 A 
BRANCH  88  89
ATOM     89  S   UNL A   1      53.992  26.056  24.404  1.00  0.00     0.124 S 
ATOM     90  O   UNL A   1      54.836  26.960  25.179  1.00  0.00    -0.237 OA
ATOM     91  O   UNL A   1      54.119  24.638  24.734  1.00  0.00    -0.237 OA
ATOM     92  O   UNL A   1      53.909  26.350  22.975  1.00  0.00    -0.744 OA
ENDBRANCH  88  89
ENDBRANCH  62  83
ENDBRANCH  36  37
ENDBRANCH  28  31
ENDBRANCH  26  27
ENDBRANCH  25  26
ENDBRANCH   1  25
TORSDOF 20
ENDMDL
MODEL 3
REMARK VINA RESULT:      -9.9      1.241      2.174
REMARK SMILES Cc1ccsc1/C=C/C(=O)NC[C@H](CC(C)C)C(=O)NCCCCNC(=O)c1ccc(-c2c3nc(c(-c4ccc(S(=O)(=O)[O-])cc4)c4ccc([nH]4)c(-c4ccc(S(=O)(=O)[O-])cc4)c4nc(c(-c5ccc(S(=O)(=O)[O-])cc5)c5ccc2[nH]5)C=C4)C=C3)cc1
REMARK SMILES IDX 22 1 21 2 20 3 18 4 19 5 13 7 12 8 11 9 9 10 10 11 8 13 7 14
REMARK SMILES IDX 6 15 1 16 2 17 3 18 4 19 5 20 14 21 15 22 16 23 17 24 23 25
REMARK SMILES IDX 24 26 25 27 26 28 27 30 28 31 29 32 87 33 30 34 86 35 31 36
REMARK SMILES IDX 32 37 33 38 80 39 34 40 85 41 79 42 81 43 35 44 84 45 78 46
REMARK SMILES IDX 77 47 36 49 66 50 47 51 65 52 48 53 51 54 64 55 82 56 49 57
REMARK SMILES IDX 50 58 63 60 83 61 52 62 37 63 38 64 46 65 39 66 45 67 40 68
REMARK SMILES IDX 41 69 42 70 43 71 44 72 67 73 68 74 76 75 69 76 75 77 70 78
REMARK SMILES IDX 71 79 72 80 73 81 74 82 53 83 54 84 62 85 55 86 61 87 56 88
REMARK SMILES IDX 57 89 58 90 59 91 60 92
REMARK H PARENT 20 6 11 12 25 29 81 48 51 59
REMARK Flexibility Score: inf
ROOT
ATOM      1  C   UNL A   1      34.017  29.023  24.818  1.00  0.00     0.023 C 
ENDROOT
BRANCH   1   2
ATOM      2  C   UNL A   1      33.015  28.757  23.695  1.00  0.00     0.116 C 
BRANCH   2   3
ATOM      3  N   UNL A   1      33.470  27.731  22.781  1.00  0.00    -0.356 N 
ATOM      4  C   UNL A   1      33.163  26.417  22.643  1.00  0.00     0.224 C 
ATOM      5  O   UNL A   1      33.711  25.827  21.703  1.00  0.00    -0.275 OA
ATOM      6  H   UNL A   1      34.133  28.051  22.128  1.00  0.00     0.163 HD
BRANCH   4   7
ATOM      7  C   UNL A   1      32.233  25.627  23.569  1.00  0.00     0.098 C 
BRANCH   7   8
ATOM      8  C   UNL A   1      32.807  24.343  24.164  1.00  0.00     0.129 C 
BRANCH   8   9
ATOM      9  N   UNL A   1      32.240  23.930  25.430  1.00  0.00    -0.352 N 
ATOM     10  C   UNL A   1      32.860  23.390  26.515  1.00  0.00     0.244 C 
ATOM     11  O   UNL A   1      32.176  23.082  27.492  1.00  0.00    -0.270 OA
ATOM     12  H   UNL A   1      31.267  24.055  25.518  1.00  0.00     0.163 HD
BRANCH  10  13
ATOM     13  C   UNL A   1      34.321  23.085  26.559  1.00  0.00     0.072 C 
ATOM     14  C   UNL A   1      35.177  22.822  25.557  1.00  0.00     0.025 C 
BRANCH  14  15
ATOM     15  C   UNL A   1      36.582  22.581  25.739  1.00  0.00     0.030 A 
ATOM     16  C   UNL A   1      36.733  20.144  24.918  1.00  0.00     0.046 C 
ATOM     17  C   UNL A   1      37.304  21.422  25.438  1.00  0.00    -0.033 A 
ATOM     18  C   UNL A   1      38.707  21.578  25.691  1.00  0.00     0.016 A 
ATOM     19  C   UNL A   1      39.023  22.823  26.170  1.00  0.00     0.066 A 
ATOM     20  S   UNL A   1      37.647  23.810  26.325  1.00  0.00    -0.144 S 
ENDBRANCH  14  15
ENDBRANCH  10  13
ENDBRANCH   8   9
ENDBRANCH   7   8
BRANCH   7  21
ATOM     21  C   UNL A   1      30.777  25.521  23.044  1.00  0.00     0.018 C 
BRANCH  21  22
ATOM     22  C   UNL A   1      29.597  26.179  23.786  1.00  0.00    -0.017 C 
ATOM     23  C   UNL A   1      29.616  26.048  25.301  1.00  0.00     0.007 C 
ATOM     24  C   UNL A   1      29.523  27.670  23.436  1.00  0.00     0.007 C 
ENDBRANCH  21  22
ENDBRANCH   7  21
ENDBRANCH   4   7
ENDBRANCH   2   3
ENDBRANCH   1   2
BRANCH   1  25
ATOM     25  C   UNL A   1      34.031  28.016  25.955  1.00  0.00     0.023 C 
BRANCH  25  26
ATOM     26  C   UNL A   1      33.492  28.519  27.284  1.00  0.00     0.116 C 
BRANCH  26  27
ATOM     27  N   UNL A   1      33.568  29.964  27.460  1.00  0.00    -0.352 N 
ATOM     28  C   UNL A   1      34.663  30.713  27.844  1.00  0.00     0.251 C 
ATOM     29  H   UNL A   1      32.740  30.466  27.283  1.00  0.00     0.163 HD
ATOM     30  O   UNL A   1      34.575  31.917  28.005  1.00  0.00    -0.269 OA
BRANCH  28  31
ATOM     31  C   UNL A   1      35.931  29.998  28.110  1.00  0.00     0.039 A 
ATOM     32  C   UNL A   1      36.916  29.978  27.121  1.00  0.00     0.014 A 
ATOM     33  C   UNL A   1      36.187  29.482  29.382  1.00  0.00     0.014 A 
ATOM     34  C   UNL A   1      38.198  29.527  27.443  1.00  0.00     0.010 A 
ATOM     35  C   UNL A   1      37.485  29.129  29.725  1.00  0.00     0.010 A 
ATOM     36  C   UNL A   1      38.506  29.152  28.762  1.00  0.00    -0.014 A 
BRANCH  36  37
ATOM     37  C   UNL A   1      39.885  28.778  29.164  1.00  0.00     0.031 A 
ATOM     38  C   UNL A   1      40.737  29.769  29.909  1.00  0.00     0.074 A 
ATOM     39  C   UNL A   1      40.401  27.590  28.788  1.00  0.00     0.049 A 
ATOM     40  N   UNL A   1      41.991  29.674  30.271  1.00  0.00    -0.248 NA
ATOM     41  C   UNL A   1      40.106  31.053  30.264  1.00  0.00     0.031 C 
ATOM     42  C   UNL A   1      39.699  26.562  28.013  1.00  0.00     0.029 A 
ATOM     43  N   UNL A   1      41.642  27.046  29.004  1.00  0.00    -0.354 N 
ATOM     44  C   UNL A   1      42.303  30.888  30.868  1.00  0.00     0.074 A 
ATOM     45  C   UNL A   1      41.129  31.726  30.767  1.00  0.00     0.031 C 
ATOM     46  C   UNL A   1      40.507  25.500  27.855  1.00  0.00     0.029 A 
ATOM     47  C   UNL A   1      41.794  25.783  28.480  1.00  0.00     0.049 A 
ATOM     48  H   UNL A   1      42.359  27.517  29.490  1.00  0.00     0.167 HD
ATOM     49  C   UNL A   1      43.454  31.268  31.473  1.00  0.00     0.031 A 
ATOM     50  C   UNL A   1      42.850  24.948  28.503  1.00  0.00     0.031 A 
ATOM     51  C   UNL A   1      44.609  30.423  31.600  1.00  0.00     0.049 A 
ATOM     52  C   UNL A   1      44.113  25.382  29.196  1.00  0.00     0.074 A 
ATOM     53  C   UNL A   1      45.804  30.690  32.246  1.00  0.00     0.029 A 
ATOM     54  N   UNL A   1      44.712  29.143  31.078  1.00  0.00    -0.354 N 
ATOM     55  N   UNL A   1      44.370  26.515  29.805  1.00  0.00    -0.248 NA
ATOM     56  C   UNL A   1      45.225  24.420  29.214  1.00  0.00     0.031 C 
ATOM     57  C   UNL A   1      46.642  29.582  32.084  1.00  0.00     0.029 A 
ATOM     58  C   UNL A   1      45.953  28.610  31.377  1.00  0.00     0.049 A 
ATOM     59  H   UNL A   1      44.006  28.683  30.570  1.00  0.00     0.167 HD
ATOM     60  C   UNL A   1      45.663  26.392  30.301  1.00  0.00     0.074 A 
ATOM     61  C   UNL A   1      46.130  25.071  29.932  1.00  0.00     0.031 C 
ATOM     62  C   UNL A   1      46.397  27.291  31.002  1.00  0.00     0.031 A 
BRANCH  49  63
ATOM     63  C   UNL A   1      43.501  32.657  32.047  1.00  0.00    -0.014 A 
ATOM     64  C   UNL A   1      43.161  32.895  33.392  1.00  0.00     0.010 A 
ATOM     65  C   UNL A   1      43.889  33.739  31.237  1.00  0.00     0.010 A 
ATOM     66  C   UNL A   1      43.153  34.197  33.900  1.00  0.00     0.020 A 
ATOM     67  C   UNL A   1      43.910  35.039  31.751  1.00  0.00     0.020 A 
ATOM     68  C   UNL A   1      43.519  35.261  33.073  1.00  0.00     0.054 A 
BRANCH  68  69
ATOM     69  S   UNL A   1      43.500  36.940  33.757  1.00  0.00     0.124 S 
ATOM     70  O   UNL A   1      43.647  37.755  32.554  1.00  0.00    -0.237 OA
ATOM     71  O   UNL A   1      42.194  37.009  34.407  1.00  0.00    -0.237 OA
ATOM     72  O   UNL A   1      44.644  36.957  34.665  1.00  0.00    -0.744 OA
ENDBRANCH  68  69
ENDBRANCH  49  63
BRANCH  50  73
ATOM     73  C   UNL A   1      42.747  23.598  27.883  1.00  0.00    -0.014 A 
ATOM     74  C   UNL A   1      42.181  22.532  28.603  1.00  0.00     0.010 A 
ATOM     75  C   UNL A   1      43.199  23.374  26.571  1.00  0.00     0.010 A 
ATOM     76  C   UNL A   1      42.080  21.261  28.029  1.00  0.00     0.020 A 
ATOM     77  C   UNL A   1      43.081  22.110  25.984  1.00  0.00     0.020 A 
ATOM     78  C   UNL A   1      42.531  21.059  26.721  1.00  0.00     0.054 A 
BRANCH  78  79
ATOM     79  S   UNL A   1      42.338  19.416  25.974  1.00  0.00     0.124 S 
ATOM     80  O   UNL A   1      42.783  18.539  27.052  1.00  0.00    -0.237 OA
ATOM     81  O   UNL A   1      40.910  19.371  25.668  1.00  0.00    -0.237 OA
ATOM     82  O   UNL A   1      43.215  19.470  24.806  1.00  0.00    -0.744 OA
ENDBRANCH  78  79
ENDBRANCH  50  73
BRANCH  62  83
ATOM     83  C   UNL A   1      47.770  26.867  31.444  1.00  0.00    -0.014 A 
ATOM     84  C   UNL A   1      47.969  26.219  32.675  1.00  0.00     0.010 A 
ATOM     85  C   UNL A   1      48.867  27.070  30.587  1.00  0.00     0.010 A 
ATOM     86  C   UNL A   1      49.248  25.802  33.053  1.00  0.00     0.020 A 
ATOM     87  C   UNL A   1      50.142  26.634  30.951  1.00  0.00     0.020 A 
ATOM     88  C   UNL A   1      50.327  26.013  32.188  1.00  0.00     0.054 A 
BRANCH  88  89
ATOM     89  S   UNL A   1      51.969  25.422  32.679  1.00  0.00     0.124 S 
ATOM     90  O   UNL A   1      52.673  25.386  31.401  1.00  0.00    -0.237 OA
ATOM     91  O   UNL A   1      52.416  26.451  33.615  1.00  0.00    -0.237 OA
ATOM     92  O   UNL A   1      51.701  24.118  33.281  1.00  0.00    -0.744 OA
ENDBRANCH  88  89
ENDBRANCH  62  83
ENDBRANCH  36  37
ENDBRANCH  28  31
ENDBRANCH  26  27
ENDBRANCH  25  26
ENDBRANCH   1  25
TORSDOF 20
ENDMDL
