MODEL 1
REMARK VINA RESULT:     -10.4      0.000      0.000
REMARK SMILES CCCC[C@@H](Sc1nc(OCCC2CCCCC2)cc(OCCC2CCCCC2)n1)C(=O)NCCCCNC(=O)c1ccc(-c2c3nc(c(-c4ccc(S(=O)(=O)[O-])cc4)c4ccc([nH]4)c(-c4ccc(S(=O)(=O)[O-])cc4)c4nc(c(-c5ccc(S(=O)(=O)[O-])cc5)c5ccc2[nH]5)C=C4)C=C3)cc1
REMARK SMILES IDX 34 1 33 2 31 3 32 4 5 6 4 7 3 8 2 9 1 10 6 11 7 12 8 13
REMARK SMILES IDX 30 14 9 15 20 16 19 17 10 18 11 19 12 20 13 21 14 22 18 23
REMARK SMILES IDX 15 24 17 25 16 26 21 27 22 28 23 29 24 30 25 31 29 32 26 33
REMARK SMILES IDX 28 34 27 35 35 36 36 37 37 38 38 39 39 40 40 42 41 43 42 44
REMARK SMILES IDX 100 45 43 46 99 47 44 48 45 49 46 50 93 51 47 52 98 53 92 54
REMARK SMILES IDX 94 55 48 56 97 57 91 58 90 59 49 61 79 62 60 63 78 64 61 65
REMARK SMILES IDX 64 66 77 67 95 68 62 69 63 70 76 72 96 73 65 74 50 75 51 76
REMARK SMILES IDX 59 77 52 78 58 79 53 80 54 81 55 82 56 83 57 84 80 85 81 86
REMARK SMILES IDX 89 87 82 88 88 89 83 90 84 91 85 92 86 93 87 94 66 95 67 96
REMARK SMILES IDX 75 97 68 98 74 99 69 100 70 101 71 102 72 103 73 104
REMARK H PARENT 33 5 38 41 94 60 64 71
REMARK Flexibility Score: inf
ROOT
ATOM      1  C   UNL A   1      38.489  23.700  26.130  1.00  0.00     0.116 C 
ENDROOT
BRANCH   1   2
ATOM      2  N   UNL A   1      37.918  23.164  24.902  1.00  0.00    -0.355 N 
ATOM      3  C   UNL A   1      36.640  23.259  24.405  1.00  0.00     0.233 C 
ATOM      4  O   UNL A   1      36.397  22.726  23.320  1.00  0.00    -0.274 OA
ATOM      5  H   UNL A   1      38.544  22.652  24.340  1.00  0.00     0.163 HD
BRANCH   3   6
ATOM      6  C   UNL A   1      35.537  23.999  25.196  1.00  0.00     0.144 C 
BRANCH   6   7
ATOM      7  C   UNL A   1      34.430  24.337  24.156  1.00  0.00     0.025 C 
BRANCH   7   8
ATOM      8  C   UNL A   1      33.913  25.753  23.917  1.00  0.00     0.001 C 
BRANCH   8   9
ATOM      9  C   UNL A   1      33.611  26.161  22.477  1.00  0.00    -0.003 C 
ATOM     10  C   UNL A   1      32.933  25.071  21.672  1.00  0.00     0.004 C 
ENDBRANCH   8   9
ENDBRANCH   7   8
ENDBRANCH   6   7
BRANCH   6  11
ATOM     11  S   UNL A   1      35.318  22.897  26.710  1.00  0.00    -0.073 SA
BRANCH  11  12
ATOM     12  C   UNL A   1      33.646  22.363  26.632  1.00  0.00     0.195 A 
ATOM     13  N   UNL A   1      33.358  21.317  25.832  1.00  0.00    -0.187 NA
ATOM     14  N   UNL A   1      32.749  23.173  27.173  1.00  0.00    -0.187 NA
ATOM     15  C   UNL A   1      32.090  21.220  25.413  1.00  0.00     0.221 A 
ATOM     16  C   UNL A   1      31.515  23.080  26.696  1.00  0.00     0.221 A 
ATOM     17  C   UNL A   1      31.175  22.185  25.727  1.00  0.00     0.136 A 
BRANCH  15  18
ATOM     18  O   UNL A   1      31.788  20.085  24.700  1.00  0.00    -0.477 OA
BRANCH  18  19
ATOM     19  C   UNL A   1      32.382  19.902  23.410  1.00  0.00     0.231 C 
BRANCH  19  20
ATOM     20  C   UNL A   1      32.286  18.470  22.813  1.00  0.00     0.045 C 
BRANCH  20  21
ATOM     21  C   UNL A   1      33.001  17.360  23.599  1.00  0.00    -0.008 C 
ATOM     22  C   UNL A   1      34.398  17.729  24.121  1.00  0.00     0.004 C 
ATOM     23  C   UNL A   1      32.172  16.816  24.760  1.00  0.00     0.004 C 
ATOM     24  C   UNL A   1      35.106  16.473  24.649  1.00  0.00     0.000 C 
ATOM     25  C   UNL A   1      32.790  15.504  25.238  1.00  0.00     0.000 C 
ATOM     26  C   UNL A   1      34.263  15.651  25.625  1.00  0.00     0.000 C 
ENDBRANCH  20  21
ENDBRANCH  19  20
ENDBRANCH  18  19
ENDBRANCH  15  18
BRANCH  16  27
ATOM     27  O   UNL A   1      30.716  24.127  27.040  1.00  0.00    -0.477 OA
BRANCH  27  28
ATOM     28  C   UNL A   1      30.975  25.380  26.420  1.00  0.00     0.231 C 
BRANCH  28  29
ATOM     29  C   UNL A   1      29.713  25.784  25.630  1.00  0.00     0.045 C 
BRANCH  29  30
ATOM     30  C   UNL A   1      29.962  27.001  24.720  1.00  0.00    -0.008 C 
ATOM     31  C   UNL A   1      31.201  27.785  25.152  1.00  0.00     0.004 C 
ATOM     32  C   UNL A   1      30.137  26.673  23.233  1.00  0.00     0.004 C 
ATOM     33  C   UNL A   1      31.192  29.143  24.465  1.00  0.00     0.000 C 
ATOM     34  C   UNL A   1      30.251  27.974  22.419  1.00  0.00     0.000 C 
ATOM     35  C   UNL A   1      31.293  28.962  22.960  1.00  0.00     0.000 C 
ENDBRANCH  29  30
ENDBRANCH  28  29
ENDBRANCH  27  28
ENDBRANCH  16  27
ENDBRANCH  11  12
ENDBRANCH   6  11
ENDBRANCH   3   6
ENDBRANCH   1   2
BRANCH   1  36
ATOM     36  C   UNL A   1      39.491  22.729  26.755  1.00  0.00     0.023 C 
BRANCH  36  37
ATOM     37  C   UNL A   1      39.726  21.471  25.925  1.00  0.00     0.023 C 
BRANCH  37  38
ATOM     38  C   UNL A   1      40.628  20.442  26.590  1.00  0.00     0.116 C 
BRANCH  38  39
ATOM     39  N   UNL A   1      41.848  20.183  25.838  1.00  0.00    -0.352 N 
ATOM     40  C   UNL A   1      42.979  20.962  25.775  1.00  0.00     0.251 C 
ATOM     41  H   UNL A   1      41.865  19.351  25.312  1.00  0.00     0.163 HD
ATOM     42  O   UNL A   1      43.882  20.696  24.988  1.00  0.00    -0.269 OA
BRANCH  40  43
ATOM     43  C   UNL A   1      43.063  22.147  26.651  1.00  0.00     0.039 A 
ATOM     44  C   UNL A   1      43.292  23.399  26.080  1.00  0.00     0.014 A 
ATOM     45  C   UNL A   1      42.827  22.019  28.023  1.00  0.00     0.014 A 
ATOM     46  C   UNL A   1      43.216  24.538  26.882  1.00  0.00     0.010 A 
ATOM     47  C   UNL A   1      42.668  23.159  28.799  1.00  0.00     0.010 A 
ATOM     48  C   UNL A   1      42.865  24.430  28.238  1.00  0.00    -0.014 A 
BRANCH  48  49
ATOM     49  C   UNL A   1      42.701  25.634  29.090  1.00  0.00     0.031 A 
ATOM     50  C   UNL A   1      43.759  25.988  30.099  1.00  0.00     0.074 A 
ATOM     51  C   UNL A   1      41.576  26.370  28.999  1.00  0.00     0.049 A 
ATOM     52  N   UNL A   1      43.777  26.968  30.964  1.00  0.00    -0.248 NA
ATOM     53  C   UNL A   1      44.940  25.112  30.160  1.00  0.00     0.031 C 
ATOM     54  C   UNL A   1      40.458  26.104  28.088  1.00  0.00     0.029 A 
ATOM     55  N   UNL A   1      41.184  27.494  29.682  1.00  0.00    -0.354 N 
ATOM     56  C   UNL A   1      44.959  26.819  31.679  1.00  0.00     0.074 A 
ATOM     57  C   UNL A   1      45.602  25.621  31.188  1.00  0.00     0.031 C 
ATOM     58  C   UNL A   1      39.526  27.058  28.245  1.00  0.00     0.029 A 
ATOM     59  C   UNL A   1      39.955  27.975  29.296  1.00  0.00     0.049 A 
ATOM     60  H   UNL A   1      41.731  27.915  30.383  1.00  0.00     0.167 HD
ATOM     61  C   UNL A   1      45.477  27.620  32.641  1.00  0.00     0.031 A 
ATOM     62  C   UNL A   1      39.250  29.035  29.740  1.00  0.00     0.031 A 
ATOM     63  C   UNL A   1      44.835  28.813  33.122  1.00  0.00     0.049 A 
ATOM     64  C   UNL A   1      39.833  29.896  30.827  1.00  0.00     0.074 A 
ATOM     65  C   UNL A   1      45.297  29.720  34.060  1.00  0.00     0.029 A 
ATOM     66  N   UNL A   1      43.590  29.266  32.707  1.00  0.00    -0.354 N 
ATOM     67  N   UNL A   1      40.985  29.776  31.446  1.00  0.00    -0.248 NA
ATOM     68  C   UNL A   1      39.028  31.042  31.270  1.00  0.00     0.031 C 
ATOM     69  C   UNL A   1      44.307  30.689  34.253  1.00  0.00     0.029 A 
ATOM     70  C   UNL A   1      43.257  30.423  33.388  1.00  0.00     0.049 A 
ATOM     71  H   UNL A   1      43.027  28.826  32.029  1.00  0.00     0.167 HD
ATOM     72  C   UNL A   1      41.054  30.848  32.328  1.00  0.00     0.074 A 
ATOM     73  C   UNL A   1      39.836  31.613  32.152  1.00  0.00     0.031 C 
ATOM     74  C   UNL A   1      42.040  31.173  33.202  1.00  0.00     0.031 A 
BRANCH  61  75
ATOM     75  C   UNL A   1      46.802  27.223  33.235  1.00  0.00    -0.014 A 
ATOM     76  C   UNL A   1      48.008  27.767  32.753  1.00  0.00     0.010 A 
ATOM     77  C   UNL A   1      46.846  26.315  34.309  1.00  0.00     0.010 A 
ATOM     78  C   UNL A   1      49.232  27.376  33.300  1.00  0.00     0.020 A 
ATOM     79  C   UNL A   1      48.066  25.945  34.881  1.00  0.00     0.020 A 
ATOM     80  C   UNL A   1      49.254  26.464  34.360  1.00  0.00     0.054 A 
BRANCH  80  81
ATOM     81  S   UNL A   1      50.857  25.989  35.061  1.00  0.00     0.124 S 
ATOM     82  O   UNL A   1      50.693  26.361  36.464  1.00  0.00    -0.237 OA
ATOM     83  O   UNL A   1      50.909  24.554  34.795  1.00  0.00    -0.237 OA
ATOM     84  O   UNL A   1      51.817  26.794  34.312  1.00  0.00    -0.744 OA
ENDBRANCH  80  81
ENDBRANCH  61  75
BRANCH  62  85
ATOM     85  C   UNL A   1      37.924  29.352  29.142  1.00  0.00    -0.014 A 
ATOM     86  C   UNL A   1      37.825  29.740  27.794  1.00  0.00     0.010 A 
ATOM     87  C   UNL A   1      36.750  29.256  29.912  1.00  0.00     0.010 A 
ATOM     88  C   UNL A   1      36.581  30.046  27.233  1.00  0.00     0.020 A 
ATOM     89  C   UNL A   1      35.502  29.533  29.347  1.00  0.00     0.020 A 
ATOM     90  C   UNL A   1      35.427  29.937  28.014  1.00  0.00     0.054 A 
BRANCH  90  91
ATOM     91  S   UNL A   1      33.819  30.292  27.249  1.00  0.00     0.124 S 
ATOM     92  O   UNL A   1      34.102  30.081  25.834  1.00  0.00    -0.237 OA
ATOM     93  O   UNL A   1      32.948  29.302  27.876  1.00  0.00    -0.237 OA
ATOM     94  O   UNL A   1      33.555  31.676  27.637  1.00  0.00    -0.744 OA
ENDBRANCH  90  91
ENDBRANCH  62  85
BRANCH  74  95
ATOM     95  C   UNL A   1      41.862  32.430  34.012  1.00  0.00    -0.014 A 
ATOM     96  C   UNL A   1      42.231  33.687  33.503  1.00  0.00     0.010 A 
ATOM     97  C   UNL A   1      41.261  32.354  35.282  1.00  0.00     0.010 A 
ATOM     98  C   UNL A   1      42.030  34.843  34.263  1.00  0.00     0.020 A 
ATOM     99  C   UNL A   1      41.030  33.510  36.031  1.00  0.00     0.020 A 
ATOM    100  C   UNL A   1      41.429  34.747  35.522  1.00  0.00     0.054 A 
BRANCH 100 101
ATOM    101  S   UNL A   1      41.137  36.267  36.468  1.00  0.00     0.124 S 
ATOM    102  O   UNL A   1      40.877  35.747  37.807  1.00  0.00    -0.237 OA
ATOM    103  O   UNL A   1      42.396  36.990  36.308  1.00  0.00    -0.237 OA
ATOM    104  O   UNL A   1      39.988  36.874  35.802  1.00  0.00    -0.744 OA
ENDBRANCH 100 101
ENDBRANCH  74  95
ENDBRANCH  48  49
ENDBRANCH  40  43
ENDBRANCH  38  39
ENDBRANCH  37  38
ENDBRANCH  36  37
ENDBRANCH   1  36
TORSDOF 27
ENDMDL
MODEL 2
REMARK VINA RESULT:      -9.7      4.489      5.225
REMARK SMILES CCCC[C@@H](Sc1nc(OCCC2CCCCC2)cc(OCCC2CCCCC2)n1)C(=O)NCCCCNC(=O)c1ccc(-c2c3nc(c(-c4ccc(S(=O)(=O)[O-])cc4)c4ccc([nH]4)c(-c4ccc(S(=O)(=O)[O-])cc4)c4nc(c(-c5ccc(S(=O)(=O)[O-])cc5)c5ccc2[nH]5)C=C4)C=C3)cc1
REMARK SMILES IDX 34 1 33 2 31 3 32 4 5 6 4 7 3 8 2 9 1 10 6 11 7 12 8 13
REMARK SMILES IDX 30 14 9 15 20 16 19 17 10 18 11 19 12 20 13 21 14 22 18 23
REMARK SMILES IDX 15 24 17 25 16 26 21 27 22 28 23 29 24 30 25 31 29 32 26 33
REMARK SMILES IDX 28 34 27 35 35 36 36 37 37 38 38 39 39 40 40 42 41 43 42 44
REMARK SMILES IDX 100 45 43 46 99 47 44 48 45 49 46 50 93 51 47 52 98 53 92 54
REMARK SMILES IDX 94 55 48 56 97 57 91 58 90 59 49 61 79 62 60 63 78 64 61 65
REMARK SMILES IDX 64 66 77 67 95 68 62 69 63 70 76 72 96 73 65 74 50 75 51 76
REMARK SMILES IDX 59 77 52 78 58 79 53 80 54 81 55 82 56 83 57 84 80 85 81 86
REMARK SMILES IDX 89 87 82 88 88 89 83 90 84 91 85 92 86 93 87 94 66 95 67 96
REMARK SMILES IDX 75 97 68 98 74 99 69 100 70 101 71 102 72 103 73 104
REMARK H PARENT 33 5 38 41 94 60 64 71
REMARK Flexibility Score: inf
ROOT
ATOM      1  C   UNL A   1      38.495  24.086  26.148  1.00  0.00     0.116 C 
ENDROOT
BRANCH   1   2
ATOM      2  N   UNL A   1      37.744  23.406  25.101  1.00  0.00    -0.355 N 
ATOM      3  C   UNL A   1      36.388  23.319  24.898  1.00  0.00     0.233 C 
ATOM      4  O   UNL A   1      35.986  22.688  23.919  1.00  0.00    -0.274 OA
ATOM      5  H   UNL A   1      38.294  22.931  24.436  1.00  0.00     0.163 HD
BRANCH   3   6
ATOM      6  C   UNL A   1      35.397  23.980  25.884  1.00  0.00     0.144 C 
BRANCH   6   7
ATOM      7  C   UNL A   1      34.347  24.710  24.997  1.00  0.00     0.025 C 
BRANCH   7   8
ATOM      8  C   UNL A   1      34.266  26.228  24.876  1.00  0.00     0.001 C 
BRANCH   8   9
ATOM      9  C   UNL A   1      33.688  27.002  26.059  1.00  0.00    -0.003 C 
ATOM     10  C   UNL A   1      33.587  28.494  25.811  1.00  0.00     0.004 C 
ENDBRANCH   8   9
ENDBRANCH   7   8
ENDBRANCH   6   7
BRANCH   6  11
ATOM     11  S   UNL A   1      35.030  22.578  27.089  1.00  0.00    -0.073 SA
BRANCH  11  12
ATOM     12  C   UNL A   1      33.360  22.141  26.765  1.00  0.00     0.195 A 
ATOM     13  N   UNL A   1      33.127  21.208  25.820  1.00  0.00    -0.187 NA
ATOM     14  N   UNL A   1      32.437  22.928  27.296  1.00  0.00    -0.187 NA
ATOM     15  C   UNL A   1      31.914  21.223  25.256  1.00  0.00     0.221 A 
ATOM     16  C   UNL A   1      31.264  22.952  26.679  1.00  0.00     0.221 A 
ATOM     17  C   UNL A   1      31.005  22.191  25.579  1.00  0.00     0.136 A 
BRANCH  15  18
ATOM     18  O   UNL A   1      31.654  20.192  24.384  1.00  0.00    -0.477 OA
BRANCH  18  19
ATOM     19  C   UNL A   1      32.654  19.830  23.426  1.00  0.00     0.231 C 
BRANCH  19  20
ATOM     20  C   UNL A   1      32.534  18.403  22.823  1.00  0.00     0.045 C 
BRANCH  20  21
ATOM     21  C   UNL A   1      33.146  17.264  23.654  1.00  0.00    -0.008 C 
ATOM     22  C   UNL A   1      34.575  17.519  24.155  1.00  0.00     0.004 C 
ATOM     23  C   UNL A   1      32.276  16.852  24.840  1.00  0.00     0.004 C 
ATOM     24  C   UNL A   1      35.163  16.224  24.734  1.00  0.00     0.000 C 
ATOM     25  C   UNL A   1      32.769  15.507  25.371  1.00  0.00     0.000 C 
ATOM     26  C   UNL A   1      34.252  15.528  25.748  1.00  0.00     0.000 C 
ENDBRANCH  20  21
ENDBRANCH  19  20
ENDBRANCH  18  19
ENDBRANCH  15  18
BRANCH  16  27
ATOM     27  O   UNL A   1      30.470  23.991  27.055  1.00  0.00    -0.477 OA
BRANCH  27  28
ATOM     28  C   UNL A   1      30.852  25.294  26.632  1.00  0.00     0.231 C 
BRANCH  28  29
ATOM     29  C   UNL A   1      29.661  25.910  25.869  1.00  0.00     0.045 C 
BRANCH  29  30
ATOM     30  C   UNL A   1      30.117  26.769  24.676  1.00  0.00    -0.008 C 
ATOM     31  C   UNL A   1      30.959  25.961  23.688  1.00  0.00     0.004 C 
ATOM     32  C   UNL A   1      28.985  27.416  23.872  1.00  0.00     0.004 C 
ATOM     33  C   UNL A   1      31.670  26.919  22.743  1.00  0.00     0.000 C 
ATOM     34  C   UNL A   1      29.570  28.344  22.792  1.00  0.00     0.000 C 
ATOM     35  C   UNL A   1      30.648  27.687  21.921  1.00  0.00     0.000 C 
ENDBRANCH  29  30
ENDBRANCH  28  29
ENDBRANCH  27  28
ENDBRANCH  16  27
ENDBRANCH  11  12
ENDBRANCH   6  11
ENDBRANCH   3   6
ENDBRANCH   1   2
BRANCH   1  36
ATOM     36  C   UNL A   1      39.559  23.176  26.761  1.00  0.00     0.023 C 
BRANCH  36  37
ATOM     37  C   UNL A   1      39.557  21.761  26.191  1.00  0.00     0.023 C 
BRANCH  37  38
ATOM     38  C   UNL A   1      40.244  20.730  27.075  1.00  0.00     0.116 C 
BRANCH  38  39
ATOM     39  N   UNL A   1      41.080  19.802  26.325  1.00  0.00    -0.352 N 
ATOM     40  C   UNL A   1      42.303  20.049  25.749  1.00  0.00     0.251 C 
ATOM     41  H   UNL A   1      40.726  18.890  26.218  1.00  0.00     0.163 HD
ATOM     42  O   UNL A   1      42.835  19.216  25.023  1.00  0.00    -0.269 OA
BRANCH  40  43
ATOM     43  C   UNL A   1      42.942  21.356  25.997  1.00  0.00     0.039 A 
ATOM     44  C   UNL A   1      42.968  22.304  24.974  1.00  0.00     0.014 A 
ATOM     45  C   UNL A   1      43.433  21.664  27.269  1.00  0.00     0.014 A 
ATOM     46  C   UNL A   1      43.429  23.592  25.249  1.00  0.00     0.010 A 
ATOM     47  C   UNL A   1      43.809  22.968  27.561  1.00  0.00     0.010 A 
ATOM     48  C   UNL A   1      43.815  23.945  26.553  1.00  0.00    -0.014 A 
BRANCH  48  49
ATOM     49  C   UNL A   1      44.233  25.329  26.886  1.00  0.00     0.031 A 
ATOM     50  C   UNL A   1      45.642  25.776  26.604  1.00  0.00     0.074 A 
ATOM     51  C   UNL A   1      43.366  26.162  27.495  1.00  0.00     0.049 A 
ATOM     52  N   UNL A   1      46.209  26.925  26.863  1.00  0.00    -0.248 NA
ATOM     53  C   UNL A   1      46.537  24.794  25.969  1.00  0.00     0.031 C 
ATOM     54  C   UNL A   1      41.984  25.832  27.859  1.00  0.00     0.029 A 
ATOM     55  N   UNL A   1      43.517  27.458  27.918  1.00  0.00    -0.354 N 
ATOM     56  C   UNL A   1      47.526  26.800  26.438  1.00  0.00     0.074 A 
ATOM     57  C   UNL A   1      47.689  25.446  25.959  1.00  0.00     0.031 C 
ATOM     58  C   UNL A   1      41.407  26.908  28.417  1.00  0.00     0.029 A 
ATOM     59  C   UNL A   1      42.385  27.988  28.493  1.00  0.00     0.049 A 
ATOM     60  H   UNL A   1      44.357  27.961  27.820  1.00  0.00     0.167 HD
ATOM     61  C   UNL A   1      48.506  27.735  26.423  1.00  0.00     0.031 A 
ATOM     62  C   UNL A   1      42.161  29.206  29.025  1.00  0.00     0.031 A 
ATOM     63  C   UNL A   1      48.336  29.082  26.896  1.00  0.00     0.049 A 
ATOM     64  C   UNL A   1      43.272  30.220  29.021  1.00  0.00     0.074 A 
ATOM     65  C   UNL A   1      49.251  30.120  26.882  1.00  0.00     0.029 A 
ATOM     66  N   UNL A   1      47.176  29.579  27.473  1.00  0.00    -0.354 N 
ATOM     67  N   UNL A   1      44.493  30.104  28.553  1.00  0.00    -0.248 NA
ATOM     68  C   UNL A   1      42.973  31.534  29.607  1.00  0.00     0.031 C 
ATOM     69  C   UNL A   1      48.662  31.228  27.501  1.00  0.00     0.029 A 
ATOM     70  C   UNL A   1      47.360  30.900  27.842  1.00  0.00     0.049 A 
ATOM     71  H   UNL A   1      46.345  29.066  27.601  1.00  0.00     0.167 HD
ATOM     72  C   UNL A   1      45.097  31.340  28.761  1.00  0.00     0.074 A 
ATOM     73  C   UNL A   1      44.103  32.191  29.382  1.00  0.00     0.031 C 
ATOM     74  C   UNL A   1      46.360  31.734  28.460  1.00  0.00     0.031 A 
BRANCH  61  75
ATOM     75  C   UNL A   1      49.849  27.324  25.879  1.00  0.00    -0.014 A 
ATOM     76  C   UNL A   1      50.761  26.599  26.668  1.00  0.00     0.010 A 
ATOM     77  C   UNL A   1      50.196  27.642  24.553  1.00  0.00     0.010 A 
ATOM     78  C   UNL A   1      52.012  26.241  26.158  1.00  0.00     0.020 A 
ATOM     79  C   UNL A   1      51.433  27.257  24.029  1.00  0.00     0.020 A 
ATOM     80  C   UNL A   1      52.341  26.575  24.842  1.00  0.00     0.054 A 
BRANCH  80  81
ATOM     81  S   UNL A   1      53.964  26.080  24.202  1.00  0.00     0.124 S 
ATOM     82  O   UNL A   1      53.788  26.261  22.763  1.00  0.00    -0.237 OA
ATOM     83  O   UNL A   1      54.865  27.030  24.848  1.00  0.00    -0.237 OA
ATOM     84  O   UNL A   1      54.104  24.695  24.641  1.00  0.00    -0.744 OA
ENDBRANCH  80  81
ENDBRANCH  61  75
BRANCH  62  85
ATOM     85  C   UNL A   1      40.823  29.539  29.588  1.00  0.00    -0.014 A 
ATOM     86  C   UNL A   1      39.779  29.957  28.743  1.00  0.00     0.010 A 
ATOM     87  C   UNL A   1      40.580  29.429  30.969  1.00  0.00     0.010 A 
ATOM     88  C   UNL A   1      38.525  30.278  29.271  1.00  0.00     0.020 A 
ATOM     89  C   UNL A   1      39.320  29.721  31.497  1.00  0.00     0.020 A 
ATOM     90  C   UNL A   1      38.303  30.155  30.645  1.00  0.00     0.054 A 
BRANCH  90  91
ATOM     91  S   UNL A   1      36.652  30.530  31.299  1.00  0.00     0.124 S 
ATOM     92  O   UNL A   1      35.905  29.328  30.948  1.00  0.00    -0.237 OA
ATOM     93  O   UNL A   1      36.914  30.721  32.723  1.00  0.00    -0.237 OA
ATOM     94  O   UNL A   1      36.266  31.742  30.578  1.00  0.00    -0.744 OA
ENDBRANCH  90  91
ENDBRANCH  62  85
BRANCH  74  95
ATOM     95  C   UNL A   1      46.731  33.162  28.764  1.00  0.00    -0.014 A 
ATOM     96  C   UNL A   1      46.470  34.197  27.850  1.00  0.00     0.010 A 
ATOM     97  C   UNL A   1      47.298  33.477  30.013  1.00  0.00     0.010 A 
ATOM     98  C   UNL A   1      46.798  35.518  28.167  1.00  0.00     0.020 A 
ATOM     99  C   UNL A   1      47.599  34.800  30.345  1.00  0.00     0.020 A 
ATOM    100  C   UNL A   1      47.359  35.811  29.414  1.00  0.00     0.054 A 
BRANCH 100 101
ATOM    101  S   UNL A   1      47.732  37.539  29.818  1.00  0.00     0.124 S 
ATOM    102  O   UNL A   1      49.153  37.628  29.494  1.00  0.00    -0.237 OA
ATOM    103  O   UNL A   1      46.837  38.276  28.928  1.00  0.00    -0.237 OA
ATOM    104  O   UNL A   1      47.410  37.641  31.239  1.00  0.00    -0.744 OA
ENDBRANCH 100 101
ENDBRANCH  74  95
ENDBRANCH  48  49
ENDBRANCH  40  43
ENDBRANCH  38  39
ENDBRANCH  37  38
ENDBRANCH  36  37
ENDBRANCH   1  36
TORSDOF 27
ENDMDL
MODEL 3
REMARK VINA RESULT:      -9.1      5.165      7.677
REMARK SMILES CCCC[C@@H](Sc1nc(OCCC2CCCCC2)cc(OCCC2CCCCC2)n1)C(=O)NCCCCNC(=O)c1ccc(-c2c3nc(c(-c4ccc(S(=O)(=O)[O-])cc4)c4ccc([nH]4)c(-c4ccc(S(=O)(=O)[O-])cc4)c4nc(c(-c5ccc(S(=O)(=O)[O-])cc5)c5ccc2[nH]5)C=C4)C=C3)cc1
REMARK SMILES IDX 34 1 33 2 31 3 32 4 5 6 4 7 3 8 2 9 1 10 6 11 7 12 8 13
REMARK SMILES IDX 30 14 9 15 20 16 19 17 10 18 11 19 12 20 13 21 14 22 18 23
REMARK SMILES IDX 15 24 17 25 16 26 21 27 22 28 23 29 24 30 25 31 29 32 26 33
REMARK SMILES IDX 28 34 27 35 35 36 36 37 37 38 38 39 39 40 40 42 41 43 42 44
REMARK SMILES IDX 100 45 43 46 99 47 44 48 45 49 46 50 93 51 47 52 98 53 92 54
REMARK SMILES IDX 94 55 48 56 97 57 91 58 90 59 49 61 79 62 60 63 78 64 61 65
REMARK SMILES IDX 64 66 77 67 95 68 62 69 63 70 76 72 96 73 65 74 50 75 51 76
REMARK SMILES IDX 59 77 52 78 58 79 53 80 54 81 55 82 56 83 57 84 80 85 81 86
REMARK SMILES IDX 89 87 82 88 88 89 83 90 84 91 85 92 86 93 87 94 66 95 67 96
REMARK SMILES IDX 75 97 68 98 74 99 69 100 70 101 71 102 72 103 73 104
REMARK H PARENT 33 5 38 41 94 60 64 71
REMARK Flexibility Score: inf
ROOT
ATOM      1  C   UNL A   1      38.829  21.132  25.407  1.00  0.00     0.116 C 
ENDROOT
BRANCH   1   2
ATOM      2  N   UNL A   1      37.489  21.137  25.980  1.00  0.00    -0.355 N 
ATOM      3  C   UNL A   1      36.523  22.114  25.962  1.00  0.00     0.233 C 
ATOM      4  O   UNL A   1      35.446  21.876  26.513  1.00  0.00    -0.274 OA
ATOM      5  H   UNL A   1      37.237  20.313  26.456  1.00  0.00     0.163 HD
BRANCH   3   6
ATOM      6  C   UNL A   1      36.790  23.479  25.286  1.00  0.00     0.144 C 
BRANCH   6   7
ATOM      7  C   UNL A   1      38.153  23.969  25.856  1.00  0.00     0.025 C 
BRANCH   7   8
ATOM      8  C   UNL A   1      38.348  24.391  27.309  1.00  0.00     0.001 C 
BRANCH   8   9
ATOM      9  C   UNL A   1      39.622  25.156  27.658  1.00  0.00    -0.003 C 
ATOM     10  C   UNL A   1      39.409  26.236  28.701  1.00  0.00     0.004 C 
ENDBRANCH   8   9
ENDBRANCH   7   8
ENDBRANCH   6   7
BRANCH   6  11
ATOM     11  S   UNL A   1      36.429  23.110  23.474  1.00  0.00    -0.073 SA
BRANCH  11  12
ATOM     12  C   UNL A   1      34.741  23.547  23.260  1.00  0.00     0.195 A 
ATOM     13  N   UNL A   1      34.393  24.832  23.474  1.00  0.00    -0.187 NA
ATOM     14  N   UNL A   1      33.888  22.541  23.142  1.00  0.00    -0.187 NA
ATOM     15  C   UNL A   1      33.109  25.059  23.773  1.00  0.00     0.221 A 
ATOM     16  C   UNL A   1      32.635  22.792  23.495  1.00  0.00     0.221 A 
ATOM     17  C   UNL A   1      32.234  24.020  23.928  1.00  0.00     0.136 A 
BRANCH  15  18
ATOM     18  O   UNL A   1      32.748  26.382  23.868  1.00  0.00    -0.477 OA
BRANCH  18  19
ATOM     19  C   UNL A   1      31.469  26.711  24.421  1.00  0.00     0.231 C 
BRANCH  19  20
ATOM     20  C   UNL A   1      31.472  27.213  25.891  1.00  0.00     0.045 C 
BRANCH  20  21
ATOM     21  C   UNL A   1      32.363  28.430  26.188  1.00  0.00    -0.008 C 
ATOM     22  C   UNL A   1      31.699  29.534  27.024  1.00  0.00     0.004 C 
ATOM     23  C   UNL A   1      33.693  28.056  26.837  1.00  0.00     0.004 C 
ATOM     24  C   UNL A   1      32.583  30.790  27.027  1.00  0.00     0.000 C 
ATOM     25  C   UNL A   1      34.638  29.254  26.757  1.00  0.00     0.000 C 
ATOM     26  C   UNL A   1      34.045  30.517  27.386  1.00  0.00     0.000 C 
ENDBRANCH  20  21
ENDBRANCH  19  20
ENDBRANCH  18  19
ENDBRANCH  15  18
BRANCH  16  27
ATOM     27  O   UNL A   1      31.880  21.673  23.664  1.00  0.00    -0.477 OA
BRANCH  27  28
ATOM     28  C   UNL A   1      32.159  20.858  24.795  1.00  0.00     0.231 C 
BRANCH  28  29
ATOM     29  C   UNL A   1      33.444  20.059  24.495  1.00  0.00     0.045 C 
BRANCH  29  30
ATOM     30  C   UNL A   1      33.193  18.541  24.473  1.00  0.00    -0.008 C 
ATOM     31  C   UNL A   1      34.438  17.769  24.036  1.00  0.00     0.004 C 
ATOM     32  C   UNL A   1      32.742  17.939  25.808  1.00  0.00     0.004 C 
ATOM     33  C   UNL A   1      34.040  16.342  23.688  1.00  0.00     0.000 C 
ATOM     34  C   UNL A   1      32.404  16.449  25.626  1.00  0.00     0.000 C 
ATOM     35  C   UNL A   1      33.503  15.640  24.924  1.00  0.00     0.000 C 
ENDBRANCH  29  30
ENDBRANCH  28  29
ENDBRANCH  27  28
ENDBRANCH  16  27
ENDBRANCH  11  12
ENDBRANCH   6  11
ENDBRANCH   3   6
ENDBRANCH   1   2
BRANCH   1  36
ATOM     36  C   UNL A   1      39.539  19.800  25.647  1.00  0.00     0.023 C 
BRANCH  36  37
ATOM     37  C   UNL A   1      40.690  19.889  26.643  1.00  0.00     0.023 C 
BRANCH  37  38
ATOM     38  C   UNL A   1      41.898  20.664  26.137  1.00  0.00     0.116 C 
BRANCH  38  39
ATOM     39  N   UNL A   1      42.769  19.867  25.283  1.00  0.00    -0.352 N 
ATOM     40  C   UNL A   1      43.948  20.253  24.691  1.00  0.00     0.251 C 
ATOM     41  H   UNL A   1      42.479  18.943  25.110  1.00  0.00     0.163 HD
ATOM     42  O   UNL A   1      44.510  19.526  23.878  1.00  0.00    -0.269 OA
BRANCH  40  43
ATOM     43  C   UNL A   1      44.500  21.579  25.029  1.00  0.00     0.039 A 
ATOM     44  C   UNL A   1      44.052  22.700  24.329  1.00  0.00     0.014 A 
ATOM     45  C   UNL A   1      45.393  21.712  26.096  1.00  0.00     0.014 A 
ATOM     46  C   UNL A   1      44.451  23.970  24.747  1.00  0.00     0.010 A 
ATOM     47  C   UNL A   1      45.719  22.980  26.562  1.00  0.00     0.010 A 
ATOM     48  C   UNL A   1      45.255  24.121  25.890  1.00  0.00    -0.014 A 
BRANCH  48  49
ATOM     49  C   UNL A   1      45.626  25.464  26.399  1.00  0.00     0.031 A 
ATOM     50  C   UNL A   1      46.981  26.039  26.083  1.00  0.00     0.074 A 
ATOM     51  C   UNL A   1      44.771  26.139  27.193  1.00  0.00     0.049 A 
ATOM     52  N   UNL A   1      47.507  27.170  26.472  1.00  0.00    -0.248 NA
ATOM     53  C   UNL A   1      47.869  25.222  25.238  1.00  0.00     0.031 C 
ATOM     54  C   UNL A   1      43.445  25.669  27.607  1.00  0.00     0.029 A 
ATOM     55  N   UNL A   1      44.890  27.364  27.799  1.00  0.00    -0.354 N 
ATOM     56  C   UNL A   1      48.787  27.196  25.934  1.00  0.00     0.074 A 
ATOM     57  C   UNL A   1      48.980  25.941  25.241  1.00  0.00     0.031 C 
ATOM     58  C   UNL A   1      42.862  26.610  28.366  1.00  0.00     0.029 A 
ATOM     59  C   UNL A   1      43.786  27.728  28.533  1.00  0.00     0.049 A 
ATOM     60  H   UNL A   1      45.692  27.930  27.716  1.00  0.00     0.167 HD
ATOM     61  C   UNL A   1      49.712  28.184  25.988  1.00  0.00     0.031 A 
ATOM     62  C   UNL A   1      43.544  28.835  29.262  1.00  0.00     0.031 A 
ATOM     63  C   UNL A   1      49.512  29.431  26.675  1.00  0.00     0.049 A 
ATOM     64  C   UNL A   1      44.596  29.909  29.330  1.00  0.00     0.074 A 
ATOM     65  C   UNL A   1      50.367  30.517  26.752  1.00  0.00     0.029 A 
ATOM     66  N   UNL A   1      48.381  29.760  27.409  1.00  0.00    -0.354 N 
ATOM     67  N   UNL A   1      45.777  29.943  28.758  1.00  0.00    -0.248 NA
ATOM     68  C   UNL A   1      44.279  31.098  30.132  1.00  0.00     0.031 C 
ATOM     69  C   UNL A   1      49.776  31.479  27.577  1.00  0.00     0.029 A 
ATOM     70  C   UNL A   1      48.526  31.020  27.961  1.00  0.00     0.049 A 
ATOM     71  H   UNL A   1      47.593  29.181  27.519  1.00  0.00     0.167 HD
ATOM     72  C   UNL A   1      46.331  31.170  29.107  1.00  0.00     0.074 A 
ATOM     73  C   UNL A   1      45.349  31.853  29.926  1.00  0.00     0.031 C 
ATOM     74  C   UNL A   1      47.540  31.687  28.776  1.00  0.00     0.031 A 
BRANCH  61  75
ATOM     75  C   UNL A   1      51.024  27.947  25.287  1.00  0.00    -0.014 A 
ATOM     76  C   UNL A   1      52.136  27.435  25.981  1.00  0.00     0.010 A 
ATOM     77  C   UNL A   1      51.141  28.212  23.911  1.00  0.00     0.010 A 
ATOM     78  C   UNL A   1      53.353  27.238  25.323  1.00  0.00     0.020 A 
ATOM     79  C   UNL A   1      52.347  27.986  23.242  1.00  0.00     0.020 A 
ATOM     80  C   UNL A   1      53.452  27.517  23.957  1.00  0.00     0.054 A 
BRANCH  80  81
ATOM     81  S   UNL A   1      55.039  27.234  23.126  1.00  0.00     0.124 S 
ATOM     82  O   UNL A   1      55.594  28.584  23.072  1.00  0.00    -0.237 OA
ATOM     83  O   UNL A   1      55.716  26.313  24.036  1.00  0.00    -0.237 OA
ATOM     84  O   UNL A   1      54.659  26.665  21.836  1.00  0.00    -0.744 OA
ENDBRANCH  80  81
ENDBRANCH  61  75
BRANCH  62  85
ATOM     85  C   UNL A   1      42.243  28.993  29.969  1.00  0.00    -0.014 A 
ATOM     86  C   UNL A   1      41.181  29.686  29.361  1.00  0.00     0.010 A 
ATOM     87  C   UNL A   1      42.053  28.443  31.250  1.00  0.00     0.010 A 
ATOM     88  C   UNL A   1      39.961  29.842  30.027  1.00  0.00     0.020 A 
ATOM     89  C   UNL A   1      40.827  28.571  31.907  1.00  0.00     0.020 A 
ATOM     90  C   UNL A   1      39.792  29.281  31.296  1.00  0.00     0.054 A 
BRANCH  90  91
ATOM     91  S   UNL A   1      38.184  29.455  32.119  1.00  0.00     0.124 S 
ATOM     92  O   UNL A   1      37.257  29.060  31.064  1.00  0.00    -0.237 OA
ATOM     93  O   UNL A   1      38.302  28.526  33.240  1.00  0.00    -0.237 OA
ATOM     94  O   UNL A   1      38.144  30.867  32.494  1.00  0.00    -0.744 OA
ENDBRANCH  90  91
ENDBRANCH  62  85
BRANCH  74  95
ATOM     95  C   UNL A   1      47.861  33.074  29.267  1.00  0.00    -0.014 A 
ATOM     96  C   UNL A   1      48.552  33.282  30.473  1.00  0.00     0.010 A 
ATOM     97  C   UNL A   1      47.514  34.184  28.475  1.00  0.00     0.010 A 
ATOM     98  C   UNL A   1      48.863  34.578  30.893  1.00  0.00     0.020 A 
ATOM     99  C   UNL A   1      47.850  35.478  28.876  1.00  0.00     0.020 A 
ATOM    100  C   UNL A   1      48.511  35.668  30.091  1.00  0.00     0.054 A 
BRANCH 100 101
ATOM    101  S   UNL A   1      48.968  37.337  30.637  1.00  0.00     0.124 S 
ATOM    102  O   UNL A   1      49.294  37.118  32.043  1.00  0.00    -0.237 OA
ATOM    103  O   UNL A   1      50.101  37.657  29.771  1.00  0.00    -0.237 OA
ATOM    104  O   UNL A   1      47.762  38.124  30.392  1.00  0.00    -0.744 OA
ENDBRANCH 100 101
ENDBRANCH  74  95
ENDBRANCH  48  49
ENDBRANCH  40  43
ENDBRANCH  38  39
ENDBRANCH  37  38
ENDBRANCH  36  37
ENDBRANCH   1  36
TORSDOF 27
ENDMDL
