MODEL 1
REMARK VINA RESULT:     -10.9      0.000      0.000
REMARK SMILES CC(C)C[C@H](NC(=O)[C@@H](NC(=O)[C@H](C)NC(=O)CNC(=O)OCc1ccccc1)C(C)C)C(=O)NCCCCNC(=O)c1ccc(-c2c3nc(c(-c4ccc(S(=O)(=O)[O-])cc4)c4ccc([nH]4)c(-c4ccc(S(=O)(=O)[O-])cc4)c4nc(c(-c5ccc(S(=O)(=O)[O-])cc5)c5ccc2[nH]5)C=C4)C=C3)cc1
REMARK SMILES IDX 5 1 4 2 2 3 1 4 3 5 33 6 34 7 35 8 36 10 37 11 38 12 39 13
REMARK SMILES IDX 40 14 41 15 42 17 43 18 44 19 102 20 45 21 101 22 46 23
REMARK SMILES IDX 47 24 48 25 95 26 49 27 100 28 94 29 96 30 50 31 99 32 93 33
REMARK SMILES IDX 92 34 51 36 81 37 62 38 80 39 63 40 66 41 79 42 97 43 64 44
REMARK SMILES IDX 65 45 78 47 98 48 67 49 52 50 53 51 61 52 54 53 60 54 55 55
REMARK SMILES IDX 56 56 57 57 58 58 59 59 82 60 83 61 91 62 84 63 90 64 85 65
REMARK SMILES IDX 86 66 87 67 88 68 89 69 68 70 69 71 77 72 70 73 76 74 71 75
REMARK SMILES IDX 72 76 73 77 74 78 75 79 6 80 7 81 8 83 9 84 10 85 11 86
REMARK SMILES IDX 12 88 13 89 14 90 15 91 16 92 17 94 18 95 19 96 20 97 21 99
REMARK SMILES IDX 22 100 23 101 24 102 25 103 29 104 26 105 28 106 27 107
REMARK SMILES IDX 30 108 31 109 32 110
REMARK H PARENT 35 9 40 16 96 35 66 46 6 82 10 87 15 93 19 98
REMARK Flexibility Score: inf
ROOT
ATOM      1  C   UNL A   1      31.260  27.396  24.505  1.00  0.00     0.171 C 
ENDROOT
BRANCH   1   2
ATOM      2  C   UNL A   1      30.545  28.662  24.054  1.00  0.00     0.038 C 
BRANCH   2   3
ATOM      3  C   UNL A   1      29.660  28.656  22.797  1.00  0.00    -0.015 C 
ATOM      4  C   UNL A   1      28.166  28.743  23.098  1.00  0.00     0.007 C 
ATOM      5  C   UNL A   1      30.068  29.863  21.936  1.00  0.00     0.007 C 
ENDBRANCH   2   3
ENDBRANCH   1   2
BRANCH   1   6
ATOM      6  C   UNL A   1      31.459  27.352  26.035  1.00  0.00     0.242 C 
ATOM      7  O   UNL A   1      30.639  26.812  26.779  1.00  0.00    -0.273 OA
ATOM      8  N   UNL A   1      32.566  27.922  26.596  1.00  0.00    -0.354 N 
ATOM      9  H   UNL A   1      32.618  27.882  27.577  1.00  0.00     0.163 HD
BRANCH   8  10
ATOM     10  C   UNL A   1      33.676  28.581  25.933  1.00  0.00     0.116 C 
BRANCH  10  11
ATOM     11  C   UNL A   1      34.774  28.989  26.904  1.00  0.00     0.023 C 
BRANCH  11  12
ATOM     12  C   UNL A   1      34.700  30.447  27.349  1.00  0.00     0.023 C 
BRANCH  12  13
ATOM     13  C   UNL A   1      35.895  30.918  28.168  1.00  0.00     0.116 C 
BRANCH  13  14
ATOM     14  N   UNL A   1      35.748  30.613  29.586  1.00  0.00    -0.352 N 
ATOM     15  C   UNL A   1      36.545  29.822  30.378  1.00  0.00     0.251 C 
ATOM     16  H   UNL A   1      34.976  31.028  30.034  1.00  0.00     0.163 HD
ATOM     17  O   UNL A   1      36.182  29.493  31.502  1.00  0.00    -0.269 OA
BRANCH  15  18
ATOM     18  C   UNL A   1      37.835  29.359  29.834  1.00  0.00     0.039 A 
ATOM     19  C   UNL A   1      38.130  29.576  28.488  1.00  0.00     0.014 A 
ATOM     20  C   UNL A   1      38.779  28.786  30.691  1.00  0.00     0.014 A 
ATOM     21  C   UNL A   1      39.411  29.285  28.016  1.00  0.00     0.010 A 
ATOM     22  C   UNL A   1      40.076  28.584  30.240  1.00  0.00     0.010 A 
ATOM     23  C   UNL A   1      40.405  28.827  28.897  1.00  0.00    -0.014 A 
BRANCH  23  24
ATOM     24  C   UNL A   1      41.796  28.589  28.438  1.00  0.00     0.031 A 
ATOM     25  C   UNL A   1      42.212  27.213  27.993  1.00  0.00     0.074 A 
ATOM     26  C   UNL A   1      42.700  29.588  28.488  1.00  0.00     0.049 A 
ATOM     27  N   UNL A   1      43.389  26.789  27.614  1.00  0.00    -0.248 NA
ATOM     28  C   UNL A   1      41.174  26.167  28.004  1.00  0.00     0.031 C 
ATOM     29  C   UNL A   1      42.433  30.955  28.945  1.00  0.00     0.029 A 
ATOM     30  N   UNL A   1      44.030  29.609  28.151  1.00  0.00    -0.354 N 
ATOM     31  C   UNL A   1      43.240  25.430  27.365  1.00  0.00     0.074 A 
ATOM     32  C   UNL A   1      41.872  25.088  27.687  1.00  0.00     0.031 C 
ATOM     33  C   UNL A   1      43.553  31.686  28.828  1.00  0.00     0.029 A 
ATOM     34  C   UNL A   1      44.628  30.835  28.329  1.00  0.00     0.049 A 
ATOM     35  H   UNL A   1      44.513  28.819  27.815  1.00  0.00     0.167 HD
ATOM     36  C   UNL A   1      44.151  24.550  26.889  1.00  0.00     0.031 A 
ATOM     37  C   UNL A   1      45.898  31.229  28.116  1.00  0.00     0.031 A 
ATOM     38  C   UNL A   1      45.503  24.901  26.549  1.00  0.00     0.049 A 
ATOM     39  C   UNL A   1      46.894  30.232  27.586  1.00  0.00     0.074 A 
ATOM     40  C   UNL A   1      46.485  24.098  25.996  1.00  0.00     0.029 A 
ATOM     41  N   UNL A   1      46.064  26.155  26.732  1.00  0.00    -0.354 N 
ATOM     42  N   UNL A   1      46.712  28.968  27.286  1.00  0.00    -0.248 NA
ATOM     43  C   UNL A   1      48.261  30.716  27.358  1.00  0.00     0.031 C 
ATOM     44  C   UNL A   1      47.658  24.854  25.894  1.00  0.00     0.029 A 
ATOM     45  C   UNL A   1      47.388  26.143  26.326  1.00  0.00     0.049 A 
ATOM     46  H   UNL A   1      45.592  26.939  27.097  1.00  0.00     0.167 HD
ATOM     47  C   UNL A   1      47.936  28.515  26.803  1.00  0.00     0.074 A 
ATOM     48  C   UNL A   1      48.843  29.643  26.839  1.00  0.00     0.031 C 
ATOM     49  C   UNL A   1      48.276  27.277  26.366  1.00  0.00     0.031 A 
BRANCH  36  50
ATOM     50  C   UNL A   1      43.712  23.121  26.709  1.00  0.00    -0.014 A 
ATOM     51  C   UNL A   1      43.934  22.438  25.499  1.00  0.00     0.010 A 
ATOM     52  C   UNL A   1      43.104  22.438  27.778  1.00  0.00     0.010 A 
ATOM     53  C   UNL A   1      43.519  21.112  25.348  1.00  0.00     0.020 A 
ATOM     54  C   UNL A   1      42.716  21.102  27.641  1.00  0.00     0.020 A 
ATOM     55  C   UNL A   1      42.911  20.453  26.421  1.00  0.00     0.054 A 
BRANCH  55  56
ATOM     56  S   UNL A   1      42.410  18.724  26.205  1.00  0.00     0.124 S 
ATOM     57  O   UNL A   1      42.579  18.192  27.556  1.00  0.00    -0.237 OA
ATOM     58  O   UNL A   1      41.029  18.846  25.748  1.00  0.00    -0.237 OA
ATOM     59  O   UNL A   1      43.350  18.211  25.212  1.00  0.00    -0.744 OA
ENDBRANCH  55  56
ENDBRANCH  36  50
BRANCH  37  60
ATOM     60  C   UNL A   1      46.299  32.638  28.381  1.00  0.00    -0.014 A 
ATOM     61  C   UNL A   1      46.820  33.008  29.634  1.00  0.00     0.010 A 
ATOM     62  C   UNL A   1      46.166  33.620  27.381  1.00  0.00     0.010 A 
ATOM     63  C   UNL A   1      47.178  34.334  29.891  1.00  0.00     0.020 A 
ATOM     64  C   UNL A   1      46.550  34.942  27.625  1.00  0.00     0.020 A 
ATOM     65  C   UNL A   1      47.041  35.294  28.884  1.00  0.00     0.054 A 
BRANCH  65  66
ATOM     66  S   UNL A   1      47.554  37.000  29.227  1.00  0.00     0.124 S 
ATOM     67  O   UNL A   1      48.077  36.892  30.585  1.00  0.00    -0.237 OA
ATOM     68  O   UNL A   1      48.544  37.249  28.183  1.00  0.00    -0.237 OA
ATOM     69  O   UNL A   1      46.313  37.762  29.092  1.00  0.00    -0.744 OA
ENDBRANCH  65  66
ENDBRANCH  37  60
BRANCH  49  70
ATOM     70  C   UNL A   1      49.679  27.083  25.856  1.00  0.00    -0.014 A 
ATOM     71  C   UNL A   1      50.723  26.699  26.715  1.00  0.00     0.010 A 
ATOM     72  C   UNL A   1      49.939  27.231  24.480  1.00  0.00     0.010 A 
ATOM     73  C   UNL A   1      52.011  26.495  26.211  1.00  0.00     0.020 A 
ATOM     74  C   UNL A   1      51.219  27.000  23.970  1.00  0.00     0.020 A 
ATOM     75  C   UNL A   1      52.249  26.647  24.842  1.00  0.00     0.054 A 
BRANCH  75  76
ATOM     76  S   UNL A   1      53.920  26.332  24.207  1.00  0.00     0.124 S 
ATOM     77  O   UNL A   1      54.181  24.983  24.698  1.00  0.00    -0.237 OA
ATOM     78  O   UNL A   1      53.742  26.453  22.762  1.00  0.00    -0.237 OA
ATOM     79  O   UNL A   1      54.727  27.386  24.819  1.00  0.00    -0.744 OA
ENDBRANCH  75  76
ENDBRANCH  49  70
ENDBRANCH  23  24
ENDBRANCH  15  18
ENDBRANCH  13  14
ENDBRANCH  12  13
ENDBRANCH  11  12
ENDBRANCH  10  11
ENDBRANCH   8  10
ENDBRANCH   1   6
BRANCH   1  80
ATOM     80  N   UNL A   1      30.590  26.128  24.151  1.00  0.00    -0.343 N 
ATOM     81  C   UNL A   1      30.792  24.985  23.479  1.00  0.00     0.243 C 
ATOM     82  H   UNL A   1      29.686  26.118  24.542  1.00  0.00     0.164 HD
ATOM     83  O   UNL A   1      29.784  24.258  23.447  1.00  0.00    -0.273 OA
BRANCH  81  84
ATOM     84  C   UNL A   1      32.093  24.436  22.830  1.00  0.00     0.174 C 
BRANCH  84  85
ATOM     85  N   UNL A   1      32.242  23.020  22.476  1.00  0.00    -0.342 N 
ATOM     86  C   UNL A   1      32.104  21.821  23.089  1.00  0.00     0.242 C 
ATOM     87  H   UNL A   1      32.516  22.912  21.537  1.00  0.00     0.164 HD
ATOM     88  O   UNL A   1      31.976  20.851  22.327  1.00  0.00    -0.273 OA
BRANCH  86  89
ATOM     89  C   UNL A   1      32.014  21.575  24.612  1.00  0.00     0.168 C 
ATOM     90  C   UNL A   1      32.295  20.114  24.945  1.00  0.00     0.041 C 
BRANCH  89  91
ATOM     91  N   UNL A   1      30.864  22.084  25.350  1.00  0.00    -0.343 N 
ATOM     92  C   UNL A   1      30.859  22.852  26.486  1.00  0.00     0.240 C 
ATOM     93  H   UNL A   1      29.980  21.847  24.987  1.00  0.00     0.164 HD
ATOM     94  O   UNL A   1      29.761  23.215  26.918  1.00  0.00    -0.273 OA
BRANCH  92  95
ATOM     95  C   UNL A   1      32.161  23.319  27.165  1.00  0.00     0.219 C 
BRANCH  95  96
ATOM     96  N   UNL A   1      32.733  24.468  26.495  1.00  0.00    -0.312 N 
ATOM     97  C   UNL A   1      34.015  24.589  26.061  1.00  0.00     0.407 C 
ATOM     98  H   UNL A   1      32.136  25.236  26.341  1.00  0.00     0.167 HD
ATOM     99  O   UNL A   1      34.475  25.704  25.833  1.00  0.00    -0.225 OA
BRANCH  97 100
ATOM    100  O   UNL A   1      34.690  23.416  26.039  1.00  0.00    -0.445 OA
BRANCH 100 101
ATOM    101  C   UNL A   1      35.409  23.083  24.837  1.00  0.00     0.270 C 
BRANCH 101 102
ATOM    102  C   UNL A   1      36.246  21.845  24.989  1.00  0.00    -0.011 A 
ATOM    103  C   UNL A   1      35.662  20.576  24.924  1.00  0.00     0.007 A 
ATOM    104  C   UNL A   1      37.639  21.955  25.107  1.00  0.00     0.007 A 
ATOM    105  C   UNL A   1      36.466  19.436  24.937  1.00  0.00     0.000 A 
ATOM    106  C   UNL A   1      38.441  20.818  25.098  1.00  0.00     0.000 A 
ATOM    107  C   UNL A   1      37.854  19.559  25.006  1.00  0.00     0.000 A 
ENDBRANCH 101 102
ENDBRANCH 100 101
ENDBRANCH  97 100
ENDBRANCH  95  96
ENDBRANCH  92  95
ENDBRANCH  89  91
ENDBRANCH  86  89
ENDBRANCH  84  85
BRANCH  84 108
ATOM    108  C   UNL A   1      32.803  25.402  21.843  1.00  0.00     0.015 C 
ATOM    109  C   UNL A   1      31.879  26.307  21.026  1.00  0.00     0.010 C 
ATOM    110  C   UNL A   1      33.800  26.299  22.599  1.00  0.00     0.010 C 
ENDBRANCH  84 108
ENDBRANCH  81  84
ENDBRANCH   1  80
TORSDOF 27
ENDMDL
MODEL 2
REMARK VINA RESULT:     -10.1      2.130      7.850
REMARK SMILES CC(C)C[C@H](NC(=O)[C@@H](NC(=O)[C@H](C)NC(=O)CNC(=O)OCc1ccccc1)C(C)C)C(=O)NCCCCNC(=O)c1ccc(-c2c3nc(c(-c4ccc(S(=O)(=O)[O-])cc4)c4ccc([nH]4)c(-c4ccc(S(=O)(=O)[O-])cc4)c4nc(c(-c5ccc(S(=O)(=O)[O-])cc5)c5ccc2[nH]5)C=C4)C=C3)cc1
REMARK SMILES IDX 5 1 4 2 2 3 1 4 3 5 33 6 34 7 35 8 36 10 37 11 38 12 39 13
REMARK SMILES IDX 40 14 41 15 42 17 43 18 44 19 102 20 45 21 101 22 46 23
REMARK SMILES IDX 47 24 48 25 95 26 49 27 100 28 94 29 96 30 50 31 99 32 93 33
REMARK SMILES IDX 92 34 51 36 81 37 62 38 80 39 63 40 66 41 79 42 97 43 64 44
REMARK SMILES IDX 65 45 78 47 98 48 67 49 52 50 53 51 61 52 54 53 60 54 55 55
REMARK SMILES IDX 56 56 57 57 58 58 59 59 82 60 83 61 91 62 84 63 90 64 85 65
REMARK SMILES IDX 86 66 87 67 88 68 89 69 68 70 69 71 77 72 70 73 76 74 71 75
REMARK SMILES IDX 72 76 73 77 74 78 75 79 6 80 7 81 8 83 9 84 10 85 11 86
REMARK SMILES IDX 12 88 13 89 14 90 15 91 16 92 17 94 18 95 19 96 20 97 21 99
REMARK SMILES IDX 22 100 23 101 24 102 25 103 29 104 26 105 28 106 27 107
REMARK SMILES IDX 30 108 31 109 32 110
REMARK H PARENT 35 9 40 16 96 35 66 46 6 82 10 87 15 93 19 98
REMARK Flexibility Score: inf
ROOT
ATOM      1  C   UNL A   1      34.388  24.433  25.516  1.00  0.00     0.171 C 
ENDROOT
BRANCH   1   2
ATOM      2  C   UNL A   1      35.132  24.277  24.198  1.00  0.00     0.038 C 
BRANCH   2   3
ATOM      3  C   UNL A   1      34.954  23.011  23.343  1.00  0.00    -0.015 C 
ATOM      4  C   UNL A   1      34.047  23.211  22.132  1.00  0.00     0.007 C 
ATOM      5  C   UNL A   1      36.348  22.578  22.858  1.00  0.00     0.007 C 
ENDBRANCH   2   3
ENDBRANCH   1   2
BRANCH   1   6
ATOM      6  C   UNL A   1      34.983  23.546  26.631  1.00  0.00     0.242 C 
ATOM      7  O   UNL A   1      34.267  22.964  27.447  1.00  0.00    -0.273 OA
ATOM      8  N   UNL A   1      36.336  23.392  26.730  1.00  0.00    -0.354 N 
ATOM      9  H   UNL A   1      36.650  22.835  27.478  1.00  0.00     0.163 HD
BRANCH   8  10
ATOM     10  C   UNL A   1      37.373  23.942  25.877  1.00  0.00     0.116 C 
BRANCH  10  11
ATOM     11  C   UNL A   1      38.764  23.770  26.467  1.00  0.00     0.023 C 
BRANCH  11  12
ATOM     12  C   UNL A   1      39.083  22.342  26.901  1.00  0.00     0.023 C 
BRANCH  12  13
ATOM     13  C   UNL A   1      39.211  21.348  25.754  1.00  0.00     0.116 C 
BRANCH  13  14
ATOM     14  N   UNL A   1      40.004  20.181  26.120  1.00  0.00    -0.352 N 
ATOM     15  C   UNL A   1      41.344  20.119  26.423  1.00  0.00     0.251 C 
ATOM     16  H   UNL A   1      39.517  19.327  26.156  1.00  0.00     0.163 HD
ATOM     17  O   UNL A   1      41.916  19.039  26.511  1.00  0.00    -0.269 OA
BRANCH  15  18
ATOM     18  C   UNL A   1      42.079  21.383  26.612  1.00  0.00     0.039 A 
ATOM     19  C   UNL A   1      42.366  22.183  25.506  1.00  0.00     0.014 A 
ATOM     20  C   UNL A   1      42.405  21.804  27.904  1.00  0.00     0.014 A 
ATOM     21  C   UNL A   1      42.915  23.450  25.706  1.00  0.00     0.010 A 
ATOM     22  C   UNL A   1      42.865  23.098  28.104  1.00  0.00     0.010 A 
ATOM     23  C   UNL A   1      43.129  23.933  27.007  1.00  0.00    -0.014 A 
BRANCH  23  24
ATOM     24  C   UNL A   1      43.635  25.308  27.249  1.00  0.00     0.031 A 
ATOM     25  C   UNL A   1      45.086  25.624  27.008  1.00  0.00     0.074 A 
ATOM     26  C   UNL A   1      42.809  26.248  27.750  1.00  0.00     0.049 A 
ATOM     27  N   UNL A   1      45.731  26.742  27.214  1.00  0.00    -0.248 NA
ATOM     28  C   UNL A   1      45.931  24.531  26.496  1.00  0.00     0.031 C 
ATOM     29  C   UNL A   1      41.392  26.052  28.072  1.00  0.00     0.029 A 
ATOM     30  N   UNL A   1      43.042  27.560  28.080  1.00  0.00    -0.354 N 
ATOM     31  C   UNL A   1      47.055  26.482  26.880  1.00  0.00     0.074 A 
ATOM     32  C   UNL A   1      47.132  25.086  26.510  1.00  0.00     0.031 C 
ATOM     33  C   UNL A   1      40.878  27.209  28.520  1.00  0.00     0.029 A 
ATOM     34  C   UNL A   1      41.932  28.217  28.558  1.00  0.00     0.049 A 
ATOM     35  H   UNL A   1      43.922  27.990  27.985  1.00  0.00     0.167 HD
ATOM     36  C   UNL A   1      48.108  27.332  26.860  1.00  0.00     0.031 A 
ATOM     37  C   UNL A   1      41.781  29.487  28.980  1.00  0.00     0.031 A 
ATOM     38  C   UNL A   1      48.021  28.725  27.208  1.00  0.00     0.049 A 
ATOM     39  C   UNL A   1      42.967  30.414  28.950  1.00  0.00     0.074 A 
ATOM     40  C   UNL A   1      49.014  29.686  27.156  1.00  0.00     0.029 A 
ATOM     41  N   UNL A   1      46.876  29.353  27.674  1.00  0.00    -0.354 N 
ATOM     42  N   UNL A   1      44.194  30.167  28.558  1.00  0.00    -0.248 NA
ATOM     43  C   UNL A   1      42.744  31.791  29.407  1.00  0.00     0.031 C 
ATOM     44  C   UNL A   1      48.484  30.886  27.642  1.00  0.00     0.029 A 
ATOM     45  C   UNL A   1      47.145  30.685  27.938  1.00  0.00     0.049 A 
ATOM     46  H   UNL A   1      46.002  28.917  27.799  1.00  0.00     0.167 HD
ATOM     47  C   UNL A   1      44.883  31.368  28.693  1.00  0.00     0.074 A 
ATOM     48  C   UNL A   1      43.931  32.341  29.188  1.00  0.00     0.031 C 
ATOM     49  C   UNL A   1      46.184  31.641  28.428  1.00  0.00     0.031 A 
BRANCH  36  50
ATOM     50  C   UNL A   1      49.445  26.776  26.449  1.00  0.00    -0.014 A 
ATOM     51  C   UNL A   1      49.886  26.852  25.116  1.00  0.00     0.010 A 
ATOM     52  C   UNL A   1      50.291  26.204  27.417  1.00  0.00     0.010 A 
ATOM     53  C   UNL A   1      51.130  26.331  24.750  1.00  0.00     0.020 A 
ATOM     54  C   UNL A   1      51.548  25.709  27.061  1.00  0.00     0.020 A 
ATOM     55  C   UNL A   1      51.953  25.760  25.726  1.00  0.00     0.054 A 
BRANCH  55  56
ATOM     56  S   UNL A   1      53.574  25.118  25.228  1.00  0.00     0.124 S 
ATOM     57  O   UNL A   1      54.454  25.712  26.232  1.00  0.00    -0.237 OA
ATOM     58  O   UNL A   1      53.390  23.672  25.331  1.00  0.00    -0.237 OA
ATOM     59  O   UNL A   1      53.746  25.626  23.870  1.00  0.00    -0.744 OA
ENDBRANCH  55  56
ENDBRANCH  36  50
BRANCH  37  60
ATOM     60  C   UNL A   1      40.451  29.967  29.448  1.00  0.00    -0.014 A 
ATOM     61  C   UNL A   1      40.242  30.279  30.804  1.00  0.00     0.010 A 
ATOM     62  C   UNL A   1      39.385  30.119  28.542  1.00  0.00     0.010 A 
ATOM     63  C   UNL A   1      38.989  30.710  31.248  1.00  0.00     0.020 A 
ATOM     64  C   UNL A   1      38.139  30.577  28.977  1.00  0.00     0.020 A 
ATOM     65  C   UNL A   1      37.945  30.857  30.331  1.00  0.00     0.054 A 
BRANCH  65  66
ATOM     66  S   UNL A   1      36.339  31.460  30.924  1.00  0.00     0.124 S 
ATOM     67  O   UNL A   1      35.903  30.364  31.784  1.00  0.00    -0.237 OA
ATOM     68  O   UNL A   1      36.700  32.698  31.609  1.00  0.00    -0.237 OA
ATOM     69  O   UNL A   1      35.568  31.638  29.696  1.00  0.00    -0.744 OA
ENDBRANCH  65  66
ENDBRANCH  37  60
BRANCH  49  70
ATOM     70  C   UNL A   1      46.651  33.058  28.632  1.00  0.00    -0.014 A 
ATOM     71  C   UNL A   1      47.431  33.418  29.744  1.00  0.00     0.010 A 
ATOM     72  C   UNL A   1      46.352  34.030  27.658  1.00  0.00     0.010 A 
ATOM     73  C   UNL A   1      47.878  34.733  29.896  1.00  0.00     0.020 A 
ATOM     74  C   UNL A   1      46.823  35.338  27.792  1.00  0.00     0.020 A 
ATOM     75  C   UNL A   1      47.571  35.684  28.917  1.00  0.00     0.054 A 
BRANCH  75  76
ATOM     76  S   UNL A   1      48.202  37.374  29.114  1.00  0.00     0.124 S 
ATOM     77  O   UNL A   1      49.641  37.178  28.973  1.00  0.00    -0.237 OA
ATOM     78  O   UNL A   1      47.554  38.088  28.017  1.00  0.00    -0.237 OA
ATOM     79  O   UNL A   1      47.753  37.758  30.451  1.00  0.00    -0.744 OA
ENDBRANCH  75  76
ENDBRANCH  49  70
ENDBRANCH  23  24
ENDBRANCH  15  18
ENDBRANCH  13  14
ENDBRANCH  12  13
ENDBRANCH  11  12
ENDBRANCH  10  11
ENDBRANCH   8  10
ENDBRANCH   1   6
BRANCH   1  80
ATOM     80  N   UNL A   1      34.354  25.803  26.068  1.00  0.00    -0.343 N 
ATOM     81  C   UNL A   1      33.943  27.045  25.773  1.00  0.00     0.243 C 
ATOM     82  H   UNL A   1      34.778  25.805  26.957  1.00  0.00     0.164 HD
ATOM     83  O   UNL A   1      34.270  27.880  26.635  1.00  0.00    -0.273 OA
BRANCH  81  84
ATOM     84  C   UNL A   1      33.077  27.544  24.583  1.00  0.00     0.174 C 
BRANCH  84  85
ATOM     85  N   UNL A   1      32.296  28.783  24.662  1.00  0.00    -0.342 N 
ATOM     86  C   UNL A   1      31.114  29.246  24.193  1.00  0.00     0.242 C 
ATOM     87  H   UNL A   1      32.757  29.464  25.204  1.00  0.00     0.164 HD
ATOM     88  O   UNL A   1      30.659  30.231  24.792  1.00  0.00    -0.273 OA
BRANCH  86  89
ATOM     89  C   UNL A   1      30.269  28.621  23.060  1.00  0.00     0.168 C 
ATOM     90  C   UNL A   1      30.066  29.614  21.921  1.00  0.00     0.041 C 
BRANCH  89  91
ATOM     91  N   UNL A   1      29.032  27.924  23.394  1.00  0.00    -0.343 N 
ATOM     92  C   UNL A   1      28.885  26.712  24.018  1.00  0.00     0.240 C 
ATOM     93  H   UNL A   1      28.198  28.381  23.140  1.00  0.00     0.164 HD
ATOM     94  O   UNL A   1      27.734  26.330  24.247  1.00  0.00    -0.273 OA
BRANCH  92  95
ATOM     95  C   UNL A   1      30.095  25.882  24.491  1.00  0.00     0.219 C 
BRANCH  95  96
ATOM     96  N   UNL A   1      29.866  25.295  25.794  1.00  0.00    -0.312 N 
ATOM     97  C   UNL A   1      30.386  24.125  26.251  1.00  0.00     0.407 C 
ATOM     98  H   UNL A   1      29.276  25.790  26.408  1.00  0.00     0.167 HD
ATOM     99  O   UNL A   1      29.862  23.561  27.206  1.00  0.00    -0.225 OA
BRANCH  97 100
ATOM    100  O   UNL A   1      31.398  23.651  25.487  1.00  0.00    -0.445 OA
BRANCH 100 101
ATOM    101  C   UNL A   1      31.062  22.734  24.430  1.00  0.00     0.270 C 
BRANCH 101 102
ATOM    102  C   UNL A   1      31.839  21.451  24.510  1.00  0.00    -0.011 A 
ATOM    103  C   UNL A   1      32.045  20.669  23.369  1.00  0.00     0.007 A 
ATOM    104  C   UNL A   1      32.441  21.074  25.718  1.00  0.00     0.007 A 
ATOM    105  C   UNL A   1      32.875  19.549  23.431  1.00  0.00     0.000 A 
ATOM    106  C   UNL A   1      33.287  19.970  25.774  1.00  0.00     0.000 A 
ATOM    107  C   UNL A   1      33.508  19.212  24.627  1.00  0.00     0.000 A 
ENDBRANCH 101 102
ENDBRANCH 100 101
ENDBRANCH  97 100
ENDBRANCH  95  96
ENDBRANCH  92  95
ENDBRANCH  89  91
ENDBRANCH  86  89
ENDBRANCH  84  85
BRANCH  84 108
ATOM    108  C   UNL A   1      33.664  27.267  23.172  1.00  0.00     0.015 C 
ATOM    109  C   UNL A   1      32.770  26.457  22.232  1.00  0.00     0.010 C 
ATOM    110  C   UNL A   1      34.014  28.593  22.471  1.00  0.00     0.010 C 
ENDBRANCH  84 108
ENDBRANCH  81  84
ENDBRANCH   1  80
TORSDOF 27
ENDMDL
MODEL 3
REMARK VINA RESULT:      -9.9      2.149      8.766
REMARK SMILES CC(C)C[C@H](NC(=O)[C@@H](NC(=O)[C@H](C)NC(=O)CNC(=O)OCc1ccccc1)C(C)C)C(=O)NCCCCNC(=O)c1ccc(-c2c3nc(c(-c4ccc(S(=O)(=O)[O-])cc4)c4ccc([nH]4)c(-c4ccc(S(=O)(=O)[O-])cc4)c4nc(c(-c5ccc(S(=O)(=O)[O-])cc5)c5ccc2[nH]5)C=C4)C=C3)cc1
REMARK SMILES IDX 5 1 4 2 2 3 1 4 3 5 33 6 34 7 35 8 36 10 37 11 38 12 39 13
REMARK SMILES IDX 40 14 41 15 42 17 43 18 44 19 102 20 45 21 101 22 46 23
REMARK SMILES IDX 47 24 48 25 95 26 49 27 100 28 94 29 96 30 50 31 99 32 93 33
REMARK SMILES IDX 92 34 51 36 81 37 62 38 80 39 63 40 66 41 79 42 97 43 64 44
REMARK SMILES IDX 65 45 78 47 98 48 67 49 52 50 53 51 61 52 54 53 60 54 55 55
REMARK SMILES IDX 56 56 57 57 58 58 59 59 82 60 83 61 91 62 84 63 90 64 85 65
REMARK SMILES IDX 86 66 87 67 88 68 89 69 68 70 69 71 77 72 70 73 76 74 71 75
REMARK SMILES IDX 72 76 73 77 74 78 75 79 6 80 7 81 8 83 9 84 10 85 11 86
REMARK SMILES IDX 12 88 13 89 14 90 15 91 16 92 17 94 18 95 19 96 20 97 21 99
REMARK SMILES IDX 22 100 23 101 24 102 25 103 29 104 26 105 28 106 27 107
REMARK SMILES IDX 30 108 31 109 32 110
REMARK H PARENT 35 9 40 16 96 35 66 46 6 82 10 87 15 93 19 98
REMARK Flexibility Score: inf
ROOT
ATOM      1  C   UNL A   1      32.953  20.274  24.954  1.00  0.00     0.171 C 
ENDROOT
BRANCH   1   2
ATOM      2  C   UNL A   1      32.655  18.906  24.355  1.00  0.00     0.038 C 
BRANCH   2   3
ATOM      3  C   UNL A   1      33.585  17.713  24.627  1.00  0.00    -0.015 C 
ATOM      4  C   UNL A   1      32.969  16.649  25.533  1.00  0.00     0.007 C 
ATOM      5  C   UNL A   1      33.932  17.075  23.272  1.00  0.00     0.007 C 
ENDBRANCH   2   3
ENDBRANCH   1   2
BRANCH   1   6
ATOM      6  C   UNL A   1      33.684  21.200  23.958  1.00  0.00     0.242 C 
ATOM      7  O   UNL A   1      33.074  21.828  23.091  1.00  0.00    -0.273 OA
ATOM      8  N   UNL A   1      35.041  21.337  24.025  1.00  0.00    -0.354 N 
ATOM      9  H   UNL A   1      35.446  21.921  23.345  1.00  0.00     0.163 HD
BRANCH   8  10
ATOM     10  C   UNL A   1      35.964  20.733  24.967  1.00  0.00     0.116 C 
BRANCH  10  11
ATOM     11  C   UNL A   1      37.415  21.071  24.658  1.00  0.00     0.023 C 
BRANCH  11  12
ATOM     12  C   UNL A   1      38.400  19.957  25.000  1.00  0.00     0.023 C 
BRANCH  12  13
ATOM     13  C   UNL A   1      39.364  20.292  26.131  1.00  0.00     0.116 C 
BRANCH  13  14
ATOM     14  N   UNL A   1      40.572  19.478  26.087  1.00  0.00    -0.352 N 
ATOM     15  C   UNL A   1      41.883  19.890  26.124  1.00  0.00     0.251 C 
ATOM     16  H   UNL A   1      40.430  18.506  26.021  1.00  0.00     0.163 HD
ATOM     17  O   UNL A   1      42.792  19.107  25.871  1.00  0.00    -0.269 OA
BRANCH  15  18
ATOM     18  C   UNL A   1      42.166  21.299  26.449  1.00  0.00     0.039 A 
ATOM     19  C   UNL A   1      42.442  21.657  27.769  1.00  0.00     0.014 A 
ATOM     20  C   UNL A   1      42.239  22.243  25.422  1.00  0.00     0.014 A 
ATOM     21  C   UNL A   1      42.869  22.956  28.048  1.00  0.00     0.010 A 
ATOM     22  C   UNL A   1      42.750  23.506  25.689  1.00  0.00     0.010 A 
ATOM     23  C   UNL A   1      43.066  23.877  27.005  1.00  0.00    -0.014 A 
BRANCH  23  24
ATOM     24  C   UNL A   1      43.597  25.239  27.265  1.00  0.00     0.031 A 
ATOM     25  C   UNL A   1      45.055  25.530  27.029  1.00  0.00     0.074 A 
ATOM     26  C   UNL A   1      42.789  26.188  27.778  1.00  0.00     0.049 A 
ATOM     27  N   UNL A   1      45.721  26.633  27.250  1.00  0.00    -0.248 NA
ATOM     28  C   UNL A   1      45.879  24.427  26.503  1.00  0.00     0.031 C 
ATOM     29  C   UNL A   1      41.369  26.015  28.096  1.00  0.00     0.029 A 
ATOM     30  N   UNL A   1      43.047  27.491  28.125  1.00  0.00    -0.354 N 
ATOM     31  C   UNL A   1      47.040  26.352  26.913  1.00  0.00     0.074 A 
ATOM     32  C   UNL A   1      47.090  24.960  26.525  1.00  0.00     0.031 C 
ATOM     33  C   UNL A   1      40.877  27.176  28.558  1.00  0.00     0.029 A 
ATOM     34  C   UNL A   1      41.950  28.163  28.609  1.00  0.00     0.049 A 
ATOM     35  H   UNL A   1      43.936  27.905  28.036  1.00  0.00     0.167 HD
ATOM     36  C   UNL A   1      48.109  27.181  26.905  1.00  0.00     0.031 A 
ATOM     37  C   UNL A   1      41.823  29.431  29.048  1.00  0.00     0.031 A 
ATOM     38  C   UNL A   1      48.048  28.571  27.271  1.00  0.00     0.049 A 
ATOM     39  C   UNL A   1      43.026  30.335  29.030  1.00  0.00     0.074 A 
ATOM     40  C   UNL A   1      49.060  29.514  27.231  1.00  0.00     0.029 A 
ATOM     41  N   UNL A   1      46.916  29.215  27.744  1.00  0.00    -0.354 N 
ATOM     42  N   UNL A   1      44.249  30.069  28.636  1.00  0.00    -0.248 NA
ATOM     43  C   UNL A   1      42.829  31.710  29.505  1.00  0.00     0.031 C 
ATOM     44  C   UNL A   1      48.552  30.717  27.733  1.00  0.00     0.029 A 
ATOM     45  C   UNL A   1      47.209  30.538  28.025  1.00  0.00     0.049 A 
ATOM     46  H   UNL A   1      46.033  28.795  27.862  1.00  0.00     0.167 HD
ATOM     47  C   UNL A   1      44.960  31.255  28.787  1.00  0.00     0.074 A 
ATOM     48  C   UNL A   1      44.027  32.240  29.294  1.00  0.00     0.031 C 
ATOM     49  C   UNL A   1      46.267  31.506  28.526  1.00  0.00     0.031 A 
BRANCH  36  50
ATOM     50  C   UNL A   1      49.436  26.605  26.488  1.00  0.00    -0.014 A 
ATOM     51  C   UNL A   1      49.838  26.606  25.140  1.00  0.00     0.010 A 
ATOM     52  C   UNL A   1      50.311  26.092  27.462  1.00  0.00     0.010 A 
ATOM     53  C   UNL A   1      51.072  26.066  24.768  1.00  0.00     0.020 A 
ATOM     54  C   UNL A   1      51.559  25.579  27.099  1.00  0.00     0.020 A 
ATOM     55  C   UNL A   1      51.925  25.554  25.752  1.00  0.00     0.054 A 
BRANCH  55  56
ATOM     56  S   UNL A   1      53.533  24.887  25.244  1.00  0.00     0.124 S 
ATOM     57  O   UNL A   1      54.356  25.162  26.420  1.00  0.00    -0.237 OA
ATOM     58  O   UNL A   1      53.233  23.478  25.004  1.00  0.00    -0.237 OA
ATOM     59  O   UNL A   1      53.870  25.662  24.053  1.00  0.00    -0.744 OA
ENDBRANCH  55  56
ENDBRANCH  36  50
BRANCH  37  60
ATOM     60  C   UNL A   1      40.502  29.930  29.521  1.00  0.00    -0.014 A 
ATOM     61  C   UNL A   1      39.462  30.174  28.606  1.00  0.00     0.010 A 
ATOM     62  C   UNL A   1      40.273  30.163  30.890  1.00  0.00     0.010 A 
ATOM     63  C   UNL A   1      38.229  30.661  29.046  1.00  0.00     0.020 A 
ATOM     64  C   UNL A   1      39.032  30.623  31.337  1.00  0.00     0.020 A 
ATOM     65  C   UNL A   1      38.021  30.882  30.410  1.00  0.00     0.054 A 
BRANCH  65  66
ATOM     66  S   UNL A   1      36.396  31.474  30.962  1.00  0.00     0.124 S 
ATOM     67  O   UNL A   1      35.711  31.704  29.694  1.00  0.00    -0.237 OA
ATOM     68  O   UNL A   1      35.903  30.351  31.755  1.00  0.00    -0.237 OA
ATOM     69  O   UNL A   1      36.715  32.676  31.730  1.00  0.00    -0.744 OA
ENDBRANCH  65  66
ENDBRANCH  37  60
BRANCH  49  70
ATOM     70  C   UNL A   1      46.761  32.911  28.748  1.00  0.00    -0.014 A 
ATOM     71  C   UNL A   1      47.327  33.302  29.974  1.00  0.00     0.010 A 
ATOM     72  C   UNL A   1      46.710  33.836  27.688  1.00  0.00     0.010 A 
ATOM     73  C   UNL A   1      47.806  34.604  30.146  1.00  0.00     0.020 A 
ATOM     74  C   UNL A   1      47.215  35.129  27.848  1.00  0.00     0.020 A 
ATOM     75  C   UNL A   1      47.747  35.508  29.081  1.00  0.00     0.054 A 
BRANCH  75  76
ATOM     76  S   UNL A   1      48.417  37.177  29.315  1.00  0.00     0.124 S 
ATOM     77  O   UNL A   1      49.588  37.159  28.443  1.00  0.00    -0.237 OA
ATOM     78  O   UNL A   1      47.317  38.030  28.873  1.00  0.00    -0.237 OA
ATOM     79  O   UNL A   1      48.707  37.236  30.746  1.00  0.00    -0.744 OA
ENDBRANCH  75  76
ENDBRANCH  49  70
ENDBRANCH  23  24
ENDBRANCH  15  18
ENDBRANCH  13  14
ENDBRANCH  12  13
ENDBRANCH  11  12
ENDBRANCH  10  11
ENDBRANCH   8  10
ENDBRANCH   1   6
BRANCH   1  80
ATOM     80  N   UNL A   1      31.774  21.034  25.418  1.00  0.00    -0.343 N 
ATOM     81  C   UNL A   1      31.439  22.150  26.083  1.00  0.00     0.243 C 
ATOM     82  H   UNL A   1      30.955  20.562  25.145  1.00  0.00     0.164 HD
ATOM     83  O   UNL A   1      30.213  22.257  26.259  1.00  0.00    -0.273 OA
BRANCH  81  84
ATOM     84  C   UNL A   1      32.339  23.318  26.573  1.00  0.00     0.174 C 
BRANCH  84  85
ATOM     85  N   UNL A   1      31.795  24.655  26.835  1.00  0.00    -0.342 N 
ATOM     86  C   UNL A   1      32.143  25.938  26.580  1.00  0.00     0.242 C 
ATOM     87  H   UNL A   1      30.947  24.606  27.331  1.00  0.00     0.164 HD
ATOM     88  O   UNL A   1      31.219  26.760  26.663  1.00  0.00    -0.273 OA
BRANCH  86  89
ATOM     89  C   UNL A   1      33.533  26.439  26.129  1.00  0.00     0.168 C 
ATOM     90  C   UNL A   1      33.496  27.928  25.804  1.00  0.00     0.041 C 
BRANCH  89  91
ATOM     91  N   UNL A   1      34.271  25.685  25.121  1.00  0.00    -0.343 N 
ATOM     92  C   UNL A   1      33.792  25.118  23.968  1.00  0.00     0.240 C 
ATOM     93  H   UNL A   1      35.234  25.570  25.289  1.00  0.00     0.164 HD
ATOM     94  O   UNL A   1      34.609  24.563  23.229  1.00  0.00    -0.273 OA
BRANCH  92  95
ATOM     95  C   UNL A   1      32.310  25.226  23.557  1.00  0.00     0.219 C 
BRANCH  95  96
ATOM     96  N   UNL A   1      32.135  26.080  22.402  1.00  0.00    -0.312 N 
ATOM     97  C   UNL A   1      31.377  27.207  22.343  1.00  0.00     0.407 C 
ATOM     98  H   UNL A   1      32.610  25.819  21.580  1.00  0.00     0.167 HD
ATOM     99  O   UNL A   1      31.026  27.645  21.252  1.00  0.00    -0.225 OA
BRANCH  97 100
ATOM    100  O   UNL A   1      30.995  27.663  23.559  1.00  0.00    -0.445 OA
BRANCH 100 101
ATOM    101  C   UNL A   1      29.582  27.778  23.813  1.00  0.00     0.270 C 
BRANCH 101 102
ATOM    102  C   UNL A   1      29.042  29.137  23.472  1.00  0.00    -0.011 A 
ATOM    103  C   UNL A   1      27.830  29.273  22.790  1.00  0.00     0.007 A 
ATOM    104  C   UNL A   1      29.712  30.285  23.918  1.00  0.00     0.007 A 
ATOM    105  C   UNL A   1      27.277  30.539  22.593  1.00  0.00     0.000 A 
ATOM    106  C   UNL A   1      29.149  31.546  23.742  1.00  0.00     0.000 A 
ATOM    107  C   UNL A   1      27.928  31.671  23.085  1.00  0.00     0.000 A 
ENDBRANCH 101 102
ENDBRANCH 100 101
ENDBRANCH  97 100
ENDBRANCH  95  96
ENDBRANCH  92  95
ENDBRANCH  89  91
ENDBRANCH  86  89
ENDBRANCH  84  85
BRANCH  84 108
ATOM    108  C   UNL A   1      33.487  22.912  27.538  1.00  0.00     0.015 C 
ATOM    109  C   UNL A   1      33.479  21.453  27.998  1.00  0.00     0.010 C 
ATOM    110  C   UNL A   1      34.854  23.200  26.890  1.00  0.00     0.010 C 
ENDBRANCH  84 108
ENDBRANCH  81  84
ENDBRANCH   1  80
TORSDOF 27
ENDMDL
