MODEL 1
REMARK VINA RESULT:     -10.5      0.000      0.000
REMARK SMILES O=C(Cc1ccc(=O)n(C(F)F)c1)NCCCCNC(=O)c1ccc(-c2c3nc(c(-c4ccc(S(=O)(=O)[O-])cc4)c4ccc([nH]4)c(-c4ccc(S(=O)(=O)[O-])cc4)c4nc(c(-c5ccc(S(=O)(=O)[O-])cc5)c5ccc2[nH]5)C=C4)C=C3)cc1
REMARK SMILES IDX 17 1 16 2 15 3 14 4 1 5 2 6 3 8 4 9 5 10 13 11 6 12 9 13
REMARK SMILES IDX 7 14 8 15 10 16 11 17 12 18 18 19 19 20 20 21 21 23 22 24
REMARK SMILES IDX 23 25 81 26 24 27 80 28 25 29 26 30 27 31 74 32 28 33 79 34
REMARK SMILES IDX 73 35 75 36 29 37 78 38 72 39 71 40 30 42 60 43 41 44 59 45
REMARK SMILES IDX 42 46 45 47 58 48 76 49 43 50 44 51 57 53 77 54 46 55 31 56
REMARK SMILES IDX 32 57 40 58 33 59 39 60 34 61 35 62 36 63 37 64 38 65 61 66
REMARK SMILES IDX 62 67 70 68 63 69 69 70 64 71 65 72 66 73 67 74 68 75 47 76
REMARK SMILES IDX 48 77 56 78 49 79 55 80 50 81 51 82 52 83 53 84 54 85
REMARK H PARENT 14 7 19 22 75 41 45 52
REMARK Flexibility Score: inf
ROOT
ATOM      1  C   UNL A   1      33.036  29.120  25.257  1.00  0.00     0.023 C 
ENDROOT
BRANCH   1   2
ATOM      2  C   UNL A   1      31.547  29.058  24.907  1.00  0.00     0.023 C 
BRANCH   2   3
ATOM      3  C   UNL A   1      31.057  27.716  24.365  1.00  0.00     0.116 C 
BRANCH   3   4
ATOM      4  N   UNL A   1      32.130  26.749  24.252  1.00  0.00    -0.356 N 
ATOM      5  O   UNL A   1      31.601  26.006  22.138  1.00  0.00    -0.275 OA
ATOM      6  C   UNL A   1      32.333  25.981  23.124  1.00  0.00     0.224 C 
ATOM      7  H   UNL A   1      32.744  26.636  25.014  1.00  0.00     0.163 HD
BRANCH   6   8
ATOM      8  C   UNL A   1      33.579  25.106  23.193  1.00  0.00     0.137 C 
BRANCH   8   9
ATOM      9  C   UNL A   1      33.227  23.747  23.742  1.00  0.00    -0.022 A 
ATOM     10  C   UNL A   1      32.719  22.739  22.831  1.00  0.00     0.011 A 
ATOM     11  C   UNL A   1      33.385  23.424  25.037  1.00  0.00     0.099 A 
ATOM     12  C   UNL A   1      32.334  21.538  23.280  1.00  0.00     0.072 A 
ATOM     13  N   UNL A   1      33.030  22.175  25.520  1.00  0.00    -0.258 N 
ATOM     14  C   UNL A   1      32.454  21.200  24.724  1.00  0.00     0.254 A 
ATOM     15  O   UNL A   1      32.056  20.103  25.107  1.00  0.00    -0.269 OA
BRANCH  13  16
ATOM     16  C   UNL A   1      33.203  21.856  26.912  1.00  0.00     0.451 C 
ATOM     17  F   UNL A   1      34.312  21.101  27.107  1.00  0.00    -0.185 F 
ATOM     18  F   UNL A   1      33.321  22.977  27.667  1.00  0.00    -0.185 F 
ENDBRANCH  13  16
ENDBRANCH   8   9
ENDBRANCH   6   8
ENDBRANCH   3   4
ENDBRANCH   2   3
ENDBRANCH   1   2
BRANCH   1  19
ATOM     19  C   UNL A   1      33.358  29.131  26.746  1.00  0.00     0.116 C 
BRANCH  19  20
ATOM     20  N   UNL A   1      33.395  30.471  27.312  1.00  0.00    -0.352 N 
ATOM     21  C   UNL A   1      34.374  31.074  28.072  1.00  0.00     0.251 C 
ATOM     22  H   UNL A   1      32.605  31.027  27.126  1.00  0.00     0.163 HD
ATOM     23  O   UNL A   1      34.165  32.171  28.581  1.00  0.00    -0.269 OA
BRANCH  21  24
ATOM     24  C   UNL A   1      35.658  30.375  28.311  1.00  0.00     0.039 A 
ATOM     25  C   UNL A   1      35.888  29.687  29.504  1.00  0.00     0.014 A 
ATOM     26  C   UNL A   1      36.665  30.446  27.343  1.00  0.00     0.014 A 
ATOM     27  C   UNL A   1      37.172  29.253  29.812  1.00  0.00     0.010 A 
ATOM     28  C   UNL A   1      37.932  29.921  27.617  1.00  0.00     0.010 A 
ATOM     29  C   UNL A   1      38.216  29.377  28.879  1.00  0.00    -0.014 A 
BRANCH  29  30
ATOM     30  C   UNL A   1      39.594  28.954  29.253  1.00  0.00     0.031 A 
ATOM     31  C   UNL A   1      40.450  29.814  30.148  1.00  0.00     0.074 A 
ATOM     32  C   UNL A   1      40.056  27.758  28.838  1.00  0.00     0.049 A 
ATOM     33  N   UNL A   1      41.654  29.579  30.606  1.00  0.00    -0.248 NA
ATOM     34  C   UNL A   1      39.885  31.099  30.590  1.00  0.00     0.031 C 
ATOM     35  C   UNL A   1      39.315  26.822  27.992  1.00  0.00     0.029 A 
ATOM     36  N   UNL A   1      41.239  27.110  29.096  1.00  0.00    -0.354 N 
ATOM     37  C   UNL A   1      41.991  30.683  31.381  1.00  0.00     0.074 A 
ATOM     38  C   UNL A   1      40.886  31.611  31.293  1.00  0.00     0.031 C 
ATOM     39  C   UNL A   1      40.031  25.699  27.850  1.00  0.00     0.029 A 
ATOM     40  C   UNL A   1      41.314  25.859  28.529  1.00  0.00     0.049 A 
ATOM     41  H   UNL A   1      41.963  27.502  29.634  1.00  0.00     0.167 HD
ATOM     42  C   UNL A   1      43.108  30.895  32.119  1.00  0.00     0.031 A 
ATOM     43  C   UNL A   1      42.301  24.940  28.536  1.00  0.00     0.031 A 
ATOM     44  C   UNL A   1      44.210  29.970  32.198  1.00  0.00     0.049 A 
ATOM     45  C   UNL A   1      43.562  25.223  29.298  1.00  0.00     0.074 A 
ATOM     46  C   UNL A   1      45.388  30.101  32.913  1.00  0.00     0.029 A 
ATOM     47  N   UNL A   1      44.275  28.748  31.544  1.00  0.00    -0.354 N 
ATOM     48  N   UNL A   1      43.860  26.272  30.027  1.00  0.00    -0.248 NA
ATOM     49  C   UNL A   1      44.619  24.203  29.248  1.00  0.00     0.031 C 
ATOM     50  C   UNL A   1      46.192  28.992  32.638  1.00  0.00     0.029 A 
ATOM     51  C   UNL A   1      45.485  28.128  31.818  1.00  0.00     0.049 A 
ATOM     52  H   UNL A   1      43.567  28.376  30.970  1.00  0.00     0.167 HD
ATOM     53  C   UNL A   1      45.135  26.038  30.528  1.00  0.00     0.074 A 
ATOM     54  C   UNL A   1      45.543  24.736  30.038  1.00  0.00     0.031 C 
ATOM     55  C   UNL A   1      45.894  26.836  31.319  1.00  0.00     0.031 A 
BRANCH  42  56
ATOM     56  C   UNL A   1      43.203  32.179  32.909  1.00  0.00    -0.014 A 
ATOM     57  C   UNL A   1      42.689  32.241  34.219  1.00  0.00     0.010 A 
ATOM     58  C   UNL A   1      43.725  33.349  32.328  1.00  0.00     0.010 A 
ATOM     59  C   UNL A   1      42.681  33.449  34.924  1.00  0.00     0.020 A 
ATOM     60  C   UNL A   1      43.751  34.551  33.043  1.00  0.00     0.020 A 
ATOM     61  C   UNL A   1      43.210  34.597  34.331  1.00  0.00     0.054 A 
BRANCH  61  62
ATOM     62  S   UNL A   1      43.206  36.153  35.265  1.00  0.00     0.124 S 
ATOM     63  O   UNL A   1      44.619  36.327  35.582  1.00  0.00    -0.237 OA
ATOM     64  O   UNL A   1      42.650  37.101  34.303  1.00  0.00    -0.237 OA
ATOM     65  O   UNL A   1      42.340  35.861  36.406  1.00  0.00    -0.744 OA
ENDBRANCH  61  62
ENDBRANCH  42  56
BRANCH  43  66
ATOM     66  C   UNL A   1      42.081  23.660  27.807  1.00  0.00    -0.014 A 
ATOM     67  C   UNL A   1      41.379  22.607  28.426  1.00  0.00     0.010 A 
ATOM     68  C   UNL A   1      42.701  23.432  26.567  1.00  0.00     0.010 A 
ATOM     69  C   UNL A   1      41.384  21.327  27.868  1.00  0.00     0.020 A 
ATOM     70  C   UNL A   1      42.679  22.159  25.988  1.00  0.00     0.020 A 
ATOM     71  C   UNL A   1      42.057  21.106  26.664  1.00  0.00     0.054 A 
BRANCH  71  72
ATOM     72  S   UNL A   1      42.159  19.411  26.027  1.00  0.00     0.124 S 
ATOM     73  O   UNL A   1      40.770  19.146  25.662  1.00  0.00    -0.237 OA
ATOM     74  O   UNL A   1      43.088  19.547  24.909  1.00  0.00    -0.237 OA
ATOM     75  O   UNL A   1      42.663  18.647  27.166  1.00  0.00    -0.744 OA
ENDBRANCH  71  72
ENDBRANCH  43  66
BRANCH  55  76
ATOM     76  C   UNL A   1      47.266  26.353  31.715  1.00  0.00    -0.014 A 
ATOM     77  C   UNL A   1      48.338  26.474  30.810  1.00  0.00     0.010 A 
ATOM     78  C   UNL A   1      47.463  25.645  32.914  1.00  0.00     0.010 A 
ATOM     79  C   UNL A   1      49.564  25.856  31.072  1.00  0.00     0.020 A 
ATOM     80  C   UNL A   1      48.698  25.053  33.195  1.00  0.00     0.020 A 
ATOM     81  C   UNL A   1      49.730  25.136  32.257  1.00  0.00     0.054 A 
BRANCH  81  82
ATOM     82  S   UNL A   1      51.308  24.289  32.549  1.00  0.00     0.124 S 
ATOM     83  O   UNL A   1      51.013  22.930  32.109  1.00  0.00    -0.237 OA
ATOM     84  O   UNL A   1      52.235  25.038  31.704  1.00  0.00    -0.237 OA
ATOM     85  O   UNL A   1      51.522  24.447  33.987  1.00  0.00    -0.744 OA
ENDBRANCH  81  82
ENDBRANCH  55  76
ENDBRANCH  29  30
ENDBRANCH  21  24
ENDBRANCH  19  20
ENDBRANCH   1  19
TORSDOF 16
ENDMDL
MODEL 2
REMARK VINA RESULT:     -10.5      3.036      9.656
REMARK SMILES O=C(Cc1ccc(=O)n(C(F)F)c1)NCCCCNC(=O)c1ccc(-c2c3nc(c(-c4ccc(S(=O)(=O)[O-])cc4)c4ccc([nH]4)c(-c4ccc(S(=O)(=O)[O-])cc4)c4nc(c(-c5ccc(S(=O)(=O)[O-])cc5)c5ccc2[nH]5)C=C4)C=C3)cc1
REMARK SMILES IDX 17 1 16 2 15 3 14 4 1 5 2 6 3 8 4 9 5 10 13 11 6 12 9 13
REMARK SMILES IDX 7 14 8 15 10 16 11 17 12 18 18 19 19 20 20 21 21 23 22 24
REMARK SMILES IDX 23 25 81 26 24 27 80 28 25 29 26 30 27 31 74 32 28 33 79 34
REMARK SMILES IDX 73 35 75 36 29 37 78 38 72 39 71 40 30 42 60 43 41 44 59 45
REMARK SMILES IDX 42 46 45 47 58 48 76 49 43 50 44 51 57 53 77 54 46 55 31 56
REMARK SMILES IDX 32 57 40 58 33 59 39 60 34 61 35 62 36 63 37 64 38 65 61 66
REMARK SMILES IDX 62 67 70 68 63 69 69 70 64 71 65 72 66 73 67 74 68 75 47 76
REMARK SMILES IDX 48 77 56 78 49 79 55 80 50 81 51 82 52 83 53 84 54 85
REMARK H PARENT 14 7 19 22 75 41 45 52
REMARK Flexibility Score: inf
ROOT
ATOM      1  C   UNL A   1      36.674  22.677  23.851  1.00  0.00     0.023 C 
ENDROOT
BRANCH   1   2
ATOM      2  C   UNL A   1      35.407  21.843  24.054  1.00  0.00     0.023 C 
BRANCH   2   3
ATOM      3  C   UNL A   1      34.289  22.532  24.837  1.00  0.00     0.116 C 
BRANCH   3   4
ATOM      4  N   UNL A   1      34.179  23.938  24.508  1.00  0.00    -0.356 N 
ATOM      5  O   UNL A   1      32.835  23.678  22.657  1.00  0.00    -0.275 OA
ATOM      6  C   UNL A   1      33.431  24.405  23.446  1.00  0.00     0.224 C 
ATOM      7  H   UNL A   1      34.658  24.591  25.068  1.00  0.00     0.163 HD
BRANCH   6   8
ATOM      8  C   UNL A   1      33.381  25.925  23.352  1.00  0.00     0.137 C 
BRANCH   8   9
ATOM      9  C   UNL A   1      32.854  26.506  24.639  1.00  0.00    -0.022 A 
ATOM     10  C   UNL A   1      31.548  26.085  25.109  1.00  0.00     0.011 A 
ATOM     11  C   UNL A   1      33.552  27.384  25.379  1.00  0.00     0.099 A 
ATOM     12  C   UNL A   1      31.009  26.619  26.212  1.00  0.00     0.072 A 
ATOM     13  N   UNL A   1      33.033  27.922  26.545  1.00  0.00    -0.258 N 
ATOM     14  C   UNL A   1      31.758  27.634  27.001  1.00  0.00     0.254 A 
ATOM     15  O   UNL A   1      31.218  28.130  27.986  1.00  0.00    -0.269 OA
BRANCH  13  16
ATOM     16  C   UNL A   1      33.799  28.864  27.317  1.00  0.00     0.451 C 
ATOM     17  F   UNL A   1      35.130  28.679  27.135  1.00  0.00    -0.185 F 
ATOM     18  F   UNL A   1      33.503  30.143  26.975  1.00  0.00    -0.185 F 
ENDBRANCH  13  16
ENDBRANCH   8   9
ENDBRANCH   6   8
ENDBRANCH   3   4
ENDBRANCH   2   3
ENDBRANCH   1   2
BRANCH   1  19
ATOM     19  C   UNL A   1      37.328  23.197  25.125  1.00  0.00     0.116 C 
BRANCH  19  20
ATOM     20  N   UNL A   1      38.412  22.349  25.598  1.00  0.00    -0.352 N 
ATOM     21  C   UNL A   1      39.524  22.683  26.341  1.00  0.00     0.251 C 
ATOM     22  H   UNL A   1      38.341  21.400  25.351  1.00  0.00     0.163 HD
ATOM     23  O   UNL A   1      40.408  21.852  26.526  1.00  0.00    -0.269 OA
BRANCH  21  24
ATOM     24  C   UNL A   1      39.673  24.058  26.871  1.00  0.00     0.039 A 
ATOM     25  C   UNL A   1      40.274  25.059  26.108  1.00  0.00     0.014 A 
ATOM     26  C   UNL A   1      39.240  24.338  28.172  1.00  0.00     0.014 A 
ATOM     27  C   UNL A   1      40.625  26.265  26.706  1.00  0.00     0.010 A 
ATOM     28  C   UNL A   1      39.509  25.588  28.740  1.00  0.00     0.010 A 
ATOM     29  C   UNL A   1      40.261  26.540  28.035  1.00  0.00    -0.014 A 
BRANCH  29  30
ATOM     30  C   UNL A   1      40.696  27.814  28.670  1.00  0.00     0.031 A 
ATOM     31  C   UNL A   1      42.139  28.039  29.044  1.00  0.00     0.074 A 
ATOM     32  C   UNL A   1      39.799  28.804  28.853  1.00  0.00     0.049 A 
ATOM     33  N   UNL A   1      42.697  29.102  29.566  1.00  0.00    -0.248 NA
ATOM     34  C   UNL A   1      43.079  26.933  28.800  1.00  0.00     0.031 C 
ATOM     35  C   UNL A   1      38.380  28.721  28.508  1.00  0.00     0.029 A 
ATOM     36  N   UNL A   1      39.950  30.079  29.341  1.00  0.00    -0.354 N 
ATOM     37  C   UNL A   1      44.045  28.793  29.716  1.00  0.00     0.074 A 
ATOM     38  C   UNL A   1      44.213  27.426  29.277  1.00  0.00     0.031 C 
ATOM     39  C   UNL A   1      37.804  29.909  28.737  1.00  0.00     0.029 A 
ATOM     40  C   UNL A   1      38.790  30.817  29.315  1.00  0.00     0.049 A 
ATOM     41  H   UNL A   1      40.806  30.431  29.676  1.00  0.00     0.167 HD
ATOM     42  C   UNL A   1      45.054  29.583  30.157  1.00  0.00     0.031 A 
ATOM     43  C   UNL A   1      38.532  32.078  29.720  1.00  0.00     0.031 A 
ATOM     44  C   UNL A   1      44.880  30.943  30.600  1.00  0.00     0.049 A 
ATOM     45  C   UNL A   1      39.648  32.914  30.274  1.00  0.00     0.074 A 
ATOM     46  C   UNL A   1      45.841  31.820  31.070  1.00  0.00     0.029 A 
ATOM     47  N   UNL A   1      43.671  31.624  30.629  1.00  0.00    -0.354 N 
ATOM     48  N   UNL A   1      40.915  32.603  30.406  1.00  0.00    -0.248 NA
ATOM     49  C   UNL A   1      39.307  34.268  30.730  1.00  0.00     0.031 C 
ATOM     50  C   UNL A   1      45.206  33.005  31.448  1.00  0.00     0.029 A 
ATOM     51  C   UNL A   1      43.860  32.901  31.135  1.00  0.00     0.049 A 
ATOM     52  H   UNL A   1      42.808  31.256  30.334  1.00  0.00     0.167 HD
ATOM     53  C   UNL A   1      41.527  33.725  30.953  1.00  0.00     0.074 A 
ATOM     54  C   UNL A   1      40.494  34.730  31.107  1.00  0.00     0.031 C 
ATOM     55  C   UNL A   1      42.827  33.897  31.298  1.00  0.00     0.031 A 
BRANCH  42  56
ATOM     56  C   UNL A   1      46.448  29.003  30.183  1.00  0.00    -0.014 A 
ATOM     57  C   UNL A   1      46.813  28.086  31.187  1.00  0.00     0.010 A 
ATOM     58  C   UNL A   1      47.425  29.427  29.264  1.00  0.00     0.010 A 
ATOM     59  C   UNL A   1      48.127  27.618  31.282  1.00  0.00     0.020 A 
ATOM     60  C   UNL A   1      48.733  28.935  29.333  1.00  0.00     0.020 A 
ATOM     61  C   UNL A   1      49.080  28.047  30.355  1.00  0.00     0.054 A 
BRANCH  61  62
ATOM     62  S   UNL A   1      50.778  27.420  30.483  1.00  0.00     0.124 S 
ATOM     63  O   UNL A   1      50.714  26.599  31.687  1.00  0.00    -0.237 OA
ATOM     64  O   UNL A   1      50.944  26.693  29.227  1.00  0.00    -0.237 OA
ATOM     65  O   UNL A   1      51.582  28.636  30.597  1.00  0.00    -0.744 OA
ENDBRANCH  61  62
ENDBRANCH  42  56
BRANCH  43  66
ATOM     66  C   UNL A   1      37.145  32.599  29.567  1.00  0.00    -0.014 A 
ATOM     67  C   UNL A   1      36.718  33.117  28.329  1.00  0.00     0.010 A 
ATOM     68  C   UNL A   1      36.306  32.726  30.688  1.00  0.00     0.010 A 
ATOM     69  C   UNL A   1      35.525  33.836  28.235  1.00  0.00     0.020 A 
ATOM     70  C   UNL A   1      35.094  33.417  30.589  1.00  0.00     0.020 A 
ATOM     71  C   UNL A   1      34.733  34.003  29.373  1.00  0.00     0.054 A 
BRANCH  71  72
ATOM     72  S   UNL A   1      33.257  35.050  29.255  1.00  0.00     0.124 S 
ATOM     73  O   UNL A   1      33.828  36.324  28.824  1.00  0.00    -0.237 OA
ATOM     74  O   UNL A   1      32.451  34.352  28.257  1.00  0.00    -0.237 OA
ATOM     75  O   UNL A   1      32.717  35.035  30.612  1.00  0.00    -0.744 OA
ENDBRANCH  71  72
ENDBRANCH  43  66
BRANCH  55  76
ATOM     76  C   UNL A   1      43.238  35.219  31.896  1.00  0.00    -0.014 A 
ATOM     77  C   UNL A   1      43.024  35.464  33.266  1.00  0.00     0.010 A 
ATOM     78  C   UNL A   1      43.694  36.269  31.078  1.00  0.00     0.010 A 
ATOM     79  C   UNL A   1      43.208  36.743  33.797  1.00  0.00     0.020 A 
ATOM     80  C   UNL A   1      43.912  37.542  31.613  1.00  0.00     0.020 A 
ATOM     81  C   UNL A   1      43.637  37.778  32.963  1.00  0.00     0.054 A 
BRANCH  81  82
ATOM     82  S   UNL A   1      43.811  39.445  33.659  1.00  0.00     0.124 S 
ATOM     83  O   UNL A   1      44.995  39.943  32.967  1.00  0.00    -0.237 OA
ATOM     84  O   UNL A   1      42.550  40.080  33.286  1.00  0.00    -0.237 OA
ATOM     85  O   UNL A   1      43.978  39.203  35.090  1.00  0.00    -0.744 OA
ENDBRANCH  81  82
ENDBRANCH  55  76
ENDBRANCH  29  30
ENDBRANCH  21  24
ENDBRANCH  19  20
ENDBRANCH   1  19
TORSDOF 16
ENDMDL
MODEL 3
REMARK VINA RESULT:     -10.4      5.575     11.459
REMARK SMILES O=C(Cc1ccc(=O)n(C(F)F)c1)NCCCCNC(=O)c1ccc(-c2c3nc(c(-c4ccc(S(=O)(=O)[O-])cc4)c4ccc([nH]4)c(-c4ccc(S(=O)(=O)[O-])cc4)c4nc(c(-c5ccc(S(=O)(=O)[O-])cc5)c5ccc2[nH]5)C=C4)C=C3)cc1
REMARK SMILES IDX 17 1 16 2 15 3 14 4 1 5 2 6 3 8 4 9 5 10 13 11 6 12 9 13
REMARK SMILES IDX 7 14 8 15 10 16 11 17 12 18 18 19 19 20 20 21 21 23 22 24
REMARK SMILES IDX 23 25 81 26 24 27 80 28 25 29 26 30 27 31 74 32 28 33 79 34
REMARK SMILES IDX 73 35 75 36 29 37 78 38 72 39 71 40 30 42 60 43 41 44 59 45
REMARK SMILES IDX 42 46 45 47 58 48 76 49 43 50 44 51 57 53 77 54 46 55 31 56
REMARK SMILES IDX 32 57 40 58 33 59 39 60 34 61 35 62 36 63 37 64 38 65 61 66
REMARK SMILES IDX 62 67 70 68 63 69 69 70 64 71 65 72 66 73 67 74 68 75 47 76
REMARK SMILES IDX 48 77 56 78 49 79 55 80 50 81 51 82 52 83 53 84 54 85
REMARK H PARENT 14 7 19 22 75 41 45 52
REMARK Flexibility Score: inf
ROOT
ATOM      1  C   UNL A   1      45.302  24.761  27.470  1.00  0.00     0.023 C 
ENDROOT
BRANCH   1   2
ATOM      2  C   UNL A   1      45.752  25.765  26.404  1.00  0.00     0.023 C 
BRANCH   2   3
ATOM      3  C   UNL A   1      46.710  25.213  25.349  1.00  0.00     0.116 C 
BRANCH   3   4
ATOM      4  N   UNL A   1      46.772  23.766  25.371  1.00  0.00    -0.356 N 
ATOM      5  O   UNL A   1      45.307  23.405  23.633  1.00  0.00    -0.275 OA
ATOM      6  C   UNL A   1      46.077  22.970  24.485  1.00  0.00     0.224 C 
ATOM      7  H   UNL A   1      47.338  23.330  26.050  1.00  0.00     0.163 HD
BRANCH   6   8
ATOM      8  C   UNL A   1      46.372  21.483  24.633  1.00  0.00     0.137 C 
BRANCH   8   9
ATOM      9  C   UNL A   1      45.115  20.741  25.010  1.00  0.00    -0.022 A 
ATOM     10  C   UNL A   1      45.023  19.326  24.702  1.00  0.00     0.011 A 
ATOM     11  C   UNL A   1      44.083  21.331  25.636  1.00  0.00     0.099 A 
ATOM     12  C   UNL A   1      43.905  18.637  24.959  1.00  0.00     0.072 A 
ATOM     13  N   UNL A   1      42.929  20.631  25.948  1.00  0.00    -0.258 N 
ATOM     14  C   UNL A   1      42.740  19.304  25.600  1.00  0.00     0.254 A 
ATOM     15  O   UNL A   1      41.717  18.651  25.787  1.00  0.00    -0.269 OA
BRANCH  13  16
ATOM     16  C   UNL A   1      41.836  21.288  26.615  1.00  0.00     0.451 C 
ATOM     17  F   UNL A   1      42.219  21.774  27.821  1.00  0.00    -0.185 F 
ATOM     18  F   UNL A   1      41.356  22.322  25.879  1.00  0.00    -0.185 F 
ENDBRANCH  13  16
ENDBRANCH   8   9
ENDBRANCH   6   8
ENDBRANCH   3   4
ENDBRANCH   2   3
ENDBRANCH   1   2
BRANCH   1  19
ATOM     19  C   UNL A   1      43.801  24.511  27.541  1.00  0.00     0.116 C 
BRANCH  19  20
ATOM     20  N   UNL A   1      43.124  24.737  26.273  1.00  0.00    -0.352 N 
ATOM     21  C   UNL A   1      42.073  25.579  25.978  1.00  0.00     0.251 C 
ATOM     22  H   UNL A   1      43.466  24.211  25.515  1.00  0.00     0.163 HD
ATOM     23  O   UNL A   1      41.540  25.531  24.875  1.00  0.00    -0.269 OA
BRANCH  21  24
ATOM     24  C   UNL A   1      41.559  26.507  27.013  1.00  0.00     0.039 A 
ATOM     25  C   UNL A   1      42.040  27.814  27.105  1.00  0.00     0.014 A 
ATOM     26  C   UNL A   1      40.611  26.046  27.932  1.00  0.00     0.014 A 
ATOM     27  C   UNL A   1      41.733  28.584  28.222  1.00  0.00     0.010 A 
ATOM     28  C   UNL A   1      40.228  26.861  29.003  1.00  0.00     0.010 A 
ATOM     29  C   UNL A   1      40.835  28.112  29.195  1.00  0.00    -0.014 A 
BRANCH  29  30
ATOM     30  C   UNL A   1      40.565  28.931  30.409  1.00  0.00     0.031 A 
ATOM     31  C   UNL A   1      41.442  28.818  31.629  1.00  0.00     0.074 A 
ATOM     32  C   UNL A   1      39.562  29.831  30.391  1.00  0.00     0.049 A 
ATOM     33  N   UNL A   1      41.375  29.484  32.754  1.00  0.00    -0.248 NA
ATOM     34  C   UNL A   1      42.536  27.834  31.584  1.00  0.00     0.031 C 
ATOM     35  C   UNL A   1      38.659  30.057  29.262  1.00  0.00     0.029 A 
ATOM     36  N   UNL A   1      39.154  30.745  31.331  1.00  0.00    -0.354 N 
ATOM     37  C   UNL A   1      42.410  29.000  33.548  1.00  0.00     0.074 A 
ATOM     38  C   UNL A   1      43.059  27.950  32.797  1.00  0.00     0.031 C 
ATOM     39  C   UNL A   1      37.845  31.081  29.550  1.00  0.00     0.029 A 
ATOM     40  C   UNL A   1      38.112  31.539  30.910  1.00  0.00     0.049 A 
ATOM     41  H   UNL A   1      39.566  30.824  32.221  1.00  0.00     0.167 HD
ATOM     42  C   UNL A   1      42.799  29.409  34.780  1.00  0.00     0.031 A 
ATOM     43  C   UNL A   1      37.433  32.519  31.541  1.00  0.00     0.031 A 
ATOM     44  C   UNL A   1      42.144  30.452  35.528  1.00  0.00     0.049 A 
ATOM     45  C   UNL A   1      37.830  32.909  32.934  1.00  0.00     0.074 A 
ATOM     46  C   UNL A   1      42.461  30.932  36.786  1.00  0.00     0.029 A 
ATOM     47  N   UNL A   1      41.044  31.177  35.092  1.00  0.00    -0.354 N 
ATOM     48  N   UNL A   1      38.813  32.440  33.666  1.00  0.00    -0.248 NA
ATOM     49  C   UNL A   1      37.038  33.959  33.587  1.00  0.00     0.031 C 
ATOM     50  C   UNL A   1      41.514  31.896  37.140  1.00  0.00     0.029 A 
ATOM     51  C   UNL A   1      40.654  32.080  36.069  1.00  0.00     0.049 A 
ATOM     52  H   UNL A   1      40.605  31.067  34.218  1.00  0.00     0.167 HD
ATOM     53  C   UNL A   1      38.763  33.142  34.865  1.00  0.00     0.074 A 
ATOM     54  C   UNL A   1      37.667  34.084  34.751  1.00  0.00     0.031 C 
ATOM     55  C   UNL A   1      39.554  33.009  35.958  1.00  0.00     0.031 A 
BRANCH  42  56
ATOM     56  C   UNL A   1      43.994  28.732  35.407  1.00  0.00    -0.014 A 
ATOM     57  C   UNL A   1      43.814  27.608  36.237  1.00  0.00     0.010 A 
ATOM     58  C   UNL A   1      45.290  29.255  35.245  1.00  0.00     0.010 A 
ATOM     59  C   UNL A   1      44.901  27.034  36.904  1.00  0.00     0.020 A 
ATOM     60  C   UNL A   1      46.385  28.662  35.882  1.00  0.00     0.020 A 
ATOM     61  C   UNL A   1      46.179  27.565  36.723  1.00  0.00     0.054 A 
BRANCH  61  62
ATOM     62  S   UNL A   1      47.582  26.798  37.583  1.00  0.00     0.124 S 
ATOM     63  O   UNL A   1      47.423  27.303  38.943  1.00  0.00    -0.237 OA
ATOM     64  O   UNL A   1      47.325  25.372  37.402  1.00  0.00    -0.237 OA
ATOM     65  O   UNL A   1      48.744  27.308  36.858  1.00  0.00    -0.744 OA
ENDBRANCH  61  62
ENDBRANCH  42  56
BRANCH  43  66
ATOM     66  C   UNL A   1      36.329  33.198  30.807  1.00  0.00    -0.014 A 
ATOM     67  C   UNL A   1      36.619  34.037  29.714  1.00  0.00     0.010 A 
ATOM     68  C   UNL A   1      35.011  33.136  31.291  1.00  0.00     0.010 A 
ATOM     69  C   UNL A   1      35.636  34.874  29.182  1.00  0.00     0.020 A 
ATOM     70  C   UNL A   1      34.015  33.948  30.737  1.00  0.00     0.020 A 
ATOM     71  C   UNL A   1      34.345  34.842  29.716  1.00  0.00     0.054 A 
BRANCH  71  72
ATOM     72  S   UNL A   1      33.122  36.028  29.096  1.00  0.00     0.124 S 
ATOM     73  O   UNL A   1      33.955  36.928  28.302  1.00  0.00    -0.237 OA
ATOM     74  O   UNL A   1      32.212  35.178  28.335  1.00  0.00    -0.237 OA
ATOM     75  O   UNL A   1      32.560  36.609  30.313  1.00  0.00    -0.744 OA
ENDBRANCH  71  72
ENDBRANCH  43  66
BRANCH  55  76
ATOM     76  C   UNL A   1      39.278  33.890  37.150  1.00  0.00    -0.014 A 
ATOM     77  C   UNL A   1      39.862  35.169  37.225  1.00  0.00     0.010 A 
ATOM     78  C   UNL A   1      38.570  33.397  38.261  1.00  0.00     0.010 A 
ATOM     79  C   UNL A   1      39.787  35.918  38.403  1.00  0.00     0.020 A 
ATOM     80  C   UNL A   1      38.464  34.158  39.430  1.00  0.00     0.020 A 
ATOM     81  C   UNL A   1      39.100  35.400  39.503  1.00  0.00     0.054 A 
BRANCH  81  82
ATOM     82  S   UNL A   1      39.067  36.360  41.042  1.00  0.00     0.124 S 
ATOM     83  O   UNL A   1      38.801  37.710  40.555  1.00  0.00    -0.237 OA
ATOM     84  O   UNL A   1      37.977  35.734  41.786  1.00  0.00    -0.237 OA
ATOM     85  O   UNL A   1      40.398  36.150  41.607  1.00  0.00    -0.744 OA
ENDBRANCH  81  82
ENDBRANCH  55  76
ENDBRANCH  29  30
ENDBRANCH  21  24
ENDBRANCH  19  20
ENDBRANCH   1  19
TORSDOF 16
ENDMDL
