MODEL 1
REMARK VINA RESULT:     -11.1      0.000      0.000
REMARK SMILES C#Cc1cc(Cl)c2c(c1)C=C(C(=O)NCCCCNC(=O)c1ccc(-c3c4nc(c(-c5ccc(S(=O)(=O)[O-])cc5)c5ccc([nH]5)c(-c5ccc(S(=O)(=O)[O-])cc5)c5nc(c(-c6ccc(S(=O)(=O)[O-])cc6)c6ccc3[nH]6)C=C5)C=C4)cc1)[C@@H](C(F)(F)F)O2
REMARK SMILES IDX 17 1 16 2 15 3 14 4 12 5 13 6 11 8 3 9 4 10 9 11 5 12 8 13
REMARK SMILES IDX 6 14 7 15 10 16 87 17 82 18 2 19 1 20 83 21 84 22 85 23
REMARK SMILES IDX 86 24 18 25 19 26 20 27 21 29 22 30 23 31 81 32 24 33 80 34
REMARK SMILES IDX 25 35 26 36 27 37 74 38 28 39 79 40 73 41 75 42 29 43 78 44
REMARK SMILES IDX 72 45 71 46 30 48 60 49 41 50 59 51 42 52 45 53 58 54 76 55
REMARK SMILES IDX 43 56 44 57 57 59 77 60 46 61 31 62 32 63 40 64 33 65 39 66
REMARK SMILES IDX 34 67 35 68 36 69 37 70 38 71 61 72 62 73 70 74 63 75 69 76
REMARK SMILES IDX 64 77 65 78 66 79 67 80 68 81 47 82 48 83 56 84 49 85 55 86
REMARK SMILES IDX 50 87 51 88 52 89 53 90 54 91
REMARK H PARENT 14 7 19 28 75 47 45 58
REMARK Flexibility Score: inf
ROOT
ATOM      1  C   UNL A   1      35.754  23.376  26.204  1.00  0.00     0.023 C 
ENDROOT
BRANCH   1   2
ATOM      2  C   UNL A   1      35.311  21.934  26.420  1.00  0.00     0.023 C 
BRANCH   2   3
ATOM      3  C   UNL A   1      34.270  21.471  25.410  1.00  0.00     0.116 C 
BRANCH   3   4
ATOM      4  N   UNL A   1      32.913  21.759  25.845  1.00  0.00    -0.352 N 
ATOM      5  C   UNL A   1      32.066  22.816  25.802  1.00  0.00     0.251 C 
ATOM      6  O   UNL A   1      30.937  22.621  26.263  1.00  0.00    -0.270 OA
ATOM      7  H   UNL A   1      32.502  20.982  26.289  1.00  0.00     0.163 HD
BRANCH   5   8
ATOM      8  C   UNL A   1      32.413  24.160  25.250  1.00  0.00     0.067 C 
ATOM      9  C   UNL A   1      33.766  28.739  26.046  1.00  0.00     0.027 A 
ATOM     10  C   UNL A   1      33.932  28.938  24.675  1.00  0.00     0.041 A 
ATOM     11  C   UNL A   1      33.365  27.491  26.536  1.00  0.00     0.029 A 
ATOM     12  C   UNL A   1      33.696  27.888  23.794  1.00  0.00     0.084 A 
ATOM     13  C   UNL A   1      33.125  26.434  25.652  1.00  0.00     0.020 A 
ATOM     14  Cl  UNL A   1      33.921  28.163  22.102  1.00  0.00    -0.080 Cl
ATOM     15  C   UNL A   1      33.287  26.642  24.278  1.00  0.00     0.146 A 
ATOM     16  C   UNL A   1      32.763  25.106  26.141  1.00  0.00     0.025 C 
ATOM     17  O   UNL A   1      33.110  25.644  23.367  1.00  0.00    -0.474 OA
ATOM     18  C   UNL A   1      32.359  24.482  23.787  1.00  0.00     0.314 C 
BRANCH   9  19
ATOM     19  C   UNL A   1      34.029  29.820  26.941  1.00  0.00    -0.070 C 
ATOM     20  C   UNL A   1      34.213  30.737  27.696  1.00  0.00     0.010 C 
ENDBRANCH   9  19
BRANCH  18  21
ATOM     21  C   UNL A   1      30.915  24.598  23.264  1.00  0.00     0.429 C 
ATOM     22  F   UNL A   1      30.117  25.177  24.196  1.00  0.00    -0.167 F 
ATOM     23  F   UNL A   1      30.816  25.360  22.150  1.00  0.00    -0.167 F 
ATOM     24  F   UNL A   1      30.379  23.393  22.962  1.00  0.00    -0.167 F 
ENDBRANCH  18  21
ENDBRANCH   5   8
ENDBRANCH   3   4
ENDBRANCH   2   3
ENDBRANCH   1   2
BRANCH   1  25
ATOM     25  C   UNL A   1      36.931  23.537  25.248  1.00  0.00     0.116 C 
BRANCH  25  26
ATOM     26  N   UNL A   1      38.025  22.610  25.518  1.00  0.00    -0.352 N 
ATOM     27  C   UNL A   1      39.208  22.871  26.166  1.00  0.00     0.251 C 
ATOM     28  H   UNL A   1      37.900  21.688  25.197  1.00  0.00     0.163 HD
ATOM     29  O   UNL A   1      40.103  22.034  26.212  1.00  0.00    -0.269 OA
BRANCH  27  30
ATOM     30  C   UNL A   1      39.383  24.204  26.771  1.00  0.00     0.039 A 
ATOM     31  C   UNL A   1      38.972  24.409  28.087  1.00  0.00     0.014 A 
ATOM     32  C   UNL A   1      40.067  25.198  26.066  1.00  0.00     0.014 A 
ATOM     33  C   UNL A   1      39.313  25.601  28.724  1.00  0.00     0.010 A 
ATOM     34  C   UNL A   1      40.490  26.337  26.734  1.00  0.00     0.010 A 
ATOM     35  C   UNL A   1      40.108  26.555  28.066  1.00  0.00    -0.014 A 
BRANCH  35  36
ATOM     36  C   UNL A   1      40.526  27.804  28.748  1.00  0.00     0.031 A 
ATOM     37  C   UNL A   1      41.920  27.916  29.299  1.00  0.00     0.074 A 
ATOM     38  C   UNL A   1      39.650  28.818  28.892  1.00  0.00     0.049 A 
ATOM     39  N   UNL A   1      42.475  28.916  29.933  1.00  0.00    -0.248 NA
ATOM     40  C   UNL A   1      42.801  26.746  29.136  1.00  0.00     0.031 C 
ATOM     41  C   UNL A   1      38.263  28.815  28.420  1.00  0.00     0.029 A 
ATOM     42  N   UNL A   1      39.800  30.055  29.466  1.00  0.00    -0.354 N 
ATOM     43  C   UNL A   1      43.764  28.497  30.240  1.00  0.00     0.074 A 
ATOM     44  C   UNL A   1      43.885  27.129  29.792  1.00  0.00     0.031 C 
ATOM     45  C   UNL A   1      37.708  30.009  28.680  1.00  0.00     0.029 A 
ATOM     46  C   UNL A   1      38.678  30.846  29.378  1.00  0.00     0.049 A 
ATOM     47  H   UNL A   1      40.633  30.349  29.901  1.00  0.00     0.167 HD
ATOM     48  C   UNL A   1      44.768  29.199  30.811  1.00  0.00     0.031 A 
ATOM     49  C   UNL A   1      38.457  32.104  29.810  1.00  0.00     0.031 A 
ATOM     50  C   UNL A   1      44.641  30.561  31.254  1.00  0.00     0.049 A 
ATOM     51  C   UNL A   1      39.572  32.844  30.498  1.00  0.00     0.074 A 
ATOM     52  C   UNL A   1      45.607  31.371  31.821  1.00  0.00     0.029 A 
ATOM     53  N   UNL A   1      43.477  31.312  31.183  1.00  0.00    -0.354 N 
ATOM     54  N   UNL A   1      40.803  32.450  30.730  1.00  0.00    -0.248 NA
ATOM     55  C   UNL A   1      39.274  34.201  30.976  1.00  0.00     0.031 C 
ATOM     56  C   UNL A   1      45.010  32.589  32.156  1.00  0.00     0.029 A 
ATOM     57  C   UNL A   1      43.692  32.566  31.727  1.00  0.00     0.049 A 
ATOM     58  H   UNL A   1      42.624  31.000  30.802  1.00  0.00     0.167 HD
ATOM     59  C   UNL A   1      41.431  33.520  31.359  1.00  0.00     0.074 A 
ATOM     60  C   UNL A   1      40.451  34.583  31.452  1.00  0.00     0.031 C 
ATOM     61  C   UNL A   1      42.704  33.612  31.818  1.00  0.00     0.031 A 
BRANCH  48  62
ATOM     62  C   UNL A   1      46.093  28.506  30.986  1.00  0.00    -0.014 A 
ATOM     63  C   UNL A   1      47.079  28.567  29.984  1.00  0.00     0.010 A 
ATOM     64  C   UNL A   1      46.379  27.830  32.186  1.00  0.00     0.010 A 
ATOM     65  C   UNL A   1      48.311  27.934  30.164  1.00  0.00     0.020 A 
ATOM     66  C   UNL A   1      47.623  27.226  32.384  1.00  0.00     0.020 A 
ATOM     67  C   UNL A   1      48.577  27.271  31.365  1.00  0.00     0.054 A 
BRANCH  67  68
ATOM     68  S   UNL A   1      50.199  26.491  31.579  1.00  0.00     0.124 S 
ATOM     69  O   UNL A   1      50.261  25.598  30.424  1.00  0.00    -0.237 OA
ATOM     70  O   UNL A   1      51.108  27.634  31.539  1.00  0.00    -0.237 OA
ATOM     71  O   UNL A   1      50.097  25.823  32.874  1.00  0.00    -0.744 OA
ENDBRANCH  67  68
ENDBRANCH  48  62
BRANCH  49  72
ATOM     72  C   UNL A   1      37.133  32.747  29.577  1.00  0.00    -0.014 A 
ATOM     73  C   UNL A   1      36.130  32.691  30.559  1.00  0.00     0.010 A 
ATOM     74  C   UNL A   1      36.878  33.446  28.382  1.00  0.00     0.010 A 
ATOM     75  C   UNL A   1      34.895  33.313  30.350  1.00  0.00     0.020 A 
ATOM     76  C   UNL A   1      35.656  34.096  28.182  1.00  0.00     0.020 A 
ATOM     77  C   UNL A   1      34.670  34.020  29.166  1.00  0.00     0.054 A 
BRANCH  77  78
ATOM     78  S   UNL A   1      33.083  34.872  28.948  1.00  0.00     0.124 S 
ATOM     79  O   UNL A   1      32.520  34.820  30.294  1.00  0.00    -0.237 OA
ATOM     80  O   UNL A   1      33.500  36.193  28.486  1.00  0.00    -0.237 OA
ATOM     81  O   UNL A   1      32.391  34.060  27.949  1.00  0.00    -0.744 OA
ENDBRANCH  77  78
ENDBRANCH  49  72
BRANCH  61  82
ATOM     82  C   UNL A   1      43.129  34.911  32.453  1.00  0.00    -0.014 A 
ATOM     83  C   UNL A   1      43.716  35.936  31.690  1.00  0.00     0.010 A 
ATOM     84  C   UNL A   1      42.852  35.143  33.814  1.00  0.00     0.010 A 
ATOM     85  C   UNL A   1      44.042  37.158  32.281  1.00  0.00     0.020 A 
ATOM     86  C   UNL A   1      43.144  36.377  34.400  1.00  0.00     0.020 A 
ATOM     87  C   UNL A   1      43.748  37.374  33.632  1.00  0.00     0.054 A 
BRANCH  87  88
ATOM     88  S   UNL A   1      44.132  38.991  34.355  1.00  0.00     0.124 S 
ATOM     89  O   UNL A   1      45.431  39.289  33.761  1.00  0.00    -0.237 OA
ATOM     90  O   UNL A   1      43.021  39.818  33.889  1.00  0.00    -0.237 OA
ATOM     91  O   UNL A   1      44.151  38.734  35.794  1.00  0.00    -0.744 OA
ENDBRANCH  87  88
ENDBRANCH  61  82
ENDBRANCH  35  36
ENDBRANCH  27  30
ENDBRANCH  25  26
ENDBRANCH   1  25
TORSDOF 16
ENDMDL
MODEL 2
REMARK VINA RESULT:     -10.9      2.685      9.143
REMARK SMILES C#Cc1cc(Cl)c2c(c1)C=C(C(=O)NCCCCNC(=O)c1ccc(-c3c4nc(c(-c5ccc(S(=O)(=O)[O-])cc5)c5ccc([nH]5)c(-c5ccc(S(=O)(=O)[O-])cc5)c5nc(c(-c6ccc(S(=O)(=O)[O-])cc6)c6ccc3[nH]6)C=C5)C=C4)cc1)[C@@H](C(F)(F)F)O2
REMARK SMILES IDX 17 1 16 2 15 3 14 4 12 5 13 6 11 8 3 9 4 10 9 11 5 12 8 13
REMARK SMILES IDX 6 14 7 15 10 16 87 17 82 18 2 19 1 20 83 21 84 22 85 23
REMARK SMILES IDX 86 24 18 25 19 26 20 27 21 29 22 30 23 31 81 32 24 33 80 34
REMARK SMILES IDX 25 35 26 36 27 37 74 38 28 39 79 40 73 41 75 42 29 43 78 44
REMARK SMILES IDX 72 45 71 46 30 48 60 49 41 50 59 51 42 52 45 53 58 54 76 55
REMARK SMILES IDX 43 56 44 57 57 59 77 60 46 61 31 62 32 63 40 64 33 65 39 66
REMARK SMILES IDX 34 67 35 68 36 69 37 70 38 71 61 72 62 73 70 74 63 75 69 76
REMARK SMILES IDX 64 77 65 78 66 79 67 80 68 81 47 82 48 83 56 84 49 85 55 86
REMARK SMILES IDX 50 87 51 88 52 89 53 90 54 91
REMARK H PARENT 14 7 19 28 75 47 45 58
REMARK Flexibility Score: inf
ROOT
ATOM      1  C   UNL A   1      32.316  28.125  25.951  1.00  0.00     0.023 C 
ENDROOT
BRANCH   1   2
ATOM      2  C   UNL A   1      31.814  28.879  24.724  1.00  0.00     0.023 C 
BRANCH   2   3
ATOM      3  C   UNL A   1      32.791  28.840  23.557  1.00  0.00     0.116 C 
BRANCH   3   4
ATOM      4  N   UNL A   1      32.403  27.868  22.547  1.00  0.00    -0.352 N 
ATOM      5  C   UNL A   1      32.323  26.518  22.454  1.00  0.00     0.251 C 
ATOM      6  O   UNL A   1      31.880  26.076  21.389  1.00  0.00    -0.270 OA
ATOM      7  H   UNL A   1      32.127  28.307  21.710  1.00  0.00     0.163 HD
BRANCH   5   8
ATOM      8  C   UNL A   1      32.732  25.568  23.532  1.00  0.00     0.067 C 
ATOM      9  C   UNL A   1      36.271  23.278  25.910  1.00  0.00     0.027 A 
ATOM     10  C   UNL A   1      35.349  22.799  26.841  1.00  0.00     0.041 A 
ATOM     11  C   UNL A   1      35.853  24.106  24.862  1.00  0.00     0.029 A 
ATOM     12  C   UNL A   1      34.007  23.147  26.722  1.00  0.00     0.084 A 
ATOM     13  C   UNL A   1      34.505  24.457  24.740  1.00  0.00     0.020 A 
ATOM     14  Cl  UNL A   1      32.891  22.546  27.896  1.00  0.00    -0.080 Cl
ATOM     15  C   UNL A   1      33.584  23.968  25.672  1.00  0.00     0.146 A 
ATOM     16  C   UNL A   1      34.052  25.367  23.691  1.00  0.00     0.025 C 
ATOM     17  O   UNL A   1      32.264  24.305  25.634  1.00  0.00    -0.474 OA
ATOM     18  C   UNL A   1      31.747  24.837  24.394  1.00  0.00     0.314 C 
BRANCH   9  19
ATOM     19  C   UNL A   1      37.648  22.927  26.054  1.00  0.00    -0.070 C 
ATOM     20  C   UNL A   1      38.810  22.632  26.137  1.00  0.00     0.010 C 
ENDBRANCH   9  19
BRANCH  18  21
ATOM     21  C   UNL A   1      31.016  23.717  23.629  1.00  0.00     0.429 C 
ATOM     22  F   UNL A   1      31.834  23.164  22.699  1.00  0.00    -0.167 F 
ATOM     23  F   UNL A   1      30.613  22.704  24.433  1.00  0.00    -0.167 F 
ATOM     24  F   UNL A   1      29.914  24.167  22.987  1.00  0.00    -0.167 F 
ENDBRANCH  18  21
ENDBRANCH   5   8
ENDBRANCH   3   4
ENDBRANCH   2   3
ENDBRANCH   1   2
BRANCH   1  25
ATOM     25  C   UNL A   1      33.608  28.676  26.543  1.00  0.00     0.116 C 
BRANCH  25  26
ATOM     26  N   UNL A   1      33.456  30.005  27.126  1.00  0.00    -0.352 N 
ATOM     27  C   UNL A   1      34.346  30.679  27.928  1.00  0.00     0.251 C 
ATOM     28  H   UNL A   1      32.616  30.474  26.921  1.00  0.00     0.163 HD
ATOM     29  O   UNL A   1      34.041  31.738  28.461  1.00  0.00    -0.269 OA
BRANCH  27  30
ATOM     30  C   UNL A   1      35.667  30.064  28.158  1.00  0.00     0.039 A 
ATOM     31  C   UNL A   1      36.619  30.105  27.140  1.00  0.00     0.014 A 
ATOM     32  C   UNL A   1      35.986  29.568  29.425  1.00  0.00     0.014 A 
ATOM     33  C   UNL A   1      37.925  29.705  27.420  1.00  0.00     0.010 A 
ATOM     34  C   UNL A   1      37.307  29.268  29.725  1.00  0.00     0.010 A 
ATOM     35  C   UNL A   1      38.287  29.323  28.723  1.00  0.00    -0.014 A 
BRANCH  35  36
ATOM     36  C   UNL A   1      39.684  28.948  29.049  1.00  0.00     0.031 A 
ATOM     37  C   UNL A   1      40.567  29.932  29.764  1.00  0.00     0.074 A 
ATOM     38  C   UNL A   1      40.160  27.742  28.684  1.00  0.00     0.049 A 
ATOM     39  N   UNL A   1      41.815  29.801  30.132  1.00  0.00    -0.248 NA
ATOM     40  C   UNL A   1      39.981  31.244  30.091  1.00  0.00     0.031 C 
ATOM     41  C   UNL A   1      39.404  26.713  27.965  1.00  0.00     0.029 A 
ATOM     42  N   UNL A   1      41.392  27.170  28.877  1.00  0.00    -0.354 N 
ATOM     43  C   UNL A   1      42.159  31.005  30.732  1.00  0.00     0.074 A 
ATOM     44  C   UNL A   1      41.017  31.882  30.613  1.00  0.00     0.031 C 
ATOM     45  C   UNL A   1      40.172  25.621  27.824  1.00  0.00     0.029 A 
ATOM     46  C   UNL A   1      41.489  25.886  28.396  1.00  0.00     0.049 A 
ATOM     47  H   UNL A   1      42.138  27.637  29.320  1.00  0.00     0.167 HD
ATOM     48  C   UNL A   1      43.309  31.341  31.358  1.00  0.00     0.031 A 
ATOM     49  C   UNL A   1      42.520  25.018  28.414  1.00  0.00     0.031 A 
ATOM     50  C   UNL A   1      44.442  30.463  31.475  1.00  0.00     0.049 A 
ATOM     51  C   UNL A   1      43.812  25.436  29.064  1.00  0.00     0.074 A 
ATOM     52  C   UNL A   1      45.645  30.697  32.114  1.00  0.00     0.029 A 
ATOM     53  N   UNL A   1      44.512  29.186  30.938  1.00  0.00    -0.354 N 
ATOM     54  N   UNL A   1      44.100  26.561  29.676  1.00  0.00    -0.248 NA
ATOM     55  C   UNL A   1      44.916  24.467  29.034  1.00  0.00     0.031 C 
ATOM     56  C   UNL A   1      46.470  29.589  31.904  1.00  0.00     0.029 A 
ATOM     57  C   UNL A   1      45.753  28.633  31.203  1.00  0.00     0.049 A 
ATOM     58  H   UNL A   1      43.788  28.739  30.443  1.00  0.00     0.167 HD
ATOM     59  C   UNL A   1      45.409  26.425  30.124  1.00  0.00     0.074 A 
ATOM     60  C   UNL A   1      45.849  25.101  29.730  1.00  0.00     0.031 C 
ATOM     61  C   UNL A   1      46.178  27.315  30.799  1.00  0.00     0.031 A 
BRANCH  48  62
ATOM     62  C   UNL A   1      43.397  32.714  31.969  1.00  0.00    -0.014 A 
ATOM     63  C   UNL A   1      43.059  32.929  33.318  1.00  0.00     0.010 A 
ATOM     64  C   UNL A   1      43.872  33.794  31.203  1.00  0.00     0.010 A 
ATOM     65  C   UNL A   1      43.161  34.205  33.878  1.00  0.00     0.020 A 
ATOM     66  C   UNL A   1      44.008  35.063  31.769  1.00  0.00     0.020 A 
ATOM     67  C   UNL A   1      43.640  35.263  33.102  1.00  0.00     0.054 A 
BRANCH  67  68
ATOM     68  S   UNL A   1      43.791  36.898  33.870  1.00  0.00     0.124 S 
ATOM     69  O   UNL A   1      44.933  36.708  34.762  1.00  0.00    -0.237 OA
ATOM     70  O   UNL A   1      44.030  37.766  32.720  1.00  0.00    -0.237 OA
ATOM     71  O   UNL A   1      42.507  37.090  34.538  1.00  0.00    -0.744 OA
ENDBRANCH  67  68
ENDBRANCH  48  62
BRANCH  49  72
ATOM     72  C   UNL A   1      42.360  23.660  27.822  1.00  0.00    -0.014 A 
ATOM     73  C   UNL A   1      42.692  23.424  26.477  1.00  0.00     0.010 A 
ATOM     74  C   UNL A   1      41.901  22.586  28.609  1.00  0.00     0.010 A 
ATOM     75  C   UNL A   1      42.562  22.145  25.928  1.00  0.00     0.020 A 
ATOM     76  C   UNL A   1      41.799  21.300  28.072  1.00  0.00     0.020 A 
ATOM     77  C   UNL A   1      42.126  21.088  26.731  1.00  0.00     0.054 A 
BRANCH  77  78
ATOM     78  S   UNL A   1      42.028  19.427  26.009  1.00  0.00     0.124 S 
ATOM     79  O   UNL A   1      40.598  19.289  25.751  1.00  0.00    -0.237 OA
ATOM     80  O   UNL A   1      42.876  19.551  24.827  1.00  0.00    -0.237 OA
ATOM     81  O   UNL A   1      42.560  18.563  27.061  1.00  0.00    -0.744 OA
ENDBRANCH  77  78
ENDBRANCH  49  72
BRANCH  61  82
ATOM     82  C   UNL A   1      47.574  26.893  31.176  1.00  0.00    -0.014 A 
ATOM     83  C   UNL A   1      47.803  26.012  32.248  1.00  0.00     0.010 A 
ATOM     84  C   UNL A   1      48.664  27.313  30.389  1.00  0.00     0.010 A 
ATOM     85  C   UNL A   1      49.098  25.579  32.541  1.00  0.00     0.020 A 
ATOM     86  C   UNL A   1      49.956  26.853  30.658  1.00  0.00     0.020 A 
ATOM     87  C   UNL A   1      50.166  25.997  31.740  1.00  0.00     0.054 A 
BRANCH  87  88
ATOM     88  S   UNL A   1      51.826  25.371  32.113  1.00  0.00     0.124 S 
ATOM     89  O   UNL A   1      52.191  26.158  33.288  1.00  0.00    -0.237 OA
ATOM     90  O   UNL A   1      51.583  23.952  32.357  1.00  0.00    -0.237 OA
ATOM     91  O   UNL A   1      52.591  25.670  30.904  1.00  0.00    -0.744 OA
ENDBRANCH  87  88
ENDBRANCH  61  82
ENDBRANCH  35  36
ENDBRANCH  27  30
ENDBRANCH  25  26
ENDBRANCH   1  25
TORSDOF 16
ENDMDL
MODEL 3
REMARK VINA RESULT:     -10.8      2.819      9.260
REMARK SMILES C#Cc1cc(Cl)c2c(c1)C=C(C(=O)NCCCCNC(=O)c1ccc(-c3c4nc(c(-c5ccc(S(=O)(=O)[O-])cc5)c5ccc([nH]5)c(-c5ccc(S(=O)(=O)[O-])cc5)c5nc(c(-c6ccc(S(=O)(=O)[O-])cc6)c6ccc3[nH]6)C=C5)C=C4)cc1)[C@@H](C(F)(F)F)O2
REMARK SMILES IDX 17 1 16 2 15 3 14 4 12 5 13 6 11 8 3 9 4 10 9 11 5 12 8 13
REMARK SMILES IDX 6 14 7 15 10 16 87 17 82 18 2 19 1 20 83 21 84 22 85 23
REMARK SMILES IDX 86 24 18 25 19 26 20 27 21 29 22 30 23 31 81 32 24 33 80 34
REMARK SMILES IDX 25 35 26 36 27 37 74 38 28 39 79 40 73 41 75 42 29 43 78 44
REMARK SMILES IDX 72 45 71 46 30 48 60 49 41 50 59 51 42 52 45 53 58 54 76 55
REMARK SMILES IDX 43 56 44 57 57 59 77 60 46 61 31 62 32 63 40 64 33 65 39 66
REMARK SMILES IDX 34 67 35 68 36 69 37 70 38 71 61 72 62 73 70 74 63 75 69 76
REMARK SMILES IDX 64 77 65 78 66 79 67 80 68 81 47 82 48 83 56 84 49 85 55 86
REMARK SMILES IDX 50 87 51 88 52 89 53 90 54 91
REMARK H PARENT 14 7 19 28 75 47 45 58
REMARK Flexibility Score: inf
ROOT
ATOM      1  C   UNL A   1      31.864  27.805  27.108  1.00  0.00     0.023 C 
ENDROOT
BRANCH   1   2
ATOM      2  C   UNL A   1      31.398  27.764  25.657  1.00  0.00     0.023 C 
BRANCH   2   3
ATOM      3  C   UNL A   1      30.980  26.373  25.203  1.00  0.00     0.116 C 
BRANCH   3   4
ATOM      4  N   UNL A   1      31.168  26.180  23.774  1.00  0.00    -0.352 N 
ATOM      5  C   UNL A   1      31.851  25.326  22.974  1.00  0.00     0.251 C 
ATOM      6  O   UNL A   1      31.697  25.485  21.759  1.00  0.00    -0.270 OA
ATOM      7  H   UNL A   1      30.668  26.847  23.250  1.00  0.00     0.163 HD
BRANCH   5   8
ATOM      8  C   UNL A   1      32.754  24.242  23.465  1.00  0.00     0.067 C 
ATOM      9  C   UNL A   1      33.333  19.629  24.813  1.00  0.00     0.027 A 
ATOM     10  C   UNL A   1      34.714  19.812  24.881  1.00  0.00     0.041 A 
ATOM     11  C   UNL A   1      32.498  20.682  24.423  1.00  0.00     0.029 A 
ATOM     12  C   UNL A   1      35.261  21.051  24.560  1.00  0.00     0.084 A 
ATOM     13  C   UNL A   1      33.045  21.929  24.101  1.00  0.00     0.020 A 
ATOM     14  Cl  UNL A   1      36.976  21.243  24.644  1.00  0.00    -0.080 Cl
ATOM     15  C   UNL A   1      34.430  22.108  24.178  1.00  0.00     0.146 A 
ATOM     16  C   UNL A   1      32.202  23.027  23.634  1.00  0.00     0.025 C 
ATOM     17  O   UNL A   1      35.029  23.284  23.838  1.00  0.00    -0.474 OA
ATOM     18  C   UNL A   1      34.200  24.467  23.791  1.00  0.00     0.314 C 
BRANCH   9  19
ATOM     19  C   UNL A   1      32.787  18.348  25.129  1.00  0.00    -0.070 C 
ATOM     20  C   UNL A   1      32.359  17.262  25.415  1.00  0.00     0.010 C 
ENDBRANCH   9  19
BRANCH  18  21
ATOM     21  C   UNL A   1      34.391  25.270  25.092  1.00  0.00     0.429 C 
ATOM     22  F   UNL A   1      34.343  26.602  24.839  1.00  0.00    -0.167 F 
ATOM     23  F   UNL A   1      33.429  25.021  26.012  1.00  0.00    -0.167 F 
ATOM     24  F   UNL A   1      35.577  25.010  25.688  1.00  0.00    -0.167 F 
ENDBRANCH  18  21
ENDBRANCH   5   8
ENDBRANCH   3   4
ENDBRANCH   2   3
ENDBRANCH   1   2
BRANCH   1  25
ATOM     25  C   UNL A   1      33.238  28.432  27.312  1.00  0.00     0.116 C 
BRANCH  25  26
ATOM     26  N   UNL A   1      33.190  29.874  27.527  1.00  0.00    -0.352 N 
ATOM     27  C   UNL A   1      34.192  30.689  27.996  1.00  0.00     0.251 C 
ATOM     28  H   UNL A   1      32.337  30.316  27.311  1.00  0.00     0.163 HD
ATOM     29  O   UNL A   1      33.980  31.867  28.256  1.00  0.00    -0.269 OA
BRANCH  27  30
ATOM     30  C   UNL A   1      35.522  30.090  28.213  1.00  0.00     0.039 A 
ATOM     31  C   UNL A   1      36.446  30.096  27.170  1.00  0.00     0.014 A 
ATOM     32  C   UNL A   1      35.877  29.642  29.489  1.00  0.00     0.014 A 
ATOM     33  C   UNL A   1      37.761  29.713  27.429  1.00  0.00     0.010 A 
ATOM     34  C   UNL A   1      37.206  29.359  29.765  1.00  0.00     0.010 A 
ATOM     35  C   UNL A   1      38.159  29.381  28.735  1.00  0.00    -0.014 A 
BRANCH  35  36
ATOM     36  C   UNL A   1      39.566  29.025  29.039  1.00  0.00     0.031 A 
ATOM     37  C   UNL A   1      40.453  30.025  29.725  1.00  0.00     0.074 A 
ATOM     38  C   UNL A   1      40.049  27.819  28.677  1.00  0.00     0.049 A 
ATOM     39  N   UNL A   1      41.708  29.911  30.070  1.00  0.00    -0.248 NA
ATOM     40  C   UNL A   1      39.859  31.334  30.050  1.00  0.00     0.031 C 
ATOM     41  C   UNL A   1      39.290  26.775  27.983  1.00  0.00     0.029 A 
ATOM     42  N   UNL A   1      41.290  27.263  28.852  1.00  0.00    -0.354 N 
ATOM     43  C   UNL A   1      42.051  31.125  30.651  1.00  0.00     0.074 A 
ATOM     44  C   UNL A   1      40.898  31.989  30.545  1.00  0.00     0.031 C 
ATOM     45  C   UNL A   1      40.067  25.690  27.838  1.00  0.00     0.029 A 
ATOM     46  C   UNL A   1      41.391  25.975  28.381  1.00  0.00     0.049 A 
ATOM     47  H   UNL A   1      42.040  27.742  29.274  1.00  0.00     0.167 HD
ATOM     48  C   UNL A   1      43.210  31.480  31.251  1.00  0.00     0.031 A 
ATOM     49  C   UNL A   1      42.432  25.118  28.389  1.00  0.00     0.031 A 
ATOM     50  C   UNL A   1      44.354  30.615  31.354  1.00  0.00     0.049 A 
ATOM     51  C   UNL A   1      43.732  25.557  29.008  1.00  0.00     0.074 A 
ATOM     52  C   UNL A   1      45.567  30.869  31.967  1.00  0.00     0.029 A 
ATOM     53  N   UNL A   1      44.428  29.333  30.829  1.00  0.00    -0.354 N 
ATOM     54  N   UNL A   1      44.019  26.691  29.603  1.00  0.00    -0.248 NA
ATOM     55  C   UNL A   1      44.845  24.599  28.967  1.00  0.00     0.031 C 
ATOM     56  C   UNL A   1      46.399  29.768  31.753  1.00  0.00     0.029 A 
ATOM     57  C   UNL A   1      45.679  28.796  31.076  1.00  0.00     0.049 A 
ATOM     58  H   UNL A   1      43.699  28.874  30.353  1.00  0.00     0.167 HD
ATOM     59  C   UNL A   1      45.339  26.574  30.027  1.00  0.00     0.074 A 
ATOM     60  C   UNL A   1      45.785  25.251  29.639  1.00  0.00     0.031 C 
ATOM     61  C   UNL A   1      46.111  27.479  30.678  1.00  0.00     0.031 A 
BRANCH  48  62
ATOM     62  C   UNL A   1      43.295  32.861  31.845  1.00  0.00    -0.014 A 
ATOM     63  C   UNL A   1      43.015  33.081  33.207  1.00  0.00     0.010 A 
ATOM     64  C   UNL A   1      43.709  33.943  31.049  1.00  0.00     0.010 A 
ATOM     65  C   UNL A   1      43.114  34.363  33.751  1.00  0.00     0.020 A 
ATOM     66  C   UNL A   1      43.843  35.221  31.598  1.00  0.00     0.020 A 
ATOM     67  C   UNL A   1      43.532  35.424  32.945  1.00  0.00     0.054 A 
BRANCH  67  68
ATOM     68  S   UNL A   1      43.682  37.069  33.691  1.00  0.00     0.124 S 
ATOM     69  O   UNL A   1      43.880  37.918  32.518  1.00  0.00    -0.237 OA
ATOM     70  O   UNL A   1      42.398  37.226  34.371  1.00  0.00    -0.237 OA
ATOM     71  O   UNL A   1      44.841  36.948  34.572  1.00  0.00    -0.744 OA
ENDBRANCH  67  68
ENDBRANCH  48  62
BRANCH  49  72
ATOM     72  C   UNL A   1      42.275  23.752  27.814  1.00  0.00    -0.014 A 
ATOM     73  C   UNL A   1      42.662  23.486  26.490  1.00  0.00     0.010 A 
ATOM     74  C   UNL A   1      41.762  22.701  28.598  1.00  0.00     0.010 A 
ATOM     75  C   UNL A   1      42.535  22.199  25.958  1.00  0.00     0.020 A 
ATOM     76  C   UNL A   1      41.663  21.406  28.080  1.00  0.00     0.020 A 
ATOM     77  C   UNL A   1      42.045  21.165  26.759  1.00  0.00     0.054 A 
BRANCH  77  78
ATOM     78  S   UNL A   1      41.951  19.492  26.063  1.00  0.00     0.124 S 
ATOM     79  O   UNL A   1      40.527  19.363  25.770  1.00  0.00    -0.237 OA
ATOM     80  O   UNL A   1      42.831  19.589  24.902  1.00  0.00    -0.237 OA
ATOM     81  O   UNL A   1      42.447  18.642  27.143  1.00  0.00    -0.744 OA
ENDBRANCH  77  78
ENDBRANCH  49  72
BRANCH  61  82
ATOM     82  C   UNL A   1      47.518  27.076  31.032  1.00  0.00    -0.014 A 
ATOM     83  C   UNL A   1      48.601  27.407  30.198  1.00  0.00     0.010 A 
ATOM     84  C   UNL A   1      47.771  26.437  32.261  1.00  0.00     0.010 A 
ATOM     85  C   UNL A   1      49.907  27.085  30.575  1.00  0.00     0.020 A 
ATOM     86  C   UNL A   1      49.079  26.146  32.657  1.00  0.00     0.020 A 
ATOM     87  C   UNL A   1      50.138  26.462  31.806  1.00  0.00     0.054 A 
BRANCH  87  88
ATOM     88  S   UNL A   1      51.849  26.109  32.291  1.00  0.00     0.124 S 
ATOM     89  O   UNL A   1      51.667  25.111  33.341  1.00  0.00    -0.237 OA
ATOM     90  O   UNL A   1      52.435  25.615  31.047  1.00  0.00    -0.237 OA
ATOM     91  O   UNL A   1      52.357  27.402  32.744  1.00  0.00    -0.744 OA
ENDBRANCH  87  88
ENDBRANCH  61  82
ENDBRANCH  35  36
ENDBRANCH  27  30
ENDBRANCH  25  26
ENDBRANCH   1  25
TORSDOF 16
ENDMDL
