MODEL 1
REMARK VINA RESULT:     -12.5      0.000      0.000
REMARK SMILES C[C@@H]([C@H]1CC=CS1)n1nccc1NC(=O)CC1(CC(=O)NCCCCNC(=O)c2ccc(-c3c4nc(c(-c5ccc(S(=O)(=O)[O-])cc5)c5ccc([nH]5)c(-c5ccc(S(=O)(=O)[O-])cc5)c5nc(c(-c6ccc(S(=O)(=O)[O-])cc6)c6ccc3[nH]6)C=C5)C=C4)cc2)CCCCC1
REMARK SMILES IDX 22 1 21 2 19 3 20 4 18 6 17 7 89 8 93 9 90 10 92 11 91 12
REMARK SMILES IDX 16 13 14 14 13 15 15 17 12 18 8 19 9 20 10 21 11 22 2 23
REMARK SMILES IDX 1 24 3 25 4 26 7 27 5 28 6 29 23 30 24 31 25 32 26 33 27 34
REMARK SMILES IDX 28 36 29 37 30 38 88 39 31 40 87 41 32 42 33 43 34 44 81 45
REMARK SMILES IDX 35 46 86 47 80 48 82 49 36 50 85 51 79 52 78 53 37 55 67 56
REMARK SMILES IDX 48 57 66 58 49 59 52 60 65 61 83 62 50 63 51 64 64 66 84 67
REMARK SMILES IDX 53 68 38 69 39 70 47 71 40 72 46 73 41 74 42 75 43 76 44 77
REMARK SMILES IDX 45 78 68 79 69 80 77 81 70 82 76 83 71 84 72 85 73 86 74 87
REMARK SMILES IDX 75 88 54 89 55 90 63 91 56 92 62 93 57 94 58 95 59 96 60 97
REMARK SMILES IDX 61 98
REMARK H PARENT 21 5 13 16 26 35 82 54 52 65
REMARK Flexibility Score: inf
ROOT
ATOM      1  C   UNL A   1      36.143  21.029  25.400  1.00  0.00     0.116 C 
ENDROOT
BRANCH   1   2
ATOM      2  N   UNL A   1      35.562  21.580  26.608  1.00  0.00    -0.356 N 
ATOM      3  C   UNL A   1      34.334  22.105  26.849  1.00  0.00     0.220 C 
ATOM      4  O   UNL A   1      34.103  22.533  27.981  1.00  0.00    -0.275 OA
ATOM      5  H   UNL A   1      36.162  21.572  27.389  1.00  0.00     0.163 HD
BRANCH   3   6
ATOM      6  C   UNL A   1      33.261  22.211  25.774  1.00  0.00     0.107 C 
BRANCH   6   7
ATOM      7  C   UNL A   1      33.059  23.589  25.067  1.00  0.00    -0.012 C 
ATOM      8  C   UNL A   1      31.855  23.475  24.088  1.00  0.00     0.008 C 
ATOM      9  C   UNL A   1      34.263  23.987  24.168  1.00  0.00     0.008 C 
ATOM     10  C   UNL A   1      32.087  22.540  22.894  1.00  0.00     0.001 C 
ATOM     11  C   UNL A   1      34.546  23.040  23.005  1.00  0.00     0.001 C 
ATOM     12  C   UNL A   1      33.331  22.929  22.101  1.00  0.00     0.000 C 
BRANCH   7  13
ATOM     13  C   UNL A   1      32.888  24.754  26.101  1.00  0.00     0.108 C 
BRANCH  13  14
ATOM     14  C   UNL A   1      31.514  25.092  26.648  1.00  0.00     0.226 C 
ATOM     15  N   UNL A   1      31.007  26.429  26.722  1.00  0.00    -0.311 N 
ATOM     16  H   UNL A   1      30.047  26.521  26.914  1.00  0.00     0.171 HD
ATOM     17  O   UNL A   1      30.732  24.268  27.092  1.00  0.00    -0.275 OA
BRANCH  15  18
ATOM     18  C   UNL A   1      31.711  27.604  26.557  1.00  0.00     0.131 A 
ATOM     19  N   UNL A   1      31.730  28.463  25.467  1.00  0.00    -0.246 N 
ATOM     20  N   UNL A   1      32.791  29.299  25.548  1.00  0.00    -0.179 NA
ATOM     21  C   UNL A   1      33.231  29.182  26.794  1.00  0.00     0.137 A 
ATOM     22  C   UNL A   1      32.539  28.190  27.493  1.00  0.00     0.068 A 
BRANCH  19  23
ATOM     23  C   UNL A   1      30.928  28.483  24.226  1.00  0.00     0.120 C 
ATOM     24  C   UNL A   1      30.264  29.854  23.995  1.00  0.00     0.034 C 
BRANCH  23  25
ATOM     25  C   UNL A   1      31.772  28.077  22.974  1.00  0.00     0.079 C 
ATOM     26  C   UNL A   1      33.242  27.670  23.226  1.00  0.00     0.045 C 
ATOM     27  S   UNL A   1      31.101  26.610  22.051  1.00  0.00    -0.128 SA
ATOM     28  C   UNL A   1      33.664  26.712  22.157  1.00  0.00    -0.019 C 
ATOM     29  C   UNL A   1      32.664  26.119  21.505  1.00  0.00     0.037 C 
ENDBRANCH  23  25
ENDBRANCH  19  23
ENDBRANCH  15  18
ENDBRANCH  13  14
ENDBRANCH   7  13
ENDBRANCH   6   7
ENDBRANCH   3   6
ENDBRANCH   1   2
BRANCH   1  30
ATOM     30  C   UNL A   1      37.396  21.805  24.972  1.00  0.00     0.023 C 
BRANCH  30  31
ATOM     31  C   UNL A   1      37.518  23.245  25.467  1.00  0.00     0.023 C 
BRANCH  31  32
ATOM     32  C   UNL A   1      38.610  23.482  26.502  1.00  0.00     0.116 C 
BRANCH  32  33
ATOM     33  N   UNL A   1      39.749  22.575  26.363  1.00  0.00    -0.352 N 
ATOM     34  C   UNL A   1      41.082  22.926  26.215  1.00  0.00     0.251 C 
ATOM     35  H   UNL A   1      39.548  21.612  26.377  1.00  0.00     0.163 HD
ATOM     36  O   UNL A   1      41.910  22.142  25.789  1.00  0.00    -0.269 OA
BRANCH  34  37
ATOM     37  C   UNL A   1      41.450  24.296  26.612  1.00  0.00     0.039 A 
ATOM     38  C   UNL A   1      41.155  25.381  25.788  1.00  0.00     0.014 A 
ATOM     39  C   UNL A   1      41.894  24.471  27.920  1.00  0.00     0.014 A 
ATOM     40  C   UNL A   1      41.203  26.663  26.334  1.00  0.00     0.010 A 
ATOM     41  C   UNL A   1      41.825  25.730  28.480  1.00  0.00     0.010 A 
ATOM     42  C   UNL A   1      41.495  26.841  27.698  1.00  0.00    -0.014 A 
BRANCH  42  43
ATOM     43  C   UNL A   1      41.355  28.169  28.310  1.00  0.00     0.031 A 
ATOM     44  C   UNL A   1      42.413  29.186  28.006  1.00  0.00     0.074 A 
ATOM     45  C   UNL A   1      40.254  28.587  28.971  1.00  0.00     0.049 A 
ATOM     46  N   UNL A   1      43.261  29.719  28.825  1.00  0.00    -0.248 NA
ATOM     47  C   UNL A   1      42.578  29.634  26.614  1.00  0.00     0.031 C 
ATOM     48  C   UNL A   1      38.964  27.908  29.145  1.00  0.00     0.029 A 
ATOM     49  N   UNL A   1      40.032  29.801  29.549  1.00  0.00    -0.354 N 
ATOM     50  C   UNL A   1      43.966  30.686  28.105  1.00  0.00     0.074 A 
ATOM     51  C   UNL A   1      43.577  30.514  26.727  1.00  0.00     0.031 C 
ATOM     52  C   UNL A   1      38.034  28.799  29.547  1.00  0.00     0.029 A 
ATOM     53  C   UNL A   1      38.705  30.044  29.863  1.00  0.00     0.049 A 
ATOM     54  H   UNL A   1      40.752  30.448  29.729  1.00  0.00     0.167 HD
ATOM     55  C   UNL A   1      44.701  31.664  28.712  1.00  0.00     0.031 A 
ATOM     56  C   UNL A   1      38.177  31.186  30.356  1.00  0.00     0.031 A 
ATOM     57  C   UNL A   1      44.877  31.414  30.117  1.00  0.00     0.049 A 
ATOM     58  C   UNL A   1      39.274  31.927  31.016  1.00  0.00     0.074 A 
ATOM     59  C   UNL A   1      45.482  30.429  30.870  1.00  0.00     0.029 A 
ATOM     60  N   UNL A   1      44.066  32.108  30.983  1.00  0.00    -0.354 N 
ATOM     61  N   UNL A   1      39.904  31.487  32.070  1.00  0.00    -0.248 NA
ATOM     62  C   UNL A   1      39.951  32.984  30.284  1.00  0.00     0.031 C 
ATOM     63  C   UNL A   1      44.642  30.277  32.013  1.00  0.00     0.029 A 
ATOM     64  C   UNL A   1      43.604  31.207  31.906  1.00  0.00     0.049 A 
ATOM     65  H   UNL A   1      43.857  33.069  30.946  1.00  0.00     0.167 HD
ATOM     66  C   UNL A   1      41.215  31.906  31.907  1.00  0.00     0.074 A 
ATOM     67  C   UNL A   1      41.154  32.921  30.859  1.00  0.00     0.031 C 
ATOM     68  C   UNL A   1      42.258  31.206  32.445  1.00  0.00     0.031 A 
BRANCH  55  69
ATOM     69  C   UNL A   1      45.002  33.025  28.126  1.00  0.00    -0.014 A 
ATOM     70  C   UNL A   1      46.217  33.664  28.465  1.00  0.00     0.010 A 
ATOM     71  C   UNL A   1      44.026  33.812  27.487  1.00  0.00     0.010 A 
ATOM     72  C   UNL A   1      46.411  35.035  28.244  1.00  0.00     0.020 A 
ATOM     73  C   UNL A   1      44.226  35.171  27.222  1.00  0.00     0.020 A 
ATOM     74  C   UNL A   1      45.402  35.784  27.641  1.00  0.00     0.054 A 
BRANCH  74  75
ATOM     75  S   UNL A   1      45.599  37.579  27.486  1.00  0.00     0.124 S 
ATOM     76  O   UNL A   1      45.898  37.965  28.862  1.00  0.00    -0.237 OA
ATOM     77  O   UNL A   1      46.705  37.692  26.540  1.00  0.00    -0.237 OA
ATOM     78  O   UNL A   1      44.302  38.021  26.978  1.00  0.00    -0.744 OA
ENDBRANCH  74  75
ENDBRANCH  55  69
BRANCH  56  79
ATOM     79  C   UNL A   1      36.856  31.767  30.034  1.00  0.00    -0.014 A 
ATOM     80  C   UNL A   1      36.095  32.435  31.006  1.00  0.00     0.010 A 
ATOM     81  C   UNL A   1      36.461  31.891  28.683  1.00  0.00     0.010 A 
ATOM     82  C   UNL A   1      35.013  33.250  30.636  1.00  0.00     0.020 A 
ATOM     83  C   UNL A   1      35.382  32.696  28.307  1.00  0.00     0.020 A 
ATOM     84  C   UNL A   1      34.678  33.393  29.285  1.00  0.00     0.054 A 
BRANCH  84  85
ATOM     85  S   UNL A   1      33.403  34.593  28.803  1.00  0.00     0.124 S 
ATOM     86  O   UNL A   1      32.671  33.868  27.770  1.00  0.00    -0.237 OA
ATOM     87  O   UNL A   1      32.685  34.810  30.057  1.00  0.00    -0.237 OA
ATOM     88  O   UNL A   1      34.174  35.740  28.328  1.00  0.00    -0.744 OA
ENDBRANCH  84  85
ENDBRANCH  56  79
BRANCH  68  89
ATOM     89  C   UNL A   1      41.965  30.144  33.480  1.00  0.00    -0.014 A 
ATOM     90  C   UNL A   1      41.551  28.839  33.152  1.00  0.00     0.010 A 
ATOM     91  C   UNL A   1      42.316  30.421  34.815  1.00  0.00     0.010 A 
ATOM     92  C   UNL A   1      41.486  27.839  34.133  1.00  0.00     0.020 A 
ATOM     93  C   UNL A   1      42.269  29.425  35.794  1.00  0.00     0.020 A 
ATOM     94  C   UNL A   1      41.854  28.137  35.448  1.00  0.00     0.054 A 
BRANCH  94  95
ATOM     95  S   UNL A   1      41.867  26.814  36.692  1.00  0.00     0.124 S 
ATOM     96  O   UNL A   1      41.989  25.611  35.872  1.00  0.00    -0.237 OA
ATOM     97  O   UNL A   1      43.036  27.142  37.505  1.00  0.00    -0.237 OA
ATOM     98  O   UNL A   1      40.585  26.968  37.378  1.00  0.00    -0.744 OA
ENDBRANCH  94  95
ENDBRANCH  68  89
ENDBRANCH  42  43
ENDBRANCH  34  37
ENDBRANCH  32  33
ENDBRANCH  31  32
ENDBRANCH  30  31
ENDBRANCH   1  30
TORSDOF 20
ENDMDL
MODEL 2
REMARK VINA RESULT:     -12.2      1.440      2.359
REMARK SMILES C[C@@H]([C@H]1CC=CS1)n1nccc1NC(=O)CC1(CC(=O)NCCCCNC(=O)c2ccc(-c3c4nc(c(-c5ccc(S(=O)(=O)[O-])cc5)c5ccc([nH]5)c(-c5ccc(S(=O)(=O)[O-])cc5)c5nc(c(-c6ccc(S(=O)(=O)[O-])cc6)c6ccc3[nH]6)C=C5)C=C4)cc2)CCCCC1
REMARK SMILES IDX 22 1 21 2 19 3 20 4 18 6 17 7 89 8 93 9 90 10 92 11 91 12
REMARK SMILES IDX 16 13 14 14 13 15 15 17 12 18 8 19 9 20 10 21 11 22 2 23
REMARK SMILES IDX 1 24 3 25 4 26 7 27 5 28 6 29 23 30 24 31 25 32 26 33 27 34
REMARK SMILES IDX 28 36 29 37 30 38 88 39 31 40 87 41 32 42 33 43 34 44 81 45
REMARK SMILES IDX 35 46 86 47 80 48 82 49 36 50 85 51 79 52 78 53 37 55 67 56
REMARK SMILES IDX 48 57 66 58 49 59 52 60 65 61 83 62 50 63 51 64 64 66 84 67
REMARK SMILES IDX 53 68 38 69 39 70 47 71 40 72 46 73 41 74 42 75 43 76 44 77
REMARK SMILES IDX 45 78 68 79 69 80 77 81 70 82 76 83 71 84 72 85 73 86 74 87
REMARK SMILES IDX 75 88 54 89 55 90 63 91 56 92 62 93 57 94 58 95 59 96 60 97
REMARK SMILES IDX 61 98
REMARK H PARENT 21 5 13 16 26 35 82 54 52 65
REMARK Flexibility Score: inf
ROOT
ATOM      1  C   UNL A   1      36.433  23.460  25.919  1.00  0.00     0.116 C 
ENDROOT
BRANCH   1   2
ATOM      2  N   UNL A   1      35.840  23.665  24.612  1.00  0.00    -0.356 N 
ATOM      3  C   UNL A   1      35.047  22.865  23.856  1.00  0.00     0.220 C 
ATOM      4  O   UNL A   1      34.695  23.281  22.751  1.00  0.00    -0.275 OA
ATOM      5  H   UNL A   1      36.048  24.536  24.202  1.00  0.00     0.163 HD
BRANCH   3   6
ATOM      6  C   UNL A   1      34.611  21.478  24.309  1.00  0.00     0.107 C 
BRANCH   6   7
ATOM      7  C   UNL A   1      33.141  21.292  24.805  1.00  0.00    -0.012 C 
ATOM      8  C   UNL A   1      33.065  19.998  25.665  1.00  0.00     0.008 C 
ATOM      9  C   UNL A   1      32.139  21.052  23.641  1.00  0.00     0.008 C 
ATOM     10  C   UNL A   1      33.302  18.697  24.888  1.00  0.00     0.001 C 
ATOM     11  C   UNL A   1      32.389  19.791  22.818  1.00  0.00     0.001 C 
ATOM     12  C   UNL A   1      32.345  18.559  23.707  1.00  0.00     0.000 C 
BRANCH   7  13
ATOM     13  C   UNL A   1      32.621  22.557  25.569  1.00  0.00     0.108 C 
BRANCH  13  14
ATOM     14  C   UNL A   1      31.149  22.922  25.525  1.00  0.00     0.226 C 
ATOM     15  N   UNL A   1      30.604  23.871  24.602  1.00  0.00    -0.311 N 
ATOM     16  H   UNL A   1      29.624  23.895  24.530  1.00  0.00     0.171 HD
ATOM     17  O   UNL A   1      30.307  22.464  26.280  1.00  0.00    -0.275 OA
BRANCH  15  18
ATOM     18  C   UNL A   1      31.296  24.756  23.802  1.00  0.00     0.131 A 
ATOM     19  N   UNL A   1      32.014  25.886  24.169  1.00  0.00    -0.246 N 
ATOM     20  N   UNL A   1      32.243  26.667  23.088  1.00  0.00    -0.179 NA
ATOM     21  C   UNL A   1      31.961  25.903  22.041  1.00  0.00     0.137 A 
ATOM     22  C   UNL A   1      31.438  24.668  22.432  1.00  0.00     0.068 A 
BRANCH  19  23
ATOM     23  C   UNL A   1      32.384  26.419  25.497  1.00  0.00     0.120 C 
ATOM     24  C   UNL A   1      33.904  26.342  25.741  1.00  0.00     0.034 C 
BRANCH  23  25
ATOM     25  C   UNL A   1      31.879  27.884  25.705  1.00  0.00     0.079 C 
ATOM     26  C   UNL A   1      31.663  28.346  27.165  1.00  0.00     0.045 C 
ATOM     27  S   UNL A   1      33.025  29.183  25.036  1.00  0.00    -0.128 SA
ATOM     28  C   UNL A   1      31.863  29.827  27.232  1.00  0.00    -0.019 C 
ATOM     29  C   UNL A   1      32.540  30.352  26.212  1.00  0.00     0.037 C 
ENDBRANCH  23  25
ENDBRANCH  19  23
ENDBRANCH  15  18
ENDBRANCH  13  14
ENDBRANCH   7  13
ENDBRANCH   6   7
ENDBRANCH   3   6
ENDBRANCH   1   2
BRANCH   1  30
ATOM     30  C   UNL A   1      37.917  23.083  25.812  1.00  0.00     0.023 C 
BRANCH  30  31
ATOM     31  C   UNL A   1      38.906  23.943  26.598  1.00  0.00     0.023 C 
BRANCH  31  32
ATOM     32  C   UNL A   1      39.924  23.165  27.421  1.00  0.00     0.116 C 
BRANCH  32  33
ATOM     33  N   UNL A   1      41.008  22.597  26.620  1.00  0.00    -0.352 N 
ATOM     34  C   UNL A   1      42.001  23.292  25.946  1.00  0.00     0.251 C 
ATOM     35  H   UNL A   1      41.037  21.615  26.552  1.00  0.00     0.163 HD
ATOM     36  O   UNL A   1      42.655  22.778  25.058  1.00  0.00    -0.269 OA
BRANCH  34  37
ATOM     37  C   UNL A   1      42.232  24.684  26.368  1.00  0.00     0.039 A 
ATOM     38  C   UNL A   1      41.720  25.748  25.629  1.00  0.00     0.014 A 
ATOM     39  C   UNL A   1      42.781  24.871  27.634  1.00  0.00     0.014 A 
ATOM     40  C   UNL A   1      41.662  27.007  26.226  1.00  0.00     0.010 A 
ATOM     41  C   UNL A   1      42.613  26.091  28.257  1.00  0.00     0.010 A 
ATOM     42  C   UNL A   1      42.067  27.175  27.562  1.00  0.00    -0.014 A 
BRANCH  42  43
ATOM     43  C   UNL A   1      41.824  28.453  28.246  1.00  0.00     0.031 A 
ATOM     44  C   UNL A   1      42.855  29.529  28.088  1.00  0.00     0.074 A 
ATOM     45  C   UNL A   1      40.661  28.782  28.848  1.00  0.00     0.049 A 
ATOM     46  N   UNL A   1      43.618  30.039  29.001  1.00  0.00    -0.248 NA
ATOM     47  C   UNL A   1      43.101  30.076  26.744  1.00  0.00     0.031 C 
ATOM     48  C   UNL A   1      39.394  28.041  28.881  1.00  0.00     0.029 A 
ATOM     49  N   UNL A   1      40.344  29.944  29.485  1.00  0.00    -0.354 N 
ATOM     50  C   UNL A   1      44.329  31.078  28.399  1.00  0.00     0.074 A 
ATOM     51  C   UNL A   1      44.049  30.985  26.988  1.00  0.00     0.031 C 
ATOM     52  C   UNL A   1      38.398  28.866  29.269  1.00  0.00     0.029 A 
ATOM     53  C   UNL A   1      38.989  30.112  29.712  1.00  0.00     0.049 A 
ATOM     54  H   UNL A   1      41.020  30.605  29.759  1.00  0.00     0.167 HD
ATOM     55  C   UNL A   1      44.974  32.042  29.122  1.00  0.00     0.031 A 
ATOM     56  C   UNL A   1      38.376  31.196  30.237  1.00  0.00     0.031 A 
ATOM     57  C   UNL A   1      45.059  31.705  30.516  1.00  0.00     0.049 A 
ATOM     58  C   UNL A   1      39.388  31.935  31.024  1.00  0.00     0.074 A 
ATOM     59  C   UNL A   1      45.651  30.697  31.248  1.00  0.00     0.029 A 
ATOM     60  N   UNL A   1      44.158  32.306  31.362  1.00  0.00    -0.354 N 
ATOM     61  N   UNL A   1      39.960  31.450  32.092  1.00  0.00    -0.248 NA
ATOM     62  C   UNL A   1      40.070  33.064  30.414  1.00  0.00     0.031 C 
ATOM     63  C   UNL A   1      44.739  30.435  32.312  1.00  0.00     0.029 A 
ATOM     64  C   UNL A   1      43.671  31.328  32.189  1.00  0.00     0.049 A 
ATOM     65  H   UNL A   1      43.910  33.260  31.371  1.00  0.00     0.167 HD
ATOM     66  C   UNL A   1      41.260  31.931  32.055  1.00  0.00     0.074 A 
ATOM     67  C   UNL A   1      41.230  33.011  31.073  1.00  0.00     0.031 C 
ATOM     68  C   UNL A   1      42.291  31.238  32.623  1.00  0.00     0.031 A 
BRANCH  55  69
ATOM     69  C   UNL A   1      45.256  33.450  28.649  1.00  0.00    -0.014 A 
ATOM     70  C   UNL A   1      46.563  33.972  28.788  1.00  0.00     0.010 A 
ATOM     71  C   UNL A   1      44.235  34.367  28.333  1.00  0.00     0.010 A 
ATOM     72  C   UNL A   1      46.818  35.348  28.693  1.00  0.00     0.020 A 
ATOM     73  C   UNL A   1      44.486  35.736  28.193  1.00  0.00     0.020 A 
ATOM     74  C   UNL A   1      45.768  36.224  28.416  1.00  0.00     0.054 A 
BRANCH  74  75
ATOM     75  S   UNL A   1      46.074  38.010  28.434  1.00  0.00     0.124 S 
ATOM     76  O   UNL A   1      44.776  38.539  28.025  1.00  0.00    -0.237 OA
ATOM     77  O   UNL A   1      46.447  38.249  29.825  1.00  0.00    -0.237 OA
ATOM     78  O   UNL A   1      47.155  38.180  27.465  1.00  0.00    -0.744 OA
ENDBRANCH  74  75
ENDBRANCH  55  69
BRANCH  56  79
ATOM     79  C   UNL A   1      37.057  31.745  29.855  1.00  0.00    -0.014 A 
ATOM     80  C   UNL A   1      36.085  32.048  30.821  1.00  0.00     0.010 A 
ATOM     81  C   UNL A   1      36.857  32.222  28.540  1.00  0.00     0.010 A 
ATOM     82  C   UNL A   1      34.979  32.852  30.499  1.00  0.00     0.020 A 
ATOM     83  C   UNL A   1      35.756  33.018  28.211  1.00  0.00     0.020 A 
ATOM     84  C   UNL A   1      34.835  33.350  29.199  1.00  0.00     0.054 A 
BRANCH  84  85
ATOM     85  S   UNL A   1      33.509  34.540  28.841  1.00  0.00     0.124 S 
ATOM     86  O   UNL A   1      32.671  33.796  27.906  1.00  0.00    -0.237 OA
ATOM     87  O   UNL A   1      32.932  34.776  30.162  1.00  0.00    -0.237 OA
ATOM     88  O   UNL A   1      34.219  35.680  28.265  1.00  0.00    -0.744 OA
ENDBRANCH  84  85
ENDBRANCH  56  79
BRANCH  68  89
ATOM     89  C   UNL A   1      41.972  30.097  33.564  1.00  0.00    -0.014 A 
ATOM     90  C   UNL A   1      41.847  28.760  33.141  1.00  0.00     0.010 A 
ATOM     91  C   UNL A   1      41.998  30.365  34.945  1.00  0.00     0.010 A 
ATOM     92  C   UNL A   1      41.749  27.720  34.076  1.00  0.00     0.020 A 
ATOM     93  C   UNL A   1      41.917  29.331  35.881  1.00  0.00     0.020 A 
ATOM     94  C   UNL A   1      41.793  28.012  35.442  1.00  0.00     0.054 A 
BRANCH  94  95
ATOM     95  S   UNL A   1      41.770  26.652  36.646  1.00  0.00     0.124 S 
ATOM     96  O   UNL A   1      43.029  26.841  37.361  1.00  0.00    -0.237 OA
ATOM     97  O   UNL A   1      40.561  26.922  37.420  1.00  0.00    -0.237 OA
ATOM     98  O   UNL A   1      41.705  25.451  35.813  1.00  0.00    -0.744 OA
ENDBRANCH  94  95
ENDBRANCH  68  89
ENDBRANCH  42  43
ENDBRANCH  34  37
ENDBRANCH  32  33
ENDBRANCH  31  32
ENDBRANCH  30  31
ENDBRANCH   1  30
TORSDOF 20
ENDMDL
MODEL 3
REMARK VINA RESULT:     -12.1      1.544      2.264
REMARK SMILES C[C@@H]([C@H]1CC=CS1)n1nccc1NC(=O)CC1(CC(=O)NCCCCNC(=O)c2ccc(-c3c4nc(c(-c5ccc(S(=O)(=O)[O-])cc5)c5ccc([nH]5)c(-c5ccc(S(=O)(=O)[O-])cc5)c5nc(c(-c6ccc(S(=O)(=O)[O-])cc6)c6ccc3[nH]6)C=C5)C=C4)cc2)CCCCC1
REMARK SMILES IDX 22 1 21 2 19 3 20 4 18 6 17 7 89 8 93 9 90 10 92 11 91 12
REMARK SMILES IDX 16 13 14 14 13 15 15 17 12 18 8 19 9 20 10 21 11 22 2 23
REMARK SMILES IDX 1 24 3 25 4 26 7 27 5 28 6 29 23 30 24 31 25 32 26 33 27 34
REMARK SMILES IDX 28 36 29 37 30 38 88 39 31 40 87 41 32 42 33 43 34 44 81 45
REMARK SMILES IDX 35 46 86 47 80 48 82 49 36 50 85 51 79 52 78 53 37 55 67 56
REMARK SMILES IDX 48 57 66 58 49 59 52 60 65 61 83 62 50 63 51 64 64 66 84 67
REMARK SMILES IDX 53 68 38 69 39 70 47 71 40 72 46 73 41 74 42 75 43 76 44 77
REMARK SMILES IDX 45 78 68 79 69 80 77 81 70 82 76 83 71 84 72 85 73 86 74 87
REMARK SMILES IDX 75 88 54 89 55 90 63 91 56 92 62 93 57 94 58 95 59 96 60 97
REMARK SMILES IDX 61 98
REMARK H PARENT 21 5 13 16 26 35 82 54 52 65
REMARK Flexibility Score: inf
ROOT
ATOM      1  C   UNL A   1      37.342  22.372  25.792  1.00  0.00     0.116 C 
ENDROOT
BRANCH   1   2
ATOM      2  N   UNL A   1      37.017  22.530  24.389  1.00  0.00    -0.356 N 
ATOM      3  C   UNL A   1      36.030  23.230  23.774  1.00  0.00     0.220 C 
ATOM      4  O   UNL A   1      35.963  23.173  22.545  1.00  0.00    -0.275 OA
ATOM      5  H   UNL A   1      37.616  22.045  23.775  1.00  0.00     0.163 HD
BRANCH   3   6
ATOM      6  C   UNL A   1      35.000  24.045  24.544  1.00  0.00     0.107 C 
BRANCH   6   7
ATOM      7  C   UNL A   1      33.503  23.604  24.466  1.00  0.00    -0.012 C 
ATOM      8  C   UNL A   1      32.854  23.795  25.867  1.00  0.00     0.008 C 
ATOM      9  C   UNL A   1      33.338  22.089  24.157  1.00  0.00     0.008 C 
ATOM     10  C   UNL A   1      33.400  22.865  26.958  1.00  0.00     0.001 C 
ATOM     11  C   UNL A   1      33.923  21.145  25.203  1.00  0.00     0.001 C 
ATOM     12  C   UNL A   1      33.288  21.396  26.560  1.00  0.00     0.000 C 
BRANCH   7  13
ATOM     13  C   UNL A   1      32.731  24.363  23.333  1.00  0.00     0.108 C 
BRANCH  13  14
ATOM     14  C   UNL A   1      33.373  25.548  22.637  1.00  0.00     0.226 C 
ATOM     15  N   UNL A   1      33.500  26.839  23.243  1.00  0.00    -0.311 N 
ATOM     16  H   UNL A   1      34.092  27.478  22.787  1.00  0.00     0.171 HD
ATOM     17  O   UNL A   1      33.812  25.518  21.499  1.00  0.00    -0.275 OA
BRANCH  15  18
ATOM     18  C   UNL A   1      32.888  27.290  24.394  1.00  0.00     0.131 A 
ATOM     19  N   UNL A   1      31.556  27.620  24.602  1.00  0.00    -0.246 N 
ATOM     20  N   UNL A   1      31.424  28.341  25.739  1.00  0.00    -0.179 NA
ATOM     21  C   UNL A   1      32.576  28.192  26.381  1.00  0.00     0.137 A 
ATOM     22  C   UNL A   1      33.501  27.476  25.616  1.00  0.00     0.068 A 
BRANCH  19  23
ATOM     23  C   UNL A   1      30.367  27.472  23.736  1.00  0.00     0.120 C 
ATOM     24  C   UNL A   1      29.309  26.549  24.371  1.00  0.00     0.034 C 
BRANCH  23  25
ATOM     25  C   UNL A   1      29.728  28.852  23.372  1.00  0.00     0.079 C 
ATOM     26  C   UNL A   1      30.329  29.599  22.159  1.00  0.00     0.045 C 
ATOM     27  S   UNL A   1      27.925  28.761  22.936  1.00  0.00    -0.128 SA
ATOM     28  C   UNL A   1      29.264  30.455  21.549  1.00  0.00    -0.019 C 
ATOM     29  C   UNL A   1      28.016  30.117  21.871  1.00  0.00     0.037 C 
ENDBRANCH  23  25
ENDBRANCH  19  23
ENDBRANCH  15  18
ENDBRANCH  13  14
ENDBRANCH   7  13
ENDBRANCH   6   7
ENDBRANCH   3   6
ENDBRANCH   1   2
BRANCH   1  30
ATOM     30  C   UNL A   1      38.858  22.267  26.011  1.00  0.00     0.023 C 
BRANCH  30  31
ATOM     31  C   UNL A   1      39.497  23.308  26.929  1.00  0.00     0.023 C 
BRANCH  31  32
ATOM     32  C   UNL A   1      40.854  22.919  27.500  1.00  0.00     0.116 C 
BRANCH  32  33
ATOM     33  N   UNL A   1      41.830  22.546  26.476  1.00  0.00    -0.352 N 
ATOM     34  C   UNL A   1      42.547  23.402  25.655  1.00  0.00     0.251 C 
ATOM     35  H   UNL A   1      41.997  21.583  26.358  1.00  0.00     0.163 HD
ATOM     36  O   UNL A   1      43.081  23.015  24.632  1.00  0.00    -0.269 OA
BRANCH  34  37
ATOM     37  C   UNL A   1      42.638  24.807  26.088  1.00  0.00     0.039 A 
ATOM     38  C   UNL A   1      41.824  25.784  25.518  1.00  0.00     0.014 A 
ATOM     39  C   UNL A   1      43.400  25.063  27.225  1.00  0.00     0.014 A 
ATOM     40  C   UNL A   1      41.694  27.007  26.175  1.00  0.00     0.010 A 
ATOM     41  C   UNL A   1      43.173  26.229  27.927  1.00  0.00     0.010 A 
ATOM     42  C   UNL A   1      42.333  27.220  27.409  1.00  0.00    -0.014 A 
BRANCH  42  43
ATOM     43  C   UNL A   1      42.039  28.430  28.188  1.00  0.00     0.031 A 
ATOM     44  C   UNL A   1      43.058  29.529  28.171  1.00  0.00     0.074 A 
ATOM     45  C   UNL A   1      40.844  28.691  28.761  1.00  0.00     0.049 A 
ATOM     46  N   UNL A   1      43.770  29.967  29.160  1.00  0.00    -0.248 NA
ATOM     47  C   UNL A   1      43.355  30.193  26.893  1.00  0.00     0.031 C 
ATOM     48  C   UNL A   1      39.589  27.935  28.672  1.00  0.00     0.029 A 
ATOM     49  N   UNL A   1      40.479  29.789  29.480  1.00  0.00    -0.354 N 
ATOM     50  C   UNL A   1      44.490  31.064  28.684  1.00  0.00     0.074 A 
ATOM     51  C   UNL A   1      44.276  31.089  27.257  1.00  0.00     0.031 C 
ATOM     52  C   UNL A   1      38.563  28.710  29.082  1.00  0.00     0.029 A 
ATOM     53  C   UNL A   1      39.112  29.920  29.658  1.00  0.00     0.049 A 
ATOM     54  H   UNL A   1      41.131  30.433  29.842  1.00  0.00     0.167 HD
ATOM     55  C   UNL A   1      45.085  31.969  29.515  1.00  0.00     0.031 A 
ATOM     56  C   UNL A   1      38.459  30.947  30.245  1.00  0.00     0.031 A 
ATOM     57  C   UNL A   1      45.113  31.513  30.878  1.00  0.00     0.049 A 
ATOM     58  C   UNL A   1      39.422  31.627  31.139  1.00  0.00     0.074 A 
ATOM     59  C   UNL A   1      45.688  30.453  31.547  1.00  0.00     0.029 A 
ATOM     60  N   UNL A   1      44.165  32.028  31.730  1.00  0.00    -0.354 N 
ATOM     61  N   UNL A   1      39.953  31.058  32.187  1.00  0.00    -0.248 NA
ATOM     62  C   UNL A   1      40.111  32.814  30.661  1.00  0.00     0.031 C 
ATOM     63  C   UNL A   1      44.732  30.088  32.541  1.00  0.00     0.029 A 
ATOM     64  C   UNL A   1      43.657  30.975  32.445  1.00  0.00     0.049 A 
ATOM     65  H   UNL A   1      43.901  32.973  31.809  1.00  0.00     0.167 HD
ATOM     66  C   UNL A   1      41.244  31.557  32.252  1.00  0.00     0.074 A 
ATOM     67  C   UNL A   1      41.241  32.718  31.366  1.00  0.00     0.031 C 
ATOM     68  C   UNL A   1      42.260  30.830  32.806  1.00  0.00     0.031 A 
BRANCH  55  69
ATOM     69  C   UNL A   1      45.366  33.416  29.179  1.00  0.00    -0.014 A 
ATOM     70  C   UNL A   1      44.396  34.154  28.463  1.00  0.00     0.010 A 
ATOM     71  C   UNL A   1      46.646  33.991  29.293  1.00  0.00     0.010 A 
ATOM     72  C   UNL A   1      44.714  35.365  27.830  1.00  0.00     0.020 A 
ATOM     73  C   UNL A   1      46.962  35.219  28.703  1.00  0.00     0.020 A 
ATOM     74  C   UNL A   1      46.006  35.879  27.939  1.00  0.00     0.054 A 
BRANCH  74  75
ATOM     75  S   UNL A   1      46.452  37.367  27.006  1.00  0.00     0.124 S 
ATOM     76  O   UNL A   1      45.160  38.033  26.873  1.00  0.00    -0.237 OA
ATOM     77  O   UNL A   1      47.413  38.016  27.893  1.00  0.00    -0.237 OA
ATOM     78  O   UNL A   1      47.015  36.835  25.767  1.00  0.00    -0.744 OA
ENDBRANCH  74  75
ENDBRANCH  55  69
BRANCH  56  79
ATOM     79  C   UNL A   1      37.150  31.510  29.851  1.00  0.00    -0.014 A 
ATOM     80  C   UNL A   1      36.172  31.825  30.807  1.00  0.00     0.010 A 
ATOM     81  C   UNL A   1      36.967  31.988  28.534  1.00  0.00     0.010 A 
ATOM     82  C   UNL A   1      35.078  32.640  30.475  1.00  0.00     0.020 A 
ATOM     83  C   UNL A   1      35.878  32.797  28.194  1.00  0.00     0.020 A 
ATOM     84  C   UNL A   1      34.951  33.140  29.174  1.00  0.00     0.054 A 
BRANCH  84  85
ATOM     85  S   UNL A   1      33.642  34.344  28.803  1.00  0.00     0.124 S 
ATOM     86  O   UNL A   1      33.121  34.652  30.130  1.00  0.00    -0.237 OA
ATOM     87  O   UNL A   1      34.380  35.419  28.145  1.00  0.00    -0.237 OA
ATOM     88  O   UNL A   1      32.730  33.601  27.935  1.00  0.00    -0.744 OA
ENDBRANCH  84  85
ENDBRANCH  56  79
BRANCH  68  89
ATOM     89  C   UNL A   1      41.918  29.609  33.629  1.00  0.00    -0.014 A 
ATOM     90  C   UNL A   1      41.805  28.316  33.082  1.00  0.00     0.010 A 
ATOM     91  C   UNL A   1      41.908  29.748  35.029  1.00  0.00     0.010 A 
ATOM     92  C   UNL A   1      41.683  27.194  33.914  1.00  0.00     0.020 A 
ATOM     93  C   UNL A   1      41.803  28.633  35.864  1.00  0.00     0.020 A 
ATOM     94  C   UNL A   1      41.692  27.359  35.302  1.00  0.00     0.054 A 
BRANCH  94  95
ATOM     95  S   UNL A   1      41.638  25.894  36.374  1.00  0.00     0.124 S 
ATOM     96  O   UNL A   1      42.813  25.143  35.941  1.00  0.00    -0.237 OA
ATOM     97  O   UNL A   1      41.719  26.469  37.715  1.00  0.00    -0.237 OA
ATOM     98  O   UNL A   1      40.354  25.274  36.053  1.00  0.00    -0.744 OA
ENDBRANCH  94  95
ENDBRANCH  68  89
ENDBRANCH  42  43
ENDBRANCH  34  37
ENDBRANCH  32  33
ENDBRANCH  31  32
ENDBRANCH  30  31
ENDBRANCH   1  30
TORSDOF 20
ENDMDL
