MODEL 1
REMARK VINA RESULT:     -10.3      0.000      0.000
REMARK SMILES CC(C)(C)c1ccc(NC(=O)CCC(=O)NCCCCNC(=O)c2ccc(-c3c4nc(c(-c5ccc(S(=O)(=O)[O-])cc5)c5ccc([nH]5)c(-c5ccc(S(=O)(=O)[O-])cc5)c5nc(c(-c6ccc(S(=O)(=O)[O-])cc6)c6ccc3[nH]6)C=C5)C=C4)cc2)cc1
REMARK SMILES IDX 18 1 17 2 16 3 14 4 15 5 13 7 12 8 10 9 9 10 11 12 8 13 5 14
REMARK SMILES IDX 6 15 85 16 7 17 84 18 2 19 1 20 3 21 4 22 19 23 20 24 21 25
REMARK SMILES IDX 22 26 23 28 24 29 25 30 83 31 26 32 82 33 27 34 28 35 29 36
REMARK SMILES IDX 76 37 30 38 81 39 75 40 77 41 31 42 80 43 74 44 73 45 32 47
REMARK SMILES IDX 62 48 43 49 61 50 44 51 47 52 60 53 78 54 45 55 46 56 59 58
REMARK SMILES IDX 79 59 48 60 33 61 34 62 42 63 35 64 41 65 36 66 37 67 38 68
REMARK SMILES IDX 39 69 40 70 63 71 64 72 72 73 65 74 71 75 66 76 67 77 68 78
REMARK SMILES IDX 69 79 70 80 49 81 50 82 58 83 51 84 57 85 52 86 53 87 54 88
REMARK SMILES IDX 55 89 56 90
REMARK H PARENT 16 6 9 11 21 27 77 46 47 57
REMARK Flexibility Score: inf
ROOT
ATOM      1  C   UNL A   1      31.594  28.649  25.698  1.00  0.00     0.023 C 
ENDROOT
BRANCH   1   2
ATOM      2  C   UNL A   1      30.864  27.935  24.563  1.00  0.00     0.116 C 
BRANCH   2   3
ATOM      3  N   UNL A   1      31.726  27.091  23.755  1.00  0.00    -0.356 N 
ATOM      4  C   UNL A   1      31.483  25.861  23.221  1.00  0.00     0.220 C 
ATOM      5  O   UNL A   1      32.281  25.392  22.411  1.00  0.00    -0.275 OA
ATOM      6  H   UNL A   1      32.617  27.461  23.564  1.00  0.00     0.163 HD
BRANCH   4   7
ATOM      7  C   UNL A   1      30.254  25.087  23.633  1.00  0.00     0.110 C 
BRANCH   7   8
ATOM      8  C   UNL A   1      30.522  24.012  24.677  1.00  0.00     0.110 C 
BRANCH   8   9
ATOM      9  C   UNL A   1      30.678  24.531  26.092  1.00  0.00     0.224 C 
ATOM     10  N   UNL A   1      31.842  24.436  26.798  1.00  0.00    -0.326 N 
ATOM     11  H   UNL A   1      31.803  24.846  27.692  1.00  0.00     0.169 HD
ATOM     12  O   UNL A   1      29.745  25.159  26.606  1.00  0.00    -0.275 OA
BRANCH  10  13
ATOM     13  C   UNL A   1      33.082  23.862  26.486  1.00  0.00     0.041 A 
ATOM     14  C   UNL A   1      35.509  22.708  25.566  1.00  0.00    -0.042 A 
ATOM     15  C   UNL A   1      34.752  22.112  26.584  1.00  0.00     0.006 A 
ATOM     16  C   UNL A   1      35.052  23.941  25.070  1.00  0.00     0.006 A 
ATOM     17  C   UNL A   1      33.561  22.686  27.045  1.00  0.00     0.026 A 
ATOM     18  C   UNL A   1      33.875  24.526  25.549  1.00  0.00     0.026 A 
BRANCH  14  19
ATOM     19  C   UNL A   1      36.792  22.072  25.009  1.00  0.00    -0.013 C 
ATOM     20  C   UNL A   1      36.681  20.533  25.064  1.00  0.00     0.016 C 
ATOM     21  C   UNL A   1      38.067  22.465  25.790  1.00  0.00     0.016 C 
ATOM     22  C   UNL A   1      36.991  22.519  23.545  1.00  0.00     0.016 C 
ENDBRANCH  14  19
ENDBRANCH  10  13
ENDBRANCH   8   9
ENDBRANCH   7   8
ENDBRANCH   4   7
ENDBRANCH   2   3
ENDBRANCH   1   2
BRANCH   1  23
ATOM     23  C   UNL A   1      32.594  27.796  26.473  1.00  0.00     0.023 C 
BRANCH  23  24
ATOM     24  C   UNL A   1      33.932  28.468  26.734  1.00  0.00     0.116 C 
BRANCH  24  25
ATOM     25  N   UNL A   1      33.775  29.861  27.117  1.00  0.00    -0.352 N 
ATOM     26  C   UNL A   1      34.580  30.642  27.904  1.00  0.00     0.251 C 
ATOM     27  H   UNL A   1      32.975  30.309  26.759  1.00  0.00     0.163 HD
ATOM     28  O   UNL A   1      34.166  31.728  28.311  1.00  0.00    -0.269 OA
BRANCH  26  29
ATOM     29  C   UNL A   1      35.935  30.178  28.271  1.00  0.00     0.039 A 
ATOM     30  C   UNL A   1      36.150  29.639  29.542  1.00  0.00     0.014 A 
ATOM     31  C   UNL A   1      36.998  30.301  27.373  1.00  0.00     0.014 A 
ATOM     32  C   UNL A   1      37.425  29.194  29.896  1.00  0.00     0.010 A 
ATOM     33  C   UNL A   1      38.241  29.766  27.690  1.00  0.00     0.010 A 
ATOM     34  C   UNL A   1      38.477  29.239  28.967  1.00  0.00    -0.014 A 
BRANCH  34  35
ATOM     35  C   UNL A   1      39.846  28.800  29.335  1.00  0.00     0.031 A 
ATOM     36  C   UNL A   1      40.744  29.723  30.118  1.00  0.00     0.074 A 
ATOM     37  C   UNL A   1      40.296  27.596  28.930  1.00  0.00     0.049 A 
ATOM     38  N   UNL A   1      41.975  29.536  30.516  1.00  0.00    -0.248 NA
ATOM     39  C   UNL A   1      40.200  31.048  30.465  1.00  0.00     0.031 C 
ATOM     40  C   UNL A   1      39.545  26.640  28.112  1.00  0.00     0.029 A 
ATOM     41  N   UNL A   1      41.495  26.970  29.155  1.00  0.00    -0.354 N 
ATOM     42  C   UNL A   1      42.358  30.723  31.131  1.00  0.00     0.074 A 
ATOM     43  C   UNL A   1      41.253  31.644  31.002  1.00  0.00     0.031 C 
ATOM     44  C   UNL A   1      40.287  25.534  27.937  1.00  0.00     0.029 A 
ATOM     45  C   UNL A   1      41.571  25.712  28.608  1.00  0.00     0.049 A 
ATOM     46  H   UNL A   1      42.231  27.382  29.662  1.00  0.00     0.167 HD
ATOM     47  C   UNL A   1      43.516  31.014  31.772  1.00  0.00     0.031 A 
ATOM     48  C   UNL A   1      42.561  24.799  28.652  1.00  0.00     0.031 A 
ATOM     49  C   UNL A   1      44.597  30.080  31.934  1.00  0.00     0.049 A 
ATOM     50  C   UNL A   1      43.810  25.118  29.424  1.00  0.00     0.074 A 
ATOM     51  C   UNL A   1      45.783  30.245  32.628  1.00  0.00     0.029 A 
ATOM     52  N   UNL A   1      44.617  28.800  31.402  1.00  0.00    -0.354 N 
ATOM     53  N   UNL A   1      44.126  26.223  30.060  1.00  0.00    -0.248 NA
ATOM     54  C   UNL A   1      44.826  24.061  29.504  1.00  0.00     0.031 C 
ATOM     55  C   UNL A   1      46.536  29.072  32.485  1.00  0.00     0.029 A 
ATOM     56  C   UNL A   1      45.798  28.164  31.741  1.00  0.00     0.049 A 
ATOM     57  H   UNL A   1      43.896  28.402  30.861  1.00  0.00     0.167 HD
ATOM     58  C   UNL A   1      45.371  25.985  30.631  1.00  0.00     0.074 A 
ATOM     59  C   UNL A   1      45.737  24.626  30.284  1.00  0.00     0.031 C 
ATOM     60  C   UNL A   1      46.144  26.816  31.375  1.00  0.00     0.031 A 
BRANCH  47  61
ATOM     61  C   UNL A   1      43.659  32.399  32.347  1.00  0.00    -0.014 A 
ATOM     62  C   UNL A   1      43.210  32.696  33.647  1.00  0.00     0.010 A 
ATOM     63  C   UNL A   1      44.260  33.416  31.583  1.00  0.00     0.010 A 
ATOM     64  C   UNL A   1      43.309  33.996  34.152  1.00  0.00     0.020 A 
ATOM     65  C   UNL A   1      44.387  34.711  32.096  1.00  0.00     0.020 A 
ATOM     66  C   UNL A   1      43.891  34.997  33.369  1.00  0.00     0.054 A 
BRANCH  66  67
ATOM     67  S   UNL A   1      44.016  36.674  34.051  1.00  0.00     0.124 S 
ATOM     68  O   UNL A   1      43.328  37.464  33.033  1.00  0.00    -0.237 OA
ATOM     69  O   UNL A   1      43.319  36.554  35.330  1.00  0.00    -0.237 OA
ATOM     70  O   UNL A   1      45.456  36.901  34.149  1.00  0.00    -0.744 OA
ENDBRANCH  66  67
ENDBRANCH  47  61
BRANCH  48  71
ATOM     71  C   UNL A   1      42.383  23.482  27.984  1.00  0.00    -0.014 A 
ATOM     72  C   UNL A   1      43.079  23.185  26.800  1.00  0.00     0.010 A 
ATOM     73  C   UNL A   1      41.539  22.507  28.546  1.00  0.00     0.010 A 
ATOM     74  C   UNL A   1      42.923  21.942  26.180  1.00  0.00     0.020 A 
ATOM     75  C   UNL A   1      41.400  21.254  27.942  1.00  0.00     0.020 A 
ATOM     76  C   UNL A   1      42.086  20.982  26.757  1.00  0.00     0.054 A 
BRANCH  76  77
ATOM     77  S   UNL A   1      41.950  19.352  25.971  1.00  0.00     0.124 S 
ATOM     78  O   UNL A   1      42.481  18.471  27.007  1.00  0.00    -0.237 OA
ATOM     79  O   UNL A   1      40.516  19.241  25.716  1.00  0.00    -0.237 OA
ATOM     80  O   UNL A   1      42.778  19.483  24.773  1.00  0.00    -0.744 OA
ENDBRANCH  76  77
ENDBRANCH  48  71
BRANCH  60  81
ATOM     81  C   UNL A   1      47.452  26.265  31.873  1.00  0.00    -0.014 A 
ATOM     82  C   UNL A   1      48.604  26.290  31.067  1.00  0.00     0.010 A 
ATOM     83  C   UNL A   1      47.533  25.737  33.174  1.00  0.00     0.010 A 
ATOM     84  C   UNL A   1      49.803  25.752  31.536  1.00  0.00     0.020 A 
ATOM     85  C   UNL A   1      48.737  25.222  33.656  1.00  0.00     0.020 A 
ATOM     86  C   UNL A   1      49.861  25.214  32.826  1.00  0.00     0.054 A 
BRANCH  86  87
ATOM     87  S   UNL A   1      51.432  24.531  33.421  1.00  0.00     0.124 S 
ATOM     88  O   UNL A   1      52.238  25.737  33.596  1.00  0.00    -0.237 OA
ATOM     89  O   UNL A   1      51.043  23.850  34.653  1.00  0.00    -0.237 OA
ATOM     90  O   UNL A   1      51.856  23.649  32.336  1.00  0.00    -0.744 OA
ENDBRANCH  86  87
ENDBRANCH  60  81
ENDBRANCH  34  35
ENDBRANCH  26  29
ENDBRANCH  24  25
ENDBRANCH  23  24
ENDBRANCH   1  23
TORSDOF 18
ENDMDL
MODEL 2
REMARK VINA RESULT:     -10.0      1.730      8.560
REMARK SMILES CC(C)(C)c1ccc(NC(=O)CCC(=O)NCCCCNC(=O)c2ccc(-c3c4nc(c(-c5ccc(S(=O)(=O)[O-])cc5)c5ccc([nH]5)c(-c5ccc(S(=O)(=O)[O-])cc5)c5nc(c(-c6ccc(S(=O)(=O)[O-])cc6)c6ccc3[nH]6)C=C5)C=C4)cc2)cc1
REMARK SMILES IDX 18 1 17 2 16 3 14 4 15 5 13 7 12 8 10 9 9 10 11 12 8 13 5 14
REMARK SMILES IDX 6 15 85 16 7 17 84 18 2 19 1 20 3 21 4 22 19 23 20 24 21 25
REMARK SMILES IDX 22 26 23 28 24 29 25 30 83 31 26 32 82 33 27 34 28 35 29 36
REMARK SMILES IDX 76 37 30 38 81 39 75 40 77 41 31 42 80 43 74 44 73 45 32 47
REMARK SMILES IDX 62 48 43 49 61 50 44 51 47 52 60 53 78 54 45 55 46 56 59 58
REMARK SMILES IDX 79 59 48 60 33 61 34 62 42 63 35 64 41 65 36 66 37 67 38 68
REMARK SMILES IDX 39 69 40 70 63 71 64 72 72 73 65 74 71 75 66 76 67 77 68 78
REMARK SMILES IDX 69 79 70 80 49 81 50 82 58 83 51 84 57 85 52 86 53 87 54 88
REMARK SMILES IDX 55 89 56 90
REMARK H PARENT 16 6 9 11 21 27 77 46 47 57
REMARK Flexibility Score: inf
ROOT
ATOM      1  C   UNL A   1      31.833  27.535  25.429  1.00  0.00     0.023 C 
ENDROOT
BRANCH   1   2
ATOM      2  C   UNL A   1      31.645  26.481  24.340  1.00  0.00     0.116 C 
BRANCH   2   3
ATOM      3  N   UNL A   1      32.556  26.630  23.219  1.00  0.00    -0.356 N 
ATOM      4  C   UNL A   1      33.034  25.690  22.357  1.00  0.00     0.220 C 
ATOM      5  O   UNL A   1      33.655  26.053  21.358  1.00  0.00    -0.275 OA
ATOM      6  H   UNL A   1      32.876  27.547  23.058  1.00  0.00     0.163 HD
BRANCH   4   7
ATOM      7  C   UNL A   1      32.810  24.223  22.637  1.00  0.00     0.110 C 
BRANCH   7   8
ATOM      8  C   UNL A   1      34.071  23.474  23.048  1.00  0.00     0.110 C 
BRANCH   8   9
ATOM      9  C   UNL A   1      34.501  23.700  24.482  1.00  0.00     0.224 C 
ATOM     10  N   UNL A   1      34.656  22.687  25.384  1.00  0.00    -0.326 N 
ATOM     11  H   UNL A   1      34.972  22.982  26.268  1.00  0.00     0.169 HD
ATOM     12  O   UNL A   1      34.823  24.840  24.839  1.00  0.00    -0.275 OA
BRANCH  10  13
ATOM     13  C   UNL A   1      34.450  21.305  25.283  1.00  0.00     0.041 A 
ATOM     14  C   UNL A   1      34.157  18.520  24.805  1.00  0.00    -0.042 A 
ATOM     15  C   UNL A   1      33.076  19.312  25.219  1.00  0.00     0.006 A 
ATOM     16  C   UNL A   1      35.409  19.150  24.708  1.00  0.00     0.006 A 
ATOM     17  C   UNL A   1      33.223  20.683  25.464  1.00  0.00     0.026 A 
ATOM     18  C   UNL A   1      35.559  20.514  24.978  1.00  0.00     0.026 A 
BRANCH  14  19
ATOM     19  C   UNL A   1      34.010  17.025  24.482  1.00  0.00    -0.013 C 
ATOM     20  C   UNL A   1      34.040  16.815  22.952  1.00  0.00     0.016 C 
ATOM     21  C   UNL A   1      32.692  16.407  25.001  1.00  0.00     0.016 C 
ATOM     22  C   UNL A   1      35.173  16.245  25.128  1.00  0.00     0.016 C 
ENDBRANCH  14  19
ENDBRANCH  10  13
ENDBRANCH   8   9
ENDBRANCH   7   8
ENDBRANCH   4   7
ENDBRANCH   2   3
ENDBRANCH   1   2
BRANCH   1  23
ATOM     23  C   UNL A   1      32.858  27.190  26.505  1.00  0.00     0.023 C 
BRANCH  23  24
ATOM     24  C   UNL A   1      34.090  28.081  26.515  1.00  0.00     0.116 C 
BRANCH  24  25
ATOM     25  N   UNL A   1      33.772  29.442  26.913  1.00  0.00    -0.352 N 
ATOM     26  C   UNL A   1      34.478  30.300  27.715  1.00  0.00     0.251 C 
ATOM     27  H   UNL A   1      32.928  29.801  26.553  1.00  0.00     0.163 HD
ATOM     28  O   UNL A   1      33.940  31.327  28.131  1.00  0.00    -0.269 OA
BRANCH  26  29
ATOM     29  C   UNL A   1      35.874  29.990  28.088  1.00  0.00     0.039 A 
ATOM     30  C   UNL A   1      36.139  29.457  29.351  1.00  0.00     0.014 A 
ATOM     31  C   UNL A   1      36.923  30.249  27.202  1.00  0.00     0.014 A 
ATOM     32  C   UNL A   1      37.454  29.156  29.711  1.00  0.00     0.010 A 
ATOM     33  C   UNL A   1      38.217  29.855  27.522  1.00  0.00     0.010 A 
ATOM     34  C   UNL A   1      38.502  29.338  28.793  1.00  0.00    -0.014 A 
BRANCH  34  35
ATOM     35  C   UNL A   1      39.909  29.053  29.166  1.00  0.00     0.031 A 
ATOM     36  C   UNL A   1      40.527  27.727  28.802  1.00  0.00     0.074 A 
ATOM     37  C   UNL A   1      40.615  29.962  29.867  1.00  0.00     0.049 A 
ATOM     38  N   UNL A   1      41.729  27.279  29.055  1.00  0.00    -0.248 NA
ATOM     39  C   UNL A   1      39.668  26.762  28.093  1.00  0.00     0.031 C 
ATOM     40  C   UNL A   1      40.107  31.254  30.336  1.00  0.00     0.029 A 
ATOM     41  N   UNL A   1      41.914  29.937  30.306  1.00  0.00    -0.354 N 
ATOM     42  C   UNL A   1      41.758  25.978  28.565  1.00  0.00     0.074 A 
ATOM     43  C   UNL A   1      40.438  25.687  28.053  1.00  0.00     0.031 C 
ATOM     44  C   UNL A   1      41.095  31.913  30.962  1.00  0.00     0.029 A 
ATOM     45  C   UNL A   1      42.296  31.082  30.962  1.00  0.00     0.049 A 
ATOM     46  H   UNL A   1      42.516  29.171  30.164  1.00  0.00     0.167 HD
ATOM     47  C   UNL A   1      42.797  25.109  28.518  1.00  0.00     0.031 A 
ATOM     48  C   UNL A   1      43.484  31.429  31.493  1.00  0.00     0.031 A 
ATOM     49  C   UNL A   1      44.119  25.417  28.991  1.00  0.00     0.049 A 
ATOM     50  C   UNL A   1      44.641  30.477  31.372  1.00  0.00     0.074 A 
ATOM     51  C   UNL A   1      45.262  24.640  28.926  1.00  0.00     0.029 A 
ATOM     52  N   UNL A   1      44.476  26.606  29.610  1.00  0.00    -0.354 N 
ATOM     53  N   UNL A   1      44.667  29.276  30.840  1.00  0.00    -0.248 NA
ATOM     54  C   UNL A   1      45.933  30.935  31.899  1.00  0.00     0.031 C 
ATOM     55  C   UNL A   1      46.304  25.349  29.537  1.00  0.00     0.029 A 
ATOM     56  C   UNL A   1      45.819  26.582  29.942  1.00  0.00     0.049 A 
ATOM     57  H   UNL A   1      43.863  27.356  29.788  1.00  0.00     0.167 HD
ATOM     58  C   UNL A   1      45.983  28.843  30.955  1.00  0.00     0.074 A 
ATOM     59  C   UNL A   1      46.724  29.919  31.584  1.00  0.00     0.031 C 
ATOM     60  C   UNL A   1      46.531  27.661  30.577  1.00  0.00     0.031 A 
BRANCH  47  61
ATOM     61  C   UNL A   1      42.535  23.748  27.928  1.00  0.00    -0.014 A 
ATOM     62  C   UNL A   1      42.247  22.642  28.750  1.00  0.00     0.010 A 
ATOM     63  C   UNL A   1      42.568  23.571  26.533  1.00  0.00     0.010 A 
ATOM     64  C   UNL A   1      42.049  21.377  28.193  1.00  0.00     0.020 A 
ATOM     65  C   UNL A   1      42.342  22.311  25.969  1.00  0.00     0.020 A 
ATOM     66  C   UNL A   1      42.105  21.218  26.805  1.00  0.00     0.054 A 
BRANCH  66  67
ATOM     67  S   UNL A   1      41.837  19.565  26.106  1.00  0.00     0.124 S 
ATOM     68  O   UNL A   1      42.747  19.571  24.963  1.00  0.00    -0.237 OA
ATOM     69  O   UNL A   1      42.219  18.683  27.207  1.00  0.00    -0.237 OA
ATOM     70  O   UNL A   1      40.415  19.558  25.771  1.00  0.00    -0.744 OA
ENDBRANCH  66  67
ENDBRANCH  47  61
BRANCH  48  71
ATOM     71  C   UNL A   1      43.646  32.759  32.141  1.00  0.00    -0.014 A 
ATOM     72  C   UNL A   1      43.495  32.896  33.531  1.00  0.00     0.010 A 
ATOM     73  C   UNL A   1      43.980  33.889  31.373  1.00  0.00     0.010 A 
ATOM     74  C   UNL A   1      43.660  34.142  34.142  1.00  0.00     0.020 A 
ATOM     75  C   UNL A   1      44.171  35.132  31.984  1.00  0.00     0.020 A 
ATOM     76  C   UNL A   1      44.001  35.253  33.364  1.00  0.00     0.054 A 
BRANCH  76  77
ATOM     77  S   UNL A   1      44.276  36.847  34.186  1.00  0.00     0.124 S 
ATOM     78  O   UNL A   1      45.467  37.340  33.501  1.00  0.00    -0.237 OA
ATOM     79  O   UNL A   1      43.037  37.568  33.905  1.00  0.00    -0.237 OA
ATOM     80  O   UNL A   1      44.466  36.477  35.588  1.00  0.00    -0.744 OA
ENDBRANCH  76  77
ENDBRANCH  48  71
BRANCH  60  81
ATOM     81  C   UNL A   1      48.004  27.484  30.820  1.00  0.00    -0.014 A 
ATOM     82  C   UNL A   1      48.479  26.921  32.017  1.00  0.00     0.010 A 
ATOM     83  C   UNL A   1      48.923  27.867  29.826  1.00  0.00     0.010 A 
ATOM     84  C   UNL A   1      49.852  26.787  32.236  1.00  0.00     0.020 A 
ATOM     85  C   UNL A   1      50.295  27.710  30.032  1.00  0.00     0.020 A 
ATOM     86  C   UNL A   1      50.752  27.189  31.244  1.00  0.00     0.054 A 
BRANCH  86  87
ATOM     87  S   UNL A   1      52.529  26.996  31.544  1.00  0.00     0.124 S 
ATOM     88  O   UNL A   1      53.106  27.836  30.497  1.00  0.00    -0.237 OA
ATOM     89  O   UNL A   1      52.684  27.495  32.908  1.00  0.00    -0.237 OA
ATOM     90  O   UNL A   1      52.751  25.561  31.384  1.00  0.00    -0.744 OA
ENDBRANCH  86  87
ENDBRANCH  60  81
ENDBRANCH  34  35
ENDBRANCH  26  29
ENDBRANCH  24  25
ENDBRANCH  23  24
ENDBRANCH   1  23
TORSDOF 18
ENDMDL
MODEL 3
REMARK VINA RESULT:      -9.9      2.442      3.151
REMARK SMILES CC(C)(C)c1ccc(NC(=O)CCC(=O)NCCCCNC(=O)c2ccc(-c3c4nc(c(-c5ccc(S(=O)(=O)[O-])cc5)c5ccc([nH]5)c(-c5ccc(S(=O)(=O)[O-])cc5)c5nc(c(-c6ccc(S(=O)(=O)[O-])cc6)c6ccc3[nH]6)C=C5)C=C4)cc2)cc1
REMARK SMILES IDX 18 1 17 2 16 3 14 4 15 5 13 7 12 8 10 9 9 10 11 12 8 13 5 14
REMARK SMILES IDX 6 15 85 16 7 17 84 18 2 19 1 20 3 21 4 22 19 23 20 24 21 25
REMARK SMILES IDX 22 26 23 28 24 29 25 30 83 31 26 32 82 33 27 34 28 35 29 36
REMARK SMILES IDX 76 37 30 38 81 39 75 40 77 41 31 42 80 43 74 44 73 45 32 47
REMARK SMILES IDX 62 48 43 49 61 50 44 51 47 52 60 53 78 54 45 55 46 56 59 58
REMARK SMILES IDX 79 59 48 60 33 61 34 62 42 63 35 64 41 65 36 66 37 67 38 68
REMARK SMILES IDX 39 69 40 70 63 71 64 72 72 73 65 74 71 75 66 76 67 77 68 78
REMARK SMILES IDX 69 79 70 80 49 81 50 82 58 83 51 84 57 85 52 86 53 87 54 88
REMARK SMILES IDX 55 89 56 90
REMARK H PARENT 16 6 9 11 21 27 77 46 47 57
REMARK Flexibility Score: inf
ROOT
ATOM      1  C   UNL A   1      31.940  28.504  25.396  1.00  0.00     0.023 C 
ENDROOT
BRANCH   1   2
ATOM      2  C   UNL A   1      31.717  27.375  24.392  1.00  0.00     0.116 C 
BRANCH   2   3
ATOM      3  N   UNL A   1      32.682  27.361  23.306  1.00  0.00    -0.356 N 
ATOM      4  C   UNL A   1      33.142  26.314  22.566  1.00  0.00     0.220 C 
ATOM      5  O   UNL A   1      33.823  26.539  21.567  1.00  0.00    -0.275 OA
ATOM      6  H   UNL A   1      33.059  28.239  23.069  1.00  0.00     0.163 HD
BRANCH   4   7
ATOM      7  C   UNL A   1      32.824  24.897  22.981  1.00  0.00     0.110 C 
BRANCH   7   8
ATOM      8  C   UNL A   1      34.021  24.131  23.528  1.00  0.00     0.110 C 
BRANCH   8   9
ATOM      9  C   UNL A   1      34.099  24.078  25.040  1.00  0.00     0.224 C 
ATOM     10  N   UNL A   1      34.166  22.911  25.744  1.00  0.00    -0.326 N 
ATOM     11  H   UNL A   1      34.246  23.033  26.717  1.00  0.00     0.169 HD
ATOM     12  O   UNL A   1      34.207  25.135  25.673  1.00  0.00    -0.275 OA
BRANCH  10  13
ATOM     13  C   UNL A   1      34.143  21.569  25.337  1.00  0.00     0.041 A 
ATOM     14  C   UNL A   1      33.939  18.795  24.764  1.00  0.00    -0.042 A 
ATOM     15  C   UNL A   1      35.175  19.457  24.758  1.00  0.00     0.006 A 
ATOM     16  C   UNL A   1      32.796  19.580  24.994  1.00  0.00     0.006 A 
ATOM     17  C   UNL A   1      35.274  20.827  25.031  1.00  0.00     0.026 A 
ATOM     18  C   UNL A   1      32.895  20.953  25.241  1.00  0.00     0.026 A 
BRANCH  14  19
ATOM     19  C   UNL A   1      33.809  17.284  24.518  1.00  0.00    -0.013 C 
ATOM     20  C   UNL A   1      32.591  16.729  25.290  1.00  0.00     0.016 C 
ATOM     21  C   UNL A   1      35.044  16.475  24.974  1.00  0.00     0.016 C 
ATOM     22  C   UNL A   1      33.618  17.025  23.009  1.00  0.00     0.016 C 
ENDBRANCH  14  19
ENDBRANCH  10  13
ENDBRANCH   8   9
ENDBRANCH   7   8
ENDBRANCH   4   7
ENDBRANCH   2   3
ENDBRANCH   1   2
BRANCH   1  23
ATOM     23  C   UNL A   1      33.008  28.239  26.453  1.00  0.00     0.023 C 
BRANCH  23  24
ATOM     24  C   UNL A   1      34.225  29.145  26.364  1.00  0.00     0.116 C 
BRANCH  24  25
ATOM     25  N   UNL A   1      33.923  30.504  26.783  1.00  0.00    -0.352 N 
ATOM     26  C   UNL A   1      34.500  31.257  27.772  1.00  0.00     0.251 C 
ATOM     27  H   UNL A   1      33.199  30.948  26.284  1.00  0.00     0.163 HD
ATOM     28  O   UNL A   1      33.957  32.299  28.139  1.00  0.00    -0.269 OA
BRANCH  26  29
ATOM     29  C   UNL A   1      35.763  30.816  28.400  1.00  0.00     0.039 A 
ATOM     30  C   UNL A   1      35.749  29.714  29.259  1.00  0.00     0.014 A 
ATOM     31  C   UNL A   1      36.956  31.505  28.164  1.00  0.00     0.014 A 
ATOM     32  C   UNL A   1      36.937  29.288  29.853  1.00  0.00     0.010 A 
ATOM     33  C   UNL A   1      38.153  31.018  28.675  1.00  0.00     0.010 A 
ATOM     34  C   UNL A   1      38.152  29.926  29.554  1.00  0.00    -0.014 A 
BRANCH  34  35
ATOM     35  C   UNL A   1      39.420  29.507  30.199  1.00  0.00     0.031 A 
ATOM     36  C   UNL A   1      39.896  30.210  31.444  1.00  0.00     0.074 A 
ATOM     37  C   UNL A   1      40.164  28.529  29.645  1.00  0.00     0.049 A 
ATOM     38  N   UNL A   1      40.982  30.008  32.143  1.00  0.00    -0.248 NA
ATOM     39  C   UNL A   1      39.059  31.313  31.949  1.00  0.00     0.031 C 
ATOM     40  C   UNL A   1      39.843  27.817  28.405  1.00  0.00     0.029 A 
ATOM     41  N   UNL A   1      41.343  27.963  30.057  1.00  0.00    -0.354 N 
ATOM     42  C   UNL A   1      40.972  30.972  33.145  1.00  0.00     0.074 A 
ATOM     43  C   UNL A   1      39.804  31.795  32.931  1.00  0.00     0.031 C 
ATOM     44  C   UNL A   1      40.782  26.884  28.179  1.00  0.00     0.029 A 
ATOM     45  C   UNL A   1      41.782  26.948  29.240  1.00  0.00     0.049 A 
ATOM     46  H   UNL A   1      41.829  28.255  30.861  1.00  0.00     0.167 HD
ATOM     47  C   UNL A   1      41.840  31.142  34.171  1.00  0.00     0.031 A 
ATOM     48  C   UNL A   1      42.862  26.150  29.344  1.00  0.00     0.031 A 
ATOM     49  C   UNL A   1      42.978  30.295  34.405  1.00  0.00     0.049 A 
ATOM     50  C   UNL A   1      43.777  26.314  30.526  1.00  0.00     0.074 A 
ATOM     51  C   UNL A   1      43.880  30.331  35.453  1.00  0.00     0.029 A 
ATOM     52  N   UNL A   1      43.364  29.250  33.579  1.00  0.00    -0.354 N 
ATOM     53  N   UNL A   1      43.711  27.187  31.504  1.00  0.00    -0.248 NA
ATOM     54  C   UNL A   1      44.897  25.369  30.631  1.00  0.00     0.031 C 
ATOM     55  C   UNL A   1      44.833  29.326  35.242  1.00  0.00     0.029 A 
ATOM     56  C   UNL A   1      44.496  28.638  34.086  1.00  0.00     0.049 A 
ATOM     57  H   UNL A   1      42.899  28.983  32.752  1.00  0.00     0.167 HD
ATOM     58  C   UNL A   1      44.772  26.885  32.350  1.00  0.00     0.074 A 
ATOM     59  C   UNL A   1      45.446  25.735  31.780  1.00  0.00     0.031 C 
ATOM     60  C   UNL A   1      45.155  27.503  33.495  1.00  0.00     0.031 A 
BRANCH  47  61
ATOM     61  C   UNL A   1      41.580  32.286  35.116  1.00  0.00    -0.014 A 
ATOM     62  C   UNL A   1      40.729  32.133  36.227  1.00  0.00     0.010 A 
ATOM     63  C   UNL A   1      42.201  33.530  34.897  1.00  0.00     0.010 A 
ATOM     64  C   UNL A   1      40.462  33.215  37.070  1.00  0.00     0.020 A 
ATOM     65  C   UNL A   1      41.958  34.607  35.757  1.00  0.00     0.020 A 
ATOM     66  C   UNL A   1      41.073  34.448  36.825  1.00  0.00     0.054 A 
BRANCH  66  67
ATOM     67  S   UNL A   1      40.716  35.835  37.939  1.00  0.00     0.124 S 
ATOM     68  O   UNL A   1      39.856  36.673  37.108  1.00  0.00    -0.237 OA
ATOM     69  O   UNL A   1      40.055  35.180  39.066  1.00  0.00    -0.237 OA
ATOM     70  O   UNL A   1      42.035  36.391  38.232  1.00  0.00    -0.744 OA
ENDBRANCH  66  67
ENDBRANCH  47  61
BRANCH  48  71
ATOM     71  C   UNL A   1      43.104  25.096  28.323  1.00  0.00    -0.014 A 
ATOM     72  C   UNL A   1      43.908  25.362  27.202  1.00  0.00     0.010 A 
ATOM     73  C   UNL A   1      42.554  23.811  28.482  1.00  0.00     0.010 A 
ATOM     74  C   UNL A   1      44.148  24.368  26.249  1.00  0.00     0.020 A 
ATOM     75  C   UNL A   1      42.812  22.806  27.544  1.00  0.00     0.020 A 
ATOM     76  C   UNL A   1      43.600  23.094  26.428  1.00  0.00     0.054 A 
BRANCH  76  77
ATOM     77  S   UNL A   1      43.977  21.800  25.214  1.00  0.00     0.124 S 
ATOM     78  O   UNL A   1      42.939  20.812  25.490  1.00  0.00    -0.237 OA
ATOM     79  O   UNL A   1      43.855  22.510  23.943  1.00  0.00    -0.237 OA
ATOM     80  O   UNL A   1      45.338  21.395  25.562  1.00  0.00    -0.744 OA
ENDBRANCH  76  77
ENDBRANCH  48  71
BRANCH  60  81
ATOM     81  C   UNL A   1      46.350  26.932  34.209  1.00  0.00    -0.014 A 
ATOM     82  C   UNL A   1      47.649  27.395  33.935  1.00  0.00     0.010 A 
ATOM     83  C   UNL A   1      46.164  25.936  35.185  1.00  0.00     0.010 A 
ATOM     84  C   UNL A   1      48.748  26.836  34.590  1.00  0.00     0.020 A 
ATOM     85  C   UNL A   1      47.259  25.394  35.861  1.00  0.00     0.020 A 
ATOM     86  C   UNL A   1      48.546  25.834  35.544  1.00  0.00     0.054 A 
BRANCH  86  87
ATOM     87  S   UNL A   1      49.987  25.130  36.392  1.00  0.00     0.124 S 
ATOM     88  O   UNL A   1      49.624  23.718  36.483  1.00  0.00    -0.237 OA
ATOM     89  O   UNL A   1      51.083  25.441  35.479  1.00  0.00    -0.237 OA
ATOM     90  O   UNL A   1      50.022  25.848  37.664  1.00  0.00    -0.744 OA
ENDBRANCH  86  87
ENDBRANCH  60  81
ENDBRANCH  34  35
ENDBRANCH  26  29
ENDBRANCH  24  25
ENDBRANCH  23  24
ENDBRANCH   1  23
TORSDOF 18
ENDMDL
