MODEL 1
REMARK VINA RESULT:     -12.0      0.000      0.000
REMARK SMILES COc1cccc(NC(=O)NC2(C(=O)NCCCCNC(=O)c3ccc(-c4c5nc(c(-c6ccc(S(=O)(=O)[O-])cc6)c6ccc([nH]6)c(-c6ccc(S(=O)(=O)[O-])cc6)c6nc(c(-c7ccc(S(=O)(=O)[O-])cc7)c7ccc4[nH]7)C=C6)C=C5)cc3)CCCCC2)c1
REMARK SMILES IDX 17 1 16 2 15 3 13 4 14 5 12 7 83 8 87 9 84 10 86 11 85 12
REMARK SMILES IDX 11 13 8 14 9 15 10 17 7 19 3 20 4 21 88 22 5 23 6 24 2 25
REMARK SMILES IDX 1 26 18 27 19 28 20 29 21 30 22 32 23 33 24 34 82 35 25 36
REMARK SMILES IDX 81 37 26 38 27 39 28 40 75 41 29 42 80 43 74 44 76 45 30 46
REMARK SMILES IDX 79 47 73 48 72 49 31 51 61 52 42 53 60 54 43 55 46 56 59 57
REMARK SMILES IDX 77 58 44 59 45 60 58 62 78 63 47 64 32 65 33 66 41 67 34 68
REMARK SMILES IDX 40 69 35 70 36 71 37 72 38 73 39 74 62 75 63 76 71 77 64 78
REMARK SMILES IDX 70 79 65 80 66 81 67 82 68 83 69 84 48 85 49 86 57 87 50 88
REMARK SMILES IDX 56 89 51 90 52 91 53 92 54 93 55 94
REMARK H PARENT 15 6 8 16 11 18 20 31 76 50 46 61
REMARK Flexibility Score: inf
ROOT
ATOM      1  C   UNL A   1      38.659  23.266  26.395  1.00  0.00     0.023 C 
ENDROOT
BRANCH   1   2
ATOM      2  C   UNL A   1      37.535  22.405  25.811  1.00  0.00     0.116 C 
BRANCH   2   3
ATOM      3  N   UNL A   1      37.449  22.462  24.366  1.00  0.00    -0.354 N 
ATOM      4  C   UNL A   1      36.460  22.819  23.504  1.00  0.00     0.245 C 
ATOM      5  O   UNL A   1      36.817  22.969  22.325  1.00  0.00    -0.272 OA
ATOM      6  H   UNL A   1      38.279  22.185  23.915  1.00  0.00     0.163 HD
BRANCH   4   7
ATOM      7  C   UNL A   1      34.951  23.070  23.928  1.00  0.00     0.120 C 
ATOM      8  C   UNL A   1      34.918  24.369  24.749  1.00  0.00     0.039 C 
ATOM      9  C   UNL A   1      34.437  21.771  24.566  1.00  0.00     0.039 C 
ATOM     10  C   UNL A   1      34.486  24.333  26.209  1.00  0.00     0.003 C 
ATOM     11  C   UNL A   1      33.775  21.863  25.934  1.00  0.00     0.003 C 
ATOM     12  C   UNL A   1      34.191  22.992  26.851  1.00  0.00     0.000 C 
BRANCH   7  13
ATOM     13  N   UNL A   1      34.342  23.356  22.574  1.00  0.00    -0.323 N 
ATOM     14  N   UNL A   1      31.979  23.487  22.670  1.00  0.00    -0.308 N 
ATOM     15  C   UNL A   1      33.137  23.439  21.991  1.00  0.00     0.320 C 
ATOM     16  H   UNL A   1      31.266  22.926  22.288  1.00  0.00     0.171 HD
ATOM     17  O   UNL A   1      33.084  23.330  20.763  1.00  0.00    -0.248 OA
ATOM     18  H   UNL A   1      35.050  23.539  21.914  1.00  0.00     0.166 HD
BRANCH  14  19
ATOM     19  C   UNL A   1      31.601  24.186  23.818  1.00  0.00     0.046 A 
ATOM     20  C   UNL A   1      30.815  24.068  26.110  1.00  0.00     0.120 A 
ATOM     21  C   UNL A   1      30.915  25.459  26.200  1.00  0.00     0.046 A 
ATOM     22  C   UNL A   1      31.113  23.439  24.898  1.00  0.00     0.072 A 
ATOM     23  C   UNL A   1      31.316  26.212  25.097  1.00  0.00     0.006 A 
ATOM     24  C   UNL A   1      31.660  25.574  23.904  1.00  0.00     0.026 A 
BRANCH  20  25
ATOM     25  O   UNL A   1      30.443  23.437  27.264  1.00  0.00    -0.497 OA
ATOM     26  C   UNL A   1      29.243  22.671  27.205  1.00  0.00     0.278 C 
ENDBRANCH  20  25
ENDBRANCH  14  19
ENDBRANCH   7  13
ENDBRANCH   4   7
ENDBRANCH   2   3
ENDBRANCH   1   2
BRANCH   1  27
ATOM     27  C   UNL A   1      39.827  22.460  26.949  1.00  0.00     0.023 C 
BRANCH  27  28
ATOM     28  C   UNL A   1      41.177  23.165  26.934  1.00  0.00     0.116 C 
BRANCH  28  29
ATOM     29  N   UNL A   1      41.357  24.124  25.854  1.00  0.00    -0.352 N 
ATOM     30  C   UNL A   1      41.556  25.488  25.968  1.00  0.00     0.251 C 
ATOM     31  H   UNL A   1      41.335  23.761  24.938  1.00  0.00     0.163 HD
ATOM     32  O   UNL A   1      41.659  26.197  24.973  1.00  0.00    -0.269 OA
BRANCH  30  33
ATOM     33  C   UNL A   1      41.572  26.083  27.325  1.00  0.00     0.039 A 
ATOM     34  C   UNL A   1      42.646  26.894  27.695  1.00  0.00     0.014 A 
ATOM     35  C   UNL A   1      40.447  25.977  28.145  1.00  0.00     0.014 A 
ATOM     36  C   UNL A   1      42.537  27.698  28.833  1.00  0.00     0.010 A 
ATOM     37  C   UNL A   1      40.301  26.856  29.213  1.00  0.00     0.010 A 
ATOM     38  C   UNL A   1      41.335  27.740  29.562  1.00  0.00    -0.014 A 
BRANCH  38  39
ATOM     39  C   UNL A   1      41.125  28.713  30.670  1.00  0.00     0.031 A 
ATOM     40  C   UNL A   1      41.985  28.645  31.904  1.00  0.00     0.074 A 
ATOM     41  C   UNL A   1      40.106  29.598  30.612  1.00  0.00     0.049 A 
ATOM     42  N   UNL A   1      41.892  29.331  33.015  1.00  0.00    -0.248 NA
ATOM     43  C   UNL A   1      43.067  27.646  31.906  1.00  0.00     0.031 C 
ATOM     44  C   UNL A   1      39.152  29.733  29.507  1.00  0.00     0.029 A 
ATOM     45  N   UNL A   1      39.697  30.553  31.513  1.00  0.00    -0.354 N 
ATOM     46  C   UNL A   1      42.877  28.823  33.855  1.00  0.00     0.074 A 
ATOM     47  C   UNL A   1      43.516  27.735  33.149  1.00  0.00     0.031 C 
ATOM     48  C   UNL A   1      38.301  30.737  29.776  1.00  0.00     0.029 A 
ATOM     49  C   UNL A   1      38.616  31.291  31.087  1.00  0.00     0.049 A 
ATOM     50  H   UNL A   1      40.137  30.696  32.381  1.00  0.00     0.167 HD
ATOM     51  C   UNL A   1      43.240  29.239  35.091  1.00  0.00     0.031 A 
ATOM     52  C   UNL A   1      37.952  32.302  31.683  1.00  0.00     0.031 A 
ATOM     53  C   UNL A   1      42.637  30.349  35.777  1.00  0.00     0.049 A 
ATOM     54  C   UNL A   1      38.397  32.773  33.042  1.00  0.00     0.074 A 
ATOM     55  C   UNL A   1      42.982  30.892  37.002  1.00  0.00     0.029 A 
ATOM     56  N   UNL A   1      41.573  31.093  35.293  1.00  0.00    -0.354 N 
ATOM     57  N   UNL A   1      39.371  32.317  33.792  1.00  0.00    -0.248 NA
ATOM     58  C   UNL A   1      37.661  33.902  33.628  1.00  0.00     0.031 C 
ATOM     59  C   UNL A   1      42.102  31.947  37.274  1.00  0.00     0.029 A 
ATOM     60  C   UNL A   1      41.242  32.086  36.198  1.00  0.00     0.049 A 
ATOM     61  H   UNL A   1      41.119  30.938  34.433  1.00  0.00     0.167 HD
ATOM     62  C   UNL A   1      39.381  33.121  34.927  1.00  0.00     0.074 A 
ATOM     63  C   UNL A   1      38.325  34.099  34.759  1.00  0.00     0.031 C 
ATOM     64  C   UNL A   1      40.193  33.056  36.011  1.00  0.00     0.031 A 
BRANCH  51  65
ATOM     65  C   UNL A   1      44.355  28.491  35.771  1.00  0.00    -0.014 A 
ATOM     66  C   UNL A   1      45.696  28.883  35.603  1.00  0.00     0.010 A 
ATOM     67  C   UNL A   1      44.060  27.395  36.601  1.00  0.00     0.010 A 
ATOM     68  C   UNL A   1      46.726  28.158  36.209  1.00  0.00     0.020 A 
ATOM     69  C   UNL A   1      45.087  26.686  37.234  1.00  0.00     0.020 A 
ATOM     70  C   UNL A   1      46.414  27.061  37.015  1.00  0.00     0.054 A 
BRANCH  70  71
ATOM     71  S   UNL A   1      47.770  26.145  37.796  1.00  0.00     0.124 S 
ATOM     72  O   UNL A   1      47.047  25.260  38.707  1.00  0.00    -0.237 OA
ATOM     73  O   UNL A   1      48.411  25.487  36.661  1.00  0.00    -0.237 OA
ATOM     74  O   UNL A   1      48.566  27.186  38.440  1.00  0.00    -0.744 OA
ENDBRANCH  70  71
ENDBRANCH  51  65
BRANCH  52  75
ATOM     75  C   UNL A   1      36.817  32.967  30.986  1.00  0.00    -0.014 A 
ATOM     76  C   UNL A   1      35.503  32.810  31.463  1.00  0.00     0.010 A 
ATOM     77  C   UNL A   1      37.038  33.761  29.846  1.00  0.00     0.010 A 
ATOM     78  C   UNL A   1      34.430  33.419  30.806  1.00  0.00     0.020 A 
ATOM     79  C   UNL A   1      35.971  34.393  29.200  1.00  0.00     0.020 A 
ATOM     80  C   UNL A   1      34.671  34.208  29.678  1.00  0.00     0.054 A 
BRANCH  80  81
ATOM     81  S   UNL A   1      33.270  35.032  28.870  1.00  0.00     0.124 S 
ATOM     82  O   UNL A   1      32.847  34.030  27.898  1.00  0.00    -0.237 OA
ATOM     83  O   UNL A   1      32.354  35.263  29.984  1.00  0.00    -0.237 OA
ATOM     84  O   UNL A   1      33.867  36.242  28.306  1.00  0.00    -0.744 OA
ENDBRANCH  80  81
ENDBRANCH  52  75
BRANCH  64  85
ATOM     85  C   UNL A   1      40.001  34.091  37.086  1.00  0.00    -0.014 A 
ATOM     86  C   UNL A   1      40.568  35.371  36.972  1.00  0.00     0.010 A 
ATOM     87  C   UNL A   1      39.187  33.794  38.194  1.00  0.00     0.010 A 
ATOM     88  C   UNL A   1      40.344  36.331  37.963  1.00  0.00     0.020 A 
ATOM     89  C   UNL A   1      38.941  34.759  39.174  1.00  0.00     0.020 A 
ATOM     90  C   UNL A   1      39.532  36.019  39.057  1.00  0.00     0.054 A 
BRANCH  90  91
ATOM     91  S   UNL A   1      39.213  37.297  40.304  1.00  0.00     0.124 S 
ATOM     92  O   UNL A   1      38.452  36.559  41.307  1.00  0.00    -0.237 OA
ATOM     93  O   UNL A   1      40.560  37.697  40.706  1.00  0.00    -0.237 OA
ATOM     94  O   UNL A   1      38.461  38.314  39.573  1.00  0.00    -0.744 OA
ENDBRANCH  90  91
ENDBRANCH  64  85
ENDBRANCH  38  39
ENDBRANCH  30  33
ENDBRANCH  28  29
ENDBRANCH  27  28
ENDBRANCH   1  27
TORSDOF 17
ENDMDL
MODEL 2
REMARK VINA RESULT:     -11.9      4.459     10.133
REMARK SMILES COc1cccc(NC(=O)NC2(C(=O)NCCCCNC(=O)c3ccc(-c4c5nc(c(-c6ccc(S(=O)(=O)[O-])cc6)c6ccc([nH]6)c(-c6ccc(S(=O)(=O)[O-])cc6)c6nc(c(-c7ccc(S(=O)(=O)[O-])cc7)c7ccc4[nH]7)C=C6)C=C5)cc3)CCCCC2)c1
REMARK SMILES IDX 17 1 16 2 15 3 13 4 14 5 12 7 83 8 87 9 84 10 86 11 85 12
REMARK SMILES IDX 11 13 8 14 9 15 10 17 7 19 3 20 4 21 88 22 5 23 6 24 2 25
REMARK SMILES IDX 1 26 18 27 19 28 20 29 21 30 22 32 23 33 24 34 82 35 25 36
REMARK SMILES IDX 81 37 26 38 27 39 28 40 75 41 29 42 80 43 74 44 76 45 30 46
REMARK SMILES IDX 79 47 73 48 72 49 31 51 61 52 42 53 60 54 43 55 46 56 59 57
REMARK SMILES IDX 77 58 44 59 45 60 58 62 78 63 47 64 32 65 33 66 41 67 34 68
REMARK SMILES IDX 40 69 35 70 36 71 37 72 38 73 39 74 62 75 63 76 71 77 64 78
REMARK SMILES IDX 70 79 65 80 66 81 67 82 68 83 69 84 48 85 49 86 57 87 50 88
REMARK SMILES IDX 56 89 51 90 52 91 53 92 54 93 55 94
REMARK H PARENT 15 6 8 16 11 18 20 31 76 50 46 61
REMARK Flexibility Score: inf
ROOT
ATOM      1  C   UNL A   1      32.408  29.538  24.905  1.00  0.00     0.023 C 
ENDROOT
BRANCH   1   2
ATOM      2  C   UNL A   1      32.040  28.696  23.681  1.00  0.00     0.116 C 
BRANCH   2   3
ATOM      3  N   UNL A   1      30.759  28.029  23.797  1.00  0.00    -0.354 N 
ATOM      4  C   UNL A   1      30.398  26.745  24.060  1.00  0.00     0.245 C 
ATOM      5  O   UNL A   1      29.195  26.577  24.315  1.00  0.00    -0.272 OA
ATOM      6  H   UNL A   1      29.993  28.630  23.657  1.00  0.00     0.163 HD
BRANCH   4   7
ATOM      7  C   UNL A   1      31.406  25.518  24.084  1.00  0.00     0.120 C 
ATOM      8  C   UNL A   1      30.567  24.243  24.273  1.00  0.00     0.039 C 
ATOM      9  C   UNL A   1      32.501  25.851  25.108  1.00  0.00     0.039 C 
ATOM     10  C   UNL A   1      30.754  23.392  25.522  1.00  0.00     0.003 C 
ATOM     11  C   UNL A   1      32.807  24.817  26.184  1.00  0.00     0.003 C 
ATOM     12  C   UNL A   1      31.697  23.878  26.605  1.00  0.00     0.000 C 
BRANCH   7  13
ATOM     13  N   UNL A   1      31.893  25.550  22.652  1.00  0.00    -0.323 N 
ATOM     14  N   UNL A   1      33.756  24.128  22.314  1.00  0.00    -0.308 N 
ATOM     15  C   UNL A   1      32.901  25.080  21.904  1.00  0.00     0.320 C 
ATOM     16  H   UNL A   1      34.696  24.306  22.085  1.00  0.00     0.171 HD
ATOM     17  O   UNL A   1      33.136  25.647  20.834  1.00  0.00    -0.248 OA
ATOM     18  H   UNL A   1      31.278  26.082  22.096  1.00  0.00     0.166 HD
BRANCH  14  19
ATOM     19  C   UNL A   1      33.554  22.930  23.005  1.00  0.00     0.046 A 
ATOM     20  C   UNL A   1      34.206  21.517  24.865  1.00  0.00     0.120 A 
ATOM     21  C   UNL A   1      33.187  20.624  24.524  1.00  0.00     0.046 A 
ATOM     22  C   UNL A   1      34.418  22.647  24.071  1.00  0.00     0.072 A 
ATOM     23  C   UNL A   1      32.384  20.861  23.409  1.00  0.00     0.006 A 
ATOM     24  C   UNL A   1      32.568  22.016  22.648  1.00  0.00     0.026 A 
BRANCH  20  25
ATOM     25  O   UNL A   1      34.905  21.196  25.996  1.00  0.00    -0.497 OA
ATOM     26  C   UNL A   1      34.298  21.553  27.234  1.00  0.00     0.278 C 
ENDBRANCH  20  25
ENDBRANCH  14  19
ENDBRANCH   7  13
ENDBRANCH   4   7
ENDBRANCH   2   3
ENDBRANCH   1   2
BRANCH   1  27
ATOM     27  C   UNL A   1      33.613  29.013  25.676  1.00  0.00     0.023 C 
BRANCH  27  28
ATOM     28  C   UNL A   1      33.492  29.053  27.193  1.00  0.00     0.116 C 
BRANCH  28  29
ATOM     29  N   UNL A   1      33.597  30.381  27.782  1.00  0.00    -0.352 N 
ATOM     30  C   UNL A   1      34.706  30.946  28.384  1.00  0.00     0.251 C 
ATOM     31  H   UNL A   1      32.785  30.939  27.748  1.00  0.00     0.163 HD
ATOM     32  O   UNL A   1      34.654  32.067  28.876  1.00  0.00    -0.269 OA
BRANCH  30  33
ATOM     33  C   UNL A   1      35.941  30.135  28.480  1.00  0.00     0.039 A 
ATOM     34  C   UNL A   1      36.851  30.159  27.421  1.00  0.00     0.014 A 
ATOM     35  C   UNL A   1      36.269  29.504  29.682  1.00  0.00     0.014 A 
ATOM     36  C   UNL A   1      38.141  29.656  27.614  1.00  0.00     0.010 A 
ATOM     37  C   UNL A   1      37.582  29.103  29.902  1.00  0.00     0.010 A 
ATOM     38  C   UNL A   1      38.541  29.189  28.878  1.00  0.00    -0.014 A 
BRANCH  38  39
ATOM     39  C   UNL A   1      39.953  28.812  29.164  1.00  0.00     0.031 A 
ATOM     40  C   UNL A   1      40.887  29.816  29.789  1.00  0.00     0.074 A 
ATOM     41  C   UNL A   1      40.425  27.607  28.780  1.00  0.00     0.049 A 
ATOM     42  N   UNL A   1      42.171  29.716  30.020  1.00  0.00    -0.248 NA
ATOM     43  C   UNL A   1      40.308  31.116  30.168  1.00  0.00     0.031 C 
ATOM     44  C   UNL A   1      39.652  26.561  28.105  1.00  0.00     0.029 A 
ATOM     45  N   UNL A   1      41.680  27.057  28.899  1.00  0.00    -0.354 N 
ATOM     46  C   UNL A   1      42.557  30.948  30.536  1.00  0.00     0.074 A 
ATOM     47  C   UNL A   1      41.385  31.796  30.530  1.00  0.00     0.031 C 
ATOM     48  C   UNL A   1      40.434  25.486  27.910  1.00  0.00     0.029 A 
ATOM     49  C   UNL A   1      41.775  25.776  28.404  1.00  0.00     0.049 A 
ATOM     50  H   UNL A   1      42.440  27.535  29.302  1.00  0.00     0.167 HD
ATOM     51  C   UNL A   1      43.768  31.336  31.001  1.00  0.00     0.031 A 
ATOM     52  C   UNL A   1      42.822  24.928  28.354  1.00  0.00     0.031 A 
ATOM     53  C   UNL A   1      44.923  30.481  31.050  1.00  0.00     0.049 A 
ATOM     54  C   UNL A   1      44.150  25.367  28.910  1.00  0.00     0.074 A 
ATOM     55  C   UNL A   1      46.176  30.758  31.569  1.00  0.00     0.029 A 
ATOM     56  N   UNL A   1      44.964  29.180  30.575  1.00  0.00    -0.354 N 
ATOM     57  N   UNL A   1      44.476  26.517  29.450  1.00  0.00    -0.248 NA
ATOM     58  C   UNL A   1      45.246  24.389  28.863  1.00  0.00     0.031 C 
ATOM     59  C   UNL A   1      46.985  29.633  31.376  1.00  0.00     0.029 A 
ATOM     60  C   UNL A   1      46.222  28.642  30.780  1.00  0.00     0.049 A 
ATOM     61  H   UNL A   1      44.210  28.708  30.154  1.00  0.00     0.167 HD
ATOM     62  C   UNL A   1      45.809  26.390  29.829  1.00  0.00     0.074 A 
ATOM     63  C   UNL A   1      46.223  25.049  29.470  1.00  0.00     0.031 C 
ATOM     64  C   UNL A   1      46.616  27.303  30.423  1.00  0.00     0.031 A 
BRANCH  51  65
ATOM     65  C   UNL A   1      43.895  32.747  31.507  1.00  0.00    -0.014 A 
ATOM     66  C   UNL A   1      44.344  33.780  30.663  1.00  0.00     0.010 A 
ATOM     67  C   UNL A   1      43.546  33.051  32.835  1.00  0.00     0.010 A 
ATOM     68  C   UNL A   1      44.493  35.079  31.153  1.00  0.00     0.020 A 
ATOM     69  C   UNL A   1      43.665  34.357  33.321  1.00  0.00     0.020 A 
ATOM     70  C   UNL A   1      44.159  35.358  32.480  1.00  0.00     0.054 A 
BRANCH  70  71
ATOM     71  S   UNL A   1      44.354  37.055  33.088  1.00  0.00     0.124 S 
ATOM     72  O   UNL A   1      43.870  37.837  31.952  1.00  0.00    -0.237 OA
ATOM     73  O   UNL A   1      43.499  37.074  34.272  1.00  0.00    -0.237 OA
ATOM     74  O   UNL A   1      45.786  37.165  33.355  1.00  0.00    -0.744 OA
ENDBRANCH  70  71
ENDBRANCH  51  65
BRANCH  52  75
ATOM     75  C   UNL A   1      42.652  23.562  27.787  1.00  0.00    -0.014 A 
ATOM     76  C   UNL A   1      43.197  23.243  26.530  1.00  0.00     0.010 A 
ATOM     77  C   UNL A   1      41.951  22.570  28.497  1.00  0.00     0.010 A 
ATOM     78  C   UNL A   1      43.031  21.967  25.985  1.00  0.00     0.020 A 
ATOM     79  C   UNL A   1      41.803  21.285  27.967  1.00  0.00     0.020 A 
ATOM     80  C   UNL A   1      42.334  20.994  26.708  1.00  0.00     0.054 A 
BRANCH  80  81
ATOM     81  S   UNL A   1      42.174  19.328  26.006  1.00  0.00     0.124 S 
ATOM     82  O   UNL A   1      40.733  19.218  25.810  1.00  0.00    -0.237 OA
ATOM     83  O   UNL A   1      42.975  19.420  24.788  1.00  0.00    -0.237 OA
ATOM     84  O   UNL A   1      42.734  18.466  27.045  1.00  0.00    -0.744 OA
ENDBRANCH  80  81
ENDBRANCH  52  75
BRANCH  64  85
ATOM     85  C   UNL A   1      48.018  26.876  30.759  1.00  0.00    -0.014 A 
ATOM     86  C   UNL A   1      49.066  27.031  29.835  1.00  0.00     0.010 A 
ATOM     87  C   UNL A   1      48.300  26.373  32.042  1.00  0.00     0.010 A 
ATOM     88  C   UNL A   1      50.370  26.665  30.182  1.00  0.00     0.020 A 
ATOM     89  C   UNL A   1      49.605  26.029  32.400  1.00  0.00     0.020 A 
ATOM     90  C   UNL A   1      50.631  26.166  31.462  1.00  0.00     0.054 A 
BRANCH  90  91
ATOM     91  S   UNL A   1      52.339  25.747  31.906  1.00  0.00     0.124 S 
ATOM     92  O   UNL A   1      52.590  26.647  33.028  1.00  0.00    -0.237 OA
ATOM     93  O   UNL A   1      52.243  24.329  32.247  1.00  0.00    -0.237 OA
ATOM     94  O   UNL A   1      53.095  26.038  30.690  1.00  0.00    -0.744 OA
ENDBRANCH  90  91
ENDBRANCH  64  85
ENDBRANCH  38  39
ENDBRANCH  30  33
ENDBRANCH  28  29
ENDBRANCH  27  28
ENDBRANCH   1  27
TORSDOF 17
ENDMDL
MODEL 3
REMARK VINA RESULT:     -11.8      3.357      4.488
REMARK SMILES COc1cccc(NC(=O)NC2(C(=O)NCCCCNC(=O)c3ccc(-c4c5nc(c(-c6ccc(S(=O)(=O)[O-])cc6)c6ccc([nH]6)c(-c6ccc(S(=O)(=O)[O-])cc6)c6nc(c(-c7ccc(S(=O)(=O)[O-])cc7)c7ccc4[nH]7)C=C6)C=C5)cc3)CCCCC2)c1
REMARK SMILES IDX 17 1 16 2 15 3 13 4 14 5 12 7 83 8 87 9 84 10 86 11 85 12
REMARK SMILES IDX 11 13 8 14 9 15 10 17 7 19 3 20 4 21 88 22 5 23 6 24 2 25
REMARK SMILES IDX 1 26 18 27 19 28 20 29 21 30 22 32 23 33 24 34 82 35 25 36
REMARK SMILES IDX 81 37 26 38 27 39 28 40 75 41 29 42 80 43 74 44 76 45 30 46
REMARK SMILES IDX 79 47 73 48 72 49 31 51 61 52 42 53 60 54 43 55 46 56 59 57
REMARK SMILES IDX 77 58 44 59 45 60 58 62 78 63 47 64 32 65 33 66 41 67 34 68
REMARK SMILES IDX 40 69 35 70 36 71 37 72 38 73 39 74 62 75 63 76 71 77 64 78
REMARK SMILES IDX 70 79 65 80 66 81 67 82 68 83 69 84 48 85 49 86 57 87 50 88
REMARK SMILES IDX 56 89 51 90 52 91 53 92 54 93 55 94
REMARK H PARENT 15 6 8 16 11 18 20 31 76 50 46 61
REMARK Flexibility Score: inf
ROOT
ATOM      1  C   UNL A   1      36.144  22.925  23.333  1.00  0.00     0.023 C 
ENDROOT
BRANCH   1   2
ATOM      2  C   UNL A   1      34.729  22.640  22.821  1.00  0.00     0.116 C 
BRANCH   2   3
ATOM      3  N   UNL A   1      33.911  21.895  23.757  1.00  0.00    -0.354 N 
ATOM      4  C   UNL A   1      32.835  22.224  24.520  1.00  0.00     0.245 C 
ATOM      5  O   UNL A   1      32.240  21.263  25.034  1.00  0.00    -0.272 OA
ATOM      6  H   UNL A   1      34.193  20.958  23.862  1.00  0.00     0.163 HD
BRANCH   4   7
ATOM      7  C   UNL A   1      32.316  23.707  24.744  1.00  0.00     0.120 C 
ATOM      8  C   UNL A   1      31.756  24.202  23.401  1.00  0.00     0.039 C 
ATOM      9  C   UNL A   1      33.456  24.491  25.412  1.00  0.00     0.039 C 
ATOM     10  C   UNL A   1      32.407  25.387  22.698  1.00  0.00     0.003 C 
ATOM     11  C   UNL A   1      33.875  25.813  24.784  1.00  0.00     0.003 C 
ATOM     12  C   UNL A   1      33.661  25.992  23.296  1.00  0.00     0.000 C 
BRANCH   7  13
ATOM     13  N   UNL A   1      31.149  23.440  25.668  1.00  0.00    -0.323 N 
ATOM     14  N   UNL A   1      30.242  25.439  26.558  1.00  0.00    -0.308 N 
ATOM     15  C   UNL A   1      30.335  24.100  26.505  1.00  0.00     0.320 C 
ATOM     16  H   UNL A   1      30.204  25.803  27.472  1.00  0.00     0.171 HD
ATOM     17  O   UNL A   1      29.738  23.443  27.362  1.00  0.00    -0.248 OA
ATOM     18  H   UNL A   1      30.912  22.484  25.650  1.00  0.00     0.166 HD
BRANCH  14  19
ATOM     19  C   UNL A   1      30.190  26.409  25.555  1.00  0.00     0.046 A 
ATOM     20  C   UNL A   1      31.157  28.428  24.621  1.00  0.00     0.120 A 
ATOM     21  C   UNL A   1      30.253  28.351  23.559  1.00  0.00     0.046 A 
ATOM     22  C   UNL A   1      31.089  27.480  25.645  1.00  0.00     0.072 A 
ATOM     23  C   UNL A   1      29.298  27.336  23.515  1.00  0.00     0.006 A 
ATOM     24  C   UNL A   1      29.267  26.363  24.515  1.00  0.00     0.026 A 
BRANCH  20  25
ATOM     25  O   UNL A   1      32.065  29.447  24.538  1.00  0.00    -0.497 OA
ATOM     26  C   UNL A   1      32.488  30.017  25.774  1.00  0.00     0.278 C 
ENDBRANCH  20  25
ENDBRANCH  14  19
ENDBRANCH   7  13
ENDBRANCH   4   7
ENDBRANCH   2   3
ENDBRANCH   1   2
BRANCH   1  27
ATOM     27  C   UNL A   1      36.491  22.195  24.625  1.00  0.00     0.023 C 
BRANCH  27  28
ATOM     28  C   UNL A   1      37.449  22.925  25.555  1.00  0.00     0.116 C 
BRANCH  28  29
ATOM     29  N   UNL A   1      38.734  22.267  25.751  1.00  0.00    -0.352 N 
ATOM     30  C   UNL A   1      39.861  22.793  26.357  1.00  0.00     0.251 C 
ATOM     31  H   UNL A   1      38.809  21.345  25.415  1.00  0.00     0.163 HD
ATOM     32  O   UNL A   1      40.899  22.146  26.429  1.00  0.00    -0.269 OA
BRANCH  30  33
ATOM     33  C   UNL A   1      39.803  24.187  26.856  1.00  0.00     0.039 A 
ATOM     34  C   UNL A   1      39.330  24.423  28.148  1.00  0.00     0.014 A 
ATOM     35  C   UNL A   1      40.380  25.218  26.112  1.00  0.00     0.014 A 
ATOM     36  C   UNL A   1      39.550  25.670  28.741  1.00  0.00     0.010 A 
ATOM     37  C   UNL A   1      40.691  26.418  26.742  1.00  0.00     0.010 A 
ATOM     38  C   UNL A   1      40.296  26.655  28.070  1.00  0.00    -0.014 A 
BRANCH  38  39
ATOM     39  C   UNL A   1      40.699  27.924  28.738  1.00  0.00     0.031 A 
ATOM     40  C   UNL A   1      42.072  28.051  29.344  1.00  0.00     0.074 A 
ATOM     41  C   UNL A   1      39.807  28.927  28.884  1.00  0.00     0.049 A 
ATOM     42  N   UNL A   1      42.573  29.028  30.055  1.00  0.00    -0.248 NA
ATOM     43  C   UNL A   1      42.987  26.912  29.160  1.00  0.00     0.031 C 
ATOM     44  C   UNL A   1      38.422  28.916  28.406  1.00  0.00     0.029 A 
ATOM     45  N   UNL A   1      39.933  30.156  29.487  1.00  0.00    -0.354 N 
ATOM     46  C   UNL A   1      43.844  28.608  30.431  1.00  0.00     0.074 A 
ATOM     47  C   UNL A   1      44.014  27.266  29.919  1.00  0.00     0.031 C 
ATOM     48  C   UNL A   1      37.843  30.094  28.694  1.00  0.00     0.029 A 
ATOM     49  C   UNL A   1      38.796  30.930  29.415  1.00  0.00     0.049 A 
ATOM     50  H   UNL A   1      40.759  30.456  29.929  1.00  0.00     0.167 HD
ATOM     51  C   UNL A   1      44.798  29.283  31.114  1.00  0.00     0.031 A 
ATOM     52  C   UNL A   1      38.547  32.172  29.876  1.00  0.00     0.031 A 
ATOM     53  C   UNL A   1      44.649  30.633  31.584  1.00  0.00     0.049 A 
ATOM     54  C   UNL A   1      39.634  32.919  30.601  1.00  0.00     0.074 A 
ATOM     55  C   UNL A   1      45.583  31.428  32.224  1.00  0.00     0.029 A 
ATOM     56  N   UNL A   1      43.497  31.391  31.455  1.00  0.00    -0.354 N 
ATOM     57  N   UNL A   1      40.851  32.523  30.891  1.00  0.00    -0.248 NA
ATOM     58  C   UNL A   1      39.320  34.282  31.049  1.00  0.00     0.031 C 
ATOM     59  C   UNL A   1      44.982  32.659  32.513  1.00  0.00     0.029 A 
ATOM     60  C   UNL A   1      43.691  32.644  32.011  1.00  0.00     0.049 A 
ATOM     61  H   UNL A   1      42.663  31.085  31.032  1.00  0.00     0.167 HD
ATOM     62  C   UNL A   1      41.454  33.600  31.533  1.00  0.00     0.074 A 
ATOM     63  C   UNL A   1      40.475  34.666  31.576  1.00  0.00     0.031 C 
ATOM     64  C   UNL A   1      42.708  33.696  32.039  1.00  0.00     0.031 A 
BRANCH  51  65
ATOM     65  C   UNL A   1      46.095  28.567  31.378  1.00  0.00    -0.014 A 
ATOM     66  C   UNL A   1      47.241  28.838  30.607  1.00  0.00     0.010 A 
ATOM     67  C   UNL A   1      46.177  27.624  32.419  1.00  0.00     0.010 A 
ATOM     68  C   UNL A   1      48.429  28.140  30.837  1.00  0.00     0.020 A 
ATOM     69  C   UNL A   1      47.374  26.946  32.671  1.00  0.00     0.020 A 
ATOM     70  C   UNL A   1      48.486  27.194  31.863  1.00  0.00     0.054 A 
BRANCH  70  71
ATOM     71  S   UNL A   1      50.043  26.310  32.145  1.00  0.00     0.124 S 
ATOM     72  O   UNL A   1      50.140  25.483  30.944  1.00  0.00    -0.237 OA
ATOM     73  O   UNL A   1      51.017  27.394  32.238  1.00  0.00    -0.237 OA
ATOM     74  O   UNL A   1      49.808  25.580  33.387  1.00  0.00    -0.744 OA
ENDBRANCH  70  71
ENDBRANCH  51  65
BRANCH  52  75
ATOM     75  C   UNL A   1      37.222  32.808  29.636  1.00  0.00    -0.014 A 
ATOM     76  C   UNL A   1      36.256  32.840  30.657  1.00  0.00     0.010 A 
ATOM     77  C   UNL A   1      36.918  33.388  28.391  1.00  0.00     0.010 A 
ATOM     78  C   UNL A   1      35.005  33.424  30.436  1.00  0.00     0.020 A 
ATOM     79  C   UNL A   1      35.677  33.995  28.172  1.00  0.00     0.020 A 
ATOM     80  C   UNL A   1      34.723  33.998  29.193  1.00  0.00     0.054 A 
BRANCH  80  81
ATOM     81  S   UNL A   1      33.113  34.797  28.943  1.00  0.00     0.124 S 
ATOM     82  O   UNL A   1      32.565  34.807  30.295  1.00  0.00    -0.237 OA
ATOM     83  O   UNL A   1      33.487  36.100  28.399  1.00  0.00    -0.237 OA
ATOM     84  O   UNL A   1      32.437  33.910  27.998  1.00  0.00    -0.744 OA
ENDBRANCH  80  81
ENDBRANCH  52  75
BRANCH  64  85
ATOM     85  C   UNL A   1      43.111  35.010  32.651  1.00  0.00    -0.014 A 
ATOM     86  C   UNL A   1      43.595  36.064  31.857  1.00  0.00     0.010 A 
ATOM     87  C   UNL A   1      42.940  35.210  34.032  1.00  0.00     0.010 A 
ATOM     88  C   UNL A   1      43.925  37.290  32.441  1.00  0.00     0.020 A 
ATOM     89  C   UNL A   1      43.246  36.442  34.615  1.00  0.00     0.020 A 
ATOM     90  C   UNL A   1      43.749  37.471  33.816  1.00  0.00     0.054 A 
BRANCH  90  91
ATOM     91  S   UNL A   1      44.135  39.088  34.543  1.00  0.00     0.124 S 
ATOM     92  O   UNL A   1      45.485  39.329  34.043  1.00  0.00    -0.237 OA
ATOM     93  O   UNL A   1      43.095  39.948  33.983  1.00  0.00    -0.237 OA
ATOM     94  O   UNL A   1      44.034  38.854  35.981  1.00  0.00    -0.744 OA
ENDBRANCH  90  91
ENDBRANCH  64  85
ENDBRANCH  38  39
ENDBRANCH  30  33
ENDBRANCH  28  29
ENDBRANCH  27  28
ENDBRANCH   1  27
TORSDOF 17
ENDMDL
