MODEL 1
REMARK VINA RESULT:     -12.3      0.000      0.000
REMARK SMILES O=C(NCCCCNC(=O)c1ccc(-c2c3nc(c(-c4ccc(S(=O)(=O)[O-])cc4)c4ccc([nH]4)c(-c4ccc(S(=O)(=O)[O-])cc4)c4nc(c(-c5ccc(S(=O)(=O)[O-])cc5)c5ccc2[nH]5)C=C4)C=C3)cc1)C1=N[C@@H]2NC=NN2[C@@H]([C@H]2C=NN=C2c2ccc(F)cc2)C1
REMARK SMILES IDX 6 1 5 2 4 3 3 4 1 5 2 6 71 8 72 9 91 10 73 11 78 12 74 13
REMARK SMILES IDX 77 14 75 15 76 17 79 18 80 19 83 20 81 21 82 22 84 23 85 24
REMARK SMILES IDX 90 25 86 26 89 27 87 28 88 29 7 30 8 31 9 32 10 34 11 35
REMARK SMILES IDX 12 36 70 37 13 38 69 39 14 40 15 41 16 42 63 43 17 44 68 45
REMARK SMILES IDX 62 46 64 47 18 48 67 49 61 50 60 51 19 53 49 54 30 55 48 56
REMARK SMILES IDX 31 57 34 58 47 59 65 60 32 61 33 62 46 64 66 65 35 66 20 67
REMARK SMILES IDX 21 68 29 69 22 70 28 71 23 72 24 73 25 74 26 75 27 76 50 77
REMARK SMILES IDX 51 78 59 79 52 80 58 81 53 82 54 83 55 84 56 85 57 86 36 87
REMARK SMILES IDX 37 88 45 89 38 90 44 91 39 92 40 93 41 94 42 95 43 96
REMARK H PARENT 3 7 74 16 8 33 64 52 34 63
REMARK Flexibility Score: inf
ROOT
ATOM      1  C   UNL A   1      33.487  28.647  24.874  1.00  0.00     0.023 C 
ENDROOT
BRANCH   1   2
ATOM      2  C   UNL A   1      31.997  28.526  24.578  1.00  0.00     0.023 C 
BRANCH   2   3
ATOM      3  C   UNL A   1      31.444  27.140  24.263  1.00  0.00     0.116 C 
BRANCH   3   4
ATOM      4  N   UNL A   1      30.278  26.728  25.013  1.00  0.00    -0.351 N 
ATOM      5  O   UNL A   1      29.121  25.619  26.596  1.00  0.00    -0.268 OA
ATOM      6  C   UNL A   1      30.125  25.675  25.892  1.00  0.00     0.265 C 
ATOM      7  H   UNL A   1      29.474  27.280  24.877  1.00  0.00     0.163 HD
BRANCH   6   8
ATOM      8  C   UNL A   1      31.116  24.496  25.945  1.00  0.00     0.106 C 
ATOM      9  N   UNL A   1      31.155  23.842  27.054  1.00  0.00    -0.237 NA
ATOM     10  C   UNL A   1      32.009  24.212  24.766  1.00  0.00     0.090 C 
ATOM     11  C   UNL A   1      31.846  22.582  27.117  1.00  0.00     0.319 C 
ATOM     12  C   UNL A   1      32.936  23.026  25.024  1.00  0.00     0.127 C 
ATOM     13  N   UNL A   1      32.951  22.416  28.019  1.00  0.00    -0.335 N 
ATOM     14  N   UNL A   1      32.320  21.962  25.855  1.00  0.00    -0.249 NA
ATOM     15  C   UNL A   1      33.666  21.398  27.460  1.00  0.00     0.217 C 
ATOM     16  H   UNL A   1      33.145  22.917  28.843  1.00  0.00     0.165 HD
ATOM     17  N   UNL A   1      33.316  21.030  26.254  1.00  0.00    -0.164 NA
BRANCH  12  18
ATOM     18  C   UNL A   1      33.540  22.373  23.769  1.00  0.00     0.109 C 
ATOM     19  C   UNL A   1      32.920  22.813  22.487  1.00  0.00     0.120 C 
ATOM     20  C   UNL A   1      34.940  22.800  23.462  1.00  0.00     0.081 C 
ATOM     21  N   UNL A   1      33.770  23.328  21.660  1.00  0.00    -0.162 NA
ATOM     22  N   UNL A   1      35.055  23.332  22.282  1.00  0.00    -0.155 NA
BRANCH  20  23
ATOM     23  C   UNL A   1      36.023  22.716  24.455  1.00  0.00    -0.001 A 
ATOM     24  C   UNL A   1      36.450  23.846  25.166  1.00  0.00     0.013 A 
ATOM     25  C   UNL A   1      36.721  21.508  24.560  1.00  0.00     0.013 A 
ATOM     26  C   UNL A   1      37.618  23.780  25.925  1.00  0.00     0.040 A 
ATOM     27  C   UNL A   1      37.884  21.448  25.326  1.00  0.00     0.040 A 
ATOM     28  C   UNL A   1      38.329  22.586  25.989  1.00  0.00     0.123 A 
ATOM     29  F   UNL A   1      39.469  22.539  26.688  1.00  0.00    -0.207 F 
ENDBRANCH  20  23
ENDBRANCH  12  18
ENDBRANCH   6   8
ENDBRANCH   3   4
ENDBRANCH   2   3
ENDBRANCH   1   2
BRANCH   1  30
ATOM     30  C   UNL A   1      33.893  28.646  26.341  1.00  0.00     0.116 C 
BRANCH  30  31
ATOM     31  N   UNL A   1      33.694  29.925  27.005  1.00  0.00    -0.352 N 
ATOM     32  C   UNL A   1      34.507  30.618  27.875  1.00  0.00     0.251 C 
ATOM     33  H   UNL A   1      32.838  30.368  26.800  1.00  0.00     0.163 HD
ATOM     34  O   UNL A   1      34.087  31.639  28.405  1.00  0.00    -0.269 OA
BRANCH  32  35
ATOM     35  C   UNL A   1      35.869  30.128  28.200  1.00  0.00     0.039 A 
ATOM     36  C   UNL A   1      36.851  30.149  27.204  1.00  0.00     0.014 A 
ATOM     37  C   UNL A   1      36.182  29.625  29.464  1.00  0.00     0.014 A 
ATOM     38  C   UNL A   1      38.154  29.729  27.496  1.00  0.00     0.010 A 
ATOM     39  C   UNL A   1      37.500  29.301  29.781  1.00  0.00     0.010 A 
ATOM     40  C   UNL A   1      38.499  29.330  28.797  1.00  0.00    -0.014 A 
BRANCH  40  41
ATOM     41  C   UNL A   1      39.881  28.894  29.137  1.00  0.00     0.031 A 
ATOM     42  C   UNL A   1      40.822  29.856  29.822  1.00  0.00     0.074 A 
ATOM     43  C   UNL A   1      40.310  27.661  28.796  1.00  0.00     0.049 A 
ATOM     44  N   UNL A   1      42.083  29.696  30.133  1.00  0.00    -0.248 NA
ATOM     45  C   UNL A   1      40.282  31.179  30.180  1.00  0.00     0.031 C 
ATOM     46  C   UNL A   1      39.516  26.646  28.099  1.00  0.00     0.029 A 
ATOM     47  N   UNL A   1      41.527  27.052  28.985  1.00  0.00    -0.354 N 
ATOM     48  C   UNL A   1      42.484  30.895  30.713  1.00  0.00     0.074 A 
ATOM     49  C   UNL A   1      41.356  31.796  30.647  1.00  0.00     0.031 C 
ATOM     50  C   UNL A   1      40.256  25.537  27.944  1.00  0.00     0.029 A 
ATOM     51  C   UNL A   1      41.590  25.771  28.488  1.00  0.00     0.049 A 
ATOM     52  H   UNL A   1      42.284  27.493  29.436  1.00  0.00     0.167 HD
ATOM     53  C   UNL A   1      43.672  31.212  31.282  1.00  0.00     0.031 A 
ATOM     54  C   UNL A   1      42.608  24.887  28.465  1.00  0.00     0.031 A 
ATOM     55  C   UNL A   1      44.791  30.311  31.365  1.00  0.00     0.049 A 
ATOM     56  C   UNL A   1      43.926  25.272  29.087  1.00  0.00     0.074 A 
ATOM     57  C   UNL A   1      46.029  30.529  31.945  1.00  0.00     0.029 A 
ATOM     58  N   UNL A   1      44.804  29.018  30.868  1.00  0.00    -0.354 N 
ATOM     59  N   UNL A   1      44.270  26.399  29.665  1.00  0.00    -0.248 NA
ATOM     60  C   UNL A   1      44.988  24.257  29.074  1.00  0.00     0.031 C 
ATOM     61  C   UNL A   1      46.806  29.382  31.758  1.00  0.00     0.029 A 
ATOM     62  C   UNL A   1      46.029  28.427  31.125  1.00  0.00     0.049 A 
ATOM     63  H   UNL A   1      44.053  28.583  30.403  1.00  0.00     0.167 HD
ATOM     64  C   UNL A   1      45.569  26.207  30.125  1.00  0.00     0.074 A 
ATOM     65  C   UNL A   1      45.943  24.855  29.770  1.00  0.00     0.031 C 
ATOM     66  C   UNL A   1      46.379  27.072  30.785  1.00  0.00     0.031 A 
BRANCH  53  67
ATOM     67  C   UNL A   1      43.818  32.586  31.883  1.00  0.00    -0.014 A 
ATOM     68  C   UNL A   1      44.248  33.672  31.101  1.00  0.00     0.010 A 
ATOM     69  C   UNL A   1      43.457  32.810  33.225  1.00  0.00     0.010 A 
ATOM     70  C   UNL A   1      44.339  34.952  31.652  1.00  0.00     0.020 A 
ATOM     71  C   UNL A   1      43.517  34.095  33.772  1.00  0.00     0.020 A 
ATOM     72  C   UNL A   1      43.967  35.156  32.985  1.00  0.00     0.054 A 
BRANCH  72  73
ATOM     73  S   UNL A   1      44.042  36.840  33.654  1.00  0.00     0.124 S 
ATOM     74  O   UNL A   1      45.218  36.770  34.518  1.00  0.00    -0.237 OA
ATOM     75  O   UNL A   1      44.193  37.654  32.452  1.00  0.00    -0.237 OA
ATOM     76  O   UNL A   1      42.767  36.993  34.352  1.00  0.00    -0.744 OA
ENDBRANCH  72  73
ENDBRANCH  53  67
BRANCH  54  77
ATOM     77  C   UNL A   1      42.435  23.547  27.833  1.00  0.00    -0.014 A 
ATOM     78  C   UNL A   1      42.015  22.440  28.591  1.00  0.00     0.010 A 
ATOM     79  C   UNL A   1      42.737  23.362  26.471  1.00  0.00     0.010 A 
ATOM     80  C   UNL A   1      41.950  21.167  28.016  1.00  0.00     0.020 A 
ATOM     81  C   UNL A   1      42.638  22.098  25.882  1.00  0.00     0.020 A 
ATOM     82  C   UNL A   1      42.269  21.003  26.666  1.00  0.00     0.054 A 
BRANCH  82  83
ATOM     83  S   UNL A   1      42.183  19.343  25.938  1.00  0.00     0.124 S 
ATOM     84  O   UNL A   1      40.746  19.171  25.746  1.00  0.00    -0.237 OA
ATOM     85  O   UNL A   1      42.972  19.493  24.718  1.00  0.00    -0.237 OA
ATOM     86  O   UNL A   1      42.784  18.491  26.960  1.00  0.00    -0.744 OA
ENDBRANCH  82  83
ENDBRANCH  54  77
BRANCH  66  87
ATOM     87  C   UNL A   1      47.723  26.560  31.239  1.00  0.00    -0.014 A 
ATOM     88  C   UNL A   1      48.877  26.706  30.450  1.00  0.00     0.010 A 
ATOM     89  C   UNL A   1      47.830  25.950  32.502  1.00  0.00     0.010 A 
ATOM     90  C   UNL A   1      50.104  26.205  30.896  1.00  0.00     0.020 A 
ATOM     91  C   UNL A   1      49.061  25.480  32.967  1.00  0.00     0.020 A 
ATOM     92  C   UNL A   1      50.187  25.593  32.150  1.00  0.00     0.054 A 
BRANCH  92  93
ATOM     93  S   UNL A   1      51.793  24.969  32.714  1.00  0.00     0.124 S 
ATOM     94  O   UNL A   1      51.742  23.572  32.290  1.00  0.00    -0.237 OA
ATOM     95  O   UNL A   1      52.738  25.811  31.985  1.00  0.00    -0.237 OA
ATOM     96  O   UNL A   1      51.762  25.182  34.158  1.00  0.00    -0.744 OA
ENDBRANCH  92  93
ENDBRANCH  66  87
ENDBRANCH  40  41
ENDBRANCH  32  35
ENDBRANCH  30  31
ENDBRANCH   1  30
TORSDOF 16
ENDMDL
MODEL 2
REMARK VINA RESULT:     -12.0      4.377     10.274
REMARK SMILES O=C(NCCCCNC(=O)c1ccc(-c2c3nc(c(-c4ccc(S(=O)(=O)[O-])cc4)c4ccc([nH]4)c(-c4ccc(S(=O)(=O)[O-])cc4)c4nc(c(-c5ccc(S(=O)(=O)[O-])cc5)c5ccc2[nH]5)C=C4)C=C3)cc1)C1=N[C@@H]2NC=NN2[C@@H]([C@H]2C=NN=C2c2ccc(F)cc2)C1
REMARK SMILES IDX 6 1 5 2 4 3 3 4 1 5 2 6 71 8 72 9 91 10 73 11 78 12 74 13
REMARK SMILES IDX 77 14 75 15 76 17 79 18 80 19 83 20 81 21 82 22 84 23 85 24
REMARK SMILES IDX 90 25 86 26 89 27 87 28 88 29 7 30 8 31 9 32 10 34 11 35
REMARK SMILES IDX 12 36 70 37 13 38 69 39 14 40 15 41 16 42 63 43 17 44 68 45
REMARK SMILES IDX 62 46 64 47 18 48 67 49 61 50 60 51 19 53 49 54 30 55 48 56
REMARK SMILES IDX 31 57 34 58 47 59 65 60 32 61 33 62 46 64 66 65 35 66 20 67
REMARK SMILES IDX 21 68 29 69 22 70 28 71 23 72 24 73 25 74 26 75 27 76 50 77
REMARK SMILES IDX 51 78 59 79 52 80 58 81 53 82 54 83 55 84 56 85 57 86 36 87
REMARK SMILES IDX 37 88 45 89 38 90 44 91 39 92 40 93 41 94 42 95 43 96
REMARK H PARENT 3 7 74 16 8 33 64 52 34 63
REMARK Flexibility Score: inf
ROOT
ATOM      1  C   UNL A   1      37.731  22.828  25.815  1.00  0.00     0.023 C 
ENDROOT
BRANCH   1   2
ATOM      2  C   UNL A   1      37.029  23.141  24.499  1.00  0.00     0.023 C 
BRANCH   2   3
ATOM      3  C   UNL A   1      35.531  23.424  24.541  1.00  0.00     0.116 C 
BRANCH   3   4
ATOM      4  N   UNL A   1      34.753  22.941  23.421  1.00  0.00    -0.351 N 
ATOM      5  O   UNL A   1      33.561  23.082  21.515  1.00  0.00    -0.268 OA
ATOM      6  C   UNL A   1      33.966  23.642  22.530  1.00  0.00     0.265 C 
ATOM      7  H   UNL A   1      34.793  21.969  23.271  1.00  0.00     0.163 HD
BRANCH   6   8
ATOM      8  C   UNL A   1      33.475  25.074  22.816  1.00  0.00     0.106 C 
ATOM      9  N   UNL A   1      33.926  25.992  22.032  1.00  0.00    -0.237 NA
ATOM     10  C   UNL A   1      32.576  25.340  23.994  1.00  0.00     0.090 C 
ATOM     11  C   UNL A   1      33.334  27.302  22.050  1.00  0.00     0.319 C 
ATOM     12  C   UNL A   1      32.225  26.820  24.123  1.00  0.00     0.127 C 
ATOM     13  N   UNL A   1      34.137  28.445  22.380  1.00  0.00    -0.335 N 
ATOM     14  N   UNL A   1      32.083  27.511  22.818  1.00  0.00    -0.249 NA
ATOM     15  C   UNL A   1      33.225  29.356  22.825  1.00  0.00     0.217 C 
ATOM     16  H   UNL A   1      35.113  28.548  22.303  1.00  0.00     0.165 HD
ATOM     17  N   UNL A   1      32.008  28.916  23.026  1.00  0.00    -0.164 NA
BRANCH  12  18
ATOM     18  C   UNL A   1      30.984  27.134  24.977  1.00  0.00     0.109 C 
ATOM     19  C   UNL A   1      30.079  25.970  25.199  1.00  0.00     0.120 C 
ATOM     20  C   UNL A   1      31.279  27.426  26.414  1.00  0.00     0.081 C 
ATOM     21  N   UNL A   1      29.892  25.702  26.450  1.00  0.00    -0.162 NA
ATOM     22  N   UNL A   1      30.664  26.620  27.226  1.00  0.00    -0.155 NA
BRANCH  20  23
ATOM     23  C   UNL A   1      32.253  28.451  26.824  1.00  0.00    -0.001 A 
ATOM     24  C   UNL A   1      31.896  29.803  26.907  1.00  0.00     0.013 A 
ATOM     25  C   UNL A   1      33.587  28.059  26.978  1.00  0.00     0.013 A 
ATOM     26  C   UNL A   1      32.890  30.767  27.076  1.00  0.00     0.040 A 
ATOM     27  C   UNL A   1      34.573  29.027  27.153  1.00  0.00     0.040 A 
ATOM     28  C   UNL A   1      34.219  30.371  27.186  1.00  0.00     0.123 A 
ATOM     29  F   UNL A   1      35.172  31.303  27.310  1.00  0.00    -0.207 F 
ENDBRANCH  20  23
ENDBRANCH  12  18
ENDBRANCH   6   8
ENDBRANCH   3   4
ENDBRANCH   2   3
ENDBRANCH   1   2
BRANCH   1  30
ATOM     30  C   UNL A   1      38.553  23.952  26.432  1.00  0.00     0.116 C 
BRANCH  30  31
ATOM     31  N   UNL A   1      39.951  23.944  26.032  1.00  0.00    -0.352 N 
ATOM     32  C   UNL A   1      40.997  24.752  26.420  1.00  0.00     0.251 C 
ATOM     33  H   UNL A   1      40.189  23.248  25.377  1.00  0.00     0.163 HD
ATOM     34  O   UNL A   1      42.083  24.635  25.865  1.00  0.00    -0.269 OA
BRANCH  32  35
ATOM     35  C   UNL A   1      40.817  25.779  27.475  1.00  0.00     0.039 A 
ATOM     36  C   UNL A   1      39.813  25.598  28.431  1.00  0.00     0.014 A 
ATOM     37  C   UNL A   1      41.608  26.929  27.518  1.00  0.00     0.014 A 
ATOM     38  C   UNL A   1      39.648  26.532  29.460  1.00  0.00     0.010 A 
ATOM     39  C   UNL A   1      41.509  27.806  28.596  1.00  0.00     0.010 A 
ATOM     40  C   UNL A   1      40.516  27.630  29.571  1.00  0.00    -0.014 A 
BRANCH  40  41
ATOM     41  C   UNL A   1      40.372  28.630  30.664  1.00  0.00     0.031 A 
ATOM     42  C   UNL A   1      41.227  28.512  31.903  1.00  0.00     0.074 A 
ATOM     43  C   UNL A   1      39.451  29.612  30.574  1.00  0.00     0.049 A 
ATOM     44  N   UNL A   1      41.202  29.232  32.995  1.00  0.00    -0.248 NA
ATOM     45  C   UNL A   1      42.223  27.427  31.927  1.00  0.00     0.031 C 
ATOM     46  C   UNL A   1      38.535  29.818  29.449  1.00  0.00     0.029 A 
ATOM     47  N   UNL A   1      39.128  30.620  31.449  1.00  0.00    -0.354 N 
ATOM     48  C   UNL A   1      42.167  28.683  33.833  1.00  0.00     0.074 A 
ATOM     49  C   UNL A   1      42.711  27.529  33.153  1.00  0.00     0.031 C 
ATOM     50  C   UNL A   1      37.775  30.898  29.691  1.00  0.00     0.029 A 
ATOM     51  C   UNL A   1      38.116  31.438  31.004  1.00  0.00     0.049 A 
ATOM     52  H   UNL A   1      39.582  30.746  32.314  1.00  0.00     0.167 HD
ATOM     53  C   UNL A   1      42.591  29.117  35.044  1.00  0.00     0.031 A 
ATOM     54  C   UNL A   1      37.521  32.498  31.590  1.00  0.00     0.031 A 
ATOM     55  C   UNL A   1      42.064  30.276  35.714  1.00  0.00     0.049 A 
ATOM     56  C   UNL A   1      37.998  32.947  32.947  1.00  0.00     0.074 A 
ATOM     57  C   UNL A   1      42.446  30.812  36.933  1.00  0.00     0.029 A 
ATOM     58  N   UNL A   1      41.055  31.086  35.219  1.00  0.00    -0.354 N 
ATOM     59  N   UNL A   1      38.941  32.435  33.703  1.00  0.00    -0.248 NA
ATOM     60  C   UNL A   1      37.347  34.133  33.521  1.00  0.00     0.031 C 
ATOM     61  C   UNL A   1      41.635  31.921  37.194  1.00  0.00     0.029 A 
ATOM     62  C   UNL A   1      40.798  32.115  36.108  1.00  0.00     0.049 A 
ATOM     63  H   UNL A   1      40.591  30.951  34.362  1.00  0.00     0.167 HD
ATOM     64  C   UNL A   1      39.025  33.266  34.817  1.00  0.00     0.074 A 
ATOM     65  C   UNL A   1      38.049  34.318  34.628  1.00  0.00     0.031 C 
ATOM     66  C   UNL A   1      39.839  33.168  35.897  1.00  0.00     0.031 A 
BRANCH  53  67
ATOM     67  C   UNL A   1      43.699  28.348  35.716  1.00  0.00    -0.014 A 
ATOM     68  C   UNL A   1      45.045  28.710  35.526  1.00  0.00     0.010 A 
ATOM     69  C   UNL A   1      43.392  27.297  36.599  1.00  0.00     0.010 A 
ATOM     70  C   UNL A   1      46.065  28.021  36.185  1.00  0.00     0.020 A 
ATOM     71  C   UNL A   1      44.409  26.625  37.285  1.00  0.00     0.020 A 
ATOM     72  C   UNL A   1      45.739  26.986  37.066  1.00  0.00     0.054 A 
BRANCH  72  73
ATOM     73  S   UNL A   1      47.084  26.150  37.951  1.00  0.00     0.124 S 
ATOM     74  O   UNL A   1      46.838  24.748  37.619  1.00  0.00    -0.237 OA
ATOM     75  O   UNL A   1      48.276  26.738  37.349  1.00  0.00    -0.237 OA
ATOM     76  O   UNL A   1      46.853  26.506  39.349  1.00  0.00    -0.744 OA
ENDBRANCH  72  73
ENDBRANCH  53  67
BRANCH  54  77
ATOM     77  C   UNL A   1      36.406  33.215  30.906  1.00  0.00    -0.014 A 
ATOM     78  C   UNL A   1      36.642  33.981  29.750  1.00  0.00     0.010 A 
ATOM     79  C   UNL A   1      35.104  33.173  31.439  1.00  0.00     0.010 A 
ATOM     80  C   UNL A   1      35.613  34.731  29.172  1.00  0.00     0.020 A 
ATOM     81  C   UNL A   1      34.064  33.891  30.842  1.00  0.00     0.020 A 
ATOM     82  C   UNL A   1      34.331  34.686  29.726  1.00  0.00     0.054 A 
BRANCH  82  83
ATOM     83  S   UNL A   1      33.010  35.669  28.964  1.00  0.00     0.124 S 
ATOM     84  O   UNL A   1      33.766  36.712  28.278  1.00  0.00    -0.237 OA
ATOM     85  O   UNL A   1      32.349  34.694  28.101  1.00  0.00    -0.237 OA
ATOM     86  O   UNL A   1      32.217  36.119  30.105  1.00  0.00    -0.744 OA
ENDBRANCH  82  83
ENDBRANCH  54  77
BRANCH  66  87
ATOM     87  C   UNL A   1      39.768  34.269  36.924  1.00  0.00    -0.014 A 
ATOM     88  C   UNL A   1      39.045  34.123  38.121  1.00  0.00     0.010 A 
ATOM     89  C   UNL A   1      40.475  35.464  36.694  1.00  0.00     0.010 A 
ATOM     90  C   UNL A   1      38.989  35.171  39.044  1.00  0.00     0.020 A 
ATOM     91  C   UNL A   1      40.451  36.501  37.631  1.00  0.00     0.020 A 
ATOM     92  C   UNL A   1      39.689  36.354  38.791  1.00  0.00     0.054 A 
BRANCH  92  93
ATOM     93  S   UNL A   1      39.617  37.691  40.014  1.00  0.00     0.124 S 
ATOM     94  O   UNL A   1      40.969  38.239  39.945  1.00  0.00    -0.237 OA
ATOM     95  O   UNL A   1      38.564  38.553  39.483  1.00  0.00    -0.237 OA
ATOM     96  O   UNL A   1      39.286  37.006  41.260  1.00  0.00    -0.744 OA
ENDBRANCH  92  93
ENDBRANCH  66  87
ENDBRANCH  40  41
ENDBRANCH  32  35
ENDBRANCH  30  31
ENDBRANCH   1  30
TORSDOF 16
ENDMDL
MODEL 3
REMARK VINA RESULT:     -12.0      3.075      9.366
REMARK SMILES O=C(NCCCCNC(=O)c1ccc(-c2c3nc(c(-c4ccc(S(=O)(=O)[O-])cc4)c4ccc([nH]4)c(-c4ccc(S(=O)(=O)[O-])cc4)c4nc(c(-c5ccc(S(=O)(=O)[O-])cc5)c5ccc2[nH]5)C=C4)C=C3)cc1)C1=N[C@@H]2NC=NN2[C@@H]([C@H]2C=NN=C2c2ccc(F)cc2)C1
REMARK SMILES IDX 6 1 5 2 4 3 3 4 1 5 2 6 71 8 72 9 91 10 73 11 78 12 74 13
REMARK SMILES IDX 77 14 75 15 76 17 79 18 80 19 83 20 81 21 82 22 84 23 85 24
REMARK SMILES IDX 90 25 86 26 89 27 87 28 88 29 7 30 8 31 9 32 10 34 11 35
REMARK SMILES IDX 12 36 70 37 13 38 69 39 14 40 15 41 16 42 63 43 17 44 68 45
REMARK SMILES IDX 62 46 64 47 18 48 67 49 61 50 60 51 19 53 49 54 30 55 48 56
REMARK SMILES IDX 31 57 34 58 47 59 65 60 32 61 33 62 46 64 66 65 35 66 20 67
REMARK SMILES IDX 21 68 29 69 22 70 28 71 23 72 24 73 25 74 26 75 27 76 50 77
REMARK SMILES IDX 51 78 59 79 52 80 58 81 53 82 54 83 55 84 56 85 57 86 36 87
REMARK SMILES IDX 37 88 45 89 38 90 44 91 39 92 40 93 41 94 42 95 43 96
REMARK H PARENT 3 7 74 16 8 33 64 52 34 63
REMARK Flexibility Score: inf
ROOT
ATOM      1  C   UNL A   1      35.148  23.544  26.115  1.00  0.00     0.023 C 
ENDROOT
BRANCH   1   2
ATOM      2  C   UNL A   1      34.714  22.086  26.199  1.00  0.00     0.023 C 
BRANCH   2   3
ATOM      3  C   UNL A   1      33.558  21.635  25.312  1.00  0.00     0.116 C 
BRANCH   3   4
ATOM      4  N   UNL A   1      32.257  21.557  25.941  1.00  0.00    -0.351 N 
ATOM      5  O   UNL A   1      30.155  22.198  26.434  1.00  0.00    -0.268 OA
ATOM      6  C   UNL A   1      31.278  22.522  26.058  1.00  0.00     0.265 C 
ATOM      7  H   UNL A   1      32.038  20.686  26.344  1.00  0.00     0.163 HD
BRANCH   6   8
ATOM      8  C   UNL A   1      31.570  24.020  25.844  1.00  0.00     0.106 C 
ATOM      9  N   UNL A   1      31.636  24.739  26.912  1.00  0.00    -0.237 NA
ATOM     10  C   UNL A   1      31.695  24.569  24.448  1.00  0.00     0.090 C 
ATOM     11  C   UNL A   1      32.155  26.078  26.840  1.00  0.00     0.319 C 
ATOM     12  C   UNL A   1      31.956  26.074  24.447  1.00  0.00     0.127 C 
ATOM     13  N   UNL A   1      31.328  27.187  27.223  1.00  0.00    -0.335 N 
ATOM     14  N   UNL A   1      32.796  26.530  25.581  1.00  0.00    -0.249 NA
ATOM     15  C   UNL A   1      31.876  28.239  26.550  1.00  0.00     0.217 C 
ATOM     16  H   UNL A   1      30.551  27.188  27.828  1.00  0.00     0.165 HD
ATOM     17  N   UNL A   1      32.780  27.950  25.648  1.00  0.00    -0.164 NA
BRANCH  12  18
ATOM     18  C   UNL A   1      32.545  26.643  23.145  1.00  0.00     0.109 C 
ATOM     19  C   UNL A   1      33.246  25.638  22.296  1.00  0.00     0.120 C 
ATOM     20  C   UNL A   1      31.525  27.068  22.138  1.00  0.00     0.081 C 
ATOM     21  N   UNL A   1      32.757  25.549  21.102  1.00  0.00    -0.162 NA
ATOM     22  N   UNL A   1      31.653  26.450  21.002  1.00  0.00    -0.155 NA
BRANCH  20  23
ATOM     23  C   UNL A   1      30.438  28.004  22.467  1.00  0.00    -0.001 A 
ATOM     24  C   UNL A   1      29.244  27.558  23.049  1.00  0.00     0.013 A 
ATOM     25  C   UNL A   1      30.566  29.331  22.041  1.00  0.00     0.013 A 
ATOM     26  C   UNL A   1      28.156  28.427  23.138  1.00  0.00     0.040 A 
ATOM     27  C   UNL A   1      29.478  30.195  22.139  1.00  0.00     0.040 A 
ATOM     28  C   UNL A   1      28.280  29.732  22.672  1.00  0.00     0.123 A 
ATOM     29  F   UNL A   1      27.222  30.550  22.726  1.00  0.00    -0.207 F 
ENDBRANCH  20  23
ENDBRANCH  12  18
ENDBRANCH   6   8
ENDBRANCH   3   4
ENDBRANCH   2   3
ENDBRANCH   1   2
BRANCH   1  30
ATOM     30  C   UNL A   1      36.465  23.823  25.405  1.00  0.00     0.116 C 
BRANCH  30  31
ATOM     31  N   UNL A   1      37.470  22.791  25.608  1.00  0.00    -0.352 N 
ATOM     32  C   UNL A   1      38.711  22.855  26.203  1.00  0.00     0.251 C 
ATOM     33  H   UNL A   1      37.224  21.902  25.262  1.00  0.00     0.163 HD
ATOM     34  O   UNL A   1      39.445  21.876  26.165  1.00  0.00    -0.269 OA
BRANCH  32  35
ATOM     35  C   UNL A   1      39.179  24.100  26.860  1.00  0.00     0.039 A 
ATOM     36  C   UNL A   1      39.949  25.006  26.122  1.00  0.00     0.014 A 
ATOM     37  C   UNL A   1      38.892  24.373  28.198  1.00  0.00     0.014 A 
ATOM     38  C   UNL A   1      40.370  26.206  26.706  1.00  0.00     0.010 A 
ATOM     39  C   UNL A   1      39.226  25.609  28.747  1.00  0.00     0.010 A 
ATOM     40  C   UNL A   1      39.986  26.534  28.015  1.00  0.00    -0.014 A 
BRANCH  40  41
ATOM     41  C   UNL A   1      40.407  27.810  28.654  1.00  0.00     0.031 A 
ATOM     42  C   UNL A   1      41.798  27.936  29.229  1.00  0.00     0.074 A 
ATOM     43  C   UNL A   1      39.540  28.838  28.762  1.00  0.00     0.049 A 
ATOM     44  N   UNL A   1      42.331  28.931  29.891  1.00  0.00    -0.248 NA
ATOM     45  C   UNL A   1      42.698  26.782  29.061  1.00  0.00     0.031 C 
ATOM     46  C   UNL A   1      38.156  28.837  28.282  1.00  0.00     0.029 A 
ATOM     47  N   UNL A   1      39.692  30.085  29.318  1.00  0.00    -0.354 N 
ATOM     48  C   UNL A   1      43.617  28.520  30.222  1.00  0.00     0.074 A 
ATOM     49  C   UNL A   1      43.762  27.161  29.751  1.00  0.00     0.031 C 
ATOM     50  C   UNL A   1      37.598  30.030  28.541  1.00  0.00     0.029 A 
ATOM     51  C   UNL A   1      38.565  30.869  29.243  1.00  0.00     0.049 A 
ATOM     52  H   UNL A   1      40.533  30.389  29.731  1.00  0.00     0.167 HD
ATOM     53  C   UNL A   1      44.605  29.218  30.831  1.00  0.00     0.031 A 
ATOM     54  C   UNL A   1      38.331  32.118  29.695  1.00  0.00     0.031 A 
ATOM     55  C   UNL A   1      44.470  30.577  31.285  1.00  0.00     0.049 A 
ATOM     56  C   UNL A   1      39.441  32.865  30.388  1.00  0.00     0.074 A 
ATOM     57  C   UNL A   1      45.421  31.380  31.891  1.00  0.00     0.029 A 
ATOM     58  N   UNL A   1      43.319  31.339  31.169  1.00  0.00    -0.354 N 
ATOM     59  N   UNL A   1      40.664  32.469  30.654  1.00  0.00    -0.248 NA
ATOM     60  C   UNL A   1      39.148  34.238  30.821  1.00  0.00     0.031 C 
ATOM     61  C   UNL A   1      44.830  32.612  32.182  1.00  0.00     0.029 A 
ATOM     62  C   UNL A   1      43.534  32.601  31.696  1.00  0.00     0.049 A 
ATOM     63  H   UNL A   1      42.473  31.029  30.771  1.00  0.00     0.167 HD
ATOM     64  C   UNL A   1      41.296  33.561  31.242  1.00  0.00     0.074 A 
ATOM     65  C   UNL A   1      40.326  34.635  31.279  1.00  0.00     0.031 C 
ATOM     66  C   UNL A   1      42.566  33.667  31.706  1.00  0.00     0.031 A 
BRANCH  53  67
ATOM     67  C   UNL A   1      45.933  28.532  31.023  1.00  0.00    -0.014 A 
ATOM     68  C   UNL A   1      46.947  28.643  30.054  1.00  0.00     0.010 A 
ATOM     69  C   UNL A   1      46.197  27.827  32.211  1.00  0.00     0.010 A 
ATOM     70  C   UNL A   1      48.191  28.042  30.257  1.00  0.00     0.020 A 
ATOM     71  C   UNL A   1      47.451  27.249  32.432  1.00  0.00     0.020 A 
ATOM     72  C   UNL A   1      48.437  27.353  31.449  1.00  0.00     0.054 A 
BRANCH  72  73
ATOM     73  S   UNL A   1      50.081  26.633  31.706  1.00  0.00     0.124 S 
ATOM     74  O   UNL A   1      50.771  27.006  30.473  1.00  0.00    -0.237 OA
ATOM     75  O   UNL A   1      50.542  27.313  32.913  1.00  0.00    -0.237 OA
ATOM     76  O   UNL A   1      49.815  25.205  31.861  1.00  0.00    -0.744 OA
ENDBRANCH  72  73
ENDBRANCH  53  67
BRANCH  54  77
ATOM     77  C   UNL A   1      36.993  32.752  29.513  1.00  0.00    -0.014 A 
ATOM     78  C   UNL A   1      36.570  33.195  28.247  1.00  0.00     0.010 A 
ATOM     79  C   UNL A   1      36.151  32.960  30.622  1.00  0.00     0.010 A 
ATOM     80  C   UNL A   1      35.358  33.877  28.100  1.00  0.00     0.020 A 
ATOM     81  C   UNL A   1      34.922  33.609  30.473  1.00  0.00     0.020 A 
ATOM     82  C   UNL A   1      34.545  34.086  29.217  1.00  0.00     0.054 A 
BRANCH  82  83
ATOM     83  S   UNL A   1      32.978  34.977  29.008  1.00  0.00     0.124 S 
ATOM     84  O   UNL A   1      32.413  34.914  30.352  1.00  0.00    -0.237 OA
ATOM     85  O   UNL A   1      33.423  36.298  28.569  1.00  0.00    -0.237 OA
ATOM     86  O   UNL A   1      32.274  34.196  27.994  1.00  0.00    -0.744 OA
ENDBRANCH  82  83
ENDBRANCH  54  77
BRANCH  66  87
ATOM     87  C   UNL A   1      43.009  35.012  32.223  1.00  0.00    -0.014 A 
ATOM     88  C   UNL A   1      42.861  35.373  33.573  1.00  0.00     0.010 A 
ATOM     89  C   UNL A   1      43.619  35.917  31.335  1.00  0.00     0.010 A 
ATOM     90  C   UNL A   1      43.269  36.635  34.015  1.00  0.00     0.020 A 
ATOM     91  C   UNL A   1      44.062  37.165  31.780  1.00  0.00     0.020 A 
ATOM     92  C   UNL A   1      43.864  37.524  33.114  1.00  0.00     0.054 A 
BRANCH  92  93
ATOM     93  S   UNL A   1      44.403  39.148  33.716  1.00  0.00     0.124 S 
ATOM     94  O   UNL A   1      43.130  39.843  33.893  1.00  0.00    -0.237 OA
ATOM     95  O   UNL A   1      45.112  38.813  34.947  1.00  0.00    -0.237 OA
ATOM     96  O   UNL A   1      45.244  39.657  32.636  1.00  0.00    -0.744 OA
ENDBRANCH  92  93
ENDBRANCH  66  87
ENDBRANCH  40  41
ENDBRANCH  32  35
ENDBRANCH  30  31
ENDBRANCH   1  30
TORSDOF 16
ENDMDL
