MODEL 1
REMARK VINA RESULT:     -10.3      0.000      0.000
REMARK SMILES COc1cc([C@@H]2CC[NH2+][C@@H]2C(=O)NCCCCNC(=O)c2ccc(-c3c4nc(c(-c5ccc(S(=O)(=O)[O-])cc5)c5ccc([nH]5)c(-c5ccc(S(=O)(=O)[O-])cc5)c5nc(c(-c6ccc(S(=O)(=O)[O-])cc6)c6ccc3[nH]6)C=C5)C=C4)cc2)cc(OC)c1OC
REMARK SMILES IDX 16 1 15 2 14 3 13 4 11 5 12 6 10 8 6 9 7 10 8 11 9 12 5 15
REMARK SMILES IDX 3 16 4 17 85 18 82 19 81 20 2 21 1 22 86 23 87 24 83 25
REMARK SMILES IDX 84 26 17 27 18 28 19 29 20 31 21 32 22 33 80 34 23 35 79 36
REMARK SMILES IDX 24 37 25 38 26 39 73 40 27 41 78 42 72 43 74 44 28 45 77 46
REMARK SMILES IDX 71 47 70 48 29 50 59 51 40 52 58 53 41 54 44 55 57 56 75 57
REMARK SMILES IDX 42 58 43 59 56 61 76 62 45 63 30 64 31 65 39 66 32 67 38 68
REMARK SMILES IDX 33 69 34 70 35 71 36 72 37 73 60 74 61 75 69 76 62 77 68 78
REMARK SMILES IDX 63 79 64 80 65 81 66 82 67 83 46 84 47 85 55 86 48 87 54 88
REMARK SMILES IDX 49 89 50 90 51 91 52 92 53 93
REMARK H PARENT 13 7 9 13 9 14 18 30 74 49 44 60
REMARK Flexibility Score: inf
ROOT
ATOM      1  C   UNL A   1      32.566  28.266  26.019  1.00  0.00     0.023 C 
ENDROOT
BRANCH   1   2
ATOM      2  C   UNL A   1      32.792  28.010  24.526  1.00  0.00     0.023 C 
BRANCH   2   3
ATOM      3  C   UNL A   1      33.753  26.861  24.221  1.00  0.00     0.116 C 
BRANCH   3   4
ATOM      4  N   UNL A   1      33.083  25.784  23.518  1.00  0.00    -0.351 N 
ATOM      5  C   UNL A   1      32.216  24.817  23.915  1.00  0.00     0.278 C 
ATOM      6  O   UNL A   1      31.911  23.975  23.056  1.00  0.00    -0.268 OA
ATOM      7  H   UNL A   1      33.300  25.746  22.559  1.00  0.00     0.163 HD
BRANCH   5   8
ATOM      8  C   UNL A   1      31.572  24.708  25.305  1.00  0.00     0.280 C 
ATOM      9  C   UNL A   1      32.443  24.030  26.389  1.00  0.00     0.093 C 
ATOM     10  C   UNL A   1      31.442  23.152  27.152  1.00  0.00     0.076 C 
ATOM     11  C   UNL A   1      30.352  22.865  26.142  1.00  0.00     0.262 C 
ATOM     12  N   UNL A   1      30.211  24.110  25.380  1.00  0.00    -0.335 N 
ATOM     13  H   UNL A   1      29.571  24.746  25.856  1.00  0.00     0.346 HD
ATOM     14  H   UNL A   1      29.830  23.934  24.450  1.00  0.00     0.346 HD
BRANCH   9  15
ATOM     15  C   UNL A   1      33.668  23.225  25.990  1.00  0.00    -0.031 A 
ATOM     16  C   UNL A   1      34.602  21.160  25.058  1.00  0.00     0.164 A 
ATOM     17  C   UNL A   1      33.515  21.903  25.558  1.00  0.00     0.055 A 
ATOM     18  C   UNL A   1      35.874  21.747  24.923  1.00  0.00     0.203 A 
ATOM     19  C   UNL A   1      36.047  23.057  25.415  1.00  0.00     0.164 A 
ATOM     20  C   UNL A   1      34.953  23.770  25.939  1.00  0.00     0.055 A 
BRANCH  16  21
ATOM     21  O   UNL A   1      34.318  19.906  24.578  1.00  0.00    -0.493 OA
ATOM     22  C   UNL A   1      33.225  19.305  25.278  1.00  0.00     0.278 C 
ENDBRANCH  16  21
BRANCH  18  23
ATOM     23  O   UNL A   1      36.945  21.196  24.277  1.00  0.00    -0.490 OA
ATOM     24  C   UNL A   1      37.625  20.083  24.827  1.00  0.00     0.278 C 
ENDBRANCH  18  23
BRANCH  19  25
ATOM     25  O   UNL A   1      37.191  23.820  25.429  1.00  0.00    -0.493 OA
ATOM     26  C   UNL A   1      38.262  23.440  26.281  1.00  0.00     0.278 C 
ENDBRANCH  19  25
ENDBRANCH   9  15
ENDBRANCH   5   8
ENDBRANCH   3   4
ENDBRANCH   2   3
ENDBRANCH   1   2
BRANCH   1  27
ATOM     27  C   UNL A   1      33.802  28.703  26.801  1.00  0.00     0.116 C 
BRANCH  27  28
ATOM     28  N   UNL A   1      33.653  30.011  27.422  1.00  0.00    -0.352 N 
ATOM     29  C   UNL A   1      34.538  30.694  28.226  1.00  0.00     0.251 C 
ATOM     30  H   UNL A   1      32.802  30.471  27.242  1.00  0.00     0.163 HD
ATOM     31  O   UNL A   1      34.202  31.738  28.765  1.00  0.00    -0.269 OA
BRANCH  29  32
ATOM     32  C   UNL A   1      35.886  30.130  28.461  1.00  0.00     0.039 A 
ATOM     33  C   UNL A   1      36.823  30.173  27.425  1.00  0.00     0.014 A 
ATOM     34  C   UNL A   1      36.230  29.586  29.701  1.00  0.00     0.014 A 
ATOM     35  C   UNL A   1      38.130  29.737  27.659  1.00  0.00     0.010 A 
ATOM     36  C   UNL A   1      37.548  29.212  29.950  1.00  0.00     0.010 A 
ATOM     37  C   UNL A   1      38.512  29.289  28.934  1.00  0.00    -0.014 A 
BRANCH  37  38
ATOM     38  C   UNL A   1      39.920  28.912  29.228  1.00  0.00     0.031 A 
ATOM     39  C   UNL A   1      40.863  29.919  29.830  1.00  0.00     0.074 A 
ATOM     40  C   UNL A   1      40.368  27.688  28.879  1.00  0.00     0.049 A 
ATOM     41  N   UNL A   1      42.139  29.798  30.090  1.00  0.00    -0.248 NA
ATOM     42  C   UNL A   1      40.308  31.242  30.161  1.00  0.00     0.031 C 
ATOM     43  C   UNL A   1      39.567  26.639  28.241  1.00  0.00     0.029 A 
ATOM     44  N   UNL A   1      41.614  27.122  29.001  1.00  0.00    -0.354 N 
ATOM     45  C   UNL A   1      42.545  31.032  30.584  1.00  0.00     0.074 A 
ATOM     46  C   UNL A   1      41.387  31.899  30.560  1.00  0.00     0.031 C 
ATOM     47  C   UNL A   1      40.336  25.555  28.045  1.00  0.00     0.029 A 
ATOM     48  C   UNL A   1      41.690  25.840  28.506  1.00  0.00     0.049 A 
ATOM     49  H   UNL A   1      42.380  27.589  29.405  1.00  0.00     0.167 HD
ATOM     50  C   UNL A   1      43.768  31.404  31.030  1.00  0.00     0.031 A 
ATOM     51  C   UNL A   1      42.736  24.993  28.422  1.00  0.00     0.031 A 
ATOM     52  C   UNL A   1      44.907  30.529  31.088  1.00  0.00     0.049 A 
ATOM     53  C   UNL A   1      44.078  25.431  28.945  1.00  0.00     0.074 A 
ATOM     54  C   UNL A   1      46.162  30.790  31.612  1.00  0.00     0.029 A 
ATOM     55  N   UNL A   1      44.934  29.229  30.612  1.00  0.00    -0.354 N 
ATOM     56  N   UNL A   1      44.416  26.573  29.495  1.00  0.00    -0.248 NA
ATOM     57  C   UNL A   1      45.179  24.462  28.845  1.00  0.00     0.031 C 
ATOM     58  C   UNL A   1      46.964  29.663  31.406  1.00  0.00     0.029 A 
ATOM     59  C   UNL A   1      46.192  28.683  30.803  1.00  0.00     0.049 A 
ATOM     60  H   UNL A   1      44.172  28.761  30.199  1.00  0.00     0.167 HD
ATOM     61  C   UNL A   1      45.757  26.445  29.837  1.00  0.00     0.074 A 
ATOM     62  C   UNL A   1      46.165  25.112  29.445  1.00  0.00     0.031 C 
ATOM     63  C   UNL A   1      46.579  27.349  30.423  1.00  0.00     0.031 A 
BRANCH  50  64
ATOM     64  C   UNL A   1      43.949  32.824  31.495  1.00  0.00    -0.014 A 
ATOM     65  C   UNL A   1      43.771  33.176  32.843  1.00  0.00     0.010 A 
ATOM     66  C   UNL A   1      44.398  33.799  30.585  1.00  0.00     0.010 A 
ATOM     67  C   UNL A   1      44.019  34.483  33.272  1.00  0.00     0.020 A 
ATOM     68  C   UNL A   1      44.671  35.102  31.014  1.00  0.00     0.020 A 
ATOM     69  C   UNL A   1      44.472  35.437  32.354  1.00  0.00     0.054 A 
BRANCH  69  70
ATOM     70  S   UNL A   1      44.851  37.107  32.952  1.00  0.00     0.124 S 
ATOM     71  O   UNL A   1      44.315  37.940  31.877  1.00  0.00    -0.237 OA
ATOM     72  O   UNL A   1      44.123  37.168  34.216  1.00  0.00    -0.237 OA
ATOM     73  O   UNL A   1      46.306  37.110  33.073  1.00  0.00    -0.744 OA
ENDBRANCH  69  70
ENDBRANCH  50  64
BRANCH  51  74
ATOM     74  C   UNL A   1      42.568  23.642  27.819  1.00  0.00    -0.014 A 
ATOM     75  C   UNL A   1      42.227  22.539  28.622  1.00  0.00     0.010 A 
ATOM     76  C   UNL A   1      42.786  23.445  26.444  1.00  0.00     0.010 A 
ATOM     77  C   UNL A   1      42.152  21.257  28.069  1.00  0.00     0.020 A 
ATOM     78  C   UNL A   1      42.681  22.168  25.882  1.00  0.00     0.020 A 
ATOM     79  C   UNL A   1      42.387  21.079  26.703  1.00  0.00     0.054 A 
BRANCH  79  80
ATOM     80  S   UNL A   1      42.281  19.409  26.004  1.00  0.00     0.124 S 
ATOM     81  O   UNL A   1      43.171  19.507  24.852  1.00  0.00    -0.237 OA
ATOM     82  O   UNL A   1      42.757  18.572  27.103  1.00  0.00    -0.237 OA
ATOM     83  O   UNL A   1      40.862  19.261  25.689  1.00  0.00    -0.744 OA
ENDBRANCH  79  80
ENDBRANCH  51  74
BRANCH  63  84
ATOM     84  C   UNL A   1      47.989  26.918  30.722  1.00  0.00    -0.014 A 
ATOM     85  C   UNL A   1      49.044  27.213  29.841  1.00  0.00     0.010 A 
ATOM     86  C   UNL A   1      48.267  26.257  31.932  1.00  0.00     0.010 A 
ATOM     87  C   UNL A   1      50.351  26.826  30.153  1.00  0.00     0.020 A 
ATOM     88  C   UNL A   1      49.575  25.894  32.260  1.00  0.00     0.020 A 
ATOM     89  C   UNL A   1      50.607  26.168  31.360  1.00  0.00     0.054 A 
BRANCH  89  90
ATOM     90  S   UNL A   1      52.318  25.717  31.764  1.00  0.00     0.124 S 
ATOM     91  O   UNL A   1      52.176  24.322  32.169  1.00  0.00    -0.237 OA
ATOM     92  O   UNL A   1      53.015  25.937  30.499  1.00  0.00    -0.237 OA
ATOM     93  O   UNL A   1      52.676  26.645  32.835  1.00  0.00    -0.744 OA
ENDBRANCH  89  90
ENDBRANCH  63  84
ENDBRANCH  37  38
ENDBRANCH  29  32
ENDBRANCH  27  28
ENDBRANCH   1  27
TORSDOF 18
ENDMDL
MODEL 2
REMARK VINA RESULT:     -10.1      3.329      9.179
REMARK SMILES COc1cc([C@@H]2CC[NH2+][C@@H]2C(=O)NCCCCNC(=O)c2ccc(-c3c4nc(c(-c5ccc(S(=O)(=O)[O-])cc5)c5ccc([nH]5)c(-c5ccc(S(=O)(=O)[O-])cc5)c5nc(c(-c6ccc(S(=O)(=O)[O-])cc6)c6ccc3[nH]6)C=C5)C=C4)cc2)cc(OC)c1OC
REMARK SMILES IDX 16 1 15 2 14 3 13 4 11 5 12 6 10 8 6 9 7 10 8 11 9 12 5 15
REMARK SMILES IDX 3 16 4 17 85 18 82 19 81 20 2 21 1 22 86 23 87 24 83 25
REMARK SMILES IDX 84 26 17 27 18 28 19 29 20 31 21 32 22 33 80 34 23 35 79 36
REMARK SMILES IDX 24 37 25 38 26 39 73 40 27 41 78 42 72 43 74 44 28 45 77 46
REMARK SMILES IDX 71 47 70 48 29 50 59 51 40 52 58 53 41 54 44 55 57 56 75 57
REMARK SMILES IDX 42 58 43 59 56 61 76 62 45 63 30 64 31 65 39 66 32 67 38 68
REMARK SMILES IDX 33 69 34 70 35 71 36 72 37 73 60 74 61 75 69 76 62 77 68 78
REMARK SMILES IDX 63 79 64 80 65 81 66 82 67 83 46 84 47 85 55 86 48 87 54 88
REMARK SMILES IDX 49 89 50 90 51 91 52 92 53 93
REMARK H PARENT 13 7 9 13 9 14 18 30 74 49 44 60
REMARK Flexibility Score: inf
ROOT
ATOM      1  C   UNL A   1      38.089  20.465  25.158  1.00  0.00     0.023 C 
ENDROOT
BRANCH   1   2
ATOM      2  C   UNL A   1      37.397  21.664  24.504  1.00  0.00     0.023 C 
BRANCH   2   3
ATOM      3  C   UNL A   1      37.025  22.785  25.473  1.00  0.00     0.116 C 
BRANCH   3   4
ATOM      4  N   UNL A   1      36.095  22.322  26.486  1.00  0.00    -0.351 N 
ATOM      5  C   UNL A   1      34.972  21.559  26.433  1.00  0.00     0.278 C 
ATOM      6  O   UNL A   1      34.348  21.439  27.499  1.00  0.00    -0.268 OA
ATOM      7  H   UNL A   1      36.325  22.619  27.395  1.00  0.00     0.163 HD
BRANCH   5   8
ATOM      8  C   UNL A   1      34.447  20.825  25.191  1.00  0.00     0.280 C 
ATOM      9  C   UNL A   1      33.644  21.694  24.195  1.00  0.00     0.093 C 
ATOM     10  C   UNL A   1      32.485  20.779  23.777  1.00  0.00     0.076 C 
ATOM     11  C   UNL A   1      32.315  19.835  24.947  1.00  0.00     0.262 C 
ATOM     12  N   UNL A   1      33.678  19.570  25.417  1.00  0.00    -0.335 N 
ATOM     13  H   UNL A   1      34.092  18.802  24.888  1.00  0.00     0.346 HD
ATOM     14  H   UNL A   1      33.686  19.301  26.401  1.00  0.00     0.346 HD
BRANCH   9  15
ATOM     15  C   UNL A   1      33.124  23.058  24.618  1.00  0.00    -0.031 A 
ATOM     16  C   UNL A   1      33.164  25.491  24.337  1.00  0.00     0.164 A 
ATOM     17  C   UNL A   1      33.694  24.214  24.074  1.00  0.00     0.055 A 
ATOM     18  C   UNL A   1      32.002  25.642  25.115  1.00  0.00     0.203 A 
ATOM     19  C   UNL A   1      31.461  24.487  25.717  1.00  0.00     0.164 A 
ATOM     20  C   UNL A   1      32.026  23.223  25.465  1.00  0.00     0.055 A 
BRANCH  16  21
ATOM     21  O   UNL A   1      33.747  26.544  23.677  1.00  0.00    -0.493 OA
ATOM     22  C   UNL A   1      33.414  26.547  22.286  1.00  0.00     0.278 C 
ENDBRANCH  16  21
BRANCH  18  23
ATOM     23  O   UNL A   1      31.290  26.798  25.275  1.00  0.00    -0.490 OA
ATOM     24  C   UNL A   1      30.309  27.178  24.327  1.00  0.00     0.278 C 
ENDBRANCH  18  23
BRANCH  19  25
ATOM     25  O   UNL A   1      30.364  24.387  26.540  1.00  0.00    -0.493 OA
ATOM     26  C   UNL A   1      29.942  23.102  26.971  1.00  0.00     0.278 C 
ENDBRANCH  19  25
ENDBRANCH   9  15
ENDBRANCH   5   8
ENDBRANCH   3   4
ENDBRANCH   2   3
ENDBRANCH   1   2
BRANCH   1  27
ATOM     27  C   UNL A   1      39.297  20.803  26.028  1.00  0.00     0.116 C 
BRANCH  27  28
ATOM     28  N   UNL A   1      40.216  19.687  26.191  1.00  0.00    -0.352 N 
ATOM     29  C   UNL A   1      41.574  19.708  26.413  1.00  0.00     0.251 C 
ATOM     30  H   UNL A   1      39.810  18.792  26.134  1.00  0.00     0.163 HD
ATOM     31  O   UNL A   1      42.217  18.669  26.406  1.00  0.00    -0.269 OA
BRANCH  29  32
ATOM     32  C   UNL A   1      42.253  21.007  26.623  1.00  0.00     0.039 A 
ATOM     33  C   UNL A   1      42.573  21.787  25.509  1.00  0.00     0.014 A 
ATOM     34  C   UNL A   1      42.549  21.460  27.911  1.00  0.00     0.014 A 
ATOM     35  C   UNL A   1      43.123  23.058  25.692  1.00  0.00     0.010 A 
ATOM     36  C   UNL A   1      43.038  22.751  28.093  1.00  0.00     0.010 A 
ATOM     37  C   UNL A   1      43.325  23.565  26.986  1.00  0.00    -0.014 A 
BRANCH  37  38
ATOM     38  C   UNL A   1      43.819  24.950  27.202  1.00  0.00     0.031 A 
ATOM     39  C   UNL A   1      45.269  25.281  26.971  1.00  0.00     0.074 A 
ATOM     40  C   UNL A   1      42.978  25.889  27.683  1.00  0.00     0.049 A 
ATOM     41  N   UNL A   1      45.897  26.410  27.173  1.00  0.00    -0.248 NA
ATOM     42  C   UNL A   1      46.131  24.198  26.469  1.00  0.00     0.031 C 
ATOM     43  C   UNL A   1      41.562  25.682  27.999  1.00  0.00     0.029 A 
ATOM     44  N   UNL A   1      43.196  27.207  28.004  1.00  0.00    -0.354 N 
ATOM     45  C   UNL A   1      47.228  26.167  26.855  1.00  0.00     0.074 A 
ATOM     46  C   UNL A   1      47.325  24.775  26.475  1.00  0.00     0.031 C 
ATOM     47  C   UNL A   1      41.036  26.834  28.448  1.00  0.00     0.029 A 
ATOM     48  C   UNL A   1      42.081  27.851  28.491  1.00  0.00     0.049 A 
ATOM     49  H   UNL A   1      44.068  27.651  27.894  1.00  0.00     0.167 HD
ATOM     50  C   UNL A   1      48.272  27.029  26.866  1.00  0.00     0.031 A 
ATOM     51  C   UNL A   1      41.921  29.114  28.934  1.00  0.00     0.031 A 
ATOM     52  C   UNL A   1      48.166  28.421  27.208  1.00  0.00     0.049 A 
ATOM     53  C   UNL A   1      43.097  30.053  28.915  1.00  0.00     0.074 A 
ATOM     54  C   UNL A   1      49.151  29.393  27.158  1.00  0.00     0.029 A 
ATOM     55  N   UNL A   1      47.014  29.042  27.661  1.00  0.00    -0.354 N 
ATOM     56  N   UNL A   1      44.327  29.825  28.520  1.00  0.00    -0.248 NA
ATOM     57  C   UNL A   1      42.862  31.424  29.392  1.00  0.00     0.031 C 
ATOM     58  C   UNL A   1      48.606  30.591  27.629  1.00  0.00     0.029 A 
ATOM     59  C   UNL A   1      47.269  30.377  27.921  1.00  0.00     0.049 A 
ATOM     60  H   UNL A   1      46.142  28.599  27.780  1.00  0.00     0.167 HD
ATOM     61  C   UNL A   1      45.001  31.032  28.669  1.00  0.00     0.074 A 
ATOM     62  C   UNL A   1      44.041  31.989  29.176  1.00  0.00     0.031 C 
ATOM     63  C   UNL A   1      46.299  31.323  28.410  1.00  0.00     0.031 A 
BRANCH  50  64
ATOM     64  C   UNL A   1      49.632  26.498  26.497  1.00  0.00    -0.014 A 
ATOM     65  C   UNL A   1      50.111  26.582  25.179  1.00  0.00     0.010 A 
ATOM     66  C   UNL A   1      50.476  25.996  27.505  1.00  0.00     0.010 A 
ATOM     67  C   UNL A   1      51.406  26.155  24.870  1.00  0.00     0.020 A 
ATOM     68  C   UNL A   1      51.780  25.591  27.204  1.00  0.00     0.020 A 
ATOM     69  C   UNL A   1      52.234  25.666  25.886  1.00  0.00     0.054 A 
BRANCH  69  70
ATOM     70  S   UNL A   1      53.932  25.184  25.467  1.00  0.00     0.124 S 
ATOM     71  O   UNL A   1      53.717  23.949  24.716  1.00  0.00    -0.237 OA
ATOM     72  O   UNL A   1      54.404  26.321  24.683  1.00  0.00    -0.237 OA
ATOM     73  O   UNL A   1      54.575  25.017  26.767  1.00  0.00    -0.744 OA
ENDBRANCH  69  70
ENDBRANCH  50  64
BRANCH  51  74
ATOM     74  C   UNL A   1      40.598  29.576  29.437  1.00  0.00    -0.014 A 
ATOM     75  C   UNL A   1      39.566  29.902  28.539  1.00  0.00     0.010 A 
ATOM     76  C   UNL A   1      40.376  29.730  30.818  1.00  0.00     0.010 A 
ATOM     77  C   UNL A   1      38.353  30.415  29.008  1.00  0.00     0.020 A 
ATOM     78  C   UNL A   1      39.153  30.214  31.292  1.00  0.00     0.020 A 
ATOM     79  C   UNL A   1      38.158  30.575  30.383  1.00  0.00     0.054 A 
BRANCH  79  80
ATOM     80  S   UNL A   1      36.576  31.239  30.974  1.00  0.00     0.124 S 
ATOM     81  O   UNL A   1      35.978  30.071  31.611  1.00  0.00    -0.237 OA
ATOM     82  O   UNL A   1      36.996  32.309  31.876  1.00  0.00    -0.237 OA
ATOM     83  O   UNL A   1      35.919  31.692  29.750  1.00  0.00    -0.744 OA
ENDBRANCH  79  80
ENDBRANCH  51  74
BRANCH  63  84
ATOM     84  C   UNL A   1      46.750  32.742  28.622  1.00  0.00    -0.014 A 
ATOM     85  C   UNL A   1      46.636  33.704  27.604  1.00  0.00     0.010 A 
ATOM     86  C   UNL A   1      47.244  33.129  29.882  1.00  0.00     0.010 A 
ATOM     87  C   UNL A   1      47.036  35.024  27.833  1.00  0.00     0.020 A 
ATOM     88  C   UNL A   1      47.619  34.452  30.123  1.00  0.00     0.020 A 
ATOM     89  C   UNL A   1      47.526  35.389  29.091  1.00  0.00     0.054 A 
BRANCH  89  90
ATOM     90  S   UNL A   1      47.995  37.117  29.379  1.00  0.00     0.124 S 
ATOM     91  O   UNL A   1      46.740  37.818  29.128  1.00  0.00    -0.237 OA
ATOM     92  O   UNL A   1      48.441  37.103  30.770  1.00  0.00    -0.237 OA
ATOM     93  O   UNL A   1      49.050  37.357  28.396  1.00  0.00    -0.744 OA
ENDBRANCH  89  90
ENDBRANCH  63  84
ENDBRANCH  37  38
ENDBRANCH  29  32
ENDBRANCH  27  28
ENDBRANCH   1  27
TORSDOF 18
ENDMDL
MODEL 3
REMARK VINA RESULT:      -9.9      3.555      8.132
REMARK SMILES COc1cc([C@@H]2CC[NH2+][C@@H]2C(=O)NCCCCNC(=O)c2ccc(-c3c4nc(c(-c5ccc(S(=O)(=O)[O-])cc5)c5ccc([nH]5)c(-c5ccc(S(=O)(=O)[O-])cc5)c5nc(c(-c6ccc(S(=O)(=O)[O-])cc6)c6ccc3[nH]6)C=C5)C=C4)cc2)cc(OC)c1OC
REMARK SMILES IDX 16 1 15 2 14 3 13 4 11 5 12 6 10 8 6 9 7 10 8 11 9 12 5 15
REMARK SMILES IDX 3 16 4 17 85 18 82 19 81 20 2 21 1 22 86 23 87 24 83 25
REMARK SMILES IDX 84 26 17 27 18 28 19 29 20 31 21 32 22 33 80 34 23 35 79 36
REMARK SMILES IDX 24 37 25 38 26 39 73 40 27 41 78 42 72 43 74 44 28 45 77 46
REMARK SMILES IDX 71 47 70 48 29 50 59 51 40 52 58 53 41 54 44 55 57 56 75 57
REMARK SMILES IDX 42 58 43 59 56 61 76 62 45 63 30 64 31 65 39 66 32 67 38 68
REMARK SMILES IDX 33 69 34 70 35 71 36 72 37 73 60 74 61 75 69 76 62 77 68 78
REMARK SMILES IDX 63 79 64 80 65 81 66 82 67 83 46 84 47 85 55 86 48 87 54 88
REMARK SMILES IDX 49 89 50 90 51 91 52 92 53 93
REMARK H PARENT 13 7 9 13 9 14 18 30 74 49 44 60
REMARK Flexibility Score: inf
ROOT
ATOM      1  C   UNL A   1      38.254  20.066  25.023  1.00  0.00     0.023 C 
ENDROOT
BRANCH   1   2
ATOM      2  C   UNL A   1      37.395  21.228  24.513  1.00  0.00     0.023 C 
BRANCH   2   3
ATOM      3  C   UNL A   1      37.207  22.364  25.518  1.00  0.00     0.116 C 
BRANCH   3   4
ATOM      4  N   UNL A   1      36.190  22.039  26.499  1.00  0.00    -0.351 N 
ATOM      5  C   UNL A   1      34.961  21.469  26.405  1.00  0.00     0.278 C 
ATOM      6  O   UNL A   1      34.299  21.433  27.454  1.00  0.00    -0.268 OA
ATOM      7  H   UNL A   1      36.442  22.280  27.420  1.00  0.00     0.163 HD
BRANCH   5   8
ATOM      8  C   UNL A   1      34.356  20.850  25.137  1.00  0.00     0.280 C 
ATOM      9  C   UNL A   1      33.385  21.762  24.351  1.00  0.00     0.093 C 
ATOM     10  C   UNL A   1      32.257  20.808  23.935  1.00  0.00     0.076 C 
ATOM     11  C   UNL A   1      32.289  19.715  24.981  1.00  0.00     0.262 C 
ATOM     12  N   UNL A   1      33.712  19.515  25.271  1.00  0.00    -0.335 N 
ATOM     13  H   UNL A   1      34.119  18.857  24.606  1.00  0.00     0.346 HD
ATOM     14  H   UNL A   1      33.849  19.128  26.205  1.00  0.00     0.346 HD
BRANCH   9  15
ATOM     15  C   UNL A   1      32.816  23.012  25.001  1.00  0.00    -0.031 A 
ATOM     16  C   UNL A   1      32.697  25.458  25.084  1.00  0.00     0.164 A 
ATOM     17  C   UNL A   1      33.281  24.270  24.604  1.00  0.00     0.055 A 
ATOM     18  C   UNL A   1      31.582  25.416  25.940  1.00  0.00     0.203 A 
ATOM     19  C   UNL A   1      31.150  24.153  26.394  1.00  0.00     0.164 A 
ATOM     20  C   UNL A   1      31.769  22.980  25.924  1.00  0.00     0.055 A 
BRANCH  16  21
ATOM     21  O   UNL A   1      33.173  26.632  24.555  1.00  0.00    -0.493 OA
ATOM     22  C   UNL A   1      33.578  26.475  23.193  1.00  0.00     0.278 C 
ENDBRANCH  16  21
BRANCH  18  23
ATOM     23  O   UNL A   1      30.816  26.486  26.311  1.00  0.00    -0.490 OA
ATOM     24  C   UNL A   1      31.402  27.606  26.949  1.00  0.00     0.278 C 
ENDBRANCH  18  23
BRANCH  19  25
ATOM     25  O   UNL A   1      30.117  23.862  27.254  1.00  0.00    -0.493 OA
ATOM     26  C   UNL A   1      29.477  22.598  27.158  1.00  0.00     0.278 C 
ENDBRANCH  19  25
ENDBRANCH   9  15
ENDBRANCH   5   8
ENDBRANCH   3   4
ENDBRANCH   2   3
ENDBRANCH   1   2
BRANCH   1  27
ATOM     27  C   UNL A   1      39.281  20.434  26.090  1.00  0.00     0.116 C 
BRANCH  27  28
ATOM     28  N   UNL A   1      40.424  19.534  26.118  1.00  0.00    -0.352 N 
ATOM     29  C   UNL A   1      41.757  19.831  26.287  1.00  0.00     0.251 C 
ATOM     30  H   UNL A   1      40.214  18.579  26.000  1.00  0.00     0.163 HD
ATOM     31  O   UNL A   1      42.604  18.959  26.164  1.00  0.00    -0.269 OA
BRANCH  29  32
ATOM     32  C   UNL A   1      42.156  21.226  26.583  1.00  0.00     0.039 A 
ATOM     33  C   UNL A   1      42.538  21.555  27.886  1.00  0.00     0.014 A 
ATOM     34  C   UNL A   1      42.176  22.194  25.576  1.00  0.00     0.014 A 
ATOM     35  C   UNL A   1      43.013  22.839  28.162  1.00  0.00     0.010 A 
ATOM     36  C   UNL A   1      42.709  23.453  25.840  1.00  0.00     0.010 A 
ATOM     37  C   UNL A   1      43.137  23.787  27.133  1.00  0.00    -0.014 A 
BRANCH  37  38
ATOM     38  C   UNL A   1      43.729  25.127  27.387  1.00  0.00     0.031 A 
ATOM     39  C   UNL A   1      42.882  26.231  27.961  1.00  0.00     0.074 A 
ATOM     40  C   UNL A   1      45.006  25.370  27.027  1.00  0.00     0.049 A 
ATOM     41  N   UNL A   1      43.200  27.480  28.185  1.00  0.00    -0.248 NA
ATOM     42  C   UNL A   1      41.490  25.897  28.308  1.00  0.00     0.031 C 
ATOM     43  C   UNL A   1      45.916  24.399  26.412  1.00  0.00     0.029 A 
ATOM     44  N   UNL A   1      45.758  26.516  27.113  1.00  0.00    -0.354 N 
ATOM     45  C   UNL A   1      42.046  28.086  28.667  1.00  0.00     0.074 A 
ATOM     46  C   UNL A   1      41.010  27.077  28.675  1.00  0.00     0.031 C 
ATOM     47  C   UNL A   1      47.105  24.984  26.195  1.00  0.00     0.029 A 
ATOM     48  C   UNL A   1      47.035  26.379  26.617  1.00  0.00     0.049 A 
ATOM     49  H   UNL A   1      45.417  27.356  27.495  1.00  0.00     0.167 HD
ATOM     50  C   UNL A   1      41.870  29.364  29.078  1.00  0.00     0.031 A 
ATOM     51  C   UNL A   1      48.033  27.278  26.504  1.00  0.00     0.031 A 
ATOM     52  C   UNL A   1      42.911  30.355  29.104  1.00  0.00     0.049 A 
ATOM     53  C   UNL A   1      47.810  28.686  26.988  1.00  0.00     0.074 A 
ATOM     54  C   UNL A   1      42.850  31.650  29.591  1.00  0.00     0.029 A 
ATOM     55  N   UNL A   1      44.198  30.167  28.628  1.00  0.00    -0.354 N 
ATOM     56  N   UNL A   1      46.737  29.212  27.527  1.00  0.00    -0.248 NA
ATOM     57  C   UNL A   1      48.938  29.620  26.857  1.00  0.00     0.031 C 
ATOM     58  C   UNL A   1      44.086  32.261  29.363  1.00  0.00     0.029 A 
ATOM     59  C   UNL A   1      44.933  31.330  28.783  1.00  0.00     0.049 A 
ATOM     60  H   UNL A   1      44.540  29.330  28.237  1.00  0.00     0.167 HD
ATOM     61  C   UNL A   1      47.073  30.526  27.831  1.00  0.00     0.074 A 
ATOM     62  C   UNL A   1      48.451  30.712  27.429  1.00  0.00     0.031 C 
ATOM     63  C   UNL A   1      46.308  31.495  28.393  1.00  0.00     0.031 A 
BRANCH  50  64
ATOM     64  C   UNL A   1      40.497  29.777  29.536  1.00  0.00    -0.014 A 
ATOM     65  C   UNL A   1      40.225  30.015  30.894  1.00  0.00     0.010 A 
ATOM     66  C   UNL A   1      39.491  30.020  28.582  1.00  0.00     0.010 A 
ATOM     67  C   UNL A   1      38.966  30.473  31.294  1.00  0.00     0.020 A 
ATOM     68  C   UNL A   1      38.238  30.501  28.975  1.00  0.00     0.020 A 
ATOM     69  C   UNL A   1      37.982  30.716  30.330  1.00  0.00     0.054 A 
BRANCH  69  70
ATOM     70  S   UNL A   1      36.380  31.375  30.870  1.00  0.00     0.124 S 
ATOM     71  O   UNL A   1      35.900  30.311  31.750  1.00  0.00    -0.237 OA
ATOM     72  O   UNL A   1      36.753  32.619  31.536  1.00  0.00    -0.237 OA
ATOM     73  O   UNL A   1      35.634  31.537  29.626  1.00  0.00    -0.744 OA
ENDBRANCH  69  70
ENDBRANCH  50  64
BRANCH  51  74
ATOM     74  C   UNL A   1      49.339  26.885  25.907  1.00  0.00    -0.014 A 
ATOM     75  C   UNL A   1      50.283  26.167  26.662  1.00  0.00     0.010 A 
ATOM     76  C   UNL A   1      49.662  27.263  24.591  1.00  0.00     0.010 A 
ATOM     77  C   UNL A   1      51.541  25.872  26.129  1.00  0.00     0.020 A 
ATOM     78  C   UNL A   1      50.909  26.943  24.043  1.00  0.00     0.020 A 
ATOM     79  C   UNL A   1      51.849  26.269  24.825  1.00  0.00     0.054 A 
BRANCH  79  80
ATOM     80  S   UNL A   1      53.485  25.875  24.149  1.00  0.00     0.124 S 
ATOM     81  O   UNL A   1      53.718  24.537  24.684  1.00  0.00    -0.237 OA
ATOM     82  O   UNL A   1      53.261  25.950  22.707  1.00  0.00    -0.237 OA
ATOM     83  O   UNL A   1      54.341  26.926  24.693  1.00  0.00    -0.744 OA
ENDBRANCH  79  80
ENDBRANCH  51  74
BRANCH  63  84
ATOM     84  C   UNL A   1      46.954  32.828  28.652  1.00  0.00    -0.014 A 
ATOM     85  C   UNL A   1      47.769  33.038  29.778  1.00  0.00     0.010 A 
ATOM     86  C   UNL A   1      46.787  33.869  27.720  1.00  0.00     0.010 A 
ATOM     87  C   UNL A   1      48.381  34.278  29.984  1.00  0.00     0.020 A 
ATOM     88  C   UNL A   1      47.420  35.100  27.908  1.00  0.00     0.020 A 
ATOM     89  C   UNL A   1      48.202  35.301  29.047  1.00  0.00     0.054 A 
BRANCH  89  90
ATOM     90  S   UNL A   1      49.044  36.886  29.312  1.00  0.00     0.124 S 
ATOM     91  O   UNL A   1      48.004  37.846  28.954  1.00  0.00    -0.237 OA
ATOM     92  O   UNL A   1      49.390  36.834  30.730  1.00  0.00    -0.237 OA
ATOM     93  O   UNL A   1      50.182  36.830  28.396  1.00  0.00    -0.744 OA
ENDBRANCH  89  90
ENDBRANCH  63  84
ENDBRANCH  37  38
ENDBRANCH  29  32
ENDBRANCH  27  28
ENDBRANCH   1  27
TORSDOF 18
ENDMDL
