MODEL 1
REMARK VINA RESULT:     -10.9      0.000      0.000
REMARK SMILES Cn1cc(S(=O)(=O)N2CCC(C(=O)NCCCCNC(=O)c3ccc(-c4c5nc(c(-c6ccc(S(=O)(=O)[O-])cc6)c6ccc([nH]6)c(-c6ccc(S(=O)(=O)[O-])cc6)c6nc(c(-c7ccc(S(=O)(=O)[O-])cc7)c7ccc4[nH]7)C=C6)C=C5)cc3)CC2)cc1C(=O)N1CCCCC1
REMARK SMILES IDX 16 1 15 2 14 3 12 4 13 5 11 7 8 8 9 9 83 10 10 11 82 12 5 13
REMARK SMILES IDX 6 14 7 15 4 16 1 17 2 18 3 19 85 20 84 21 86 22 87 23 88 24
REMARK SMILES IDX 89 25 93 26 90 27 92 28 91 29 17 30 18 31 19 32 20 33 21 35
REMARK SMILES IDX 22 36 23 37 81 38 24 39 80 40 25 41 26 42 27 43 74 44 28 45
REMARK SMILES IDX 79 46 73 47 75 48 29 49 78 50 72 51 71 52 30 54 60 55 41 56
REMARK SMILES IDX 59 57 42 58 45 59 58 60 76 61 43 62 44 63 57 65 77 66 46 67
REMARK SMILES IDX 31 68 32 69 40 70 33 71 39 72 34 73 35 74 36 75 37 76 38 77
REMARK SMILES IDX 61 78 62 79 70 80 63 81 69 82 64 83 65 84 66 85 67 86 68 87
REMARK SMILES IDX 47 88 48 89 56 90 49 91 55 92 50 93 51 94 52 95 53 96 54 97
REMARK H PARENT 14 6 19 34 75 53 45 64
REMARK Flexibility Score: inf
ROOT
ATOM      1  C   UNL A   1      35.926  30.624  28.870  1.00  0.00     0.023 C 
ENDROOT
BRANCH   1   2
ATOM      2  C   UNL A   1      35.293  30.431  27.495  1.00  0.00     0.116 C 
BRANCH   2   3
ATOM      3  N   UNL A   1      34.058  31.181  27.357  1.00  0.00    -0.356 N 
ATOM      4  C   UNL A   1      32.831  30.807  26.908  1.00  0.00     0.223 C 
ATOM      5  O   UNL A   1      31.939  31.658  26.885  1.00  0.00    -0.275 OA
ATOM      6  H   UNL A   1      34.119  32.123  27.637  1.00  0.00     0.163 HD
BRANCH   4   7
ATOM      7  C   UNL A   1      32.532  29.383  26.469  1.00  0.00     0.081 C 
ATOM      8  N   UNL A   1      30.730  27.270  25.731  1.00  0.00    -0.198 NA
ATOM      9  C   UNL A   1      31.427  27.187  27.039  1.00  0.00     0.103 C 
ATOM     10  C   UNL A   1      31.511  27.935  24.665  1.00  0.00     0.103 C 
ATOM     11  C   UNL A   1      31.782  28.580  27.532  1.00  0.00     0.030 C 
ATOM     12  C   UNL A   1      31.879  29.349  25.085  1.00  0.00     0.030 C 
BRANCH   8  13
ATOM     13  S   UNL A   1      29.893  25.861  25.256  1.00  0.00     0.244 S 
ATOM     14  O   UNL A   1      29.114  26.147  24.072  1.00  0.00    -0.207 OA
ATOM     15  O   UNL A   1      29.296  25.266  26.434  1.00  0.00    -0.207 OA
BRANCH  13  16
ATOM     16  C   UNL A   1      31.013  24.649  24.726  1.00  0.00     0.101 A 
ATOM     17  C   UNL A   1      31.898  21.878  22.594  1.00  0.00     0.150 C 
ATOM     18  N   UNL A   1      31.866  22.940  23.576  1.00  0.00    -0.345 N 
ATOM     19  C   UNL A   1      30.925  23.941  23.545  1.00  0.00     0.107 A 
ATOM     20  C   UNL A   1      32.606  23.023  24.741  1.00  0.00     0.108 A 
ATOM     21  C   UNL A   1      32.117  24.124  25.432  1.00  0.00     0.055 A 
BRANCH  20  22
ATOM     22  C   UNL A   1      33.536  22.055  25.300  1.00  0.00     0.270 C 
ATOM     23  O   UNL A   1      33.238  21.437  26.323  1.00  0.00    -0.267 OA
ATOM     24  N   UNL A   1      34.733  21.801  24.645  1.00  0.00    -0.337 N 
ATOM     25  C   UNL A   1      35.369  20.503  24.846  1.00  0.00     0.120 C 
ATOM     26  C   UNL A   1      35.480  22.779  23.856  1.00  0.00     0.120 C 
ATOM     27  C   UNL A   1      36.781  20.643  25.395  1.00  0.00     0.022 C 
ATOM     28  C   UNL A   1      36.911  22.932  24.377  1.00  0.00     0.022 C 
ATOM     29  C   UNL A   1      37.606  21.578  24.514  1.00  0.00     0.004 C 
ENDBRANCH  20  22
ENDBRANCH  13  16
ENDBRANCH   8  13
ENDBRANCH   4   7
ENDBRANCH   2   3
ENDBRANCH   1   2
BRANCH   1  30
ATOM     30  C   UNL A   1      36.575  29.371  29.456  1.00  0.00     0.023 C 
BRANCH  30  31
ATOM     31  C   UNL A   1      36.688  29.347  30.976  1.00  0.00     0.116 C 
BRANCH  31  32
ATOM     32  N   UNL A   1      36.643  30.670  31.581  1.00  0.00    -0.352 N 
ATOM     33  C   UNL A   1      37.684  31.531  31.828  1.00  0.00     0.251 C 
ATOM     34  H   UNL A   1      35.750  30.988  31.848  1.00  0.00     0.163 HD
ATOM     35  O   UNL A   1      37.492  32.581  32.433  1.00  0.00    -0.269 OA
BRANCH  33  36
ATOM     36  C   UNL A   1      39.045  31.156  31.395  1.00  0.00     0.039 A 
ATOM     37  C   UNL A   1      39.861  30.451  32.282  1.00  0.00     0.014 A 
ATOM     38  C   UNL A   1      39.489  31.455  30.104  1.00  0.00     0.014 A 
ATOM     39  C   UNL A   1      41.100  29.979  31.848  1.00  0.00     0.010 A 
ATOM     40  C   UNL A   1      40.697  30.932  29.655  1.00  0.00     0.010 A 
ATOM     41  C   UNL A   1      41.510  30.185  30.520  1.00  0.00    -0.014 A 
BRANCH  41  42
ATOM     42  C   UNL A   1      42.780  29.615  30.012  1.00  0.00     0.031 A 
ATOM     43  C   UNL A   1      44.025  30.456  29.988  1.00  0.00     0.074 A 
ATOM     44  C   UNL A   1      42.793  28.369  29.501  1.00  0.00     0.049 A 
ATOM     45  N   UNL A   1      45.208  30.161  29.513  1.00  0.00    -0.248 NA
ATOM     46  C   UNL A   1      43.918  31.813  30.545  1.00  0.00     0.031 C 
ATOM     47  C   UNL A   1      41.639  27.469  29.424  1.00  0.00     0.029 A 
ATOM     48  N   UNL A   1      43.814  27.645  28.939  1.00  0.00    -0.354 N 
ATOM     49  C   UNL A   1      45.979  31.303  29.690  1.00  0.00     0.074 A 
ATOM     50  C   UNL A   1      45.120  32.306  30.283  1.00  0.00     0.031 C 
ATOM     51  C   UNL A   1      42.022  26.309  28.870  1.00  0.00     0.029 A 
ATOM     52  C   UNL A   1      43.438  26.390  28.525  1.00  0.00     0.049 A 
ATOM     53  H   UNL A   1      44.730  27.992  28.842  1.00  0.00     0.167 HD
ATOM     54  C   UNL A   1      47.287  31.497  29.399  1.00  0.00     0.031 A 
ATOM     55  C   UNL A   1      44.152  25.415  27.932  1.00  0.00     0.031 A 
ATOM     56  C   UNL A   1      48.145  30.494  28.830  1.00  0.00     0.049 A 
ATOM     57  C   UNL A   1      45.609  25.641  27.643  1.00  0.00     0.074 A 
ATOM     58  C   UNL A   1      49.498  30.573  28.552  1.00  0.00     0.029 A 
ATOM     59  N   UNL A   1      47.733  29.225  28.453  1.00  0.00    -0.354 N 
ATOM     60  N   UNL A   1      46.334  26.710  27.868  1.00  0.00    -0.248 NA
ATOM     61  C   UNL A   1      46.343  24.526  27.030  1.00  0.00     0.031 C 
ATOM     62  C   UNL A   1      49.899  29.359  27.981  1.00  0.00     0.029 A 
ATOM     63  C   UNL A   1      48.801  28.514  27.935  1.00  0.00     0.049 A 
ATOM     64  H   UNL A   1      46.815  28.880  28.541  1.00  0.00     0.167 HD
ATOM     65  C   UNL A   1      47.617  26.390  27.441  1.00  0.00     0.074 A 
ATOM     66  C   UNL A   1      47.571  25.026  26.954  1.00  0.00     0.031 C 
ATOM     67  C   UNL A   1      48.734  27.158  27.453  1.00  0.00     0.031 A 
BRANCH  54  68
ATOM     68  C   UNL A   1      47.857  32.858  29.688  1.00  0.00    -0.014 A 
ATOM     69  C   UNL A   1      47.700  33.917  28.774  1.00  0.00     0.010 A 
ATOM     70  C   UNL A   1      48.561  33.082  30.884  1.00  0.00     0.010 A 
ATOM     71  C   UNL A   1      48.285  35.159  29.026  1.00  0.00     0.020 A 
ATOM     72  C   UNL A   1      49.128  34.331  31.150  1.00  0.00     0.020 A 
ATOM     73  C   UNL A   1      49.007  35.355  30.207  1.00  0.00     0.054 A 
BRANCH  73  74
ATOM     74  S   UNL A   1      49.769  36.973  30.510  1.00  0.00     0.124 S 
ATOM     75  O   UNL A   1      51.022  36.856  29.769  1.00  0.00    -0.237 OA
ATOM     76  O   UNL A   1      48.793  37.904  29.949  1.00  0.00    -0.237 OA
ATOM     77  O   UNL A   1      49.906  37.021  31.964  1.00  0.00    -0.744 OA
ENDBRANCH  73  74
ENDBRANCH  54  68
BRANCH  55  78
ATOM     78  C   UNL A   1      43.499  24.121  27.604  1.00  0.00    -0.014 A 
ATOM     79  C   UNL A   1      43.161  23.817  26.275  1.00  0.00     0.010 A 
ATOM     80  C   UNL A   1      43.247  23.173  28.612  1.00  0.00     0.010 A 
ATOM     81  C   UNL A   1      42.576  22.587  25.957  1.00  0.00     0.020 A 
ATOM     82  C   UNL A   1      42.681  21.934  28.295  1.00  0.00     0.020 A 
ATOM     83  C   UNL A   1      42.342  21.653  26.969  1.00  0.00     0.054 A 
BRANCH  83  84
ATOM     84  S   UNL A   1      41.653  20.034  26.527  1.00  0.00     0.124 S 
ATOM     85  O   UNL A   1      42.050  19.214  27.667  1.00  0.00    -0.237 OA
ATOM     86  O   UNL A   1      40.224  20.314  26.414  1.00  0.00    -0.237 OA
ATOM     87  O   UNL A   1      42.317  19.716  25.264  1.00  0.00    -0.744 OA
ENDBRANCH  83  84
ENDBRANCH  55  78
BRANCH  67  88
ATOM     88  C   UNL A   1      50.003  26.532  26.946  1.00  0.00    -0.014 A 
ATOM     89  C   UNL A   1      50.295  26.501  25.571  1.00  0.00     0.010 A 
ATOM     90  C   UNL A   1      50.937  26.016  27.862  1.00  0.00     0.010 A 
ATOM     91  C   UNL A   1      51.492  25.941  25.119  1.00  0.00     0.020 A 
ATOM     92  C   UNL A   1      52.142  25.472  27.414  1.00  0.00     0.020 A 
ATOM     93  C   UNL A   1      52.407  25.427  26.042  1.00  0.00     0.054 A 
BRANCH  93  94
ATOM     94  S   UNL A   1      53.977  24.747  25.438  1.00  0.00     0.124 S 
ATOM     95  O   UNL A   1      54.821  24.831  26.627  1.00  0.00    -0.237 OA
ATOM     96  O   UNL A   1      53.609  23.396  25.023  1.00  0.00    -0.237 OA
ATOM     97  O   UNL A   1      54.344  25.647  24.348  1.00  0.00    -0.744 OA
ENDBRANCH  93  94
ENDBRANCH  67  88
ENDBRANCH  41  42
ENDBRANCH  33  36
ENDBRANCH  31  32
ENDBRANCH  30  31
ENDBRANCH   1  30
TORSDOF 17
ENDMDL
MODEL 2
REMARK VINA RESULT:     -10.2      5.706     10.149
REMARK SMILES Cn1cc(S(=O)(=O)N2CCC(C(=O)NCCCCNC(=O)c3ccc(-c4c5nc(c(-c6ccc(S(=O)(=O)[O-])cc6)c6ccc([nH]6)c(-c6ccc(S(=O)(=O)[O-])cc6)c6nc(c(-c7ccc(S(=O)(=O)[O-])cc7)c7ccc4[nH]7)C=C6)C=C5)cc3)CC2)cc1C(=O)N1CCCCC1
REMARK SMILES IDX 16 1 15 2 14 3 12 4 13 5 11 7 8 8 9 9 83 10 10 11 82 12 5 13
REMARK SMILES IDX 6 14 7 15 4 16 1 17 2 18 3 19 85 20 84 21 86 22 87 23 88 24
REMARK SMILES IDX 89 25 93 26 90 27 92 28 91 29 17 30 18 31 19 32 20 33 21 35
REMARK SMILES IDX 22 36 23 37 81 38 24 39 80 40 25 41 26 42 27 43 74 44 28 45
REMARK SMILES IDX 79 46 73 47 75 48 29 49 78 50 72 51 71 52 30 54 60 55 41 56
REMARK SMILES IDX 59 57 42 58 45 59 58 60 76 61 43 62 44 63 57 65 77 66 46 67
REMARK SMILES IDX 31 68 32 69 40 70 33 71 39 72 34 73 35 74 36 75 37 76 38 77
REMARK SMILES IDX 61 78 62 79 70 80 63 81 69 82 64 83 65 84 66 85 67 86 68 87
REMARK SMILES IDX 47 88 48 89 56 90 49 91 55 92 50 93 51 94 52 95 53 96 54 97
REMARK H PARENT 14 6 19 34 75 53 45 64
REMARK Flexibility Score: inf
ROOT
ATOM      1  C   UNL A   1      32.441  32.246  27.364  1.00  0.00     0.023 C 
ENDROOT
BRANCH   1   2
ATOM      2  C   UNL A   1      32.028  31.042  26.523  1.00  0.00     0.116 C 
BRANCH   2   3
ATOM      3  N   UNL A   1      30.966  31.372  25.590  1.00  0.00    -0.356 N 
ATOM      4  C   UNL A   1      30.409  30.654  24.579  1.00  0.00     0.223 C 
ATOM      5  O   UNL A   1      29.510  31.182  23.921  1.00  0.00    -0.275 OA
ATOM      6  H   UNL A   1      30.582  32.271  25.710  1.00  0.00     0.163 HD
BRANCH   4   7
ATOM      7  C   UNL A   1      30.844  29.232  24.266  1.00  0.00     0.081 C 
ATOM      8  N   UNL A   1      32.000  27.242  22.544  1.00  0.00    -0.198 NA
ATOM      9  C   UNL A   1      30.537  27.209  22.788  1.00  0.00     0.103 C 
ATOM     10  C   UNL A   1      32.798  27.735  23.689  1.00  0.00     0.103 C 
ATOM     11  C   UNL A   1      30.031  28.600  23.134  1.00  0.00     0.030 C 
ATOM     12  C   UNL A   1      32.359  29.138  24.073  1.00  0.00     0.030 C 
BRANCH   8  13
ATOM     13  S   UNL A   1      32.640  25.883  21.736  1.00  0.00     0.244 S 
ATOM     14  O   UNL A   1      34.078  26.011  21.655  1.00  0.00    -0.207 OA
ATOM     15  O   UNL A   1      31.832  25.629  20.561  1.00  0.00    -0.207 OA
BRANCH  13  16
ATOM     16  C   UNL A   1      32.410  24.455  22.691  1.00  0.00     0.101 A 
ATOM     17  C   UNL A   1      31.109  22.776  25.606  1.00  0.00     0.150 C 
ATOM     18  N   UNL A   1      31.747  23.129  24.357  1.00  0.00    -0.345 N 
ATOM     19  C   UNL A   1      31.489  24.313  23.708  1.00  0.00     0.107 A 
ATOM     20  C   UNL A   1      32.792  22.469  23.737  1.00  0.00     0.108 A 
ATOM     21  C   UNL A   1      33.169  23.265  22.662  1.00  0.00     0.055 A 
BRANCH  20  22
ATOM     22  C   UNL A   1      33.547  21.318  24.205  1.00  0.00     0.270 C 
ATOM     23  O   UNL A   1      34.644  21.479  24.741  1.00  0.00    -0.267 OA
ATOM     24  N   UNL A   1      33.000  20.048  24.084  1.00  0.00    -0.337 N 
ATOM     25  C   UNL A   1      33.443  19.014  25.012  1.00  0.00     0.120 C 
ATOM     26  C   UNL A   1      32.095  19.625  23.017  1.00  0.00     0.120 C 
ATOM     27  C   UNL A   1      34.026  17.811  24.285  1.00  0.00     0.022 C 
ATOM     28  C   UNL A   1      32.649  18.406  22.274  1.00  0.00     0.022 C 
ATOM     29  C   UNL A   1      33.041  17.290  23.242  1.00  0.00     0.004 C 
ENDBRANCH  20  22
ENDBRANCH  13  16
ENDBRANCH   8  13
ENDBRANCH   4   7
ENDBRANCH   2   3
ENDBRANCH   1   2
BRANCH   1  30
ATOM     30  C   UNL A   1      33.893  32.225  27.838  1.00  0.00     0.023 C 
BRANCH  30  31
ATOM     31  C   UNL A   1      34.428  33.555  28.356  1.00  0.00     0.116 C 
BRANCH  31  32
ATOM     32  N   UNL A   1      33.467  34.290  29.165  1.00  0.00    -0.352 N 
ATOM     33  C   UNL A   1      33.513  34.557  30.512  1.00  0.00     0.251 C 
ATOM     34  H   UNL A   1      32.682  34.640  28.684  1.00  0.00     0.163 HD
ATOM     35  O   UNL A   1      32.571  35.115  31.066  1.00  0.00    -0.269 OA
BRANCH  33  36
ATOM     36  C   UNL A   1      34.690  34.124  31.291  1.00  0.00     0.039 A 
ATOM     37  C   UNL A   1      34.755  32.799  31.728  1.00  0.00     0.014 A 
ATOM     38  C   UNL A   1      35.743  35.008  31.539  1.00  0.00     0.014 A 
ATOM     39  C   UNL A   1      35.913  32.339  32.355  1.00  0.00     0.010 A 
ATOM     40  C   UNL A   1      36.919  34.532  32.110  1.00  0.00     0.010 A 
ATOM     41  C   UNL A   1      37.017  33.193  32.516  1.00  0.00    -0.014 A 
BRANCH  41  42
ATOM     42  C   UNL A   1      38.289  32.702  33.096  1.00  0.00     0.031 A 
ATOM     43  C   UNL A   1      39.208  31.843  32.274  1.00  0.00     0.074 A 
ATOM     44  C   UNL A   1      38.578  32.963  34.386  1.00  0.00     0.049 A 
ATOM     45  N   UNL A   1      40.323  31.257  32.628  1.00  0.00    -0.248 NA
ATOM     46  C   UNL A   1      38.806  31.588  30.882  1.00  0.00     0.031 C 
ATOM     47  C   UNL A   1      37.744  33.745  35.302  1.00  0.00     0.029 A 
ATOM     48  N   UNL A   1      39.652  32.589  35.153  1.00  0.00    -0.354 N 
ATOM     49  C   UNL A   1      40.743  30.544  31.512  1.00  0.00     0.074 A 
ATOM     50  C   UNL A   1      39.745  30.742  30.483  1.00  0.00     0.031 C 
ATOM     51  C   UNL A   1      38.348  33.811  36.498  1.00  0.00     0.029 A 
ATOM     52  C   UNL A   1      39.594  33.053  36.445  1.00  0.00     0.049 A 
ATOM     53  H   UNL A   1      40.393  32.040  34.810  1.00  0.00     0.167 HD
ATOM     54  C   UNL A   1      41.865  29.802  31.353  1.00  0.00     0.031 A 
ATOM     55  C   UNL A   1      40.448  32.885  37.473  1.00  0.00     0.031 A 
ATOM     56  C   UNL A   1      42.866  29.623  32.368  1.00  0.00     0.049 A 
ATOM     57  C   UNL A   1      41.700  32.081  37.266  1.00  0.00     0.074 A 
ATOM     58  C   UNL A   1      44.065  28.938  32.285  1.00  0.00     0.029 A 
ATOM     59  N   UNL A   1      42.785  30.134  33.654  1.00  0.00    -0.354 N 
ATOM     60  N   UNL A   1      42.107  31.459  36.186  1.00  0.00    -0.248 NA
ATOM     61  C   UNL A   1      42.610  31.966  38.414  1.00  0.00     0.031 C 
ATOM     62  C   UNL A   1      44.699  29.014  33.532  1.00  0.00     0.029 A 
ATOM     63  C   UNL A   1      43.907  29.774  34.379  1.00  0.00     0.049 A 
ATOM     64  H   UNL A   1      42.039  30.676  34.001  1.00  0.00     0.167 HD
ATOM     65  C   UNL A   1      43.332  30.893  36.518  1.00  0.00     0.074 A 
ATOM     66  C   UNL A   1      43.604  31.255  37.894  1.00  0.00     0.031 C 
ATOM     67  C   UNL A   1      44.158  30.142  35.749  1.00  0.00     0.031 A 
BRANCH  54  68
ATOM     68  C   UNL A   1      42.051  29.123  30.024  1.00  0.00    -0.014 A 
ATOM     69  C   UNL A   1      42.581  29.821  28.923  1.00  0.00     0.010 A 
ATOM     70  C   UNL A   1      41.687  27.773  29.871  1.00  0.00     0.010 A 
ATOM     71  C   UNL A   1      42.692  29.197  27.679  1.00  0.00     0.020 A 
ATOM     72  C   UNL A   1      41.818  27.140  28.633  1.00  0.00     0.020 A 
ATOM     73  C   UNL A   1      42.298  27.863  27.538  1.00  0.00     0.054 A 
BRANCH  73  74
ATOM     74  S   UNL A   1      42.438  27.075  25.910  1.00  0.00     0.124 S 
ATOM     75  O   UNL A   1      41.057  26.679  25.649  1.00  0.00    -0.237 OA
ATOM     76  O   UNL A   1      42.951  28.154  25.069  1.00  0.00    -0.237 OA
ATOM     77  O   UNL A   1      43.371  25.974  26.141  1.00  0.00    -0.744 OA
ENDBRANCH  73  74
ENDBRANCH  54  68
BRANCH  55  78
ATOM     78  C   UNL A   1      40.157  33.525  38.782  1.00  0.00    -0.014 A 
ATOM     79  C   UNL A   1      40.681  34.794  39.080  1.00  0.00     0.010 A 
ATOM     80  C   UNL A   1      39.325  32.887  39.720  1.00  0.00     0.010 A 
ATOM     81  C   UNL A   1      40.383  35.415  40.297  1.00  0.00     0.020 A 
ATOM     82  C   UNL A   1      39.009  33.513  40.930  1.00  0.00     0.020 A 
ATOM     83  C   UNL A   1      39.547  34.771  41.213  1.00  0.00     0.054 A 
BRANCH  83  84
ATOM     84  S   UNL A   1      39.111  35.624  42.753  1.00  0.00     0.124 S 
ATOM     85  O   UNL A   1      39.467  37.006  42.446  1.00  0.00    -0.237 OA
ATOM     86  O   UNL A   1      37.681  35.351  42.876  1.00  0.00    -0.237 OA
ATOM     87  O   UNL A   1      39.949  34.968  43.755  1.00  0.00    -0.744 OA
ENDBRANCH  83  84
ENDBRANCH  55  78
BRANCH  67  88
ATOM     88  C   UNL A   1      45.446  29.681  36.373  1.00  0.00    -0.014 A 
ATOM     89  C   UNL A   1      46.585  30.504  36.370  1.00  0.00     0.010 A 
ATOM     90  C   UNL A   1      45.498  28.431  37.014  1.00  0.00     0.010 A 
ATOM     91  C   UNL A   1      47.766  30.072  36.979  1.00  0.00     0.020 A 
ATOM     92  C   UNL A   1      46.672  28.005  37.640  1.00  0.00     0.020 A 
ATOM     93  C   UNL A   1      47.804  28.824  37.607  1.00  0.00     0.054 A 
BRANCH  93  94
ATOM     94  S   UNL A   1      49.331  28.301  38.434  1.00  0.00     0.124 S 
ATOM     95  O   UNL A   1      49.994  27.530  37.387  1.00  0.00    -0.237 OA
ATOM     96  O   UNL A   1      49.967  29.572  38.777  1.00  0.00    -0.237 OA
ATOM     97  O   UNL A   1      48.855  27.524  39.576  1.00  0.00    -0.744 OA
ENDBRANCH  93  94
ENDBRANCH  67  88
ENDBRANCH  41  42
ENDBRANCH  33  36
ENDBRANCH  31  32
ENDBRANCH  30  31
ENDBRANCH   1  30
TORSDOF 17
ENDMDL
MODEL 3
REMARK VINA RESULT:     -10.1      5.632     11.007
REMARK SMILES Cn1cc(S(=O)(=O)N2CCC(C(=O)NCCCCNC(=O)c3ccc(-c4c5nc(c(-c6ccc(S(=O)(=O)[O-])cc6)c6ccc([nH]6)c(-c6ccc(S(=O)(=O)[O-])cc6)c6nc(c(-c7ccc(S(=O)(=O)[O-])cc7)c7ccc4[nH]7)C=C6)C=C5)cc3)CC2)cc1C(=O)N1CCCCC1
REMARK SMILES IDX 16 1 15 2 14 3 12 4 13 5 11 7 8 8 9 9 83 10 10 11 82 12 5 13
REMARK SMILES IDX 6 14 7 15 4 16 1 17 2 18 3 19 85 20 84 21 86 22 87 23 88 24
REMARK SMILES IDX 89 25 93 26 90 27 92 28 91 29 17 30 18 31 19 32 20 33 21 35
REMARK SMILES IDX 22 36 23 37 81 38 24 39 80 40 25 41 26 42 27 43 74 44 28 45
REMARK SMILES IDX 79 46 73 47 75 48 29 49 78 50 72 51 71 52 30 54 60 55 41 56
REMARK SMILES IDX 59 57 42 58 45 59 58 60 76 61 43 62 44 63 57 65 77 66 46 67
REMARK SMILES IDX 31 68 32 69 40 70 33 71 39 72 34 73 35 74 36 75 37 76 38 77
REMARK SMILES IDX 61 78 62 79 70 80 63 81 69 82 64 83 65 84 66 85 67 86 68 87
REMARK SMILES IDX 47 88 48 89 56 90 49 91 55 92 50 93 51 94 52 95 53 96 54 97
REMARK H PARENT 14 6 19 34 75 53 45 64
REMARK Flexibility Score: inf
ROOT
ATOM      1  C   UNL A   1      40.519  24.450  27.608  1.00  0.00     0.023 C 
ENDROOT
BRANCH   1   2
ATOM      2  C   UNL A   1      41.867  24.861  28.193  1.00  0.00     0.116 C 
BRANCH   2   3
ATOM      3  N   UNL A   1      42.202  26.235  27.869  1.00  0.00    -0.356 N 
ATOM      4  C   UNL A   1      41.911  27.401  28.506  1.00  0.00     0.223 C 
ATOM      5  O   UNL A   1      42.317  28.451  28.004  1.00  0.00    -0.275 OA
ATOM      6  H   UNL A   1      42.729  26.344  27.044  1.00  0.00     0.163 HD
BRANCH   4   7
ATOM      7  C   UNL A   1      41.139  27.433  29.814  1.00  0.00     0.081 C 
ATOM      8  N   UNL A   1      39.483  28.745  31.762  1.00  0.00    -0.198 NA
ATOM      9  C   UNL A   1      40.903  28.476  32.100  1.00  0.00     0.103 C 
ATOM     10  C   UNL A   1      38.864  27.734  30.877  1.00  0.00     0.103 C 
ATOM     11  C   UNL A   1      41.738  28.404  30.832  1.00  0.00     0.030 C 
ATOM     12  C   UNL A   1      39.639  27.628  29.574  1.00  0.00     0.030 C 
BRANCH   8  13
ATOM     13  S   UNL A   1      38.510  29.279  33.058  1.00  0.00     0.244 S 
ATOM     14  O   UNL A   1      39.352  29.560  34.200  1.00  0.00    -0.207 OA
ATOM     15  O   UNL A   1      37.361  28.404  33.157  1.00  0.00    -0.207 OA
BRANCH  13  16
ATOM     16  C   UNL A   1      37.805  30.818  32.683  1.00  0.00     0.101 A 
ATOM     17  C   UNL A   1      37.246  34.304  33.419  1.00  0.00     0.150 C 
ATOM     18  N   UNL A   1      37.269  32.976  32.846  1.00  0.00    -0.345 N 
ATOM     19  C   UNL A   1      38.187  32.026  33.227  1.00  0.00     0.107 A 
ATOM     20  C   UNL A   1      36.323  32.410  32.010  1.00  0.00     0.108 A 
ATOM     21  C   UNL A   1      36.689  31.079  31.858  1.00  0.00     0.055 A 
BRANCH  20  22
ATOM     22  C   UNL A   1      35.058  32.966  31.558  1.00  0.00     0.270 C 
ATOM     23  O   UNL A   1      34.015  32.671  32.140  1.00  0.00    -0.267 OA
ATOM     24  N   UNL A   1      35.047  33.866  30.500  1.00  0.00    -0.337 N 
ATOM     25  C   UNL A   1      33.947  34.821  30.418  1.00  0.00     0.120 C 
ATOM     26  C   UNL A   1      35.991  33.858  29.385  1.00  0.00     0.120 C 
ATOM     27  C   UNL A   1      33.193  34.705  29.101  1.00  0.00     0.022 C 
ATOM     28  C   UNL A   1      35.261  33.755  28.044  1.00  0.00     0.022 C 
ATOM     29  C   UNL A   1      34.158  34.808  27.923  1.00  0.00     0.004 C 
ENDBRANCH  20  22
ENDBRANCH  13  16
ENDBRANCH   8  13
ENDBRANCH   4   7
ENDBRANCH   2   3
ENDBRANCH   1   2
BRANCH   1  30
ATOM     30  C   UNL A   1      40.547  23.166  26.781  1.00  0.00     0.023 C 
BRANCH  30  31
ATOM     31  C   UNL A   1      41.923  22.530  26.614  1.00  0.00     0.116 C 
BRANCH  31  32
ATOM     32  N   UNL A   1      42.341  22.412  25.225  1.00  0.00    -0.352 N 
ATOM     33  C   UNL A   1      43.509  22.843  24.646  1.00  0.00     0.251 C 
ATOM     34  H   UNL A   1      41.702  21.966  24.622  1.00  0.00     0.163 HD
ATOM     35  O   UNL A   1      43.674  22.749  23.434  1.00  0.00    -0.269 OA
BRANCH  33  36
ATOM     36  C   UNL A   1      44.547  23.461  25.496  1.00  0.00     0.039 A 
ATOM     37  C   UNL A   1      44.612  24.854  25.568  1.00  0.00     0.014 A 
ATOM     38  C   UNL A   1      45.412  22.667  26.254  1.00  0.00     0.014 A 
ATOM     39  C   UNL A   1      45.501  25.454  26.461  1.00  0.00     0.010 A 
ATOM     40  C   UNL A   1      46.253  23.266  27.186  1.00  0.00     0.010 A 
ATOM     41  C   UNL A   1      46.301  24.663  27.302  1.00  0.00    -0.014 A 
BRANCH  41  42
ATOM     42  C   UNL A   1      47.184  25.277  28.321  1.00  0.00     0.031 A 
ATOM     43  C   UNL A   1      46.651  25.586  29.692  1.00  0.00     0.074 A 
ATOM     44  C   UNL A   1      48.442  25.627  27.988  1.00  0.00     0.049 A 
ATOM     45  N   UNL A   1      47.245  26.189  30.689  1.00  0.00    -0.248 NA
ATOM     46  C   UNL A   1      45.261  25.191  29.965  1.00  0.00     0.031 C 
ATOM     47  C   UNL A   1      49.061  25.423  26.676  1.00  0.00     0.029 A 
ATOM     48  N   UNL A   1      49.423  26.239  28.726  1.00  0.00    -0.354 N 
ATOM     49  C   UNL A   1      46.294  26.268  31.699  1.00  0.00     0.074 A 
ATOM     50  C   UNL A   1      45.076  25.684  31.181  1.00  0.00     0.031 C 
ATOM     51  C   UNL A   1      50.323  25.880  26.710  1.00  0.00     0.029 A 
ATOM     52  C   UNL A   1      50.592  26.436  28.032  1.00  0.00     0.049 A 
ATOM     53  H   UNL A   1      49.301  26.511  29.664  1.00  0.00     0.167 HD
ATOM     54  C   UNL A   1      46.427  26.769  32.951  1.00  0.00     0.031 A 
ATOM     55  C   UNL A   1      51.752  27.003  28.416  1.00  0.00     0.031 A 
ATOM     56  C   UNL A   1      47.643  27.330  33.472  1.00  0.00     0.049 A 
ATOM     57  C   UNL A   1      51.885  27.528  29.818  1.00  0.00     0.074 A 
ATOM     58  C   UNL A   1      47.895  27.810  34.745  1.00  0.00     0.029 A 
ATOM     59  N   UNL A   1      48.815  27.484  32.747  1.00  0.00    -0.354 N 
ATOM     60  N   UNL A   1      50.992  27.544  30.777  1.00  0.00    -0.248 NA
ATOM     61  C   UNL A   1      53.187  28.100  30.189  1.00  0.00     0.031 C 
ATOM     62  C   UNL A   1      49.214  28.280  34.781  1.00  0.00     0.029 A 
ATOM     63  C   UNL A   1      49.790  28.061  33.540  1.00  0.00     0.049 A 
ATOM     64  H   UNL A   1      48.935  27.221  31.806  1.00  0.00     0.167 HD
ATOM     65  C   UNL A   1      51.628  28.112  31.874  1.00  0.00     0.074 A 
ATOM     66  C   UNL A   1      52.984  28.415  31.463  1.00  0.00     0.031 C 
ATOM     67  C   UNL A   1      51.134  28.357  33.112  1.00  0.00     0.031 A 
BRANCH  54  68
ATOM     68  C   UNL A   1      45.209  26.736  33.831  1.00  0.00    -0.014 A 
ATOM     69  C   UNL A   1      44.478  27.908  34.100  1.00  0.00     0.010 A 
ATOM     70  C   UNL A   1      44.791  25.521  34.402  1.00  0.00     0.010 A 
ATOM     71  C   UNL A   1      43.384  27.875  34.967  1.00  0.00     0.020 A 
ATOM     72  C   UNL A   1      43.683  25.480  35.253  1.00  0.00     0.020 A 
ATOM     73  C   UNL A   1      43.001  26.663  35.549  1.00  0.00     0.054 A 
BRANCH  73  74
ATOM     74  S   UNL A   1      41.586  26.644  36.683  1.00  0.00     0.124 S 
ATOM     75  O   UNL A   1      41.109  28.021  36.591  1.00  0.00    -0.237 OA
ATOM     76  O   UNL A   1      40.709  25.636  36.092  1.00  0.00    -0.237 OA
ATOM     77  O   UNL A   1      42.178  26.272  37.967  1.00  0.00    -0.744 OA
ENDBRANCH  73  74
ENDBRANCH  54  68
BRANCH  55  78
ATOM     78  C   UNL A   1      52.889  27.070  27.462  1.00  0.00    -0.014 A 
ATOM     79  C   UNL A   1      53.101  28.229  26.696  1.00  0.00     0.010 A 
ATOM     80  C   UNL A   1      53.786  25.993  27.344  1.00  0.00     0.010 A 
ATOM     81  C   UNL A   1      54.189  28.309  25.822  1.00  0.00     0.020 A 
ATOM     82  C   UNL A   1      54.886  26.077  26.484  1.00  0.00     0.020 A 
ATOM     83  C   UNL A   1      55.076  27.234  25.723  1.00  0.00     0.054 A 
BRANCH  83  84
ATOM     84  S   UNL A   1      56.523  27.386  24.640  1.00  0.00     0.124 S 
ATOM     85  O   UNL A   1      56.137  28.494  23.771  1.00  0.00    -0.237 OA
ATOM     86  O   UNL A   1      57.601  27.669  25.585  1.00  0.00    -0.237 OA
ATOM     87  O   UNL A   1      56.602  26.078  23.993  1.00  0.00    -0.744 OA
ENDBRANCH  83  84
ENDBRANCH  55  78
BRANCH  67  88
ATOM     88  C   UNL A   1      52.071  28.963  34.118  1.00  0.00    -0.014 A 
ATOM     89  C   UNL A   1      52.885  28.153  34.928  1.00  0.00     0.010 A 
ATOM     90  C   UNL A   1      52.175  30.363  34.215  1.00  0.00     0.010 A 
ATOM     91  C   UNL A   1      53.771  28.733  35.839  1.00  0.00     0.020 A 
ATOM     92  C   UNL A   1      53.074  30.945  35.111  1.00  0.00     0.020 A 
ATOM     93  C   UNL A   1      53.859  30.126  35.928  1.00  0.00     0.054 A 
BRANCH  93  94
ATOM     94  S   UNL A   1      55.050  30.860  37.081  1.00  0.00     0.124 S 
ATOM     95  O   UNL A   1      54.845  32.288  36.860  1.00  0.00    -0.237 OA
ATOM     96  O   UNL A   1      54.603  30.354  38.377  1.00  0.00    -0.237 OA
ATOM     97  O   UNL A   1      56.336  30.336  36.626  1.00  0.00    -0.744 OA
ENDBRANCH  93  94
ENDBRANCH  67  88
ENDBRANCH  41  42
ENDBRANCH  33  36
ENDBRANCH  31  32
ENDBRANCH  30  31
ENDBRANCH   1  30
TORSDOF 17
ENDMDL
