MODEL 1
REMARK VINA RESULT:      -8.9      0.000      0.000
REMARK SMILES O=C(NCCCCNC(=O)c1cc2ccccc2cc1OCCO)c1ccc(-c2c3nc(c(-c4ccc(S(=O)(=O)[O-])cc4)c4ccc([nH]4)c(-c4ccc(S(=O)(=O)[O-])cc4)c4nc(c(-c5ccc(S(=O)(=O)[O-])cc5)c5ccc2[nH]5)C=C4)C=C3)cc1
REMARK SMILES IDX 6 1 5 2 4 3 3 4 1 5 2 6 25 8 26 9 84 10 27 11 83 12 28 13
REMARK SMILES IDX 29 14 30 15 77 16 31 17 82 18 76 19 78 20 32 21 81 22 75 23
REMARK SMILES IDX 74 24 33 26 63 27 44 28 62 29 45 30 48 31 61 32 79 33 46 34
REMARK SMILES IDX 47 35 60 37 80 38 49 39 34 40 35 41 43 42 36 43 42 44 37 45
REMARK SMILES IDX 38 46 39 47 40 48 41 49 64 50 65 51 73 52 66 53 72 54 67 55
REMARK SMILES IDX 68 56 69 57 70 58 71 59 50 60 51 61 59 62 52 63 58 64 53 65
REMARK SMILES IDX 54 66 55 67 56 68 57 69 7 70 8 71 9 72 10 74 11 75 12 76
REMARK SMILES IDX 20 77 13 78 19 79 14 80 18 81 15 82 17 83 16 84 21 85 22 86
REMARK SMILES IDX 23 87 24 88
REMARK H PARENT 3 7 78 25 48 36 8 73 24 89
REMARK Flexibility Score: inf
ROOT
ATOM      1  C   UNL A   1      36.979  33.199  29.412  1.00  0.00     0.023 C 
ENDROOT
BRANCH   1   2
ATOM      2  C   UNL A   1      35.671  33.271  28.617  1.00  0.00     0.023 C 
BRANCH   2   3
ATOM      3  C   UNL A   1      34.470  32.538  29.200  1.00  0.00     0.116 C 
BRANCH   3   4
ATOM      4  N   UNL A   1      33.856  31.588  28.292  1.00  0.00    -0.352 N 
ATOM      5  O   UNL A   1      33.708  29.840  26.878  1.00  0.00    -0.269 OA
ATOM      6  C   UNL A   1      34.375  30.457  27.707  1.00  0.00     0.251 C 
ATOM      7  H   UNL A   1      32.920  31.783  28.058  1.00  0.00     0.163 HD
BRANCH   6   8
ATOM      8  C   UNL A   1      35.745  29.994  28.034  1.00  0.00     0.039 A 
ATOM      9  C   UNL A   1      36.047  29.434  29.277  1.00  0.00     0.014 A 
ATOM     10  C   UNL A   1      36.744  30.103  27.062  1.00  0.00     0.014 A 
ATOM     11  C   UNL A   1      37.371  29.138  29.602  1.00  0.00     0.010 A 
ATOM     12  C   UNL A   1      38.059  29.728  27.363  1.00  0.00     0.010 A 
ATOM     13  C   UNL A   1      38.394  29.283  28.650  1.00  0.00    -0.014 A 
BRANCH  13  14
ATOM     14  C   UNL A   1      39.795  28.933  29.008  1.00  0.00     0.031 A 
ATOM     15  C   UNL A   1      40.677  29.907  29.746  1.00  0.00     0.074 A 
ATOM     16  C   UNL A   1      40.272  27.714  28.684  1.00  0.00     0.049 A 
ATOM     17  N   UNL A   1      41.913  29.753  30.155  1.00  0.00    -0.248 NA
ATOM     18  C   UNL A   1      40.104  31.224  30.062  1.00  0.00     0.031 C 
ATOM     19  C   UNL A   1      39.525  26.680  27.963  1.00  0.00     0.029 A 
ATOM     20  N   UNL A   1      41.491  27.131  28.929  1.00  0.00    -0.354 N 
ATOM     21  C   UNL A   1      42.270  30.953  30.759  1.00  0.00     0.074 A 
ATOM     22  C   UNL A   1      41.130  31.837  30.640  1.00  0.00     0.031 C 
ATOM     23  C   UNL A   1      40.283  25.579  27.863  1.00  0.00     0.029 A 
ATOM     24  C   UNL A   1      41.589  25.844  28.458  1.00  0.00     0.049 A 
ATOM     25  H   UNL A   1      42.224  27.592  29.398  1.00  0.00     0.167 HD
ATOM     26  C   UNL A   1      43.438  31.288  31.363  1.00  0.00     0.031 A 
ATOM     27  C   UNL A   1      42.615  24.972  28.485  1.00  0.00     0.031 A 
ATOM     28  C   UNL A   1      44.573  30.410  31.480  1.00  0.00     0.049 A 
ATOM     29  C   UNL A   1      43.909  25.379  29.131  1.00  0.00     0.074 A 
ATOM     30  C   UNL A   1      45.786  30.650  32.104  1.00  0.00     0.029 A 
ATOM     31  N   UNL A   1      44.643  29.127  30.958  1.00  0.00    -0.354 N 
ATOM     32  N   UNL A   1      44.210  26.506  29.728  1.00  0.00    -0.248 NA
ATOM     33  C   UNL A   1      44.999  24.395  29.107  1.00  0.00     0.031 C 
ATOM     34  C   UNL A   1      46.606  29.533  31.914  1.00  0.00     0.029 A 
ATOM     35  C   UNL A   1      45.886  28.574  31.221  1.00  0.00     0.049 A 
ATOM     36  H   UNL A   1      43.916  28.676  30.471  1.00  0.00     0.167 HD
ATOM     37  C   UNL A   1      45.522  26.362  30.165  1.00  0.00     0.074 A 
ATOM     38  C   UNL A   1      45.947  25.031  29.781  1.00  0.00     0.031 C 
ATOM     39  C   UNL A   1      46.303  27.253  30.824  1.00  0.00     0.031 A 
BRANCH  26  40
ATOM     40  C   UNL A   1      43.559  32.682  31.926  1.00  0.00    -0.014 A 
ATOM     41  C   UNL A   1      44.014  33.751  31.136  1.00  0.00     0.010 A 
ATOM     42  C   UNL A   1      43.162  32.934  33.253  1.00  0.00     0.010 A 
ATOM     43  C   UNL A   1      44.110  35.039  31.673  1.00  0.00     0.020 A 
ATOM     44  C   UNL A   1      43.231  34.225  33.787  1.00  0.00     0.020 A 
ATOM     45  C   UNL A   1      43.723  35.266  32.997  1.00  0.00     0.054 A 
BRANCH  45  46
ATOM     46  S   UNL A   1      43.845  36.949  33.666  1.00  0.00     0.124 S 
ATOM     47  O   UNL A   1      45.169  36.931  34.284  1.00  0.00    -0.237 OA
ATOM     48  O   UNL A   1      43.723  37.779  32.470  1.00  0.00    -0.237 OA
ATOM     49  O   UNL A   1      42.723  37.036  34.597  1.00  0.00    -0.744 OA
ENDBRANCH  45  46
ENDBRANCH  26  40
BRANCH  27  50
ATOM     50  C   UNL A   1      42.454  23.629  27.865  1.00  0.00    -0.014 A 
ATOM     51  C   UNL A   1      43.056  23.333  26.630  1.00  0.00     0.010 A 
ATOM     52  C   UNL A   1      41.722  22.628  28.529  1.00  0.00     0.010 A 
ATOM     53  C   UNL A   1      42.922  22.060  26.067  1.00  0.00     0.020 A 
ATOM     54  C   UNL A   1      41.609  21.348  27.983  1.00  0.00     0.020 A 
ATOM     55  C   UNL A   1      42.203  21.074  26.749  1.00  0.00     0.054 A 
BRANCH  55  56
ATOM     56  S   UNL A   1      42.097  19.411  26.032  1.00  0.00     0.124 S 
ATOM     57  O   UNL A   1      42.939  19.539  24.847  1.00  0.00    -0.237 OA
ATOM     58  O   UNL A   1      42.630  18.571  27.102  1.00  0.00    -0.237 OA
ATOM     59  O   UNL A   1      40.669  19.242  25.772  1.00  0.00    -0.744 OA
ENDBRANCH  55  56
ENDBRANCH  27  50
BRANCH  39  60
ATOM     60  C   UNL A   1      47.694  26.810  31.190  1.00  0.00    -0.014 A 
ATOM     61  C   UNL A   1      47.953  26.166  32.413  1.00  0.00     0.010 A 
ATOM     62  C   UNL A   1      48.749  27.006  30.281  1.00  0.00     0.010 A 
ATOM     63  C   UNL A   1      49.250  25.755  32.734  1.00  0.00     0.020 A 
ATOM     64  C   UNL A   1      50.042  26.574  30.587  1.00  0.00     0.020 A 
ATOM     65  C   UNL A   1      50.287  25.964  31.820  1.00  0.00     0.054 A 
BRANCH  65  66
ATOM     66  S   UNL A   1      51.955  25.390  32.242  1.00  0.00     0.124 S 
ATOM     67  O   UNL A   1      51.775  23.942  32.286  1.00  0.00    -0.237 OA
ATOM     68  O   UNL A   1      52.760  25.891  31.130  1.00  0.00    -0.237 OA
ATOM     69  O   UNL A   1      52.224  26.024  33.531  1.00  0.00    -0.744 OA
ENDBRANCH  65  66
ENDBRANCH  39  60
ENDBRANCH  13  14
ENDBRANCH   6   8
ENDBRANCH   3   4
ENDBRANCH   2   3
ENDBRANCH   1   2
BRANCH   1  70
ATOM     70  C   UNL A   1      37.020  33.904  30.772  1.00  0.00     0.116 C 
BRANCH  70  71
ATOM     71  N   UNL A   1      35.957  33.516  31.680  1.00  0.00    -0.352 N 
ATOM     72  C   UNL A   1      36.079  32.878  32.892  1.00  0.00     0.255 C 
ATOM     73  H   UNL A   1      35.041  33.734  31.396  1.00  0.00     0.163 HD
ATOM     74  O   UNL A   1      35.112  32.752  33.635  1.00  0.00    -0.269 OA
BRANCH  72  75
ATOM     75  C   UNL A   1      37.360  32.257  33.267  1.00  0.00     0.082 A 
ATOM     76  C   UNL A   1      37.491  30.909  32.874  1.00  0.00     0.026 A 
ATOM     77  C   UNL A   1      38.395  32.884  33.961  1.00  0.00     0.132 A 
ATOM     78  C   UNL A   1      38.672  30.191  33.118  1.00  0.00    -0.017 A 
ATOM     79  C   UNL A   1      39.583  32.168  34.183  1.00  0.00     0.056 A 
ATOM     80  C   UNL A   1      38.823  28.850  32.726  1.00  0.00     0.009 A 
ATOM     81  C   UNL A   1      39.741  30.838  33.769  1.00  0.00    -0.015 A 
ATOM     82  C   UNL A   1      40.021  28.170  32.960  1.00  0.00     0.001 A 
ATOM     83  C   UNL A   1      40.942  30.146  33.991  1.00  0.00     0.009 A 
ATOM     84  C   UNL A   1      41.082  28.819  33.584  1.00  0.00     0.001 A 
BRANCH  77  85
ATOM     85  O   UNL A   1      38.502  34.161  34.415  1.00  0.00    -0.490 OA
BRANCH  85  86
ATOM     86  C   UNL A   1      39.769  34.762  34.683  1.00  0.00     0.257 C 
BRANCH  86  87
ATOM     87  C   UNL A   1      39.704  35.431  36.049  1.00  0.00     0.197 C 
BRANCH  87  88
ATOM     88  O   UNL A   1      39.958  36.835  35.957  1.00  0.00    -0.393 OA
ATOM     89  H   UNL A   1      40.707  36.988  35.361  1.00  0.00     0.210 HD
ENDBRANCH  87  88
ENDBRANCH  86  87
ENDBRANCH  85  86
ENDBRANCH  77  85
ENDBRANCH  72  75
ENDBRANCH  70  71
ENDBRANCH   1  70
TORSDOF 18
ENDMDL
MODEL 2
REMARK VINA RESULT:      -8.4      3.538     10.796
REMARK SMILES O=C(NCCCCNC(=O)c1cc2ccccc2cc1OCCO)c1ccc(-c2c3nc(c(-c4ccc(S(=O)(=O)[O-])cc4)c4ccc([nH]4)c(-c4ccc(S(=O)(=O)[O-])cc4)c4nc(c(-c5ccc(S(=O)(=O)[O-])cc5)c5ccc2[nH]5)C=C4)C=C3)cc1
REMARK SMILES IDX 6 1 5 2 4 3 3 4 1 5 2 6 25 8 26 9 84 10 27 11 83 12 28 13
REMARK SMILES IDX 29 14 30 15 77 16 31 17 82 18 76 19 78 20 32 21 81 22 75 23
REMARK SMILES IDX 74 24 33 26 63 27 44 28 62 29 45 30 48 31 61 32 79 33 46 34
REMARK SMILES IDX 47 35 60 37 80 38 49 39 34 40 35 41 43 42 36 43 42 44 37 45
REMARK SMILES IDX 38 46 39 47 40 48 41 49 64 50 65 51 73 52 66 53 72 54 67 55
REMARK SMILES IDX 68 56 69 57 70 58 71 59 50 60 51 61 59 62 52 63 58 64 53 65
REMARK SMILES IDX 54 66 55 67 56 68 57 69 7 70 8 71 9 72 10 74 11 75 12 76
REMARK SMILES IDX 20 77 13 78 19 79 14 80 18 81 15 82 17 83 16 84 21 85 22 86
REMARK SMILES IDX 23 87 24 88
REMARK H PARENT 3 7 78 25 48 36 8 73 24 89
REMARK Flexibility Score: inf
ROOT
ATOM      1  C   UNL A   1      34.121  23.219  25.038  1.00  0.00     0.023 C 
ENDROOT
BRANCH   1   2
ATOM      2  C   UNL A   1      35.342  23.393  25.948  1.00  0.00     0.023 C 
BRANCH   2   3
ATOM      3  C   UNL A   1      36.650  23.790  25.276  1.00  0.00     0.116 C 
BRANCH   3   4
ATOM      4  N   UNL A   1      37.728  22.837  25.465  1.00  0.00    -0.352 N 
ATOM      5  O   UNL A   1      39.765  22.069  26.047  1.00  0.00    -0.269 OA
ATOM      6  C   UNL A   1      38.945  22.985  26.087  1.00  0.00     0.251 C 
ATOM      7  H   UNL A   1      37.562  21.943  25.088  1.00  0.00     0.163 HD
BRANCH   6   8
ATOM      8  C   UNL A   1      39.297  24.252  26.773  1.00  0.00     0.039 A 
ATOM      9  C   UNL A   1      40.020  25.255  26.125  1.00  0.00     0.014 A 
ATOM     10  C   UNL A   1      38.870  24.446  28.091  1.00  0.00     0.014 A 
ATOM     11  C   UNL A   1      40.453  26.371  26.840  1.00  0.00     0.010 A 
ATOM     12  C   UNL A   1      39.236  25.607  28.782  1.00  0.00     0.010 A 
ATOM     13  C   UNL A   1      40.068  26.561  28.178  1.00  0.00    -0.014 A 
BRANCH  13  14
ATOM     14  C   UNL A   1      40.517  27.775  28.914  1.00  0.00     0.031 A 
ATOM     15  C   UNL A   1      41.904  27.863  29.498  1.00  0.00     0.074 A 
ATOM     16  C   UNL A   1      39.671  28.818  29.039  1.00  0.00     0.049 A 
ATOM     17  N   UNL A   1      42.461  28.855  30.147  1.00  0.00    -0.248 NA
ATOM     18  C   UNL A   1      42.775  26.689  29.339  1.00  0.00     0.031 C 
ATOM     19  C   UNL A   1      38.299  28.858  28.526  1.00  0.00     0.029 A 
ATOM     20  N   UNL A   1      39.844  30.049  29.620  1.00  0.00    -0.354 N 
ATOM     21  C   UNL A   1      43.737  28.422  30.488  1.00  0.00     0.074 A 
ATOM     22  C   UNL A   1      43.864  27.066  29.997  1.00  0.00     0.031 C 
ATOM     23  C   UNL A   1      37.771  30.064  28.778  1.00  0.00     0.029 A 
ATOM     24  C   UNL A   1      38.742  30.864  29.518  1.00  0.00     0.049 A 
ATOM     25  H   UNL A   1      40.677  30.322  30.068  1.00  0.00     0.167 HD
ATOM     26  C   UNL A   1      44.717  29.092  31.144  1.00  0.00     0.031 A 
ATOM     27  C   UNL A   1      38.522  32.110  29.979  1.00  0.00     0.031 A 
ATOM     28  C   UNL A   1      44.592  30.441  31.634  1.00  0.00     0.049 A 
ATOM     29  C   UNL A   1      39.612  32.819  30.731  1.00  0.00     0.074 A 
ATOM     30  C   UNL A   1      45.543  31.213  32.280  1.00  0.00     0.029 A 
ATOM     31  N   UNL A   1      43.447  31.217  31.541  1.00  0.00    -0.354 N 
ATOM     32  N   UNL A   1      40.824  32.402  31.009  1.00  0.00    -0.248 NA
ATOM     33  C   UNL A   1      39.305  34.166  31.229  1.00  0.00     0.031 C 
ATOM     34  C   UNL A   1      44.956  32.436  32.623  1.00  0.00     0.029 A 
ATOM     35  C   UNL A   1      43.657  32.448  32.141  1.00  0.00     0.049 A 
ATOM     36  H   UNL A   1      42.607  30.934  31.111  1.00  0.00     0.167 HD
ATOM     37  C   UNL A   1      41.430  33.443  31.703  1.00  0.00     0.074 A 
ATOM     38  C   UNL A   1      40.458  34.515  31.783  1.00  0.00     0.031 C 
ATOM     39  C   UNL A   1      42.680  33.503  32.227  1.00  0.00     0.031 A 
BRANCH  26  40
ATOM     40  C   UNL A   1      46.014  28.364  31.396  1.00  0.00    -0.014 A 
ATOM     41  C   UNL A   1      46.208  27.599  32.559  1.00  0.00     0.010 A 
ATOM     42  C   UNL A   1      47.036  28.406  30.428  1.00  0.00     0.010 A 
ATOM     43  C   UNL A   1      47.414  26.923  32.771  1.00  0.00     0.020 A 
ATOM     44  C   UNL A   1      48.233  27.710  30.623  1.00  0.00     0.020 A 
ATOM     45  C   UNL A   1      48.421  26.988  31.803  1.00  0.00     0.054 A 
BRANCH  45  46
ATOM     46  S   UNL A   1      49.971  26.090  32.096  1.00  0.00     0.124 S 
ATOM     47  O   UNL A   1      50.886  27.176  32.443  1.00  0.00    -0.237 OA
ATOM     48  O   UNL A   1      49.620  25.192  33.193  1.00  0.00    -0.237 OA
ATOM     49  O   UNL A   1      50.240  25.433  30.819  1.00  0.00    -0.744 OA
ENDBRANCH  45  46
ENDBRANCH  26  40
BRANCH  27  50
ATOM     50  C   UNL A   1      37.203  32.757  29.746  1.00  0.00    -0.014 A 
ATOM     51  C   UNL A   1      36.296  32.937  30.805  1.00  0.00     0.010 A 
ATOM     52  C   UNL A   1      36.863  33.228  28.464  1.00  0.00     0.010 A 
ATOM     53  C   UNL A   1      35.069  33.570  30.583  1.00  0.00     0.020 A 
ATOM     54  C   UNL A   1      35.651  33.885  28.245  1.00  0.00     0.020 A 
ATOM     55  C   UNL A   1      34.756  34.044  29.305  1.00  0.00     0.054 A 
BRANCH  55  56
ATOM     56  S   UNL A   1      33.188  34.921  29.054  1.00  0.00     0.124 S 
ATOM     57  O   UNL A   1      32.581  34.840  30.379  1.00  0.00    -0.237 OA
ATOM     58  O   UNL A   1      33.631  36.249  28.640  1.00  0.00    -0.237 OA
ATOM     59  O   UNL A   1      32.524  34.141  28.011  1.00  0.00    -0.744 OA
ENDBRANCH  55  56
ENDBRANCH  27  50
BRANCH  39  60
ATOM     60  C   UNL A   1      43.075  34.780  32.919  1.00  0.00    -0.014 A 
ATOM     61  C   UNL A   1      43.012  34.897  34.319  1.00  0.00     0.010 A 
ATOM     62  C   UNL A   1      43.552  35.864  32.161  1.00  0.00     0.010 A 
ATOM     63  C   UNL A   1      43.389  36.088  34.945  1.00  0.00     0.020 A 
ATOM     64  C   UNL A   1      43.954  37.047  32.784  1.00  0.00     0.020 A 
ATOM     65  C   UNL A   1      43.855  37.157  34.174  1.00  0.00     0.054 A 
BRANCH  65  66
ATOM     66  S   UNL A   1      44.374  38.681  35.011  1.00  0.00     0.124 S 
ATOM     67  O   UNL A   1      43.992  38.411  36.394  1.00  0.00    -0.237 OA
ATOM     68  O   UNL A   1      45.811  38.718  34.751  1.00  0.00    -0.237 OA
ATOM     69  O   UNL A   1      43.600  39.724  34.343  1.00  0.00    -0.744 OA
ENDBRANCH  65  66
ENDBRANCH  39  60
ENDBRANCH  13  14
ENDBRANCH   6   8
ENDBRANCH   3   4
ENDBRANCH   2   3
ENDBRANCH   1   2
BRANCH   1  70
ATOM     70  C   UNL A   1      33.311  24.473  24.693  1.00  0.00     0.116 C 
BRANCH  70  71
ATOM     71  N   UNL A   1      33.461  24.924  23.322  1.00  0.00    -0.352 N 
ATOM     72  C   UNL A   1      33.501  26.219  22.863  1.00  0.00     0.255 C 
ATOM     73  H   UNL A   1      33.543  24.220  22.640  1.00  0.00     0.163 HD
ATOM     74  O   UNL A   1      33.793  26.464  21.698  1.00  0.00    -0.269 OA
BRANCH  72  75
ATOM     75  C   UNL A   1      33.099  27.323  23.751  1.00  0.00     0.082 A 
ATOM     76  C   UNL A   1      34.016  27.602  24.785  1.00  0.00     0.026 A 
ATOM     77  C   UNL A   1      31.923  28.065  23.643  1.00  0.00     0.132 A 
ATOM     78  C   UNL A   1      33.798  28.655  25.687  1.00  0.00    -0.017 A 
ATOM     79  C   UNL A   1      31.721  29.133  24.534  1.00  0.00     0.056 A 
ATOM     80  C   UNL A   1      34.704  28.952  26.719  1.00  0.00     0.009 A 
ATOM     81  C   UNL A   1      32.639  29.444  25.547  1.00  0.00    -0.015 A 
ATOM     82  C   UNL A   1      34.473  30.024  27.584  1.00  0.00     0.001 A 
ATOM     83  C   UNL A   1      32.422  30.522  26.419  1.00  0.00     0.009 A 
ATOM     84  C   UNL A   1      33.337  30.813  27.430  1.00  0.00     0.001 A 
BRANCH  77  85
ATOM     85  O   UNL A   1      30.918  27.994  22.730  1.00  0.00    -0.490 OA
BRANCH  85  86
ATOM     86  C   UNL A   1      29.575  28.346  23.060  1.00  0.00     0.257 C 
BRANCH  86  87
ATOM     87  C   UNL A   1      29.318  29.767  22.577  1.00  0.00     0.197 C 
BRANCH  87  88
ATOM     88  O   UNL A   1      28.893  29.788  21.213  1.00  0.00    -0.393 OA
ATOM     89  H   UNL A   1      29.625  29.506  20.643  1.00  0.00     0.210 HD
ENDBRANCH  87  88
ENDBRANCH  86  87
ENDBRANCH  85  86
ENDBRANCH  77  85
ENDBRANCH  72  75
ENDBRANCH  70  71
ENDBRANCH   1  70
TORSDOF 18
ENDMDL
MODEL 3
REMARK VINA RESULT:      -8.3      4.675     12.013
REMARK SMILES O=C(NCCCCNC(=O)c1cc2ccccc2cc1OCCO)c1ccc(-c2c3nc(c(-c4ccc(S(=O)(=O)[O-])cc4)c4ccc([nH]4)c(-c4ccc(S(=O)(=O)[O-])cc4)c4nc(c(-c5ccc(S(=O)(=O)[O-])cc5)c5ccc2[nH]5)C=C4)C=C3)cc1
REMARK SMILES IDX 6 1 5 2 4 3 3 4 1 5 2 6 25 8 26 9 84 10 27 11 83 12 28 13
REMARK SMILES IDX 29 14 30 15 77 16 31 17 82 18 76 19 78 20 32 21 81 22 75 23
REMARK SMILES IDX 74 24 33 26 63 27 44 28 62 29 45 30 48 31 61 32 79 33 46 34
REMARK SMILES IDX 47 35 60 37 80 38 49 39 34 40 35 41 43 42 36 43 42 44 37 45
REMARK SMILES IDX 38 46 39 47 40 48 41 49 64 50 65 51 73 52 66 53 72 54 67 55
REMARK SMILES IDX 68 56 69 57 70 58 71 59 50 60 51 61 59 62 52 63 58 64 53 65
REMARK SMILES IDX 54 66 55 67 56 68 57 69 7 70 8 71 9 72 10 74 11 75 12 76
REMARK SMILES IDX 20 77 13 78 19 79 14 80 18 81 15 82 17 83 16 84 21 85 22 86
REMARK SMILES IDX 23 87 24 88
REMARK H PARENT 3 7 78 25 48 36 8 73 24 89
REMARK Flexibility Score: inf
ROOT
ATOM      1  C   UNL A   1      38.260  21.935  25.642  1.00  0.00     0.023 C 
ENDROOT
BRANCH   1   2
ATOM      2  C   UNL A   1      39.456  22.048  26.594  1.00  0.00     0.023 C 
BRANCH   2   3
ATOM      3  C   UNL A   1      39.865  23.452  27.021  1.00  0.00     0.116 C 
BRANCH   3   4
ATOM      4  N   UNL A   1      40.594  24.192  26.008  1.00  0.00    -0.352 N 
ATOM      5  O   UNL A   1      41.603  25.947  25.018  1.00  0.00    -0.269 OA
ATOM      6  C   UNL A   1      41.098  25.471  26.034  1.00  0.00     0.251 C 
ATOM      7  H   UNL A   1      40.753  23.701  25.170  1.00  0.00     0.163 HD
BRANCH   6   8
ATOM      8  C   UNL A   1      41.007  26.297  27.262  1.00  0.00     0.039 A 
ATOM      9  C   UNL A   1      40.070  26.019  28.259  1.00  0.00     0.014 A 
ATOM     10  C   UNL A   1      41.897  27.363  27.426  1.00  0.00     0.014 A 
ATOM     11  C   UNL A   1      39.917  26.895  29.333  1.00  0.00     0.010 A 
ATOM     12  C   UNL A   1      41.796  28.195  28.547  1.00  0.00     0.010 A 
ATOM     13  C   UNL A   1      40.777  27.996  29.490  1.00  0.00    -0.014 A 
BRANCH  13  14
ATOM     14  C   UNL A   1      40.615  28.902  30.659  1.00  0.00     0.031 A 
ATOM     15  C   UNL A   1      41.520  28.794  31.860  1.00  0.00     0.074 A 
ATOM     16  C   UNL A   1      39.655  29.849  30.629  1.00  0.00     0.049 A 
ATOM     17  N   UNL A   1      41.530  29.520  32.951  1.00  0.00    -0.248 NA
ATOM     18  C   UNL A   1      42.540  27.734  31.838  1.00  0.00     0.031 C 
ATOM     19  C   UNL A   1      38.709  30.055  29.530  1.00  0.00     0.029 A 
ATOM     20  N   UNL A   1      39.326  30.823  31.538  1.00  0.00    -0.354 N 
ATOM     21  C   UNL A   1      42.540  28.997  33.750  1.00  0.00     0.074 A 
ATOM     22  C   UNL A   1      43.105  27.875  33.031  1.00  0.00     0.031 C 
ATOM     23  C   UNL A   1      37.935  31.115  29.810  1.00  0.00     0.029 A 
ATOM     24  C   UNL A   1      38.289  31.628  31.130  1.00  0.00     0.049 A 
ATOM     25  H   UNL A   1      39.787  30.934  32.401  1.00  0.00     0.167 HD
ATOM     26  C   UNL A   1      42.964  29.416  34.969  1.00  0.00     0.031 A 
ATOM     27  C   UNL A   1      37.676  32.656  31.747  1.00  0.00     0.031 A 
ATOM     28  C   UNL A   1      42.402  30.531  35.686  1.00  0.00     0.049 A 
ATOM     29  C   UNL A   1      38.144  33.079  33.110  1.00  0.00     0.074 A 
ATOM     30  C   UNL A   1      42.789  31.049  36.911  1.00  0.00     0.029 A 
ATOM     31  N   UNL A   1      41.331  31.296  35.252  1.00  0.00    -0.354 N 
ATOM     32  N   UNL A   1      39.126  32.594  33.830  1.00  0.00    -0.248 NA
ATOM     33  C   UNL A   1      37.421  34.190  33.742  1.00  0.00     0.031 C 
ATOM     34  C   UNL A   1      41.919  32.093  37.240  1.00  0.00     0.029 A 
ATOM     35  C   UNL A   1      41.025  32.264  36.195  1.00  0.00     0.049 A 
ATOM     36  H   UNL A   1      40.857  31.170  34.398  1.00  0.00     0.167 HD
ATOM     37  C   UNL A   1      39.148  33.350  34.996  1.00  0.00     0.074 A 
ATOM     38  C   UNL A   1      38.095  34.338  34.874  1.00  0.00     0.031 C 
ATOM     39  C   UNL A   1      39.967  33.235  36.070  1.00  0.00     0.031 A 
BRANCH  26  40
ATOM     40  C   UNL A   1      44.083  28.644  35.623  1.00  0.00    -0.014 A 
ATOM     41  C   UNL A   1      43.881  27.344  36.118  1.00  0.00     0.010 A 
ATOM     42  C   UNL A   1      45.370  29.211  35.697  1.00  0.00     0.010 A 
ATOM     43  C   UNL A   1      44.934  26.640  36.712  1.00  0.00     0.020 A 
ATOM     44  C   UNL A   1      46.432  28.500  36.267  1.00  0.00     0.020 A 
ATOM     45  C   UNL A   1      46.201  27.225  36.788  1.00  0.00     0.054 A 
BRANCH  45  46
ATOM     46  S   UNL A   1      47.552  26.285  37.552  1.00  0.00     0.124 S 
ATOM     47  O   UNL A   1      47.383  26.611  38.966  1.00  0.00    -0.237 OA
ATOM     48  O   UNL A   1      47.234  24.907  37.183  1.00  0.00    -0.237 OA
ATOM     49  O   UNL A   1      48.754  26.831  36.926  1.00  0.00    -0.744 OA
ENDBRANCH  45  46
ENDBRANCH  26  40
BRANCH  27  50
ATOM     50  C   UNL A   1      36.543  33.345  31.074  1.00  0.00    -0.014 A 
ATOM     51  C   UNL A   1      35.315  33.519  31.736  1.00  0.00     0.010 A 
ATOM     52  C   UNL A   1      36.699  33.861  29.774  1.00  0.00     0.010 A 
ATOM     53  C   UNL A   1      34.263  34.192  31.108  1.00  0.00     0.020 A 
ATOM     54  C   UNL A   1      35.660  34.557  29.154  1.00  0.00     0.020 A 
ATOM     55  C   UNL A   1      34.444  34.710  29.822  1.00  0.00     0.054 A 
BRANCH  55  56
ATOM     56  S   UNL A   1      33.088  35.636  29.050  1.00  0.00     0.124 S 
ATOM     57  O   UNL A   1      33.808  36.677  28.323  1.00  0.00    -0.237 OA
ATOM     58  O   UNL A   1      32.438  34.620  28.226  1.00  0.00    -0.237 OA
ATOM     59  O   UNL A   1      32.299  36.099  30.191  1.00  0.00    -0.744 OA
ENDBRANCH  55  56
ENDBRANCH  27  50
BRANCH  39  60
ATOM     60  C   UNL A   1      39.770  34.215  37.194  1.00  0.00    -0.014 A 
ATOM     61  C   UNL A   1      38.949  33.905  38.294  1.00  0.00     0.010 A 
ATOM     62  C   UNL A   1      40.446  35.449  37.169  1.00  0.00     0.010 A 
ATOM     63  C   UNL A   1      38.783  34.825  39.332  1.00  0.00     0.020 A 
ATOM     64  C   UNL A   1      40.302  36.360  38.217  1.00  0.00     0.020 A 
ATOM     65  C   UNL A   1      39.458  36.049  39.286  1.00  0.00     0.054 A 
BRANCH  65  66
ATOM     66  S   UNL A   1      39.255  37.213  40.663  1.00  0.00     0.124 S 
ATOM     67  O   UNL A   1      40.622  37.685  40.864  1.00  0.00    -0.237 OA
ATOM     68  O   UNL A   1      38.323  38.198  40.117  1.00  0.00    -0.237 OA
ATOM     69  O   UNL A   1      38.716  36.386  41.740  1.00  0.00    -0.744 OA
ENDBRANCH  65  66
ENDBRANCH  39  60
ENDBRANCH  13  14
ENDBRANCH   6   8
ENDBRANCH   3   4
ENDBRANCH   2   3
ENDBRANCH   1   2
BRANCH   1  70
ATOM     70  C   UNL A   1      37.223  23.061  25.671  1.00  0.00     0.116 C 
BRANCH  70  71
ATOM     71  N   UNL A   1      36.157  22.868  26.637  1.00  0.00    -0.352 N 
ATOM     72  C   UNL A   1      34.820  23.149  26.480  1.00  0.00     0.255 C 
ATOM     73  H   UNL A   1      36.421  22.493  27.507  1.00  0.00     0.163 HD
ATOM     74  O   UNL A   1      34.000  22.788  27.317  1.00  0.00    -0.269 OA
BRANCH  72  75
ATOM     75  C   UNL A   1      34.373  23.972  25.343  1.00  0.00     0.082 A 
ATOM     76  C   UNL A   1      34.321  25.355  25.610  1.00  0.00     0.026 A 
ATOM     77  C   UNL A   1      34.008  23.490  24.087  1.00  0.00     0.132 A 
ATOM     78  C   UNL A   1      33.958  26.276  24.615  1.00  0.00    -0.017 A 
ATOM     79  C   UNL A   1      33.667  24.417  23.087  1.00  0.00     0.056 A 
ATOM     80  C   UNL A   1      33.908  27.658  24.860  1.00  0.00     0.009 A 
ATOM     81  C   UNL A   1      33.642  25.798  23.327  1.00  0.00    -0.015 A 
ATOM     82  C   UNL A   1      33.569  28.551  23.841  1.00  0.00     0.001 A 
ATOM     83  C   UNL A   1      33.310  26.706  22.310  1.00  0.00     0.009 A 
ATOM     84  C   UNL A   1      33.278  28.077  22.565  1.00  0.00     0.001 A 
BRANCH  77  85
ATOM     85  O   UNL A   1      33.999  22.221  23.599  1.00  0.00    -0.490 OA
BRANCH  85  86
ATOM     86  C   UNL A   1      32.792  21.469  23.478  1.00  0.00     0.257 C 
BRANCH  86  87
ATOM     87  C   UNL A   1      32.671  20.555  24.691  1.00  0.00     0.197 C 
BRANCH  87  88
ATOM     88  O   UNL A   1      31.938  21.181  25.746  1.00  0.00    -0.393 OA
ATOM     89  H   UNL A   1      31.205  21.693  25.370  1.00  0.00     0.210 HD
ENDBRANCH  87  88
ENDBRANCH  86  87
ENDBRANCH  85  86
ENDBRANCH  77  85
ENDBRANCH  72  75
ENDBRANCH  70  71
ENDBRANCH   1  70
TORSDOF 18
ENDMDL
