MODEL 1
REMARK VINA RESULT:     -10.2      0.000      0.000
REMARK SMILES C[C@@H]([C@H](C)O)[C@H](C(=O)NCCCCNC(=O)c1ccc(-c2c3nc(c(-c4ccc(S(=O)(=O)[O-])cc4)c4ccc([nH]4)c(-c4ccc(S(=O)(=O)[O-])cc4)c4nc(c(-c5ccc(S(=O)(=O)[O-])cc5)c5ccc2[nH]5)C=C4)C=C3)cc1)c1ccccc1Br
REMARK SMILES IDX 11 1 10 2 9 3 7 4 8 5 6 7 2 8 1 9 3 10 4 11 5 12 77 14 78 15
REMARK SMILES IDX 82 16 79 17 81 18 83 19 80 20 12 21 13 22 14 23 15 24 16 26
REMARK SMILES IDX 17 27 18 28 76 29 19 30 75 31 20 32 21 33 22 34 69 35 23 36
REMARK SMILES IDX 74 37 68 38 70 39 24 40 73 41 67 42 66 43 25 45 55 46 36 47
REMARK SMILES IDX 54 48 37 49 40 50 53 51 71 52 38 53 39 54 52 56 72 57 41 58
REMARK SMILES IDX 26 59 27 60 35 61 28 62 34 63 29 64 30 65 31 66 32 67 33 68
REMARK SMILES IDX 56 69 57 70 65 71 58 72 64 73 59 74 60 75 61 76 62 77 63 78
REMARK SMILES IDX 42 79 43 80 51 81 44 82 50 83 45 84 46 85 47 86 48 87 49 88
REMARK H PARENT 9 6 5 13 14 25 70 44 40 55
REMARK Flexibility Score: inf
ROOT
ATOM      1  C   UNL A   1      31.753  27.527  26.081  1.00  0.00     0.023 C 
ENDROOT
BRANCH   1   2
ATOM      2  C   UNL A   1      31.173  26.395  25.242  1.00  0.00     0.116 C 
BRANCH   2   3
ATOM      3  N   UNL A   1      31.998  26.144  24.089  1.00  0.00    -0.356 N 
ATOM      4  C   UNL A   1      32.785  25.104  23.713  1.00  0.00     0.227 C 
ATOM      5  O   UNL A   1      33.256  25.266  22.581  1.00  0.00    -0.274 OA
ATOM      6  H   UNL A   1      31.991  26.881  23.437  1.00  0.00     0.163 HD
BRANCH   4   7
ATOM      7  C   UNL A   1      32.918  23.753  24.493  1.00  0.00     0.115 C 
BRANCH   7   8
ATOM      8  C   UNL A   1      31.766  22.762  24.086  1.00  0.00     0.031 C 
ATOM      9  C   UNL A   1      32.342  21.661  23.160  1.00  0.00     0.011 C 
BRANCH   8  10
ATOM     10  C   UNL A   1      30.985  22.035  25.227  1.00  0.00     0.115 C 
ATOM     11  C   UNL A   1      30.792  22.930  26.454  1.00  0.00     0.038 C 
BRANCH  10  12
ATOM     12  O   UNL A   1      31.583  20.813  25.632  1.00  0.00    -0.393 OA
ATOM     13  H   UNL A   1      30.891  20.160  25.818  1.00  0.00     0.210 HD
ENDBRANCH  10  12
ENDBRANCH   8  10
ENDBRANCH   7   8
BRANCH   7  14
ATOM     14  C   UNL A   1      34.350  23.170  24.685  1.00  0.00    -0.021 A 
ATOM     15  C   UNL A   1      35.324  23.550  23.728  1.00  0.00     0.006 A 
ATOM     16  C   UNL A   1      34.816  22.250  25.640  1.00  0.00     0.021 A 
ATOM     17  C   UNL A   1      36.522  22.845  23.541  1.00  0.00     0.000 A 
ATOM     18  C   UNL A   1      35.978  21.484  25.412  1.00  0.00     0.016 A 
ATOM     19  Br  UNL A   1      34.358  22.265  27.489  1.00  0.00    -0.051 Br
ATOM     20  C   UNL A   1      36.806  21.749  24.335  1.00  0.00     0.001 A 
ENDBRANCH   7  14
ENDBRANCH   4   7
ENDBRANCH   2   3
ENDBRANCH   1   2
BRANCH   1  21
ATOM     21  C   UNL A   1      32.948  28.232  25.447  1.00  0.00     0.023 C 
BRANCH  21  22
ATOM     22  C   UNL A   1      34.045  28.617  26.427  1.00  0.00     0.116 C 
BRANCH  22  23
ATOM     23  N   UNL A   1      33.803  29.891  27.089  1.00  0.00    -0.352 N 
ATOM     24  C   UNL A   1      34.622  30.572  27.962  1.00  0.00     0.251 C 
ATOM     25  H   UNL A   1      32.942  30.324  26.884  1.00  0.00     0.163 HD
ATOM     26  O   UNL A   1      34.229  31.579  28.523  1.00  0.00    -0.269 OA
BRANCH  24  27
ATOM     27  C   UNL A   1      35.970  30.028  28.230  1.00  0.00     0.039 A 
ATOM     28  C   UNL A   1      36.956  30.154  27.250  1.00  0.00     0.014 A 
ATOM     29  C   UNL A   1      36.266  29.451  29.469  1.00  0.00     0.014 A 
ATOM     30  C   UNL A   1      38.262  29.754  27.537  1.00  0.00     0.010 A 
ATOM     31  C   UNL A   1      37.580  29.134  29.780  1.00  0.00     0.010 A 
ATOM     32  C   UNL A   1      38.590  29.272  28.816  1.00  0.00    -0.014 A 
BRANCH  32  33
ATOM     33  C   UNL A   1      39.975  28.873  29.162  1.00  0.00     0.031 A 
ATOM     34  C   UNL A   1      40.884  29.862  29.840  1.00  0.00     0.074 A 
ATOM     35  C   UNL A   1      40.434  27.658  28.805  1.00  0.00     0.049 A 
ATOM     36  N   UNL A   1      42.149  29.743  30.148  1.00  0.00    -0.248 NA
ATOM     37  C   UNL A   1      40.302  31.171  30.186  1.00  0.00     0.031 C 
ATOM     38  C   UNL A   1      39.663  26.631  28.099  1.00  0.00     0.029 A 
ATOM     39  N   UNL A   1      41.668  27.084  28.979  1.00  0.00    -0.354 N 
ATOM     40  C   UNL A   1      42.519  30.966  30.694  1.00  0.00     0.074 A 
ATOM     41  C   UNL A   1      41.361  31.829  30.629  1.00  0.00     0.031 C 
ATOM     42  C   UNL A   1      40.434  25.544  27.926  1.00  0.00     0.029 A 
ATOM     43  C   UNL A   1      41.760  25.809  28.474  1.00  0.00     0.049 A 
ATOM     44  H   UNL A   1      42.417  27.543  29.423  1.00  0.00     0.167 HD
ATOM     45  C   UNL A   1      43.709  31.332  31.225  1.00  0.00     0.031 A 
ATOM     46  C   UNL A   1      42.798  24.950  28.457  1.00  0.00     0.031 A 
ATOM     47  C   UNL A   1      44.848  30.459  31.317  1.00  0.00     0.049 A 
ATOM     48  C   UNL A   1      44.103  25.368  29.077  1.00  0.00     0.074 A 
ATOM     49  C   UNL A   1      46.081  30.711  31.891  1.00  0.00     0.029 A 
ATOM     50  N   UNL A   1      44.889  29.162  30.829  1.00  0.00    -0.354 N 
ATOM     51  N   UNL A   1      44.416  26.509  29.643  1.00  0.00    -0.248 NA
ATOM     52  C   UNL A   1      45.188  24.378  29.071  1.00  0.00     0.031 C 
ATOM     53  C   UNL A   1      46.880  29.575  31.720  1.00  0.00     0.029 A 
ATOM     54  C   UNL A   1      46.128  28.602  31.081  1.00  0.00     0.049 A 
ATOM     55  H   UNL A   1      44.145  28.707  30.372  1.00  0.00     0.167 HD
ATOM     56  C   UNL A   1      45.726  26.364  30.085  1.00  0.00     0.074 A 
ATOM     57  C   UNL A   1      46.141  25.021  29.732  1.00  0.00     0.031 C 
ATOM     58  C   UNL A   1      46.515  27.260  30.727  1.00  0.00     0.031 A 
BRANCH  45  59
ATOM     59  C   UNL A   1      43.830  32.737  31.750  1.00  0.00    -0.014 A 
ATOM     60  C   UNL A   1      43.648  33.017  33.117  1.00  0.00     0.010 A 
ATOM     61  C   UNL A   1      44.148  33.789  30.872  1.00  0.00     0.010 A 
ATOM     62  C   UNL A   1      43.731  34.330  33.587  1.00  0.00     0.020 A 
ATOM     63  C   UNL A   1      44.262  35.099  31.344  1.00  0.00     0.020 A 
ATOM     64  C   UNL A   1      44.033  35.364  32.696  1.00  0.00     0.054 A 
BRANCH  64  65
ATOM     65  S   UNL A   1      44.150  37.057  33.335  1.00  0.00     0.124 S 
ATOM     66  O   UNL A   1      42.807  37.269  33.872  1.00  0.00    -0.237 OA
ATOM     67  O   UNL A   1      45.213  36.952  34.332  1.00  0.00    -0.237 OA
ATOM     68  O   UNL A   1      44.482  37.851  32.156  1.00  0.00    -0.744 OA
ENDBRANCH  64  65
ENDBRANCH  45  59
BRANCH  46  69
ATOM     69  C   UNL A   1      42.636  23.597  27.856  1.00  0.00    -0.014 A 
ATOM     70  C   UNL A   1      43.012  23.364  26.522  1.00  0.00     0.010 A 
ATOM     71  C   UNL A   1      42.115  22.534  28.616  1.00  0.00     0.010 A 
ATOM     72  C   UNL A   1      42.852  22.099  25.950  1.00  0.00     0.020 A 
ATOM     73  C   UNL A   1      41.976  21.261  28.055  1.00  0.00     0.020 A 
ATOM     74  C   UNL A   1      42.334  21.055  26.722  1.00  0.00     0.054 A 
BRANCH  74  75
ATOM     75  S   UNL A   1      42.179  19.408  25.973  1.00  0.00     0.124 S 
ATOM     76  O   UNL A   1      43.003  19.539  24.778  1.00  0.00    -0.237 OA
ATOM     77  O   UNL A   1      42.708  18.535  27.017  1.00  0.00    -0.237 OA
ATOM     78  O   UNL A   1      40.742  19.277  25.735  1.00  0.00    -0.744 OA
ENDBRANCH  74  75
ENDBRANCH  46  69
BRANCH  58  79
ATOM     79  C   UNL A   1      47.893  26.807  31.127  1.00  0.00    -0.014 A 
ATOM     80  C   UNL A   1      48.115  26.134  32.341  1.00  0.00     0.010 A 
ATOM     81  C   UNL A   1      48.969  27.007  30.243  1.00  0.00     0.010 A 
ATOM     82  C   UNL A   1      49.397  25.692  32.677  1.00  0.00     0.020 A 
ATOM     83  C   UNL A   1      50.247  26.545  30.565  1.00  0.00     0.020 A 
ATOM     84  C   UNL A   1      50.455  25.901  31.786  1.00  0.00     0.054 A 
BRANCH  84  85
ATOM     85  S   UNL A   1      52.101  25.275  32.222  1.00  0.00     0.124 S 
ATOM     86  O   UNL A   1      51.860  23.839  32.336  1.00  0.00    -0.237 OA
ATOM     87  O   UNL A   1      52.915  25.688  31.082  1.00  0.00    -0.237 OA
ATOM     88  O   UNL A   1      52.407  25.958  33.477  1.00  0.00    -0.744 OA
ENDBRANCH  84  85
ENDBRANCH  58  79
ENDBRANCH  32  33
ENDBRANCH  24  27
ENDBRANCH  22  23
ENDBRANCH  21  22
ENDBRANCH   1  21
TORSDOF 18
ENDMDL
MODEL 2
REMARK VINA RESULT:     -10.2      3.529      9.320
REMARK SMILES C[C@@H]([C@H](C)O)[C@H](C(=O)NCCCCNC(=O)c1ccc(-c2c3nc(c(-c4ccc(S(=O)(=O)[O-])cc4)c4ccc([nH]4)c(-c4ccc(S(=O)(=O)[O-])cc4)c4nc(c(-c5ccc(S(=O)(=O)[O-])cc5)c5ccc2[nH]5)C=C4)C=C3)cc1)c1ccccc1Br
REMARK SMILES IDX 11 1 10 2 9 3 7 4 8 5 6 7 2 8 1 9 3 10 4 11 5 12 77 14 78 15
REMARK SMILES IDX 82 16 79 17 81 18 83 19 80 20 12 21 13 22 14 23 15 24 16 26
REMARK SMILES IDX 17 27 18 28 76 29 19 30 75 31 20 32 21 33 22 34 69 35 23 36
REMARK SMILES IDX 74 37 68 38 70 39 24 40 73 41 67 42 66 43 25 45 55 46 36 47
REMARK SMILES IDX 54 48 37 49 40 50 53 51 71 52 38 53 39 54 52 56 72 57 41 58
REMARK SMILES IDX 26 59 27 60 35 61 28 62 34 63 29 64 30 65 31 66 32 67 33 68
REMARK SMILES IDX 56 69 57 70 65 71 58 72 64 73 59 74 60 75 61 76 62 77 63 78
REMARK SMILES IDX 42 79 43 80 51 81 44 82 50 83 45 84 46 85 47 86 48 87 49 88
REMARK H PARENT 9 6 5 13 14 25 70 44 40 55
REMARK Flexibility Score: inf
ROOT
ATOM      1  C   UNL A   1      33.209  29.906  27.298  1.00  0.00     0.023 C 
ENDROOT
BRANCH   1   2
ATOM      2  C   UNL A   1      32.325  30.132  26.078  1.00  0.00     0.116 C 
BRANCH   2   3
ATOM      3  N   UNL A   1      33.069  29.919  24.865  1.00  0.00    -0.356 N 
ATOM      4  C   UNL A   1      33.048  28.950  23.914  1.00  0.00     0.227 C 
ATOM      5  O   UNL A   1      33.809  29.208  22.974  1.00  0.00    -0.274 OA
ATOM      6  H   UNL A   1      33.734  30.623  24.687  1.00  0.00     0.163 HD
BRANCH   4   7
ATOM      7  C   UNL A   1      32.032  27.759  23.870  1.00  0.00     0.115 C 
BRANCH   7   8
ATOM      8  C   UNL A   1      30.870  28.059  22.854  1.00  0.00     0.031 C 
ATOM      9  C   UNL A   1      29.578  27.347  23.330  1.00  0.00     0.011 C 
BRANCH   8  10
ATOM     10  C   UNL A   1      30.495  29.551  22.584  1.00  0.00     0.115 C 
ATOM     11  C   UNL A   1      29.288  30.000  23.413  1.00  0.00     0.038 C 
BRANCH  10  12
ATOM     12  O   UNL A   1      30.249  29.833  21.215  1.00  0.00    -0.393 OA
ATOM     13  H   UNL A   1      30.180  29.001  20.721  1.00  0.00     0.210 HD
ENDBRANCH  10  12
ENDBRANCH   8  10
ENDBRANCH   7   8
BRANCH   7  14
ATOM     14  C   UNL A   1      32.615  26.315  23.910  1.00  0.00    -0.021 A 
ATOM     15  C   UNL A   1      32.572  25.647  25.160  1.00  0.00     0.006 A 
ATOM     16  C   UNL A   1      33.254  25.584  22.893  1.00  0.00     0.021 A 
ATOM     17  C   UNL A   1      33.365  24.528  25.452  1.00  0.00     0.000 A 
ATOM     18  C   UNL A   1      34.115  24.509  23.196  1.00  0.00     0.016 A 
ATOM     19  Br  UNL A   1      32.696  25.522  21.073  1.00  0.00    -0.051 Br
ATOM     20  C   UNL A   1      34.207  24.011  24.485  1.00  0.00     0.001 A 
ENDBRANCH   7  14
ENDBRANCH   4   7
ENDBRANCH   2   3
ENDBRANCH   1   2
BRANCH   1  21
ATOM     21  C   UNL A   1      34.482  29.114  27.014  1.00  0.00     0.023 C 
BRANCH  21  22
ATOM     22  C   UNL A   1      35.717  29.629  27.735  1.00  0.00     0.116 C 
BRANCH  22  23
ATOM     23  N   UNL A   1      35.548  29.713  29.179  1.00  0.00    -0.352 N 
ATOM     24  C   UNL A   1      36.509  29.624  30.161  1.00  0.00     0.251 C 
ATOM     25  H   UNL A   1      34.625  29.854  29.494  1.00  0.00     0.163 HD
ATOM     26  O   UNL A   1      36.192  29.602  31.337  1.00  0.00    -0.269 OA
BRANCH  24  27
ATOM     27  C   UNL A   1      37.925  29.517  29.752  1.00  0.00     0.039 A 
ATOM     28  C   UNL A   1      38.888  29.242  30.723  1.00  0.00     0.014 A 
ATOM     29  C   UNL A   1      38.281  29.628  28.405  1.00  0.00     0.014 A 
ATOM     30  C   UNL A   1      40.210  29.019  30.333  1.00  0.00     0.010 A 
ATOM     31  C   UNL A   1      39.577  29.322  28.012  1.00  0.00     0.010 A 
ATOM     32  C   UNL A   1      40.556  29.024  28.971  1.00  0.00    -0.014 A 
BRANCH  32  33
ATOM     33  C   UNL A   1      41.943  28.755  28.523  1.00  0.00     0.031 A 
ATOM     34  C   UNL A   1      42.322  27.370  28.076  1.00  0.00     0.074 A 
ATOM     35  C   UNL A   1      42.871  29.729  28.587  1.00  0.00     0.049 A 
ATOM     36  N   UNL A   1      43.496  26.906  27.731  1.00  0.00    -0.248 NA
ATOM     37  C   UNL A   1      41.247  26.363  28.047  1.00  0.00     0.031 C 
ATOM     38  C   UNL A   1      42.636  31.100  29.050  1.00  0.00     0.029 A 
ATOM     39  N   UNL A   1      44.206  29.712  28.268  1.00  0.00    -0.354 N 
ATOM     40  C   UNL A   1      43.304  25.554  27.474  1.00  0.00     0.074 A 
ATOM     41  C   UNL A   1      41.916  25.260  27.751  1.00  0.00     0.031 C 
ATOM     42  C   UNL A   1      43.781  31.797  28.958  1.00  0.00     0.029 A 
ATOM     43  C   UNL A   1      44.837  30.917  28.466  1.00  0.00     0.049 A 
ATOM     44  H   UNL A   1      44.668  28.911  27.930  1.00  0.00     0.167 HD
ATOM     45  C   UNL A   1      44.197  24.642  27.024  1.00  0.00     0.031 A 
ATOM     46  C   UNL A   1      46.122  31.272  28.272  1.00  0.00     0.031 A 
ATOM     47  C   UNL A   1      45.569  24.946  26.718  1.00  0.00     0.049 A 
ATOM     48  C   UNL A   1      47.090  30.249  27.746  1.00  0.00     0.074 A 
ATOM     49  C   UNL A   1      46.541  24.110  26.200  1.00  0.00     0.029 A 
ATOM     50  N   UNL A   1      46.159  26.189  26.896  1.00  0.00    -0.354 N 
ATOM     51  N   UNL A   1      46.877  28.989  27.451  1.00  0.00    -0.248 NA
ATOM     52  C   UNL A   1      48.468  30.701  27.510  1.00  0.00     0.031 C 
ATOM     53  C   UNL A   1      47.731  24.839  26.095  1.00  0.00     0.029 A 
ATOM     54  C   UNL A   1      47.485  26.140  26.505  1.00  0.00     0.049 A 
ATOM     55  H   UNL A   1      45.701  26.985  27.248  1.00  0.00     0.167 HD
ATOM     56  C   UNL A   1      48.087  28.504  26.969  1.00  0.00     0.074 A 
ATOM     57  C   UNL A   1      49.023  29.609  26.999  1.00  0.00     0.031 C 
ATOM     58  C   UNL A   1      48.396  27.256  26.537  1.00  0.00     0.031 A 
BRANCH  45  59
ATOM     59  C   UNL A   1      43.709  23.231  26.832  1.00  0.00    -0.014 A 
ATOM     60  C   UNL A   1      43.125  22.517  27.895  1.00  0.00     0.010 A 
ATOM     61  C   UNL A   1      43.818  22.617  25.572  1.00  0.00     0.010 A 
ATOM     62  C   UNL A   1      42.705  21.197  27.713  1.00  0.00     0.020 A 
ATOM     63  C   UNL A   1      43.370  21.307  25.378  1.00  0.00     0.020 A 
ATOM     64  C   UNL A   1      42.835  20.598  26.457  1.00  0.00     0.054 A 
BRANCH  64  65
ATOM     65  S   UNL A   1      42.268  18.889  26.244  1.00  0.00     0.124 S 
ATOM     66  O   UNL A   1      40.882  19.083  25.824  1.00  0.00    -0.237 OA
ATOM     67  O   UNL A   1      43.169  18.376  25.215  1.00  0.00    -0.237 OA
ATOM     68  O   UNL A   1      42.440  18.299  27.569  1.00  0.00    -0.744 OA
ENDBRANCH  64  65
ENDBRANCH  45  59
BRANCH  46  69
ATOM     69  C   UNL A   1      46.559  32.668  28.550  1.00  0.00    -0.014 A 
ATOM     70  C   UNL A   1      47.047  33.018  29.821  1.00  0.00     0.010 A 
ATOM     71  C   UNL A   1      46.501  33.650  27.545  1.00  0.00     0.010 A 
ATOM     72  C   UNL A   1      47.450  34.329  30.090  1.00  0.00     0.020 A 
ATOM     73  C   UNL A   1      46.925  34.957  27.803  1.00  0.00     0.020 A 
ATOM     74  C   UNL A   1      47.386  35.291  29.078  1.00  0.00     0.054 A 
BRANCH  74  75
ATOM     75  S   UNL A   1      47.957  36.977  29.435  1.00  0.00     0.124 S 
ATOM     76  O   UNL A   1      46.704  37.723  29.459  1.00  0.00    -0.237 OA
ATOM     77  O   UNL A   1      48.626  36.818  30.723  1.00  0.00    -0.237 OA
ATOM     78  O   UNL A   1      48.847  37.278  28.315  1.00  0.00    -0.744 OA
ENDBRANCH  74  75
ENDBRANCH  46  69
BRANCH  58  79
ATOM     79  C   UNL A   1      49.792  27.027  26.025  1.00  0.00    -0.014 A 
ATOM     80  C   UNL A   1      50.825  26.618  26.885  1.00  0.00     0.010 A 
ATOM     81  C   UNL A   1      50.054  27.167  24.650  1.00  0.00     0.010 A 
ATOM     82  C   UNL A   1      52.106  26.378  26.381  1.00  0.00     0.020 A 
ATOM     83  C   UNL A   1      51.327  26.904  24.140  1.00  0.00     0.020 A 
ATOM     84  C   UNL A   1      52.348  26.523  25.012  1.00  0.00     0.054 A 
BRANCH  84  85
ATOM     85  S   UNL A   1      54.007  26.159  24.374  1.00  0.00     0.124 S 
ATOM     86  O   UNL A   1      54.825  27.146  25.074  1.00  0.00    -0.237 OA
ATOM     87  O   UNL A   1      54.211  24.771  24.781  1.00  0.00    -0.237 OA
ATOM     88  O   UNL A   1      53.876  26.366  22.934  1.00  0.00    -0.744 OA
ENDBRANCH  84  85
ENDBRANCH  58  79
ENDBRANCH  32  33
ENDBRANCH  24  27
ENDBRANCH  22  23
ENDBRANCH  21  22
ENDBRANCH   1  21
TORSDOF 18
ENDMDL
MODEL 3
REMARK VINA RESULT:     -10.1      4.618     10.346
REMARK SMILES C[C@@H]([C@H](C)O)[C@H](C(=O)NCCCCNC(=O)c1ccc(-c2c3nc(c(-c4ccc(S(=O)(=O)[O-])cc4)c4ccc([nH]4)c(-c4ccc(S(=O)(=O)[O-])cc4)c4nc(c(-c5ccc(S(=O)(=O)[O-])cc5)c5ccc2[nH]5)C=C4)C=C3)cc1)c1ccccc1Br
REMARK SMILES IDX 11 1 10 2 9 3 7 4 8 5 6 7 2 8 1 9 3 10 4 11 5 12 77 14 78 15
REMARK SMILES IDX 82 16 79 17 81 18 83 19 80 20 12 21 13 22 14 23 15 24 16 26
REMARK SMILES IDX 17 27 18 28 76 29 19 30 75 31 20 32 21 33 22 34 69 35 23 36
REMARK SMILES IDX 74 37 68 38 70 39 24 40 73 41 67 42 66 43 25 45 55 46 36 47
REMARK SMILES IDX 54 48 37 49 40 50 53 51 71 52 38 53 39 54 52 56 72 57 41 58
REMARK SMILES IDX 26 59 27 60 35 61 28 62 34 63 29 64 30 65 31 66 32 67 33 68
REMARK SMILES IDX 56 69 57 70 65 71 58 72 64 73 59 74 60 75 61 76 62 77 63 78
REMARK SMILES IDX 42 79 43 80 51 81 44 82 50 83 45 84 46 85 47 86 48 87 49 88
REMARK H PARENT 9 6 5 13 14 25 70 44 40 55
REMARK Flexibility Score: inf
ROOT
ATOM      1  C   UNL A   1      38.456  23.510  26.346  1.00  0.00     0.023 C 
ENDROOT
BRANCH   1   2
ATOM      2  C   UNL A   1      37.341  22.576  25.891  1.00  0.00     0.116 C 
BRANCH   2   3
ATOM      3  N   UNL A   1      37.244  22.562  24.455  1.00  0.00    -0.356 N 
ATOM      4  C   UNL A   1      36.255  22.884  23.583  1.00  0.00     0.227 C 
ATOM      5  O   UNL A   1      36.633  22.808  22.407  1.00  0.00    -0.274 OA
ATOM      6  H   UNL A   1      38.067  22.253  24.013  1.00  0.00     0.163 HD
BRANCH   4   7
ATOM      7  C   UNL A   1      34.872  23.498  23.983  1.00  0.00     0.115 C 
BRANCH   7   8
ATOM      8  C   UNL A   1      34.029  23.846  22.702  1.00  0.00     0.031 C 
ATOM      9  C   UNL A   1      32.922  22.778  22.511  1.00  0.00     0.011 C 
BRANCH   8  10
ATOM     10  C   UNL A   1      33.330  25.243  22.638  1.00  0.00     0.115 C 
ATOM     11  C   UNL A   1      31.806  25.127  22.730  1.00  0.00     0.038 C 
BRANCH  10  12
ATOM     12  O   UNL A   1      33.670  25.993  21.483  1.00  0.00    -0.393 OA
ATOM     13  H   UNL A   1      33.096  26.773  21.422  1.00  0.00     0.210 HD
ENDBRANCH  10  12
ENDBRANCH   8  10
ENDBRANCH   7   8
BRANCH   7  14
ATOM     14  C   UNL A   1      34.128  22.868  25.199  1.00  0.00    -0.021 A 
ATOM     15  C   UNL A   1      33.311  23.738  25.963  1.00  0.00     0.006 A 
ATOM     16  C   UNL A   1      34.202  21.559  25.706  1.00  0.00     0.021 A 
ATOM     17  C   UNL A   1      32.885  23.433  27.264  1.00  0.00     0.000 A 
ATOM     18  C   UNL A   1      33.849  21.271  27.040  1.00  0.00     0.016 A 
ATOM     19  Br  UNL A   1      34.231  19.975  24.649  1.00  0.00    -0.051 Br
ATOM     20  C   UNL A   1      33.233  22.223  27.836  1.00  0.00     0.001 A 
ENDBRANCH   7  14
ENDBRANCH   4   7
ENDBRANCH   2   3
ENDBRANCH   1   2
BRANCH   1  21
ATOM     21  C   UNL A   1      39.710  22.797  26.844  1.00  0.00     0.023 C 
BRANCH  21  22
ATOM     22  C   UNL A   1      40.863  23.724  27.193  1.00  0.00     0.116 C 
BRANCH  22  23
ATOM     23  N   UNL A   1      41.433  24.396  26.034  1.00  0.00    -0.352 N 
ATOM     24  C   UNL A   1      41.616  25.745  25.830  1.00  0.00     0.251 C 
ATOM     25  H   UNL A   1      41.726  23.808  25.300  1.00  0.00     0.163 HD
ATOM     26  O   UNL A   1      42.005  26.162  24.754  1.00  0.00    -0.269 OA
BRANCH  24  27
ATOM     27  C   UNL A   1      41.292  26.673  26.934  1.00  0.00     0.039 A 
ATOM     28  C   UNL A   1      40.378  26.269  27.908  1.00  0.00     0.014 A 
ATOM     29  C   UNL A   1      41.937  27.910  27.030  1.00  0.00     0.014 A 
ATOM     30  C   UNL A   1      40.155  27.086  29.018  1.00  0.00     0.010 A 
ATOM     31  C   UNL A   1      41.778  28.678  28.175  1.00  0.00     0.010 A 
ATOM     32  C   UNL A   1      40.878  28.280  29.175  1.00  0.00    -0.014 A 
BRANCH  32  33
ATOM     33  C   UNL A   1      40.690  29.150  30.360  1.00  0.00     0.031 A 
ATOM     34  C   UNL A   1      41.553  28.946  31.575  1.00  0.00     0.074 A 
ATOM     35  C   UNL A   1      39.703  30.067  30.371  1.00  0.00     0.049 A 
ATOM     36  N   UNL A   1      41.492  29.537  32.740  1.00  0.00    -0.248 NA
ATOM     37  C   UNL A   1      42.601  27.914  31.480  1.00  0.00     0.031 C 
ATOM     38  C   UNL A   1      38.768  30.325  29.272  1.00  0.00     0.029 A 
ATOM     39  N   UNL A   1      39.316  30.949  31.348  1.00  0.00    -0.354 N 
ATOM     40  C   UNL A   1      42.470  28.932  33.520  1.00  0.00     0.074 A 
ATOM     41  C   UNL A   1      43.074  27.894  32.716  1.00  0.00     0.031 C 
ATOM     42  C   UNL A   1      37.935  31.318  29.627  1.00  0.00     0.029 A 
ATOM     43  C   UNL A   1      38.251  31.741  30.988  1.00  0.00     0.049 A 
ATOM     44  H   UNL A   1      39.757  31.008  32.226  1.00  0.00     0.167 HD
ATOM     45  C   UNL A   1      42.848  29.229  34.785  1.00  0.00     0.031 A 
ATOM     46  C   UNL A   1      37.604  32.701  31.677  1.00  0.00     0.031 A 
ATOM     47  C   UNL A   1      42.267  30.284  35.570  1.00  0.00     0.049 A 
ATOM     48  C   UNL A   1      38.060  33.032  33.071  1.00  0.00     0.074 A 
ATOM     49  C   UNL A   1      42.618  30.707  36.839  1.00  0.00     0.029 A 
ATOM     50  N   UNL A   1      41.217  31.089  35.153  1.00  0.00    -0.354 N 
ATOM     51  N   UNL A   1      39.027  32.488  33.772  1.00  0.00    -0.248 NA
ATOM     52  C   UNL A   1      37.349  34.117  33.761  1.00  0.00     0.031 C 
ATOM     53  C   UNL A   1      41.757  31.747  37.204  1.00  0.00     0.029 A 
ATOM     54  C   UNL A   1      40.901  32.001  36.144  1.00  0.00     0.049 A 
ATOM     55  H   UNL A   1      40.765  31.020  34.282  1.00  0.00     0.167 HD
ATOM     56  C   UNL A   1      39.057  33.183  34.975  1.00  0.00     0.074 A 
ATOM     57  C   UNL A   1      38.023  34.195  34.901  1.00  0.00     0.031 C 
ATOM     58  C   UNL A   1      39.871  33.004  36.044  1.00  0.00     0.031 A 
BRANCH  45  59
ATOM     59  C   UNL A   1      43.948  28.399  35.391  1.00  0.00    -0.014 A 
ATOM     60  C   UNL A   1      43.658  27.212  36.089  1.00  0.00     0.010 A 
ATOM     61  C   UNL A   1      45.289  28.798  35.246  1.00  0.00     0.010 A 
ATOM     62  C   UNL A   1      44.685  26.467  36.674  1.00  0.00     0.020 A 
ATOM     63  C   UNL A   1      46.321  28.039  35.805  1.00  0.00     0.020 A 
ATOM     64  C   UNL A   1      46.010  26.888  36.533  1.00  0.00     0.054 A 
BRANCH  64  65
ATOM     65  S   UNL A   1      47.325  25.894  37.289  1.00  0.00     0.124 S 
ATOM     66  O   UNL A   1      48.450  26.826  37.277  1.00  0.00    -0.237 OA
ATOM     67  O   UNL A   1      46.779  25.589  38.610  1.00  0.00    -0.237 OA
ATOM     68  O   UNL A   1      47.454  24.749  36.392  1.00  0.00    -0.744 OA
ENDBRANCH  64  65
ENDBRANCH  45  59
BRANCH  46  69
ATOM     69  C   UNL A   1      36.474  33.437  31.046  1.00  0.00    -0.014 A 
ATOM     70  C   UNL A   1      36.604  33.954  29.745  1.00  0.00     0.010 A 
ATOM     71  C   UNL A   1      35.262  33.617  31.737  1.00  0.00     0.010 A 
ATOM     72  C   UNL A   1      35.550  34.655  29.152  1.00  0.00     0.020 A 
ATOM     73  C   UNL A   1      34.197  34.297  31.138  1.00  0.00     0.020 A 
ATOM     74  C   UNL A   1      34.352  34.822  29.854  1.00  0.00     0.054 A 
BRANCH  74  75
ATOM     75  S   UNL A   1      32.980  35.695  29.047  1.00  0.00     0.124 S 
ATOM     76  O   UNL A   1      32.400  34.646  28.216  1.00  0.00    -0.237 OA
ATOM     77  O   UNL A   1      32.169  36.127  30.182  1.00  0.00    -0.237 OA
ATOM     78  O   UNL A   1      33.645  36.776  28.321  1.00  0.00    -0.744 OA
ENDBRANCH  74  75
ENDBRANCH  46  69
BRANCH  58  79
ATOM     79  C   UNL A   1      39.704  33.944  37.207  1.00  0.00    -0.014 A 
ATOM     80  C   UNL A   1      40.304  35.215  37.208  1.00  0.00     0.010 A 
ATOM     81  C   UNL A   1      38.883  33.568  38.286  1.00  0.00     0.010 A 
ATOM     82  C   UNL A   1      40.107  36.085  38.283  1.00  0.00     0.020 A 
ATOM     83  C   UNL A   1      38.664  34.445  39.350  1.00  0.00     0.020 A 
ATOM     84  C   UNL A   1      39.288  35.693  39.348  1.00  0.00     0.054 A 
BRANCH  84  85
ATOM     85  S   UNL A   1      39.009  36.860  40.709  1.00  0.00     0.124 S 
ATOM     86  O   UNL A   1      38.301  37.946  40.038  1.00  0.00    -0.237 OA
ATOM     87  O   UNL A   1      38.212  36.074  41.647  1.00  0.00    -0.237 OA
ATOM     88  O   UNL A   1      40.358  37.183  41.167  1.00  0.00    -0.744 OA
ENDBRANCH  84  85
ENDBRANCH  58  79
ENDBRANCH  32  33
ENDBRANCH  24  27
ENDBRANCH  22  23
ENDBRANCH  21  22
ENDBRANCH   1  21
TORSDOF 18
ENDMDL
