MODEL 1
REMARK VINA RESULT:      -9.6      0.000      0.000
REMARK SMILES Cc1ccc(C(=O)NCCCCNC(=O)c2ccc(-c3c4nc(c(-c5ccc(S(=O)(=O)[O-])cc5)c5ccc([nH]5)c(-c5ccc(S(=O)(=O)[O-])cc5)c5nc(c(-c6ccc(S(=O)(=O)[O-])cc6)c6ccc3[nH]6)C=C5)C=C4)cc2)c2c1N[C@H](c1ccccc1F)[C@H]1CC=C[C@@H]21
REMARK SMILES IDX 11 1 10 2 9 3 8 4 6 5 7 6 5 8 1 9 2 10 3 11 77 12 4 13 76 14
REMARK SMILES IDX 78 15 91 16 79 17 87 19 90 20 88 21 89 22 80 23 81 24 85 25
REMARK SMILES IDX 82 26 84 27 86 28 83 29 12 30 13 31 14 32 15 34 16 35 17 36
REMARK SMILES IDX 75 37 18 38 74 39 19 40 20 41 21 42 68 43 22 44 73 45 67 46
REMARK SMILES IDX 69 47 23 48 72 49 66 50 65 51 24 53 54 54 35 55 53 56 36 57
REMARK SMILES IDX 39 58 52 59 70 60 37 61 38 62 51 64 71 65 40 66 25 67 26 68
REMARK SMILES IDX 34 69 27 70 33 71 28 72 29 73 30 74 31 75 32 76 55 77 56 78
REMARK SMILES IDX 64 79 57 80 63 81 58 82 59 83 60 84 61 85 62 86 41 87 42 88
REMARK SMILES IDX 50 89 43 90 49 91 44 92 45 93 46 94 47 95 48 96
REMARK H PARENT 8 7 78 18 13 33 69 52 39 63
REMARK Flexibility Score: inf
ROOT
ATOM      1  C   UNL A   1      34.909  33.865  29.501  1.00  0.00     0.023 C 
ENDROOT
BRANCH   1   2
ATOM      2  C   UNL A   1      35.331  33.198  30.812  1.00  0.00     0.023 C 
BRANCH   2   3
ATOM      3  C   UNL A   1      36.315  34.017  31.655  1.00  0.00     0.116 C 
BRANCH   3   4
ATOM      4  N   UNL A   1      35.968  33.931  33.058  1.00  0.00    -0.352 N 
ATOM      5  C   UNL A   1      36.400  33.152  34.101  1.00  0.00     0.251 C 
ATOM      6  O   UNL A   1      35.723  33.254  35.124  1.00  0.00    -0.269 OA
ATOM      7  H   UNL A   1      35.269  34.573  33.320  1.00  0.00     0.163 HD
BRANCH   5   8
ATOM      8  C   UNL A   1      37.603  32.241  34.053  1.00  0.00     0.045 A 
ATOM      9  C   UNL A   1      40.983  29.536  33.726  1.00  0.00     0.046 C 
ATOM     10  C   UNL A   1      39.828  30.480  33.936  1.00  0.00    -0.028 A 
ATOM     11  C   UNL A   1      38.677  30.229  33.193  1.00  0.00     0.006 A 
ATOM     12  C   UNL A   1      39.856  31.581  34.816  1.00  0.00     0.042 A 
ATOM     13  C   UNL A   1      37.579  31.077  33.278  1.00  0.00     0.014 A 
ATOM     14  C   UNL A   1      38.762  32.490  34.850  1.00  0.00    -0.005 A 
ATOM     15  N   UNL A   1      40.971  31.786  35.609  1.00  0.00    -0.377 N 
ATOM     16  C   UNL A   1      38.824  33.660  35.816  1.00  0.00     0.050 C 
ATOM     17  C   UNL A   1      41.261  33.073  36.214  1.00  0.00     0.117 C 
ATOM     18  H   UNL A   1      41.589  31.035  35.767  1.00  0.00     0.161 HD
ATOM     19  C   UNL A   1      39.981  33.643  36.839  1.00  0.00     0.031 C 
ATOM     20  C   UNL A   1      38.998  35.019  35.187  1.00  0.00    -0.023 C 
ATOM     21  C   UNL A   1      40.150  35.127  37.219  1.00  0.00     0.034 C 
ATOM     22  C   UNL A   1      39.713  35.833  35.974  1.00  0.00    -0.030 C 
BRANCH  17  23
ATOM     23  C   UNL A   1      42.472  32.892  37.124  1.00  0.00     0.010 A 
ATOM     24  C   UNL A   1      42.628  31.655  37.783  1.00  0.00     0.009 A 
ATOM     25  C   UNL A   1      43.428  33.881  37.380  1.00  0.00     0.128 A 
ATOM     26  C   UNL A   1      43.700  31.424  38.649  1.00  0.00     0.001 A 
ATOM     27  C   UNL A   1      44.502  33.654  38.240  1.00  0.00     0.039 A 
ATOM     28  F   UNL A   1      43.357  35.087  36.804  1.00  0.00    -0.207 F 
ATOM     29  C   UNL A   1      44.641  32.425  38.877  1.00  0.00     0.003 A 
ENDBRANCH  17  23
ENDBRANCH   5   8
ENDBRANCH   3   4
ENDBRANCH   2   3
ENDBRANCH   1   2
BRANCH   1  30
ATOM     30  C   UNL A   1      35.206  33.055  28.248  1.00  0.00     0.116 C 
BRANCH  30  31
ATOM     31  N   UNL A   1      34.185  32.059  27.966  1.00  0.00    -0.352 N 
ATOM     32  C   UNL A   1      34.354  30.700  27.856  1.00  0.00     0.251 C 
ATOM     33  H   UNL A   1      33.269  32.396  27.838  1.00  0.00     0.163 HD
ATOM     34  O   UNL A   1      33.429  29.971  27.528  1.00  0.00    -0.269 OA
BRANCH  32  35
ATOM     35  C   UNL A   1      35.698  30.155  28.107  1.00  0.00     0.039 A 
ATOM     36  C   UNL A   1      36.628  30.160  27.067  1.00  0.00     0.014 A 
ATOM     37  C   UNL A   1      36.052  29.738  29.395  1.00  0.00     0.014 A 
ATOM     38  C   UNL A   1      37.944  29.788  27.333  1.00  0.00     0.010 A 
ATOM     39  C   UNL A   1      37.374  29.405  29.666  1.00  0.00     0.010 A 
ATOM     40  C   UNL A   1      38.326  29.428  28.636  1.00  0.00    -0.014 A 
BRANCH  40  41
ATOM     41  C   UNL A   1      39.725  29.046  28.924  1.00  0.00     0.031 A 
ATOM     42  C   UNL A   1      40.627  30.020  29.621  1.00  0.00     0.074 A 
ATOM     43  C   UNL A   1      40.176  27.833  28.557  1.00  0.00     0.049 A 
ATOM     44  N   UNL A   1      41.869  29.862  29.995  1.00  0.00    -0.248 NA
ATOM     45  C   UNL A   1      40.063  31.343  29.931  1.00  0.00     0.031 C 
ATOM     46  C   UNL A   1      39.391  26.814  27.856  1.00  0.00     0.029 A 
ATOM     47  N   UNL A   1      41.402  27.246  28.736  1.00  0.00    -0.354 N 
ATOM     48  C   UNL A   1      42.233  31.061  30.593  1.00  0.00     0.074 A 
ATOM     49  C   UNL A   1      41.100  31.954  30.485  1.00  0.00     0.031 C 
ATOM     50  C   UNL A   1      40.143  25.712  27.702  1.00  0.00     0.029 A 
ATOM     51  C   UNL A   1      41.464  25.953  28.276  1.00  0.00     0.049 A 
ATOM     52  H   UNL A   1      42.164  27.706  29.155  1.00  0.00     0.167 HD
ATOM     53  C   UNL A   1      43.397  31.380  31.203  1.00  0.00     0.031 A 
ATOM     54  C   UNL A   1      42.467  25.055  28.330  1.00  0.00     0.031 A 
ATOM     55  C   UNL A   1      44.520  30.493  31.308  1.00  0.00     0.049 A 
ATOM     56  C   UNL A   1      43.762  25.437  28.990  1.00  0.00     0.074 A 
ATOM     57  C   UNL A   1      45.743  30.721  31.911  1.00  0.00     0.029 A 
ATOM     58  N   UNL A   1      44.552  29.203  30.802  1.00  0.00    -0.354 N 
ATOM     59  N   UNL A   1      44.084  26.571  29.564  1.00  0.00    -0.248 NA
ATOM     60  C   UNL A   1      44.824  24.421  29.016  1.00  0.00     0.031 C 
ATOM     61  C   UNL A   1      46.524  29.573  31.753  1.00  0.00     0.029 A 
ATOM     62  C   UNL A   1      45.775  28.621  31.077  1.00  0.00     0.049 A 
ATOM     63  H   UNL A   1      43.814  28.767  30.320  1.00  0.00     0.167 HD
ATOM     64  C   UNL A   1      45.378  26.400  30.038  1.00  0.00     0.074 A 
ATOM     65  C   UNL A   1      45.784  25.055  29.681  1.00  0.00     0.031 C 
ATOM     66  C   UNL A   1      46.157  27.280  30.713  1.00  0.00     0.031 A 
BRANCH  53  67
ATOM     67  C   UNL A   1      43.490  32.748  31.814  1.00  0.00    -0.014 A 
ATOM     68  C   UNL A   1      42.956  32.992  33.092  1.00  0.00     0.010 A 
ATOM     69  C   UNL A   1      44.107  33.797  31.111  1.00  0.00     0.010 A 
ATOM     70  C   UNL A   1      43.001  34.275  33.641  1.00  0.00     0.020 A 
ATOM     71  C   UNL A   1      44.170  35.078  31.666  1.00  0.00     0.020 A 
ATOM     72  C   UNL A   1      43.602  35.311  32.921  1.00  0.00     0.054 A 
BRANCH  72  73
ATOM     73  S   UNL A   1      43.624  36.969  33.655  1.00  0.00     0.124 S 
ATOM     74  O   UNL A   1      43.657  37.824  32.470  1.00  0.00    -0.237 OA
ATOM     75  O   UNL A   1      42.377  36.996  34.414  1.00  0.00    -0.237 OA
ATOM     76  O   UNL A   1      44.843  36.978  34.461  1.00  0.00    -0.744 OA
ENDBRANCH  72  73
ENDBRANCH  53  67
BRANCH  54  77
ATOM     77  C   UNL A   1      42.245  23.689  27.793  1.00  0.00    -0.014 A 
ATOM     78  C   UNL A   1      42.430  23.437  26.423  1.00  0.00     0.010 A 
ATOM     79  C   UNL A   1      41.933  22.622  28.653  1.00  0.00     0.010 A 
ATOM     80  C   UNL A   1      42.321  22.137  25.923  1.00  0.00     0.020 A 
ATOM     81  C   UNL A   1      41.835  21.318  28.159  1.00  0.00     0.020 A 
ATOM     82  C   UNL A   1      42.036  21.083  26.797  1.00  0.00     0.054 A 
BRANCH  82  83
ATOM     83  S   UNL A   1      41.986  19.396  26.129  1.00  0.00     0.124 S 
ATOM     84  O   UNL A   1      42.537  18.612  27.229  1.00  0.00    -0.237 OA
ATOM     85  O   UNL A   1      40.560  19.212  25.871  1.00  0.00    -0.237 OA
ATOM     86  O   UNL A   1      42.825  19.474  24.934  1.00  0.00    -0.744 OA
ENDBRANCH  82  83
ENDBRANCH  54  77
BRANCH  66  87
ATOM     87  C   UNL A   1      47.526  26.832  31.133  1.00  0.00    -0.014 A 
ATOM     88  C   UNL A   1      47.716  26.176  32.361  1.00  0.00     0.010 A 
ATOM     89  C   UNL A   1      48.597  26.932  30.226  1.00  0.00     0.010 A 
ATOM     90  C   UNL A   1      48.954  25.608  32.667  1.00  0.00     0.020 A 
ATOM     91  C   UNL A   1      49.833  26.355  30.526  1.00  0.00     0.020 A 
ATOM     92  C   UNL A   1      50.000  25.689  31.742  1.00  0.00     0.054 A 
BRANCH  92  93
ATOM     93  S   UNL A   1      51.561  24.848  32.126  1.00  0.00     0.124 S 
ATOM     94  O   UNL A   1      52.459  25.386  31.108  1.00  0.00    -0.237 OA
ATOM     95  O   UNL A   1      51.827  25.287  33.494  1.00  0.00    -0.237 OA
ATOM     96  O   UNL A   1      51.239  23.431  31.983  1.00  0.00    -0.744 OA
ENDBRANCH  92  93
ENDBRANCH  66  87
ENDBRANCH  40  41
ENDBRANCH  32  35
ENDBRANCH  30  31
ENDBRANCH   1  30
TORSDOF 15
ENDMDL
MODEL 2
REMARK VINA RESULT:      -9.5      5.540     12.670
REMARK SMILES Cc1ccc(C(=O)NCCCCNC(=O)c2ccc(-c3c4nc(c(-c5ccc(S(=O)(=O)[O-])cc5)c5ccc([nH]5)c(-c5ccc(S(=O)(=O)[O-])cc5)c5nc(c(-c6ccc(S(=O)(=O)[O-])cc6)c6ccc3[nH]6)C=C5)C=C4)cc2)c2c1N[C@H](c1ccccc1F)[C@H]1CC=C[C@@H]21
REMARK SMILES IDX 11 1 10 2 9 3 8 4 6 5 7 6 5 8 1 9 2 10 3 11 77 12 4 13 76 14
REMARK SMILES IDX 78 15 91 16 79 17 87 19 90 20 88 21 89 22 80 23 81 24 85 25
REMARK SMILES IDX 82 26 84 27 86 28 83 29 12 30 13 31 14 32 15 34 16 35 17 36
REMARK SMILES IDX 75 37 18 38 74 39 19 40 20 41 21 42 68 43 22 44 73 45 67 46
REMARK SMILES IDX 69 47 23 48 72 49 66 50 65 51 24 53 54 54 35 55 53 56 36 57
REMARK SMILES IDX 39 58 52 59 70 60 37 61 38 62 51 64 71 65 40 66 25 67 26 68
REMARK SMILES IDX 34 69 27 70 33 71 28 72 29 73 30 74 31 75 32 76 55 77 56 78
REMARK SMILES IDX 64 79 57 80 63 81 58 82 59 83 60 84 61 85 62 86 41 87 42 88
REMARK SMILES IDX 50 89 43 90 49 91 44 92 45 93 46 94 47 95 48 96
REMARK H PARENT 8 7 78 18 13 33 69 52 39 63
REMARK Flexibility Score: inf
ROOT
ATOM      1  C   UNL A   1      37.820  21.385  25.333  1.00  0.00     0.023 C 
ENDROOT
BRANCH   1   2
ATOM      2  C   UNL A   1      36.971  22.658  25.282  1.00  0.00     0.023 C 
BRANCH   2   3
ATOM      3  C   UNL A   1      35.472  22.431  25.509  1.00  0.00     0.116 C 
BRANCH   3   4
ATOM      4  N   UNL A   1      34.804  22.189  24.247  1.00  0.00    -0.352 N 
ATOM      5  C   UNL A   1      33.499  22.262  23.830  1.00  0.00     0.251 C 
ATOM      6  O   UNL A   1      33.299  21.797  22.708  1.00  0.00    -0.269 OA
ATOM      7  H   UNL A   1      35.422  21.912  23.533  1.00  0.00     0.163 HD
BRANCH   5   8
ATOM      8  C   UNL A   1      32.372  22.863  24.634  1.00  0.00     0.045 A 
ATOM      9  C   UNL A   1      29.176  24.448  27.109  1.00  0.00     0.046 C 
ATOM     10  C   UNL A   1      30.237  23.934  26.172  1.00  0.00    -0.028 A 
ATOM     11  C   UNL A   1      30.776  22.684  26.469  1.00  0.00     0.006 A 
ATOM     12  C   UNL A   1      30.707  24.639  25.046  1.00  0.00     0.042 A 
ATOM     13  C   UNL A   1      31.800  22.151  25.694  1.00  0.00     0.014 A 
ATOM     14  C   UNL A   1      31.803  24.129  24.295  1.00  0.00    -0.005 A 
ATOM     15  N   UNL A   1      30.119  25.846  24.709  1.00  0.00    -0.377 N 
ATOM     16  C   UNL A   1      32.277  24.913  23.084  1.00  0.00     0.050 C 
ATOM     17  C   UNL A   1      30.781  26.813  23.853  1.00  0.00     0.117 C 
ATOM     18  H   UNL A   1      29.224  26.055  25.062  1.00  0.00     0.161 HD
ATOM     19  C   UNL A   1      31.385  26.094  22.641  1.00  0.00     0.031 C 
ATOM     20  C   UNL A   1      33.619  25.584  23.224  1.00  0.00    -0.023 C 
ATOM     21  C   UNL A   1      32.355  27.008  21.867  1.00  0.00     0.034 C 
ATOM     22  C   UNL A   1      33.665  26.730  22.532  1.00  0.00    -0.030 C 
BRANCH  17  23
ATOM     23  C   UNL A   1      29.792  27.943  23.585  1.00  0.00     0.010 A 
ATOM     24  C   UNL A   1      28.441  27.604  23.363  1.00  0.00     0.009 A 
ATOM     25  C   UNL A   1      30.134  29.298  23.509  1.00  0.00     0.128 A 
ATOM     26  C   UNL A   1      27.482  28.582  23.089  1.00  0.00     0.001 A 
ATOM     27  C   UNL A   1      29.180  30.279  23.239  1.00  0.00     0.039 A 
ATOM     28  F   UNL A   1      31.393  29.712  23.699  1.00  0.00    -0.207 F 
ATOM     29  C   UNL A   1      27.851  29.923  23.029  1.00  0.00     0.003 A 
ENDBRANCH  17  23
ENDBRANCH   5   8
ENDBRANCH   3   4
ENDBRANCH   2   3
ENDBRANCH   1   2
BRANCH   1  30
ATOM     30  C   UNL A   1      39.115  21.514  26.120  1.00  0.00     0.116 C 
BRANCH  30  31
ATOM     31  N   UNL A   1      39.961  20.335  26.011  1.00  0.00    -0.352 N 
ATOM     32  C   UNL A   1      41.329  20.276  26.124  1.00  0.00     0.251 C 
ATOM     33  H   UNL A   1      39.501  19.482  25.835  1.00  0.00     0.163 HD
ATOM     34  O   UNL A   1      41.937  19.235  25.926  1.00  0.00    -0.269 OA
BRANCH  32  35
ATOM     35  C   UNL A   1      42.042  21.522  26.452  1.00  0.00     0.039 A 
ATOM     36  C   UNL A   1      42.312  22.429  25.427  1.00  0.00     0.014 A 
ATOM     37  C   UNL A   1      42.345  21.821  27.785  1.00  0.00     0.014 A 
ATOM     38  C   UNL A   1      42.850  23.673  25.748  1.00  0.00     0.010 A 
ATOM     39  C   UNL A   1      42.845  23.077  28.106  1.00  0.00     0.010 A 
ATOM     40  C   UNL A   1      43.099  24.010  27.089  1.00  0.00    -0.014 A 
BRANCH  40  41
ATOM     41  C   UNL A   1      43.657  25.335  27.433  1.00  0.00     0.031 A 
ATOM     42  C   UNL A   1      45.108  25.613  27.181  1.00  0.00     0.074 A 
ATOM     43  C   UNL A   1      42.860  26.276  27.971  1.00  0.00     0.049 A 
ATOM     44  N   UNL A   1      45.777  26.718  27.378  1.00  0.00    -0.248 NA
ATOM     45  C   UNL A   1      45.914  24.503  26.644  1.00  0.00     0.031 C 
ATOM     46  C   UNL A   1      41.438  26.108  28.277  1.00  0.00     0.029 A 
ATOM     47  N   UNL A   1      43.131  27.568  28.341  1.00  0.00    -0.354 N 
ATOM     48  C   UNL A   1      47.078  26.441  26.981  1.00  0.00     0.074 A 
ATOM     49  C   UNL A   1      47.118  25.052  26.583  1.00  0.00     0.031 C 
ATOM     50  C   UNL A   1      40.952  27.267  28.751  1.00  0.00     0.029 A 
ATOM     51  C   UNL A   1      42.030  28.252  28.797  1.00  0.00     0.049 A 
ATOM     52  H   UNL A   1      44.029  27.968  28.286  1.00  0.00     0.167 HD
ATOM     53  C   UNL A   1      48.139  27.279  26.927  1.00  0.00     0.031 A 
ATOM     54  C   UNL A   1      41.900  29.534  29.188  1.00  0.00     0.031 A 
ATOM     55  C   UNL A   1      48.097  28.657  27.324  1.00  0.00     0.049 A 
ATOM     56  C   UNL A   1      43.096  30.442  29.144  1.00  0.00     0.074 A 
ATOM     57  C   UNL A   1      49.118  29.590  27.301  1.00  0.00     0.029 A 
ATOM     58  N   UNL A   1      46.970  29.302  27.807  1.00  0.00    -0.354 N 
ATOM     59  N   UNL A   1      44.317  30.168  28.752  1.00  0.00    -0.248 NA
ATOM     60  C   UNL A   1      42.898  31.830  29.587  1.00  0.00     0.031 C 
ATOM     61  C   UNL A   1      48.611  30.797  27.791  1.00  0.00     0.029 A 
ATOM     62  C   UNL A   1      47.268  30.621  28.090  1.00  0.00     0.049 A 
ATOM     63  H   UNL A   1      46.088  28.882  27.931  1.00  0.00     0.167 HD
ATOM     64  C   UNL A   1      45.030  31.353  28.881  1.00  0.00     0.074 A 
ATOM     65  C   UNL A   1      44.107  32.347  29.392  1.00  0.00     0.031 C 
ATOM     66  C   UNL A   1      46.333  31.594  28.597  1.00  0.00     0.031 A 
BRANCH  53  67
ATOM     67  C   UNL A   1      49.425  26.711  26.400  1.00  0.00    -0.014 A 
ATOM     68  C   UNL A   1      50.206  25.860  27.202  1.00  0.00     0.010 A 
ATOM     69  C   UNL A   1      49.859  27.029  25.102  1.00  0.00     0.010 A 
ATOM     70  C   UNL A   1      51.425  25.370  26.729  1.00  0.00     0.020 A 
ATOM     71  C   UNL A   1      51.070  26.525  24.620  1.00  0.00     0.020 A 
ATOM     72  C   UNL A   1      51.851  25.710  25.442  1.00  0.00     0.054 A 
BRANCH  72  73
ATOM     73  S   UNL A   1      53.449  25.073  24.869  1.00  0.00     0.124 S 
ATOM     74  O   UNL A   1      54.392  25.886  25.634  1.00  0.00    -0.237 OA
ATOM     75  O   UNL A   1      53.383  23.664  25.248  1.00  0.00    -0.237 OA
ATOM     76  O   UNL A   1      53.431  25.332  23.431  1.00  0.00    -0.744 OA
ENDBRANCH  72  73
ENDBRANCH  53  67
BRANCH  54  77
ATOM     77  C   UNL A   1      40.562  30.035  29.592  1.00  0.00    -0.014 A 
ATOM     78  C   UNL A   1      39.488  29.967  28.688  1.00  0.00     0.010 A 
ATOM     79  C   UNL A   1      40.334  30.502  30.898  1.00  0.00     0.010 A 
ATOM     80  C   UNL A   1      38.203  30.343  29.089  1.00  0.00     0.020 A 
ATOM     81  C   UNL A   1      39.048  30.867  31.306  1.00  0.00     0.020 A 
ATOM     82  C   UNL A   1      37.989  30.779  30.400  1.00  0.00     0.054 A 
BRANCH  82  83
ATOM     83  S   UNL A   1      36.294  31.179  30.912  1.00  0.00     0.124 S 
ATOM     84  O   UNL A   1      35.969  30.066  31.798  1.00  0.00    -0.237 OA
ATOM     85  O   UNL A   1      36.469  32.476  31.561  1.00  0.00    -0.237 OA
ATOM     86  O   UNL A   1      35.553  31.213  29.653  1.00  0.00    -0.744 OA
ENDBRANCH  82  83
ENDBRANCH  54  77
BRANCH  66  87
ATOM     87  C   UNL A   1      46.856  32.984  28.810  1.00  0.00    -0.014 A 
ATOM     88  C   UNL A   1      46.745  33.950  27.796  1.00  0.00     0.010 A 
ATOM     89  C   UNL A   1      47.319  33.363  30.083  1.00  0.00     0.010 A 
ATOM     90  C   UNL A   1      47.072  35.282  28.060  1.00  0.00     0.020 A 
ATOM     91  C   UNL A   1      47.636  34.696  30.352  1.00  0.00     0.020 A 
ATOM     92  C   UNL A   1      47.502  35.649  29.340  1.00  0.00     0.054 A 
BRANCH  92  93
ATOM     93  S   UNL A   1      47.815  37.404  29.677  1.00  0.00     0.124 S 
ATOM     94  O   UNL A   1      48.992  37.670  28.855  1.00  0.00    -0.237 OA
ATOM     95  O   UNL A   1      46.577  38.036  29.227  1.00  0.00    -0.237 OA
ATOM     96  O   UNL A   1      48.042  37.446  31.119  1.00  0.00    -0.744 OA
ENDBRANCH  92  93
ENDBRANCH  66  87
ENDBRANCH  40  41
ENDBRANCH  32  35
ENDBRANCH  30  31
ENDBRANCH   1  30
TORSDOF 15
ENDMDL
MODEL 3
REMARK VINA RESULT:      -9.4      4.377     11.136
REMARK SMILES Cc1ccc(C(=O)NCCCCNC(=O)c2ccc(-c3c4nc(c(-c5ccc(S(=O)(=O)[O-])cc5)c5ccc([nH]5)c(-c5ccc(S(=O)(=O)[O-])cc5)c5nc(c(-c6ccc(S(=O)(=O)[O-])cc6)c6ccc3[nH]6)C=C5)C=C4)cc2)c2c1N[C@H](c1ccccc1F)[C@H]1CC=C[C@@H]21
REMARK SMILES IDX 11 1 10 2 9 3 8 4 6 5 7 6 5 8 1 9 2 10 3 11 77 12 4 13 76 14
REMARK SMILES IDX 78 15 91 16 79 17 87 19 90 20 88 21 89 22 80 23 81 24 85 25
REMARK SMILES IDX 82 26 84 27 86 28 83 29 12 30 13 31 14 32 15 34 16 35 17 36
REMARK SMILES IDX 75 37 18 38 74 39 19 40 20 41 21 42 68 43 22 44 73 45 67 46
REMARK SMILES IDX 69 47 23 48 72 49 66 50 65 51 24 53 54 54 35 55 53 56 36 57
REMARK SMILES IDX 39 58 52 59 70 60 37 61 38 62 51 64 71 65 40 66 25 67 26 68
REMARK SMILES IDX 34 69 27 70 33 71 28 72 29 73 30 74 31 75 32 76 55 77 56 78
REMARK SMILES IDX 64 79 57 80 63 81 58 82 59 83 60 84 61 85 62 86 41 87 42 88
REMARK SMILES IDX 50 89 43 90 49 91 44 92 45 93 46 94 47 95 48 96
REMARK H PARENT 8 7 78 18 13 33 69 52 39 63
REMARK Flexibility Score: inf
ROOT
ATOM      1  C   UNL A   1      47.375  27.597  40.780  1.00  0.00     0.023 C 
ENDROOT
BRANCH   1   2
ATOM      2  C   UNL A   1      45.946  27.429  41.302  1.00  0.00     0.023 C 
BRANCH   2   3
ATOM      3  C   UNL A   1      44.935  26.959  40.250  1.00  0.00     0.116 C 
BRANCH   3   4
ATOM      4  N   UNL A   1      45.284  25.637  39.774  1.00  0.00    -0.352 N 
ATOM      5  C   UNL A   1      44.848  24.850  38.738  1.00  0.00     0.251 C 
ATOM      6  O   UNL A   1      45.268  23.694  38.769  1.00  0.00    -0.269 OA
ATOM      7  H   UNL A   1      45.989  25.210  40.312  1.00  0.00     0.163 HD
BRANCH   5   8
ATOM      8  C   UNL A   1      43.941  25.319  37.626  1.00  0.00     0.045 A 
ATOM      9  C   UNL A   1      41.230  26.797  34.574  1.00  0.00     0.046 C 
ATOM     10  C   UNL A   1      42.185  26.204  35.577  1.00  0.00    -0.028 A 
ATOM     11  C   UNL A   1      41.860  26.375  36.921  1.00  0.00     0.006 A 
ATOM     12  C   UNL A   1      43.364  25.513  35.234  1.00  0.00     0.042 A 
ATOM     13  C   UNL A   1      42.709  25.912  37.920  1.00  0.00     0.014 A 
ATOM     14  C   UNL A   1      44.268  25.102  36.253  1.00  0.00    -0.005 A 
ATOM     15  N   UNL A   1      43.647  25.278  33.900  1.00  0.00    -0.377 N 
ATOM     16  C   UNL A   1      45.525  24.354  35.845  1.00  0.00     0.050 C 
ATOM     17  C   UNL A   1      44.987  24.960  33.440  1.00  0.00     0.117 C 
ATOM     18  H   UNL A   1      42.917  25.329  33.241  1.00  0.00     0.161 HD
ATOM     19  C   UNL A   1      45.609  23.909  34.368  1.00  0.00     0.031 C 
ATOM     20  C   UNL A   1      46.819  25.110  36.006  1.00  0.00    -0.023 C 
ATOM     21  C   UNL A   1      47.122  23.761  34.120  1.00  0.00     0.034 C 
ATOM     22  C   UNL A   1      47.706  24.764  35.064  1.00  0.00    -0.030 C 
BRANCH  17  23
ATOM     23  C   UNL A   1      44.897  24.627  31.954  1.00  0.00     0.010 A 
ATOM     24  C   UNL A   1      45.581  25.459  31.044  1.00  0.00     0.009 A 
ATOM     25  C   UNL A   1      44.153  23.567  31.421  1.00  0.00     0.128 A 
ATOM     26  C   UNL A   1      45.526  25.230  29.667  1.00  0.00     0.001 A 
ATOM     27  C   UNL A   1      44.099  23.331  30.048  1.00  0.00     0.039 A 
ATOM     28  F   UNL A   1      43.468  22.730  32.208  1.00  0.00    -0.207 F 
ATOM     29  C   UNL A   1      44.786  24.162  29.167  1.00  0.00     0.003 A 
ENDBRANCH  17  23
ENDBRANCH   5   8
ENDBRANCH   3   4
ENDBRANCH   2   3
ENDBRANCH   1   2
BRANCH   1  30
ATOM     30  C   UNL A   1      47.558  28.724  39.775  1.00  0.00     0.116 C 
BRANCH  30  31
ATOM     31  N   UNL A   1      48.583  28.435  38.784  1.00  0.00    -0.352 N 
ATOM     32  C   UNL A   1      48.470  28.519  37.418  1.00  0.00     0.251 C 
ATOM     33  H   UNL A   1      49.458  28.146  39.132  1.00  0.00     0.163 HD
ATOM     34  O   UNL A   1      49.381  28.165  36.684  1.00  0.00    -0.269 OA
BRANCH  32  35
ATOM     35  C   UNL A   1      47.197  29.011  36.867  1.00  0.00     0.039 A 
ATOM     36  C   UNL A   1      47.220  30.111  36.009  1.00  0.00     0.014 A 
ATOM     37  C   UNL A   1      46.009  28.318  37.127  1.00  0.00     0.014 A 
ATOM     38  C   UNL A   1      46.045  30.493  35.365  1.00  0.00     0.010 A 
ATOM     39  C   UNL A   1      44.848  28.677  36.453  1.00  0.00     0.010 A 
ATOM     40  C   UNL A   1      44.860  29.765  35.568  1.00  0.00    -0.014 A 
BRANCH  40  41
ATOM     41  C   UNL A   1      43.615  30.159  34.875  1.00  0.00     0.031 A 
ATOM     42  C   UNL A   1      42.698  31.158  35.515  1.00  0.00     0.074 A 
ATOM     43  C   UNL A   1      43.315  29.618  33.680  1.00  0.00     0.049 A 
ATOM     44  N   UNL A   1      41.583  31.659  35.054  1.00  0.00    -0.248 NA
ATOM     45  C   UNL A   1      43.080  31.650  36.849  1.00  0.00     0.031 C 
ATOM     46  C   UNL A   1      44.126  28.623  32.974  1.00  0.00     0.029 A 
ATOM     47  N   UNL A   1      42.254  29.841  32.842  1.00  0.00    -0.354 N 
ATOM     48  C   UNL A   1      41.135  32.533  36.035  1.00  0.00     0.074 A 
ATOM     49  C   UNL A   1      42.068  32.455  37.138  1.00  0.00     0.031 C 
ATOM     50  C   UNL A   1      43.552  28.352  31.790  1.00  0.00     0.029 A 
ATOM     51  C   UNL A   1      42.328  29.140  31.663  1.00  0.00     0.049 A 
ATOM     52  H   UNL A   1      41.509  30.446  33.063  1.00  0.00     0.167 HD
ATOM     53  C   UNL A   1      40.057  33.350  36.008  1.00  0.00     0.031 A 
ATOM     54  C   UNL A   1      41.513  29.148  30.590  1.00  0.00     0.031 A 
ATOM     55  C   UNL A   1      39.132  33.425  34.914  1.00  0.00     0.049 A 
ATOM     56  C   UNL A   1      40.306  30.044  30.590  1.00  0.00     0.074 A 
ATOM     57  C   UNL A   1      38.011  34.225  34.788  1.00  0.00     0.029 A 
ATOM     58  N   UNL A   1      39.228  32.677  33.751  1.00  0.00    -0.354 N 
ATOM     59  N   UNL A   1      39.905  30.875  31.520  1.00  0.00    -0.248 NA
ATOM     60  C   UNL A   1      39.449  30.008  29.396  1.00  0.00     0.031 C 
ATOM     61  C   UNL A   1      37.416  33.946  33.555  1.00  0.00     0.029 A 
ATOM     62  C   UNL A   1      38.184  32.993  32.901  1.00  0.00     0.049 A 
ATOM     63  H   UNL A   1      39.934  32.018  33.559  1.00  0.00     0.167 HD
ATOM     64  C   UNL A   1      38.759  31.479  31.018  1.00  0.00     0.074 A 
ATOM     65  C   UNL A   1      38.526  30.914  29.704  1.00  0.00     0.031 C 
ATOM     66  C   UNL A   1      37.973  32.420  31.596  1.00  0.00     0.031 A 
BRANCH  53  67
ATOM     67  C   UNL A   1      39.846  34.234  37.203  1.00  0.00    -0.014 A 
ATOM     68  C   UNL A   1      40.414  35.520  37.243  1.00  0.00     0.010 A 
ATOM     69  C   UNL A   1      39.082  33.781  38.292  1.00  0.00     0.010 A 
ATOM     70  C   UNL A   1      40.257  36.323  38.373  1.00  0.00     0.020 A 
ATOM     71  C   UNL A   1      38.908  34.591  39.417  1.00  0.00     0.020 A 
ATOM     72  C   UNL A   1      39.509  35.851  39.456  1.00  0.00     0.054 A 
BRANCH  72  73
ATOM     73  S   UNL A   1      39.343  36.913  40.916  1.00  0.00     0.124 S 
ATOM     74  O   UNL A   1      38.613  38.058  40.376  1.00  0.00    -0.237 OA
ATOM     75  O   UNL A   1      38.591  36.068  41.839  1.00  0.00    -0.237 OA
ATOM     76  O   UNL A   1      40.724  37.186  41.307  1.00  0.00    -0.744 OA
ENDBRANCH  72  73
ENDBRANCH  53  67
BRANCH  54  77
ATOM     77  C   UNL A   1      41.862  28.318  29.409  1.00  0.00    -0.014 A 
ATOM     78  C   UNL A   1      42.757  28.815  28.446  1.00  0.00     0.010 A 
ATOM     79  C   UNL A   1      41.373  27.007  29.283  1.00  0.00     0.010 A 
ATOM     80  C   UNL A   1      43.171  28.007  27.384  1.00  0.00     0.020 A 
ATOM     81  C   UNL A   1      41.793  26.192  28.228  1.00  0.00     0.020 A 
ATOM     82  C   UNL A   1      42.695  26.696  27.289  1.00  0.00     0.054 A 
BRANCH  82  83
ATOM     83  S   UNL A   1      43.317  25.646  25.944  1.00  0.00     0.124 S 
ATOM     84  O   UNL A   1      42.849  24.323  26.344  1.00  0.00    -0.237 OA
ATOM     85  O   UNL A   1      42.660  26.225  24.775  1.00  0.00    -0.237 OA
ATOM     86  O   UNL A   1      44.765  25.840  25.998  1.00  0.00    -0.744 OA
ENDBRANCH  82  83
ENDBRANCH  54  77
BRANCH  66  87
ATOM     87  C   UNL A   1      36.791  32.924  30.822  1.00  0.00    -0.014 A 
ATOM     88  C   UNL A   1      35.484  32.641  31.252  1.00  0.00     0.010 A 
ATOM     89  C   UNL A   1      36.992  33.813  29.750  1.00  0.00     0.010 A 
ATOM     90  C   UNL A   1      34.394  33.255  30.633  1.00  0.00     0.020 A 
ATOM     91  C   UNL A   1      35.904  34.438  29.136  1.00  0.00     0.020 A 
ATOM     92  C   UNL A   1      34.612  34.161  29.588  1.00  0.00     0.054 A 
BRANCH  92  93
ATOM     93  S   UNL A   1      33.182  35.021  28.878  1.00  0.00     0.124 S 
ATOM     94  O   UNL A   1      33.798  36.204  28.284  1.00  0.00    -0.237 OA
ATOM     95  O   UNL A   1      32.663  34.039  27.929  1.00  0.00    -0.237 OA
ATOM     96  O   UNL A   1      32.323  35.281  30.030  1.00  0.00    -0.744 OA
ENDBRANCH  92  93
ENDBRANCH  66  87
ENDBRANCH  40  41
ENDBRANCH  32  35
ENDBRANCH  30  31
ENDBRANCH   1  30
TORSDOF 15
ENDMDL
