MODEL 1
REMARK VINA RESULT:      -9.1      0.000      0.000
REMARK SMILES COCc1cccc(C(=O)N2C[C@@H](O)C[C@@H]2C(=O)NCCCCNC(=O)c2ccc(-c3c4nc(c(-c5ccc(S(=O)(=O)[O-])cc5)c5ccc([nH]5)c(-c5ccc(S(=O)(=O)[O-])cc5)c5nc(c(-c6ccc(S(=O)(=O)[O-])cc6)c6ccc3[nH]6)C=C5)C=C4)cc2)c1
REMARK SMILES IDX 21 1 20 2 19 3 17 4 18 5 16 7 11 8 12 9 13 10 15 11 9 12
REMARK SMILES IDX 10 13 8 14 4 15 5 16 87 17 6 18 7 19 3 20 2 21 1 22 14 23
REMARK SMILES IDX 22 25 23 26 24 27 25 28 26 30 27 31 28 32 86 33 29 34 85 35
REMARK SMILES IDX 30 36 31 37 32 38 79 39 33 40 84 41 78 42 80 43 34 44 83 45
REMARK SMILES IDX 77 46 76 47 35 49 65 50 46 51 64 52 47 53 50 54 63 55 81 56
REMARK SMILES IDX 48 57 49 58 62 60 82 61 51 62 36 63 37 64 45 65 38 66 44 67
REMARK SMILES IDX 39 68 40 69 41 70 42 71 43 72 66 73 67 74 75 75 68 76 74 77
REMARK SMILES IDX 69 78 70 79 71 80 72 81 73 82 52 83 53 84 61 85 54 86 60 87
REMARK SMILES IDX 55 88 56 89 57 90 58 91 59 92
REMARK H PARENT 19 6 14 24 24 29 80 48 50 59
REMARK Flexibility Score: inf
ROOT
ATOM      1  C   UNL A   1      34.812  32.782  30.709  1.00  0.00     0.023 C 
ENDROOT
BRANCH   1   2
ATOM      2  C   UNL A   1      35.520  32.116  31.877  1.00  0.00     0.116 C 
BRANCH   2   3
ATOM      3  N   UNL A   1      35.199  32.675  33.166  1.00  0.00    -0.354 N 
ATOM      4  C   UNL A   1      36.016  33.294  34.069  1.00  0.00     0.242 C 
ATOM      5  O   UNL A   1      35.472  33.747  35.085  1.00  0.00    -0.273 OA
ATOM      6  H   UNL A   1      34.255  32.600  33.434  1.00  0.00     0.163 HD
BRANCH   4   7
ATOM      7  C   UNL A   1      37.562  33.227  33.997  1.00  0.00     0.177 C 
ATOM      8  N   UNL A   1      38.312  32.638  35.116  1.00  0.00    -0.324 N 
ATOM      9  C   UNL A   1      39.445  33.489  35.435  1.00  0.00     0.152 C 
ATOM     10  C   UNL A   1      38.904  34.885  35.155  1.00  0.00     0.136 C 
ATOM     11  C   UNL A   1      38.117  34.661  33.865  1.00  0.00     0.069 C 
BRANCH   8  12
ATOM     12  C   UNL A   1      38.237  31.277  35.362  1.00  0.00     0.254 C 
ATOM     13  O   UNL A   1      37.836  30.847  36.441  1.00  0.00    -0.269 OA
BRANCH  12  14
ATOM     14  C   UNL A   1      38.929  30.339  34.404  1.00  0.00     0.040 A 
ATOM     15  C   UNL A   1      40.817  28.908  33.745  1.00  0.00    -0.022 A 
ATOM     16  C   UNL A   1      39.962  28.195  32.899  1.00  0.00     0.006 A 
ATOM     17  C   UNL A   1      40.280  29.971  34.493  1.00  0.00     0.020 A 
ATOM     18  C   UNL A   1      38.627  28.574  32.758  1.00  0.00     0.001 A 
ATOM     19  C   UNL A   1      38.117  29.644  33.498  1.00  0.00     0.014 A 
BRANCH  15  20
ATOM     20  C   UNL A   1      42.265  28.512  33.944  1.00  0.00     0.195 C 
BRANCH  20  21
ATOM     21  O   UNL A   1      42.725  27.548  33.002  1.00  0.00    -0.380 OA
ATOM     22  C   UNL A   1      43.716  26.674  33.527  1.00  0.00     0.195 C 
ENDBRANCH  20  21
ENDBRANCH  15  20
ENDBRANCH  12  14
ENDBRANCH   8  12
BRANCH  10  23
ATOM     23  O   UNL A   1      39.913  35.865  35.022  1.00  0.00    -0.391 OA
ATOM     24  H   UNL A   1      40.606  35.708  35.683  1.00  0.00     0.211 HD
ENDBRANCH  10  23
ENDBRANCH   4   7
ENDBRANCH   2   3
ENDBRANCH   1   2
BRANCH   1  25
ATOM     25  C   UNL A   1      35.699  33.621  29.799  1.00  0.00     0.023 C 
BRANCH  25  26
ATOM     26  C   UNL A   1      35.731  33.194  28.335  1.00  0.00     0.116 C 
BRANCH  26  27
ATOM     27  N   UNL A   1      34.657  32.273  27.980  1.00  0.00    -0.352 N 
ATOM     28  C   UNL A   1      34.691  30.911  27.779  1.00  0.00     0.251 C 
ATOM     29  H   UNL A   1      33.772  32.689  27.867  1.00  0.00     0.163 HD
ATOM     30  O   UNL A   1      33.721  30.310  27.353  1.00  0.00    -0.269 OA
BRANCH  28  31
ATOM     31  C   UNL A   1      35.928  30.175  28.075  1.00  0.00     0.039 A 
ATOM     32  C   UNL A   1      36.942  30.142  27.115  1.00  0.00     0.014 A 
ATOM     33  C   UNL A   1      36.087  29.565  29.318  1.00  0.00     0.014 A 
ATOM     34  C   UNL A   1      38.174  29.592  27.453  1.00  0.00     0.010 A 
ATOM     35  C   UNL A   1      37.338  29.104  29.683  1.00  0.00     0.010 A 
ATOM     36  C   UNL A   1      38.395  29.134  28.761  1.00  0.00    -0.014 A 
BRANCH  36  37
ATOM     37  C   UNL A   1      39.740  28.738  29.227  1.00  0.00     0.031 A 
ATOM     38  C   UNL A   1      40.598  29.739  29.939  1.00  0.00     0.074 A 
ATOM     39  C   UNL A   1      40.212  27.525  28.880  1.00  0.00     0.049 A 
ATOM     40  N   UNL A   1      41.852  29.643  30.291  1.00  0.00    -0.248 NA
ATOM     41  C   UNL A   1      39.979  31.037  30.260  1.00  0.00     0.031 C 
ATOM     42  C   UNL A   1      39.467  26.507  28.129  1.00  0.00     0.029 A 
ATOM     43  N   UNL A   1      41.435  26.946  29.089  1.00  0.00    -0.354 N 
ATOM     44  C   UNL A   1      42.178  30.874  30.848  1.00  0.00     0.074 A 
ATOM     45  C   UNL A   1      41.008  31.715  30.743  1.00  0.00     0.031 C 
ATOM     46  C   UNL A   1      40.241  25.423  27.964  1.00  0.00     0.029 A 
ATOM     47  C   UNL A   1      41.549  25.686  28.550  1.00  0.00     0.049 A 
ATOM     48  H   UNL A   1      42.164  27.390  29.579  1.00  0.00     0.167 HD
ATOM     49  C   UNL A   1      43.348  31.255  31.410  1.00  0.00     0.031 A 
ATOM     50  C   UNL A   1      42.598  24.844  28.520  1.00  0.00     0.031 A 
ATOM     51  C   UNL A   1      44.495  30.392  31.510  1.00  0.00     0.049 A 
ATOM     52  C   UNL A   1      43.881  25.286  29.166  1.00  0.00     0.074 A 
ATOM     53  C   UNL A   1      45.712  30.643  32.113  1.00  0.00     0.029 A 
ATOM     54  N   UNL A   1      44.557  29.105  30.992  1.00  0.00    -0.354 N 
ATOM     55  N   UNL A   1      44.153  26.428  29.754  1.00  0.00    -0.248 NA
ATOM     56  C   UNL A   1      44.994  24.329  29.154  1.00  0.00     0.031 C 
ATOM     57  C   UNL A   1      46.530  29.525  31.918  1.00  0.00     0.029 A 
ATOM     58  C   UNL A   1      45.801  28.556  31.243  1.00  0.00     0.049 A 
ATOM     59  H   UNL A   1      43.825  28.651  30.517  1.00  0.00     0.167 HD
ATOM     60  C   UNL A   1      45.463  26.319  30.202  1.00  0.00     0.074 A 
ATOM     61  C   UNL A   1      45.920  24.994  29.833  1.00  0.00     0.031 C 
ATOM     62  C   UNL A   1      46.221  27.231  30.860  1.00  0.00     0.031 A 
BRANCH  49  63
ATOM     63  C   UNL A   1      43.439  32.660  31.946  1.00  0.00    -0.014 A 
ATOM     64  C   UNL A   1      43.070  32.955  33.273  1.00  0.00     0.010 A 
ATOM     65  C   UNL A   1      43.916  33.696  31.124  1.00  0.00     0.010 A 
ATOM     66  C   UNL A   1      43.131  34.267  33.750  1.00  0.00     0.020 A 
ATOM     67  C   UNL A   1      44.007  35.005  31.607  1.00  0.00     0.020 A 
ATOM     68  C   UNL A   1      43.596  35.285  32.913  1.00  0.00     0.054 A 
BRANCH  68  69
ATOM     69  S   UNL A   1      43.682  36.975  33.566  1.00  0.00     0.124 S 
ATOM     70  O   UNL A   1      43.881  37.757  32.348  1.00  0.00    -0.237 OA
ATOM     71  O   UNL A   1      42.380  37.136  34.209  1.00  0.00    -0.237 OA
ATOM     72  O   UNL A   1      44.824  36.939  34.476  1.00  0.00    -0.744 OA
ENDBRANCH  68  69
ENDBRANCH  49  63
BRANCH  50  73
ATOM     73  C   UNL A   1      42.466  23.508  27.876  1.00  0.00    -0.014 A 
ATOM     74  C   UNL A   1      43.021  23.274  26.606  1.00  0.00     0.010 A 
ATOM     75  C   UNL A   1      41.817  22.453  28.542  1.00  0.00     0.010 A 
ATOM     76  C   UNL A   1      42.915  22.015  26.006  1.00  0.00     0.020 A 
ATOM     77  C   UNL A   1      41.732  21.185  27.958  1.00  0.00     0.020 A 
ATOM     78  C   UNL A   1      42.272  20.977  26.687  1.00  0.00     0.054 A 
BRANCH  78  79
ATOM     79  S   UNL A   1      42.193  19.339  25.911  1.00  0.00     0.124 S 
ATOM     80  O   UNL A   1      40.761  19.181  25.680  1.00  0.00    -0.237 OA
ATOM     81  O   UNL A   1      43.012  19.517  24.715  1.00  0.00    -0.237 OA
ATOM     82  O   UNL A   1      42.766  18.453  26.923  1.00  0.00    -0.744 OA
ENDBRANCH  78  79
ENDBRANCH  50  73
BRANCH  62  83
ATOM     83  C   UNL A   1      47.613  26.814  31.243  1.00  0.00    -0.014 A 
ATOM     84  C   UNL A   1      47.876  26.241  32.500  1.00  0.00     0.010 A 
ATOM     85  C   UNL A   1      48.653  26.931  30.305  1.00  0.00     0.010 A 
ATOM     86  C   UNL A   1      49.166  25.811  32.818  1.00  0.00     0.020 A 
ATOM     87  C   UNL A   1      49.936  26.476  30.608  1.00  0.00     0.020 A 
ATOM     88  C   UNL A   1      50.186  25.928  31.868  1.00  0.00     0.054 A 
BRANCH  88  89
ATOM     89  S   UNL A   1      51.837  25.302  32.284  1.00  0.00     0.124 S 
ATOM     90  O   UNL A   1      52.661  25.906  31.241  1.00  0.00    -0.237 OA
ATOM     91  O   UNL A   1      52.045  25.823  33.632  1.00  0.00    -0.237 OA
ATOM     92  O   UNL A   1      51.688  23.851  32.199  1.00  0.00    -0.744 OA
ENDBRANCH  88  89
ENDBRANCH  62  83
ENDBRANCH  36  37
ENDBRANCH  28  31
ENDBRANCH  26  27
ENDBRANCH  25  26
ENDBRANCH   1  25
TORSDOF 19
ENDMDL
MODEL 2
REMARK VINA RESULT:      -8.5      5.565     10.897
REMARK SMILES COCc1cccc(C(=O)N2C[C@@H](O)C[C@@H]2C(=O)NCCCCNC(=O)c2ccc(-c3c4nc(c(-c5ccc(S(=O)(=O)[O-])cc5)c5ccc([nH]5)c(-c5ccc(S(=O)(=O)[O-])cc5)c5nc(c(-c6ccc(S(=O)(=O)[O-])cc6)c6ccc3[nH]6)C=C5)C=C4)cc2)c1
REMARK SMILES IDX 21 1 20 2 19 3 17 4 18 5 16 7 11 8 12 9 13 10 15 11 9 12
REMARK SMILES IDX 10 13 8 14 4 15 5 16 87 17 6 18 7 19 3 20 2 21 1 22 14 23
REMARK SMILES IDX 22 25 23 26 24 27 25 28 26 30 27 31 28 32 86 33 29 34 85 35
REMARK SMILES IDX 30 36 31 37 32 38 79 39 33 40 84 41 78 42 80 43 34 44 83 45
REMARK SMILES IDX 77 46 76 47 35 49 65 50 46 51 64 52 47 53 50 54 63 55 81 56
REMARK SMILES IDX 48 57 49 58 62 60 82 61 51 62 36 63 37 64 45 65 38 66 44 67
REMARK SMILES IDX 39 68 40 69 41 70 42 71 43 72 66 73 67 74 75 75 68 76 74 77
REMARK SMILES IDX 69 78 70 79 71 80 72 81 73 82 52 83 53 84 61 85 54 86 60 87
REMARK SMILES IDX 55 88 56 89 57 90 58 91 59 92
REMARK H PARENT 19 6 14 24 24 29 80 48 50 59
REMARK Flexibility Score: inf
ROOT
ATOM      1  C   UNL A   1      37.326  22.273  24.485  1.00  0.00     0.023 C 
ENDROOT
BRANCH   1   2
ATOM      2  C   UNL A   1      36.415  23.394  24.955  1.00  0.00     0.116 C 
BRANCH   2   3
ATOM      3  N   UNL A   1      35.402  23.777  24.004  1.00  0.00    -0.354 N 
ATOM      4  C   UNL A   1      34.094  24.107  24.218  1.00  0.00     0.242 C 
ATOM      5  O   UNL A   1      33.446  24.466  23.227  1.00  0.00    -0.273 OA
ATOM      6  H   UNL A   1      35.696  23.806  23.065  1.00  0.00     0.163 HD
BRANCH   4   7
ATOM      7  C   UNL A   1      33.355  23.815  25.548  1.00  0.00     0.177 C 
ATOM      8  N   UNL A   1      32.651  22.535  25.718  1.00  0.00    -0.324 N 
ATOM      9  C   UNL A   1      31.344  22.779  26.301  1.00  0.00     0.152 C 
ATOM     10  C   UNL A   1      30.950  24.118  25.692  1.00  0.00     0.136 C 
ATOM     11  C   UNL A   1      32.267  24.890  25.759  1.00  0.00     0.069 C 
BRANCH   8  12
ATOM     12  C   UNL A   1      33.372  21.357  25.828  1.00  0.00     0.254 C 
ATOM     13  O   UNL A   1      34.266  21.233  26.663  1.00  0.00    -0.269 OA
BRANCH  12  14
ATOM     14  C   UNL A   1      33.250  20.340  24.721  1.00  0.00     0.040 A 
ATOM     15  C   UNL A   1      33.267  18.029  23.879  1.00  0.00    -0.022 A 
ATOM     16  C   UNL A   1      32.490  18.435  22.790  1.00  0.00     0.006 A 
ATOM     17  C   UNL A   1      33.631  18.994  24.835  1.00  0.00     0.020 A 
ATOM     18  C   UNL A   1      32.141  19.777  22.630  1.00  0.00     0.001 A 
ATOM     19  C   UNL A   1      32.526  20.723  23.584  1.00  0.00     0.014 A 
BRANCH  15  20
ATOM     20  C   UNL A   1      33.645  16.579  24.100  1.00  0.00     0.195 C 
BRANCH  20  21
ATOM     21  O   UNL A   1      33.416  16.128  25.430  1.00  0.00    -0.380 OA
ATOM     22  C   UNL A   1      32.628  14.947  25.499  1.00  0.00     0.195 C 
ENDBRANCH  20  21
ENDBRANCH  15  20
ENDBRANCH  12  14
ENDBRANCH   8  12
BRANCH  10  23
ATOM     23  O   UNL A   1      29.897  24.763  26.379  1.00  0.00    -0.391 OA
ATOM     24  H   UNL A   1      29.594  24.199  27.108  1.00  0.00     0.211 HD
ENDBRANCH  10  23
ENDBRANCH   4   7
ENDBRANCH   2   3
ENDBRANCH   1   2
BRANCH   1  25
ATOM     25  C   UNL A   1      37.783  21.305  25.569  1.00  0.00     0.023 C 
BRANCH  25  26
ATOM     26  C   UNL A   1      39.227  21.470  26.033  1.00  0.00     0.116 C 
BRANCH  26  27
ATOM     27  N   UNL A   1      39.974  20.217  26.045  1.00  0.00    -0.352 N 
ATOM     28  C   UNL A   1      41.329  19.996  26.158  1.00  0.00     0.251 C 
ATOM     29  H   UNL A   1      39.426  19.404  25.960  1.00  0.00     0.163 HD
ATOM     30  O   UNL A   1      41.804  18.883  26.015  1.00  0.00    -0.269 OA
BRANCH  28  31
ATOM     31  C   UNL A   1      42.217  21.132  26.444  1.00  0.00     0.039 A 
ATOM     32  C   UNL A   1      42.690  21.906  25.382  1.00  0.00     0.014 A 
ATOM     33  C   UNL A   1      42.533  21.444  27.765  1.00  0.00     0.014 A 
ATOM     34  C   UNL A   1      43.391  23.075  25.659  1.00  0.00     0.010 A 
ATOM     35  C   UNL A   1      43.147  22.652  28.040  1.00  0.00     0.010 A 
ATOM     36  C   UNL A   1      43.561  23.485  26.990  1.00  0.00    -0.014 A 
BRANCH  36  37
ATOM     37  C   UNL A   1      44.108  24.815  27.328  1.00  0.00     0.031 A 
ATOM     38  C   UNL A   1      43.179  25.904  27.774  1.00  0.00     0.074 A 
ATOM     39  C   UNL A   1      45.414  25.053  27.097  1.00  0.00     0.049 A 
ATOM     40  N   UNL A   1      43.433  27.170  27.970  1.00  0.00    -0.248 NA
ATOM     41  C   UNL A   1      41.770  25.529  27.987  1.00  0.00     0.031 C 
ATOM     42  C   UNL A   1      46.381  24.067  26.601  1.00  0.00     0.029 A 
ATOM     43  N   UNL A   1      46.152  26.200  27.225  1.00  0.00    -0.354 N 
ATOM     44  C   UNL A   1      42.212  27.747  28.300  1.00  0.00     0.074 A 
ATOM     45  C   UNL A   1      41.213  26.705  28.231  1.00  0.00     0.031 C 
ATOM     46  C   UNL A   1      47.587  24.646  26.491  1.00  0.00     0.029 A 
ATOM     47  C   UNL A   1      47.469  26.051  26.859  1.00  0.00     0.049 A 
ATOM     48  H   UNL A   1      45.775  27.049  27.548  1.00  0.00     0.167 HD
ATOM     49  C   UNL A   1      41.959  29.030  28.645  1.00  0.00     0.031 A 
ATOM     50  C   UNL A   1      48.465  26.954  26.811  1.00  0.00     0.031 A 
ATOM     51  C   UNL A   1      42.976  30.044  28.716  1.00  0.00     0.049 A 
ATOM     52  C   UNL A   1      48.161  28.369  27.215  1.00  0.00     0.074 A 
ATOM     53  C   UNL A   1      42.853  31.362  29.113  1.00  0.00     0.029 A 
ATOM     54  N   UNL A   1      44.309  29.846  28.381  1.00  0.00    -0.354 N 
ATOM     55  N   UNL A   1      47.015  28.885  27.596  1.00  0.00    -0.248 NA
ATOM     56  C   UNL A   1      49.278  29.321  27.193  1.00  0.00     0.031 C 
ATOM     57  C   UNL A   1      44.102  31.975  28.974  1.00  0.00     0.029 A 
ATOM     58  C   UNL A   1      45.016  31.023  28.543  1.00  0.00     0.049 A 
ATOM     59  H   UNL A   1      44.693  28.993  28.074  1.00  0.00     0.167 HD
ATOM     60  C   UNL A   1      47.278  30.219  27.881  1.00  0.00     0.074 A 
ATOM     61  C   UNL A   1      48.694  30.423  27.645  1.00  0.00     0.031 C 
ATOM     62  C   UNL A   1      46.427  31.188  28.299  1.00  0.00     0.031 A 
BRANCH  49  63
ATOM     63  C   UNL A   1      40.533  29.398  28.962  1.00  0.00    -0.014 A 
ATOM     64  C   UNL A   1      39.549  29.424  27.956  1.00  0.00     0.010 A 
ATOM     65  C   UNL A   1      40.164  29.703  30.285  1.00  0.00     0.010 A 
ATOM     66  C   UNL A   1      38.235  29.795  28.257  1.00  0.00     0.020 A 
ATOM     67  C   UNL A   1      38.844  30.046  30.596  1.00  0.00     0.020 A 
ATOM     68  C   UNL A   1      37.893  30.107  29.576  1.00  0.00     0.054 A 
BRANCH  68  69
ATOM     69  S   UNL A   1      36.176  30.567  29.940  1.00  0.00     0.124 S 
ATOM     70  O   UNL A   1      35.477  30.077  28.755  1.00  0.00    -0.237 OA
ATOM     71  O   UNL A   1      35.904  29.835  31.175  1.00  0.00    -0.237 OA
ATOM     72  O   UNL A   1      36.226  32.020  30.077  1.00  0.00    -0.744 OA
ENDBRANCH  68  69
ENDBRANCH  49  63
BRANCH  50  73
ATOM     73  C   UNL A   1      49.831  26.539  26.385  1.00  0.00    -0.014 A 
ATOM     74  C   UNL A   1      50.710  25.940  27.304  1.00  0.00     0.010 A 
ATOM     75  C   UNL A   1      50.247  26.708  25.052  1.00  0.00     0.010 A 
ATOM     76  C   UNL A   1      51.986  25.533  26.902  1.00  0.00     0.020 A 
ATOM     77  C   UNL A   1      51.513  26.277  24.640  1.00  0.00     0.020 A 
ATOM     78  C   UNL A   1      52.379  25.702  25.571  1.00  0.00     0.054 A 
BRANCH  78  79
ATOM     79  S   UNL A   1      54.020  25.118  25.063  1.00  0.00     0.124 S 
ATOM     80  O   UNL A   1      53.795  23.686  24.895  1.00  0.00    -0.237 OA
ATOM     81  O   UNL A   1      54.257  25.871  23.835  1.00  0.00    -0.237 OA
ATOM     82  O   UNL A   1      54.878  25.489  26.187  1.00  0.00    -0.744 OA
ENDBRANCH  78  79
ENDBRANCH  50  73
BRANCH  62  83
ATOM     83  C   UNL A   1      47.013  32.549  28.553  1.00  0.00    -0.014 A 
ATOM     84  C   UNL A   1      47.028  33.530  27.546  1.00  0.00     0.010 A 
ATOM     85  C   UNL A   1      47.488  32.868  29.837  1.00  0.00     0.010 A 
ATOM     86  C   UNL A   1      47.529  34.804  27.816  1.00  0.00     0.020 A 
ATOM     87  C   UNL A   1      47.962  34.149  30.119  1.00  0.00     0.020 A 
ATOM     88  C   UNL A   1      47.988  35.107  29.102  1.00  0.00     0.054 A 
BRANCH  88  89
ATOM     89  S   UNL A   1      48.573  36.789  29.444  1.00  0.00     0.124 S 
ATOM     90  O   UNL A   1      49.119  37.188  28.151  1.00  0.00    -0.237 OA
ATOM     91  O   UNL A   1      47.350  37.476  29.851  1.00  0.00    -0.237 OA
ATOM     92  O   UNL A   1      49.559  36.603  30.507  1.00  0.00    -0.744 OA
ENDBRANCH  88  89
ENDBRANCH  62  83
ENDBRANCH  36  37
ENDBRANCH  28  31
ENDBRANCH  26  27
ENDBRANCH  25  26
ENDBRANCH   1  25
TORSDOF 19
ENDMDL
MODEL 3
REMARK VINA RESULT:      -8.2      4.389     11.236
REMARK SMILES COCc1cccc(C(=O)N2C[C@@H](O)C[C@@H]2C(=O)NCCCCNC(=O)c2ccc(-c3c4nc(c(-c5ccc(S(=O)(=O)[O-])cc5)c5ccc([nH]5)c(-c5ccc(S(=O)(=O)[O-])cc5)c5nc(c(-c6ccc(S(=O)(=O)[O-])cc6)c6ccc3[nH]6)C=C5)C=C4)cc2)c1
REMARK SMILES IDX 21 1 20 2 19 3 17 4 18 5 16 7 11 8 12 9 13 10 15 11 9 12
REMARK SMILES IDX 10 13 8 14 4 15 5 16 87 17 6 18 7 19 3 20 2 21 1 22 14 23
REMARK SMILES IDX 22 25 23 26 24 27 25 28 26 30 27 31 28 32 86 33 29 34 85 35
REMARK SMILES IDX 30 36 31 37 32 38 79 39 33 40 84 41 78 42 80 43 34 44 83 45
REMARK SMILES IDX 77 46 76 47 35 49 65 50 46 51 64 52 47 53 50 54 63 55 81 56
REMARK SMILES IDX 48 57 49 58 62 60 82 61 51 62 36 63 37 64 45 65 38 66 44 67
REMARK SMILES IDX 39 68 40 69 41 70 42 71 43 72 66 73 67 74 75 75 68 76 74 77
REMARK SMILES IDX 69 78 70 79 71 80 72 81 73 82 52 83 53 84 61 85 54 86 60 87
REMARK SMILES IDX 55 88 56 89 57 90 58 91 59 92
REMARK H PARENT 19 6 14 24 24 29 80 48 50 59
REMARK Flexibility Score: inf
ROOT
ATOM      1  C   UNL A   1      35.395  23.782  23.476  1.00  0.00     0.023 C 
ENDROOT
BRANCH   1   2
ATOM      2  C   UNL A   1      34.022  24.135  24.023  1.00  0.00     0.116 C 
BRANCH   2   3
ATOM      3  N   UNL A   1      32.925  23.492  23.343  1.00  0.00    -0.354 N 
ATOM      4  C   UNL A   1      31.866  22.806  23.866  1.00  0.00     0.242 C 
ATOM      5  O   UNL A   1      31.018  22.403  23.060  1.00  0.00    -0.273 OA
ATOM      6  H   UNL A   1      32.943  23.557  22.362  1.00  0.00     0.163 HD
BRANCH   4   7
ATOM      7  C   UNL A   1      31.818  22.313  25.334  1.00  0.00     0.177 C 
ATOM      8  N   UNL A   1      31.953  23.286  26.428  1.00  0.00    -0.324 N 
ATOM      9  C   UNL A   1      32.875  22.767  27.422  1.00  0.00     0.152 C 
ATOM     10  C   UNL A   1      33.880  21.996  26.576  1.00  0.00     0.136 C 
ATOM     11  C   UNL A   1      32.969  21.309  25.560  1.00  0.00     0.069 C 
BRANCH   8  12
ATOM     12  C   UNL A   1      30.940  24.200  26.673  1.00  0.00     0.254 C 
ATOM     13  O   UNL A   1      29.897  23.859  27.226  1.00  0.00    -0.269 OA
BRANCH  12  14
ATOM     14  C   UNL A   1      31.010  25.542  25.989  1.00  0.00     0.040 A 
ATOM     15  C   UNL A   1      32.248  27.493  25.149  1.00  0.00    -0.022 A 
ATOM     16  C   UNL A   1      31.207  27.752  24.253  1.00  0.00     0.006 A 
ATOM     17  C   UNL A   1      32.134  26.382  26.002  1.00  0.00     0.020 A 
ATOM     18  C   UNL A   1      30.057  26.960  24.256  1.00  0.00     0.001 A 
ATOM     19  C   UNL A   1      29.957  25.869  25.123  1.00  0.00     0.014 A 
BRANCH  15  20
ATOM     20  C   UNL A   1      33.521  28.315  25.159  1.00  0.00     0.195 C 
BRANCH  20  21
ATOM     21  O   UNL A   1      34.233  28.246  26.390  1.00  0.00    -0.380 OA
ATOM     22  C   UNL A   1      33.970  29.342  27.256  1.00  0.00     0.195 C 
ENDBRANCH  20  21
ENDBRANCH  15  20
ENDBRANCH  12  14
ENDBRANCH   8  12
BRANCH  10  23
ATOM     23  O   UNL A   1      34.662  21.084  27.320  1.00  0.00    -0.391 OA
ATOM     24  H   UNL A   1      34.135  20.728  28.053  1.00  0.00     0.211 HD
ENDBRANCH  10  23
ENDBRANCH   4   7
ENDBRANCH   2   3
ENDBRANCH   1   2
BRANCH   1  25
ATOM     25  C   UNL A   1      36.222  22.843  24.344  1.00  0.00     0.023 C 
BRANCH  25  26
ATOM     26  C   UNL A   1      37.188  23.521  25.311  1.00  0.00     0.116 C 
BRANCH  26  27
ATOM     27  N   UNL A   1      38.386  22.732  25.576  1.00  0.00    -0.352 N 
ATOM     28  C   UNL A   1      39.561  23.091  26.198  1.00  0.00     0.251 C 
ATOM     29  H   UNL A   1      38.348  21.799  25.263  1.00  0.00     0.163 HD
ATOM     30  O   UNL A   1      40.521  22.341  26.217  1.00  0.00    -0.269 OA
BRANCH  28  31
ATOM     31  C   UNL A   1      39.658  24.411  26.836  1.00  0.00     0.039 A 
ATOM     32  C   UNL A   1      39.102  24.592  28.104  1.00  0.00     0.014 A 
ATOM     33  C   UNL A   1      40.341  25.440  26.190  1.00  0.00     0.014 A 
ATOM     34  C   UNL A   1      39.336  25.785  28.780  1.00  0.00     0.010 A 
ATOM     35  C   UNL A   1      40.651  26.586  26.899  1.00  0.00     0.010 A 
ATOM     36  C   UNL A   1      40.169  26.757  28.206  1.00  0.00    -0.014 A 
BRANCH  36  37
ATOM     37  C   UNL A   1      40.617  27.942  28.966  1.00  0.00     0.031 A 
ATOM     38  C   UNL A   1      41.925  27.897  29.697  1.00  0.00     0.074 A 
ATOM     39  C   UNL A   1      39.774  28.984  29.093  1.00  0.00     0.049 A 
ATOM     40  N   UNL A   1      42.426  28.763  30.537  1.00  0.00    -0.248 NA
ATOM     41  C   UNL A   1      42.763  26.703  29.489  1.00  0.00     0.031 C 
ATOM     42  C   UNL A   1      38.450  29.086  28.467  1.00  0.00     0.029 A 
ATOM     43  N   UNL A   1      39.889  30.148  29.806  1.00  0.00    -0.354 N 
ATOM     44  C   UNL A   1      43.620  28.205  30.979  1.00  0.00     0.074 A 
ATOM     45  C   UNL A   1      43.745  26.909  30.353  1.00  0.00     0.031 C 
ATOM     46  C   UNL A   1      37.889  30.257  28.805  1.00  0.00     0.029 A 
ATOM     47  C   UNL A   1      38.788  30.965  29.708  1.00  0.00     0.049 A 
ATOM     48  H   UNL A   1      40.684  30.377  30.338  1.00  0.00     0.167 HD
ATOM     49  C   UNL A   1      44.534  28.741  31.820  1.00  0.00     0.031 A 
ATOM     50  C   UNL A   1      38.527  32.147  30.296  1.00  0.00     0.031 A 
ATOM     51  C   UNL A   1      44.388  30.040  32.421  1.00  0.00     0.049 A 
ATOM     52  C   UNL A   1      39.566  32.729  31.213  1.00  0.00     0.074 A 
ATOM     53  C   UNL A   1      45.274  30.715  33.239  1.00  0.00     0.029 A 
ATOM     54  N   UNL A   1      43.278  30.859  32.263  1.00  0.00    -0.354 N 
ATOM     55  N   UNL A   1      40.725  32.222  31.565  1.00  0.00    -0.248 NA
ATOM     56  C   UNL A   1      39.271  34.039  31.805  1.00  0.00     0.031 C 
ATOM     57  C   UNL A   1      44.680  31.925  33.614  1.00  0.00     0.029 A 
ATOM     58  C   UNL A   1      43.447  32.027  32.984  1.00  0.00     0.049 A 
ATOM     59  H   UNL A   1      42.488  30.641  31.717  1.00  0.00     0.167 HD
ATOM     60  C   UNL A   1      41.309  33.163  32.403  1.00  0.00     0.074 A 
ATOM     61  C   UNL A   1      40.382  34.275  32.490  1.00  0.00     0.031 C 
ATOM     62  C   UNL A   1      42.502  33.113  33.046  1.00  0.00     0.031 A 
BRANCH  49  63
ATOM     63  C   UNL A   1      45.756  27.920  32.137  1.00  0.00    -0.014 A 
ATOM     64  C   UNL A   1      45.775  27.040  33.235  1.00  0.00     0.010 A 
ATOM     65  C   UNL A   1      46.895  28.012  31.317  1.00  0.00     0.010 A 
ATOM     66  C   UNL A   1      46.925  26.304  33.536  1.00  0.00     0.020 A 
ATOM     67  C   UNL A   1      48.038  27.255  31.597  1.00  0.00     0.020 A 
ATOM     68  C   UNL A   1      48.050  26.420  32.716  1.00  0.00     0.054 A 
BRANCH  68  69
ATOM     69  S   UNL A   1      49.522  25.439  33.120  1.00  0.00     0.124 S 
ATOM     70  O   UNL A   1      48.935  24.279  33.787  1.00  0.00    -0.237 OA
ATOM     71  O   UNL A   1      50.103  25.178  31.805  1.00  0.00    -0.237 OA
ATOM     72  O   UNL A   1      50.304  26.322  33.981  1.00  0.00    -0.744 OA
ENDBRANCH  68  69
ENDBRANCH  49  63
BRANCH  50  73
ATOM     73  C   UNL A   1      37.246  32.855  30.017  1.00  0.00    -0.014 A 
ATOM     74  C   UNL A   1      37.026  33.458  28.766  1.00  0.00     0.010 A 
ATOM     75  C   UNL A   1      36.227  32.900  30.985  1.00  0.00     0.010 A 
ATOM     76  C   UNL A   1      35.818  34.107  28.494  1.00  0.00     0.020 A 
ATOM     77  C   UNL A   1      35.006  33.525  30.708  1.00  0.00     0.020 A 
ATOM     78  C   UNL A   1      34.814  34.135  29.467  1.00  0.00     0.054 A 
BRANCH  78  79
ATOM     79  S   UNL A   1      33.236  34.939  29.072  1.00  0.00     0.124 S 
ATOM     80  O   UNL A   1      32.685  34.045  28.058  1.00  0.00    -0.237 OA
ATOM     81  O   UNL A   1      32.549  34.934  30.361  1.00  0.00    -0.237 OA
ATOM     82  O   UNL A   1      33.636  36.260  28.593  1.00  0.00    -0.744 OA
ENDBRANCH  78  79
ENDBRANCH  50  73
BRANCH  62  83
ATOM     83  C   UNL A   1      42.882  34.308  33.875  1.00  0.00    -0.014 A 
ATOM     84  C   UNL A   1      42.645  34.332  35.260  1.00  0.00     0.010 A 
ATOM     85  C   UNL A   1      43.549  35.386  33.268  1.00  0.00     0.010 A 
ATOM     86  C   UNL A   1      43.052  35.428  36.022  1.00  0.00     0.020 A 
ATOM     87  C   UNL A   1      43.983  36.471  34.030  1.00  0.00     0.020 A 
ATOM     88  C   UNL A   1      43.723  36.489  35.403  1.00  0.00     0.054 A 
BRANCH  88  89
ATOM     89  S   UNL A   1      44.298  37.870  36.426  1.00  0.00     0.124 S 
ATOM     90  O   UNL A   1      43.393  37.799  37.568  1.00  0.00    -0.237 OA
ATOM     91  O   UNL A   1      45.687  37.509  36.699  1.00  0.00    -0.237 OA
ATOM     92  O   UNL A   1      44.123  39.036  35.562  1.00  0.00    -0.744 OA
ENDBRANCH  88  89
ENDBRANCH  62  83
ENDBRANCH  36  37
ENDBRANCH  28  31
ENDBRANCH  26  27
ENDBRANCH  25  26
ENDBRANCH   1  25
TORSDOF 19
ENDMDL
