MODEL 1
REMARK VINA RESULT:     -11.7      0.000      0.000
REMARK SMILES CC1(C)C(C(=O)Nc2ccc(CC(=O)NCCCCNC(=O)c3ccc(-c4c5nc(c(-c6ccc(S(=O)(=O)[O-])cc6)c6ccc([nH]6)c(-c6ccc(S(=O)(=O)[O-])cc6)c6nc(c(-c7ccc(S(=O)(=O)[O-])cc7)c7ccc4[nH]7)C=C6)C=C5)cc3)cc2)C1(C)C
REMARK SMILES IDX 17 1 16 2 15 3 13 4 14 5 12 7 11 8 8 9 9 10 84 11 10 12
REMARK SMILES IDX 83 13 7 14 5 15 6 16 4 18 1 19 2 20 3 21 85 22 86 23 87 24
REMARK SMILES IDX 18 25 19 26 20 27 21 28 22 30 23 31 24 32 82 33 25 34 81 35
REMARK SMILES IDX 26 36 27 37 28 38 75 39 29 40 80 41 74 42 76 43 30 44 79 45
REMARK SMILES IDX 73 46 72 47 31 49 61 50 42 51 60 52 43 53 46 54 59 55 77 56
REMARK SMILES IDX 44 57 45 58 58 60 78 61 47 62 32 63 33 64 41 65 34 66 40 67
REMARK SMILES IDX 35 68 36 69 37 70 38 71 39 72 62 73 63 74 71 75 64 76 70 77
REMARK SMILES IDX 65 78 66 79 67 80 68 81 69 82 48 83 49 84 57 85 50 86 56 87
REMARK SMILES IDX 51 88 52 89 53 90 54 91 55 92
REMARK H PARENT 15 6 7 17 20 29 76 48 46 59
REMARK Flexibility Score: inf
ROOT
ATOM      1  C   UNL A   1      33.228  29.965  26.276  1.00  0.00     0.023 C 
ENDROOT
BRANCH   1   2
ATOM      2  C   UNL A   1      31.853  29.585  25.720  1.00  0.00     0.116 C 
BRANCH   2   3
ATOM      3  N   UNL A   1      31.884  29.424  24.280  1.00  0.00    -0.356 N 
ATOM      4  C   UNL A   1      31.122  28.615  23.486  1.00  0.00     0.224 C 
ATOM      5  O   UNL A   1      31.368  28.577  22.278  1.00  0.00    -0.275 OA
ATOM      6  H   UNL A   1      32.548  29.977  23.807  1.00  0.00     0.163 HD
BRANCH   4   7
ATOM      7  C   UNL A   1      29.954  27.844  24.065  1.00  0.00     0.135 C 
BRANCH   7   8
ATOM      8  C   UNL A   1      30.220  26.397  24.394  1.00  0.00    -0.039 A 
ATOM      9  C   UNL A   1      31.049  23.770  24.861  1.00  0.00     0.041 A 
ATOM     10  C   UNL A   1      30.885  24.639  25.938  1.00  0.00     0.026 A 
ATOM     11  C   UNL A   1      30.579  24.137  23.614  1.00  0.00     0.026 A 
ATOM     12  C   UNL A   1      30.461  25.956  25.703  1.00  0.00     0.006 A 
ATOM     13  C   UNL A   1      30.262  25.461  23.361  1.00  0.00     0.006 A 
BRANCH   9  14
ATOM     14  N   UNL A   1      31.766  22.573  25.006  1.00  0.00    -0.326 N 
ATOM     15  C   UNL A   1      32.740  22.151  24.123  1.00  0.00     0.228 C 
ATOM     16  O   UNL A   1      32.576  21.119  23.475  1.00  0.00    -0.274 OA
ATOM     17  H   UNL A   1      31.563  22.001  25.781  1.00  0.00     0.169 HD
BRANCH  15  18
ATOM     18  C   UNL A   1      34.135  22.711  24.195  1.00  0.00     0.091 C 
ATOM     19  C   UNL A   1      35.243  24.700  25.377  1.00  0.00     0.012 C 
ATOM     20  C   UNL A   1      34.836  23.237  25.459  1.00  0.00    -0.017 C 
ATOM     21  C   UNL A   1      34.402  22.915  26.869  1.00  0.00     0.012 C 
ATOM     22  C   UNL A   1      35.493  22.141  24.562  1.00  0.00    -0.017 C 
ATOM     23  C   UNL A   1      36.656  22.537  23.669  1.00  0.00     0.012 C 
ATOM     24  C   UNL A   1      35.669  20.707  25.002  1.00  0.00     0.012 C 
ENDBRANCH  15  18
ENDBRANCH   9  14
ENDBRANCH   7   8
ENDBRANCH   4   7
ENDBRANCH   2   3
ENDBRANCH   1   2
BRANCH   1  25
ATOM     25  C   UNL A   1      33.847  28.940  27.217  1.00  0.00     0.023 C 
BRANCH  25  26
ATOM     26  C   UNL A   1      35.265  29.263  27.649  1.00  0.00     0.116 C 
BRANCH  26  27
ATOM     27  N   UNL A   1      35.330  30.127  28.817  1.00  0.00    -0.352 N 
ATOM     28  C   UNL A   1      36.421  30.370  29.625  1.00  0.00     0.251 C 
ATOM     29  H   UNL A   1      34.498  30.595  29.058  1.00  0.00     0.163 HD
ATOM     30  O   UNL A   1      36.311  31.037  30.638  1.00  0.00    -0.269 OA
BRANCH  28  31
ATOM     31  C   UNL A   1      37.714  29.756  29.253  1.00  0.00     0.039 A 
ATOM     32  C   UNL A   1      38.099  29.757  27.913  1.00  0.00     0.014 A 
ATOM     33  C   UNL A   1      38.572  29.265  30.242  1.00  0.00     0.014 A 
ATOM     34  C   UNL A   1      39.384  29.328  27.570  1.00  0.00     0.010 A 
ATOM     35  C   UNL A   1      39.876  28.921  29.908  1.00  0.00     0.010 A 
ATOM     36  C   UNL A   1      40.294  28.945  28.569  1.00  0.00    -0.014 A 
BRANCH  36  37
ATOM     37  C   UNL A   1      41.689  28.562  28.239  1.00  0.00     0.031 A 
ATOM     38  C   UNL A   1      42.762  29.615  28.184  1.00  0.00     0.074 A 
ATOM     39  C   UNL A   1      41.974  27.284  27.922  1.00  0.00     0.049 A 
ATOM     40  N   UNL A   1      44.022  29.490  27.857  1.00  0.00    -0.248 NA
ATOM     41  C   UNL A   1      42.361  30.993  28.513  1.00  0.00     0.031 C 
ATOM     42  C   UNL A   1      41.011  26.179  27.892  1.00  0.00     0.029 A 
ATOM     43  N   UNL A   1      43.160  26.696  27.557  1.00  0.00    -0.354 N 
ATOM     44  C   UNL A   1      44.557  30.771  27.922  1.00  0.00     0.074 A 
ATOM     45  C   UNL A   1      43.475  31.666  28.267  1.00  0.00     0.031 C 
ATOM     46  C   UNL A   1      41.651  25.046  27.559  1.00  0.00     0.029 A 
ATOM     47  C   UNL A   1      43.057  25.347  27.312  1.00  0.00     0.049 A 
ATOM     48  H   UNL A   1      44.006  27.195  27.479  1.00  0.00     0.167 HD
ATOM     49  C   UNL A   1      45.838  31.165  27.732  1.00  0.00     0.031 A 
ATOM     50  C   UNL A   1      43.988  24.454  26.927  1.00  0.00     0.031 A 
ATOM     51  C   UNL A   1      46.915  30.270  27.405  1.00  0.00     0.049 A 
ATOM     52  C   UNL A   1      45.405  24.916  26.721  1.00  0.00     0.074 A 
ATOM     53  C   UNL A   1      48.259  30.561  27.252  1.00  0.00     0.029 A 
ATOM     54  N   UNL A   1      46.772  28.909  27.179  1.00  0.00    -0.354 N 
ATOM     55  N   UNL A   1      45.907  26.121  26.854  1.00  0.00    -0.248 NA
ATOM     56  C   UNL A   1      46.385  23.896  26.324  1.00  0.00     0.031 C 
ATOM     57  C   UNL A   1      48.921  29.385  26.885  1.00  0.00     0.029 A 
ATOM     58  C   UNL A   1      47.999  28.350  26.867  1.00  0.00     0.049 A 
ATOM     59  H   UNL A   1      45.922  28.414  27.233  1.00  0.00     0.167 HD
ATOM     60  C   UNL A   1      47.265  25.998  26.585  1.00  0.00     0.074 A 
ATOM     61  C   UNL A   1      47.508  24.600  26.295  1.00  0.00     0.031 C 
ATOM     62  C   UNL A   1      48.224  26.956  26.581  1.00  0.00     0.031 A 
BRANCH  49  63
ATOM     63  C   UNL A   1      46.141  32.633  27.874  1.00  0.00    -0.014 A 
ATOM     64  C   UNL A   1      46.064  33.501  26.770  1.00  0.00     0.010 A 
ATOM     65  C   UNL A   1      46.475  33.159  29.135  1.00  0.00     0.010 A 
ATOM     66  C   UNL A   1      46.358  34.860  26.915  1.00  0.00     0.020 A 
ATOM     67  C   UNL A   1      46.741  34.522  29.291  1.00  0.00     0.020 A 
ATOM     68  C   UNL A   1      46.698  35.360  28.175  1.00  0.00     0.054 A 
BRANCH  68  69
ATOM     69  S   UNL A   1      47.053  37.132  28.337  1.00  0.00     0.124 S 
ATOM     70  O   UNL A   1      46.451  37.671  27.120  1.00  0.00    -0.237 OA
ATOM     71  O   UNL A   1      46.374  37.483  29.582  1.00  0.00    -0.237 OA
ATOM     72  O   UNL A   1      48.512  37.190  28.388  1.00  0.00    -0.744 OA
ENDBRANCH  68  69
ENDBRANCH  49  63
BRANCH  50  73
ATOM     73  C   UNL A   1      43.615  23.026  26.730  1.00  0.00    -0.014 A 
ATOM     74  C   UNL A   1      42.999  22.302  27.767  1.00  0.00     0.010 A 
ATOM     75  C   UNL A   1      43.861  22.386  25.502  1.00  0.00     0.010 A 
ATOM     76  C   UNL A   1      42.654  20.959  27.586  1.00  0.00     0.020 A 
ATOM     77  C   UNL A   1      43.492  21.051  25.309  1.00  0.00     0.020 A 
ATOM     78  C   UNL A   1      42.902  20.343  26.357  1.00  0.00     0.054 A 
BRANCH  78  79
ATOM     79  S   UNL A   1      42.401  18.613  26.129  1.00  0.00     0.124 S 
ATOM     80  O   UNL A   1      42.653  18.048  27.450  1.00  0.00    -0.237 OA
ATOM     81  O   UNL A   1      40.996  18.739  25.751  1.00  0.00    -0.237 OA
ATOM     82  O   UNL A   1      43.284  18.140  25.065  1.00  0.00    -0.744 OA
ENDBRANCH  78  79
ENDBRANCH  50  73
BRANCH  62  83
ATOM     83  C   UNL A   1      49.635  26.523  26.287  1.00  0.00    -0.014 A 
ATOM     84  C   UNL A   1      50.202  26.698  25.012  1.00  0.00     0.010 A 
ATOM     85  C   UNL A   1      50.424  25.987  27.321  1.00  0.00     0.010 A 
ATOM     86  C   UNL A   1      51.524  26.315  24.769  1.00  0.00     0.020 A 
ATOM     87  C   UNL A   1      51.754  25.628  27.090  1.00  0.00     0.020 A 
ATOM     88  C   UNL A   1      52.292  25.783  25.810  1.00  0.00     0.054 A 
BRANCH  88  89
ATOM     89  S   UNL A   1      54.019  25.338  25.483  1.00  0.00     0.124 S 
ATOM     90  O   UNL A   1      54.701  25.892  26.650  1.00  0.00    -0.237 OA
ATOM     91  O   UNL A   1      53.968  23.880  25.417  1.00  0.00    -0.237 OA
ATOM     92  O   UNL A   1      54.315  26.003  24.215  1.00  0.00    -0.744 OA
ENDBRANCH  88  89
ENDBRANCH  62  83
ENDBRANCH  36  37
ENDBRANCH  28  31
ENDBRANCH  26  27
ENDBRANCH  25  26
ENDBRANCH   1  25
TORSDOF 17
ENDMDL
MODEL 2
REMARK VINA RESULT:     -11.7      2.321      8.614
REMARK SMILES CC1(C)C(C(=O)Nc2ccc(CC(=O)NCCCCNC(=O)c3ccc(-c4c5nc(c(-c6ccc(S(=O)(=O)[O-])cc6)c6ccc([nH]6)c(-c6ccc(S(=O)(=O)[O-])cc6)c6nc(c(-c7ccc(S(=O)(=O)[O-])cc7)c7ccc4[nH]7)C=C6)C=C5)cc3)cc2)C1(C)C
REMARK SMILES IDX 17 1 16 2 15 3 13 4 14 5 12 7 11 8 8 9 9 10 84 11 10 12
REMARK SMILES IDX 83 13 7 14 5 15 6 16 4 18 1 19 2 20 3 21 85 22 86 23 87 24
REMARK SMILES IDX 18 25 19 26 20 27 21 28 22 30 23 31 24 32 82 33 25 34 81 35
REMARK SMILES IDX 26 36 27 37 28 38 75 39 29 40 80 41 74 42 76 43 30 44 79 45
REMARK SMILES IDX 73 46 72 47 31 49 61 50 42 51 60 52 43 53 46 54 59 55 77 56
REMARK SMILES IDX 44 57 45 58 58 60 78 61 47 62 32 63 33 64 41 65 34 66 40 67
REMARK SMILES IDX 35 68 36 69 37 70 38 71 39 72 62 73 63 74 71 75 64 76 70 77
REMARK SMILES IDX 65 78 66 79 67 80 68 81 69 82 48 83 49 84 57 85 50 86 56 87
REMARK SMILES IDX 51 88 52 89 53 90 54 91 55 92
REMARK H PARENT 15 6 7 17 20 29 76 48 46 59
REMARK Flexibility Score: inf
ROOT
ATOM      1  C   UNL A   1      39.117  23.042  26.352  1.00  0.00     0.023 C 
ENDROOT
BRANCH   1   2
ATOM      2  C   UNL A   1      37.709  23.592  26.111  1.00  0.00     0.116 C 
BRANCH   2   3
ATOM      3  N   UNL A   1      37.403  23.681  24.697  1.00  0.00    -0.356 N 
ATOM      4  C   UNL A   1      36.651  22.846  23.922  1.00  0.00     0.224 C 
ATOM      5  O   UNL A   1      36.582  23.069  22.712  1.00  0.00    -0.275 OA
ATOM      6  H   UNL A   1      37.793  24.455  24.230  1.00  0.00     0.163 HD
BRANCH   4   7
ATOM      7  C   UNL A   1      35.859  21.717  24.550  1.00  0.00     0.135 C 
BRANCH   7   8
ATOM      8  C   UNL A   1      34.400  22.001  24.802  1.00  0.00    -0.039 A 
ATOM      9  C   UNL A   1      31.775  22.878  25.192  1.00  0.00     0.041 A 
ATOM     10  C   UNL A   1      32.081  22.109  24.071  1.00  0.00     0.026 A 
ATOM     11  C   UNL A   1      32.705  22.998  26.209  1.00  0.00     0.026 A 
ATOM     12  C   UNL A   1      33.398  21.662  23.881  1.00  0.00     0.006 A 
ATOM     13  C   UNL A   1      34.025  22.653  25.977  1.00  0.00     0.006 A 
BRANCH   9  14
ATOM     14  N   UNL A   1      30.578  23.605  25.259  1.00  0.00    -0.326 N 
ATOM     15  C   UNL A   1      30.520  24.982  25.349  1.00  0.00     0.228 C 
ATOM     16  O   UNL A   1      30.044  25.513  26.350  1.00  0.00    -0.274 OA
ATOM     17  H   UNL A   1      29.729  23.106  25.242  1.00  0.00     0.169 HD
BRANCH  15  18
ATOM     18  C   UNL A   1      30.688  25.837  24.122  1.00  0.00     0.091 C 
ATOM     19  C   UNL A   1      29.975  28.204  23.438  1.00  0.00     0.012 C 
ATOM     20  C   UNL A   1      31.032  27.336  24.103  1.00  0.00    -0.017 C 
ATOM     21  C   UNL A   1      31.640  28.085  25.265  1.00  0.00     0.012 C 
ATOM     22  C   UNL A   1      31.877  26.298  23.299  1.00  0.00    -0.017 C 
ATOM     23  C   UNL A   1      31.717  26.244  21.790  1.00  0.00     0.012 C 
ATOM     24  C   UNL A   1      33.295  25.926  23.662  1.00  0.00     0.012 C 
ENDBRANCH  15  18
ENDBRANCH   9  14
ENDBRANCH   7   8
ENDBRANCH   4   7
ENDBRANCH   2   3
ENDBRANCH   1   2
BRANCH   1  25
ATOM     25  C   UNL A   1      39.316  21.585  25.956  1.00  0.00     0.023 C 
BRANCH  25  26
ATOM     26  C   UNL A   1      40.218  20.799  26.889  1.00  0.00     0.116 C 
BRANCH  26  27
ATOM     27  N   UNL A   1      41.021  19.797  26.206  1.00  0.00    -0.352 N 
ATOM     28  C   UNL A   1      42.308  19.932  25.729  1.00  0.00     0.251 C 
ATOM     29  H   UNL A   1      40.597  18.920  26.069  1.00  0.00     0.163 HD
ATOM     30  O   UNL A   1      42.830  19.043  25.080  1.00  0.00    -0.269 OA
BRANCH  28  31
ATOM     31  C   UNL A   1      43.017  21.205  25.986  1.00  0.00     0.039 A 
ATOM     32  C   UNL A   1      43.154  22.122  24.944  1.00  0.00     0.014 A 
ATOM     33  C   UNL A   1      43.461  21.517  27.275  1.00  0.00     0.014 A 
ATOM     34  C   UNL A   1      43.676  23.389  25.213  1.00  0.00     0.010 A 
ATOM     35  C   UNL A   1      43.898  22.805  27.555  1.00  0.00     0.010 A 
ATOM     36  C   UNL A   1      44.014  23.753  26.527  1.00  0.00    -0.014 A 
BRANCH  36  37
ATOM     37  C   UNL A   1      44.494  25.119  26.853  1.00  0.00     0.031 A 
ATOM     38  C   UNL A   1      43.531  26.145  27.382  1.00  0.00     0.074 A 
ATOM     39  C   UNL A   1      45.776  25.453  26.607  1.00  0.00     0.049 A 
ATOM     40  N   UNL A   1      43.743  27.404  27.667  1.00  0.00    -0.248 NA
ATOM     41  C   UNL A   1      42.141  25.709  27.593  1.00  0.00     0.031 C 
ATOM     42  C   UNL A   1      46.796  24.560  26.050  1.00  0.00     0.029 A 
ATOM     43  N   UNL A   1      46.442  26.640  26.788  1.00  0.00    -0.354 N 
ATOM     44  C   UNL A   1      42.514  27.912  28.070  1.00  0.00     0.074 A 
ATOM     45  C   UNL A   1      41.550  26.842  27.943  1.00  0.00     0.031 C 
ATOM     46  C   UNL A   1      47.963  25.222  25.965  1.00  0.00     0.029 A 
ATOM     47  C   UNL A   1      47.766  26.595  26.421  1.00  0.00     0.049 A 
ATOM     48  H   UNL A   1      46.011  27.449  27.149  1.00  0.00     0.167 HD
ATOM     49  C   UNL A   1      42.217  29.152  28.526  1.00  0.00     0.031 A 
ATOM     50  C   UNL A   1      48.714  27.551  26.443  1.00  0.00     0.031 A 
ATOM     51  C   UNL A   1      43.181  30.209  28.667  1.00  0.00     0.049 A 
ATOM     52  C   UNL A   1      48.360  28.921  26.953  1.00  0.00     0.074 A 
ATOM     53  C   UNL A   1      42.994  31.482  29.178  1.00  0.00     0.029 A 
ATOM     54  N   UNL A   1      44.515  30.118  28.297  1.00  0.00    -0.354 N 
ATOM     55  N   UNL A   1      47.206  29.363  27.396  1.00  0.00    -0.248 NA
ATOM     56  C   UNL A   1      49.438  29.919  26.978  1.00  0.00     0.031 C 
ATOM     57  C   UNL A   1      44.203  32.177  29.070  1.00  0.00     0.029 A 
ATOM     58  C   UNL A   1      45.157  31.318  28.547  1.00  0.00     0.049 A 
ATOM     59  H   UNL A   1      44.942  29.318  27.914  1.00  0.00     0.167 HD
ATOM     60  C   UNL A   1      47.428  30.682  27.778  1.00  0.00     0.074 A 
ATOM     61  C   UNL A   1      48.827  30.960  27.527  1.00  0.00     0.031 C 
ATOM     62  C   UNL A   1      46.551  31.579  28.292  1.00  0.00     0.031 A 
BRANCH  49  63
ATOM     63  C   UNL A   1      40.786  29.428  28.904  1.00  0.00    -0.014 A 
ATOM     64  C   UNL A   1      39.819  29.721  27.926  1.00  0.00     0.010 A 
ATOM     65  C   UNL A   1      40.395  29.361  30.254  1.00  0.00     0.010 A 
ATOM     66  C   UNL A   1      38.497  29.985  28.293  1.00  0.00     0.020 A 
ATOM     67  C   UNL A   1      39.067  29.596  30.623  1.00  0.00     0.020 A 
ATOM     68  C   UNL A   1      38.131  29.924  29.641  1.00  0.00     0.054 A 
BRANCH  68  69
ATOM     69  S   UNL A   1      36.403  30.251  30.086  1.00  0.00     0.124 S 
ATOM     70  O   UNL A   1      35.684  29.608  28.988  1.00  0.00    -0.237 OA
ATOM     71  O   UNL A   1      36.277  29.598  31.386  1.00  0.00    -0.237 OA
ATOM     72  O   UNL A   1      36.321  31.709  30.113  1.00  0.00    -0.744 OA
ENDBRANCH  68  69
ENDBRANCH  49  63
BRANCH  50  73
ATOM     73  C   UNL A   1      50.096  27.239  25.987  1.00  0.00    -0.014 A 
ATOM     74  C   UNL A   1      51.073  26.818  26.908  1.00  0.00     0.010 A 
ATOM     75  C   UNL A   1      50.442  27.349  24.628  1.00  0.00     0.010 A 
ATOM     76  C   UNL A   1      52.373  26.532  26.482  1.00  0.00     0.020 A 
ATOM     77  C   UNL A   1      51.734  27.038  24.195  1.00  0.00     0.020 A 
ATOM     78  C   UNL A   1      52.695  26.643  25.127  1.00  0.00     0.054 A 
BRANCH  78  79
ATOM     79  S   UNL A   1      54.376  26.218  24.590  1.00  0.00     0.124 S 
ATOM     80  O   UNL A   1      55.194  27.036  25.480  1.00  0.00    -0.237 OA
ATOM     81  O   UNL A   1      54.429  24.778  24.825  1.00  0.00    -0.237 OA
ATOM     82  O   UNL A   1      54.393  26.613  23.183  1.00  0.00    -0.744 OA
ENDBRANCH  78  79
ENDBRANCH  50  73
BRANCH  62  83
ATOM     83  C   UNL A   1      47.085  32.939  28.652  1.00  0.00    -0.014 A 
ATOM     84  C   UNL A   1      47.643  33.193  29.917  1.00  0.00     0.010 A 
ATOM     85  C   UNL A   1      47.081  33.962  27.686  1.00  0.00     0.010 A 
ATOM     86  C   UNL A   1      48.160  34.456  30.220  1.00  0.00     0.020 A 
ATOM     87  C   UNL A   1      47.621  35.218  27.976  1.00  0.00     0.020 A 
ATOM     88  C   UNL A   1      48.146  35.460  29.247  1.00  0.00     0.054 A 
BRANCH  88  89
ATOM     89  S   UNL A   1      48.865  37.076  29.648  1.00  0.00     0.124 S 
ATOM     90  O   UNL A   1      47.688  37.941  29.643  1.00  0.00    -0.237 OA
ATOM     91  O   UNL A   1      49.468  36.842  30.958  1.00  0.00    -0.237 OA
ATOM     92  O   UNL A   1      49.817  37.311  28.564  1.00  0.00    -0.744 OA
ENDBRANCH  88  89
ENDBRANCH  62  83
ENDBRANCH  36  37
ENDBRANCH  28  31
ENDBRANCH  26  27
ENDBRANCH  25  26
ENDBRANCH   1  25
TORSDOF 17
ENDMDL
MODEL 3
REMARK VINA RESULT:     -11.6      6.432     12.155
REMARK SMILES CC1(C)C(C(=O)Nc2ccc(CC(=O)NCCCCNC(=O)c3ccc(-c4c5nc(c(-c6ccc(S(=O)(=O)[O-])cc6)c6ccc([nH]6)c(-c6ccc(S(=O)(=O)[O-])cc6)c6nc(c(-c7ccc(S(=O)(=O)[O-])cc7)c7ccc4[nH]7)C=C6)C=C5)cc3)cc2)C1(C)C
REMARK SMILES IDX 17 1 16 2 15 3 13 4 14 5 12 7 11 8 8 9 9 10 84 11 10 12
REMARK SMILES IDX 83 13 7 14 5 15 6 16 4 18 1 19 2 20 3 21 85 22 86 23 87 24
REMARK SMILES IDX 18 25 19 26 20 27 21 28 22 30 23 31 24 32 82 33 25 34 81 35
REMARK SMILES IDX 26 36 27 37 28 38 75 39 29 40 80 41 74 42 76 43 30 44 79 45
REMARK SMILES IDX 73 46 72 47 31 49 61 50 42 51 60 52 43 53 46 54 59 55 77 56
REMARK SMILES IDX 44 57 45 58 58 60 78 61 47 62 32 63 33 64 41 65 34 66 40 67
REMARK SMILES IDX 35 68 36 69 37 70 38 71 39 72 62 73 63 74 71 75 64 76 70 77
REMARK SMILES IDX 65 78 66 79 67 80 68 81 69 82 48 83 49 84 57 85 50 86 56 87
REMARK SMILES IDX 51 88 52 89 53 90 54 91 55 92
REMARK H PARENT 15 6 7 17 20 29 76 48 46 59
REMARK Flexibility Score: inf
ROOT
ATOM      1  C   UNL A   1      41.843  21.320  27.166  1.00  0.00     0.023 C 
ENDROOT
BRANCH   1   2
ATOM      2  C   UNL A   1      40.455  21.309  26.521  1.00  0.00     0.116 C 
BRANCH   2   3
ATOM      3  N   UNL A   1      39.789  22.589  26.659  1.00  0.00    -0.356 N 
ATOM      4  C   UNL A   1      38.592  23.000  26.145  1.00  0.00     0.224 C 
ATOM      5  O   UNL A   1      38.245  24.169  26.325  1.00  0.00    -0.275 OA
ATOM      6  H   UNL A   1      40.268  23.257  27.202  1.00  0.00     0.163 HD
BRANCH   4   7
ATOM      7  C   UNL A   1      37.680  22.018  25.439  1.00  0.00     0.135 C 
BRANCH   7   8
ATOM      8  C   UNL A   1      36.274  22.499  25.180  1.00  0.00    -0.039 A 
ATOM      9  C   UNL A   1      33.737  23.649  24.953  1.00  0.00     0.041 A 
ATOM     10  C   UNL A   1      34.654  23.799  23.914  1.00  0.00     0.026 A 
ATOM     11  C   UNL A   1      34.002  22.747  25.967  1.00  0.00     0.026 A 
ATOM     12  C   UNL A   1      35.925  23.214  24.026  1.00  0.00     0.006 A 
ATOM     13  C   UNL A   1      35.285  22.256  26.134  1.00  0.00     0.006 A 
BRANCH   9  14
ATOM     14  N   UNL A   1      32.600  24.466  25.031  1.00  0.00    -0.326 N 
ATOM     15  C   UNL A   1      32.385  25.385  26.039  1.00  0.00     0.228 C 
ATOM     16  O   UNL A   1      31.436  25.243  26.808  1.00  0.00    -0.274 OA
ATOM     17  H   UNL A   1      31.917  24.379  24.329  1.00  0.00     0.169 HD
BRANCH  15  18
ATOM     18  C   UNL A   1      33.053  26.734  26.003  1.00  0.00     0.091 C 
ATOM     19  C   UNL A   1      33.625  28.436  24.172  1.00  0.00     0.012 C 
ATOM     20  C   UNL A   1      32.595  27.949  25.179  1.00  0.00    -0.017 C 
ATOM     21  C   UNL A   1      31.210  28.112  24.599  1.00  0.00     0.012 C 
ATOM     22  C   UNL A   1      32.828  28.052  26.719  1.00  0.00    -0.017 C 
ATOM     23  C   UNL A   1      34.069  28.771  27.219  1.00  0.00     0.012 C 
ATOM     24  C   UNL A   1      31.708  28.244  27.714  1.00  0.00     0.012 C 
ENDBRANCH  15  18
ENDBRANCH   9  14
ENDBRANCH   7   8
ENDBRANCH   4   7
ENDBRANCH   2   3
ENDBRANCH   1   2
BRANCH   1  25
ATOM     25  C   UNL A   1      42.033  22.356  28.266  1.00  0.00     0.023 C 
BRANCH  25  26
ATOM     26  C   UNL A   1      43.055  23.430  27.945  1.00  0.00     0.116 C 
BRANCH  26  27
ATOM     27  N   UNL A   1      42.985  23.902  26.571  1.00  0.00    -0.352 N 
ATOM     28  C   UNL A   1      42.522  25.121  26.123  1.00  0.00     0.251 C 
ATOM     29  H   UNL A   1      43.305  23.279  25.881  1.00  0.00     0.163 HD
ATOM     30  O   UNL A   1      42.419  25.350  24.931  1.00  0.00    -0.269 OA
BRANCH  28  31
ATOM     31  C   UNL A   1      42.108  26.123  27.130  1.00  0.00     0.039 A 
ATOM     32  C   UNL A   1      41.024  25.837  27.958  1.00  0.00     0.014 A 
ATOM     33  C   UNL A   1      42.850  27.295  27.304  1.00  0.00     0.014 A 
ATOM     34  C   UNL A   1      40.725  26.699  29.016  1.00  0.00     0.010 A 
ATOM     35  C   UNL A   1      42.605  28.103  28.407  1.00  0.00     0.010 A 
ATOM     36  C   UNL A   1      41.537  27.816  29.271  1.00  0.00    -0.014 A 
BRANCH  36  37
ATOM     37  C   UNL A   1      41.290  28.703  30.435  1.00  0.00     0.031 A 
ATOM     38  C   UNL A   1      42.132  28.566  31.674  1.00  0.00     0.074 A 
ATOM     39  C   UNL A   1      40.267  29.580  30.403  1.00  0.00     0.049 A 
ATOM     40  N   UNL A   1      42.033  29.202  32.812  1.00  0.00    -0.248 NA
ATOM     41  C   UNL A   1      43.210  27.563  31.640  1.00  0.00     0.031 C 
ATOM     42  C   UNL A   1      39.348  29.773  29.278  1.00  0.00     0.029 A 
ATOM     43  N   UNL A   1      39.822  30.470  31.348  1.00  0.00    -0.354 N 
ATOM     44  C   UNL A   1      43.018  28.666  33.632  1.00  0.00     0.074 A 
ATOM     45  C   UNL A   1      43.669  27.615  32.881  1.00  0.00     0.031 C 
ATOM     46  C   UNL A   1      38.470  30.742  29.587  1.00  0.00     0.029 A 
ATOM     47  C   UNL A   1      38.736  31.210  30.944  1.00  0.00     0.049 A 
ATOM     48  H   UNL A   1      40.242  30.570  32.233  1.00  0.00     0.167 HD
ATOM     49  C   UNL A   1      43.365  29.027  34.889  1.00  0.00     0.031 A 
ATOM     50  C   UNL A   1      38.031  32.156  31.593  1.00  0.00     0.031 A 
ATOM     51  C   UNL A   1      42.726  30.084  35.627  1.00  0.00     0.049 A 
ATOM     52  C   UNL A   1      38.434  32.540  32.990  1.00  0.00     0.074 A 
ATOM     53  C   UNL A   1      43.044  30.569  36.884  1.00  0.00     0.029 A 
ATOM     54  N   UNL A   1      41.640  30.819  35.176  1.00  0.00    -0.354 N 
ATOM     55  N   UNL A   1      39.414  32.068  33.724  1.00  0.00    -0.248 NA
ATOM     56  C   UNL A   1      37.645  33.594  33.643  1.00  0.00     0.031 C 
ATOM     57  C   UNL A   1      42.118  31.563  37.214  1.00  0.00     0.029 A 
ATOM     58  C   UNL A   1      41.260  31.738  36.139  1.00  0.00     0.049 A 
ATOM     59  H   UNL A   1      41.204  30.703  34.301  1.00  0.00     0.167 HD
ATOM     60  C   UNL A   1      39.375  32.787  34.914  1.00  0.00     0.074 A 
ATOM     61  C   UNL A   1      38.286  33.734  34.795  1.00  0.00     0.031 C 
ATOM     62  C   UNL A   1      40.173  32.674  36.005  1.00  0.00     0.031 A 
BRANCH  49  63
ATOM     63  C   UNL A   1      44.489  28.270  35.545  1.00  0.00    -0.014 A 
ATOM     64  C   UNL A   1      45.823  28.697  35.422  1.00  0.00     0.010 A 
ATOM     65  C   UNL A   1      44.204  27.133  36.324  1.00  0.00     0.010 A 
ATOM     66  C   UNL A   1      46.856  27.977  36.028  1.00  0.00     0.020 A 
ATOM     67  C   UNL A   1      45.232  26.427  36.956  1.00  0.00     0.020 A 
ATOM     68  C   UNL A   1      46.553  26.845  36.788  1.00  0.00     0.054 A 
BRANCH  68  69
ATOM     69  S   UNL A   1      47.913  25.943  37.581  1.00  0.00     0.124 S 
ATOM     70  O   UNL A   1      47.826  24.637  36.931  1.00  0.00    -0.237 OA
ATOM     71  O   UNL A   1      49.080  26.745  37.226  1.00  0.00    -0.237 OA
ATOM     72  O   UNL A   1      47.559  25.957  38.998  1.00  0.00    -0.744 OA
ENDBRANCH  68  69
ENDBRANCH  49  63
BRANCH  50  73
ATOM     73  C   UNL A   1      36.881  32.821  30.920  1.00  0.00    -0.014 A 
ATOM     74  C   UNL A   1      35.561  32.432  31.212  1.00  0.00     0.010 A 
ATOM     75  C   UNL A   1      37.098  33.855  29.991  1.00  0.00     0.010 A 
ATOM     76  C   UNL A   1      34.482  33.050  30.575  1.00  0.00     0.020 A 
ATOM     77  C   UNL A   1      36.020  34.494  29.373  1.00  0.00     0.020 A 
ATOM     78  C   UNL A   1      34.718  34.079  29.660  1.00  0.00     0.054 A 
BRANCH  78  79
ATOM     79  S   UNL A   1      33.299  34.901  28.883  1.00  0.00     0.124 S 
ATOM     80  O   UNL A   1      32.816  33.872  27.969  1.00  0.00    -0.237 OA
ATOM     81  O   UNL A   1      32.437  35.190  30.025  1.00  0.00    -0.237 OA
ATOM     82  O   UNL A   1      33.893  36.076  28.247  1.00  0.00    -0.744 OA
ENDBRANCH  78  79
ENDBRANCH  50  73
BRANCH  62  83
ATOM     83  C   UNL A   1      39.921  33.621  37.147  1.00  0.00    -0.014 A 
ATOM     84  C   UNL A   1      40.669  34.802  37.295  1.00  0.00     0.010 A 
ATOM     85  C   UNL A   1      38.878  33.351  38.052  1.00  0.00     0.010 A 
ATOM     86  C   UNL A   1      40.398  35.682  38.347  1.00  0.00     0.020 A 
ATOM     87  C   UNL A   1      38.586  34.241  39.089  1.00  0.00     0.020 A 
ATOM     88  C   UNL A   1      39.358  35.396  39.237  1.00  0.00     0.054 A 
BRANCH  88  89
ATOM     89  S   UNL A   1      38.995  36.576  40.565  1.00  0.00     0.124 S 
ATOM     90  O   UNL A   1      38.051  35.824  41.388  1.00  0.00    -0.237 OA
ATOM     91  O   UNL A   1      40.309  36.802  41.162  1.00  0.00    -0.237 OA
ATOM     92  O   UNL A   1      38.430  37.726  39.862  1.00  0.00    -0.744 OA
ENDBRANCH  88  89
ENDBRANCH  62  83
ENDBRANCH  36  37
ENDBRANCH  28  31
ENDBRANCH  26  27
ENDBRANCH  25  26
ENDBRANCH   1  25
TORSDOF 17
ENDMDL
