MODEL 1
REMARK VINA RESULT:     -11.5      0.000      0.000
REMARK SMILES C[C@@H]1C[N@@H+]2CCC[C@@H]2CN1C(=O)N1CC(C(=O)NCCCCNC(=O)c2ccc(-c3c4nc(c(-c5ccc(S(=O)(=O)[O-])cc5)c5ccc([nH]5)c(-c5ccc(S(=O)(=O)[O-])cc5)c5nc(c(-c6ccc(S(=O)(=O)[O-])cc6)c6ccc3[nH]6)C=C5)C=C4)cc2)C1
REMARK SMILES IDX 21 1 20 2 19 3 18 4 16 5 17 6 15 8 11 9 12 10 13 11 14 12
REMARK SMILES IDX 86 13 10 14 1 15 2 16 3 17 4 18 9 19 5 20 8 21 6 23 7 24
REMARK SMILES IDX 22 25 23 26 24 27 25 29 26 30 27 31 85 32 28 33 84 34 29 35
REMARK SMILES IDX 30 36 31 37 78 38 32 39 83 40 77 41 79 42 33 43 82 44 76 45
REMARK SMILES IDX 75 46 34 48 64 49 45 50 63 51 46 52 49 53 62 54 80 55 47 56
REMARK SMILES IDX 48 57 61 59 81 60 50 61 35 62 36 63 44 64 37 65 43 66 38 67
REMARK SMILES IDX 39 68 40 69 41 70 42 71 65 72 66 73 74 74 67 75 73 76 68 77
REMARK SMILES IDX 69 78 70 79 71 80 72 81 51 82 52 83 60 84 53 85 59 86 54 87
REMARK SMILES IDX 55 88 56 89 57 90 58 91
REMARK H PARENT 18 7 4 22 23 28 79 47 49 58
REMARK Flexibility Score: inf
ROOT
ATOM      1  C   UNL A   1      31.984  31.705  26.825  1.00  0.00     0.023 C 
ENDROOT
BRANCH   1   2
ATOM      2  C   UNL A   1      32.186  30.208  26.568  1.00  0.00     0.023 C 
BRANCH   2   3
ATOM      3  C   UNL A   1      31.706  29.722  25.200  1.00  0.00     0.116 C 
BRANCH   3   4
ATOM      4  N   UNL A   1      32.816  29.480  24.300  1.00  0.00    -0.356 N 
ATOM      5  C   UNL A   1      33.458  28.319  23.947  1.00  0.00     0.226 C 
ATOM      6  O   UNL A   1      34.400  28.447  23.150  1.00  0.00    -0.275 OA
ATOM      7  H   UNL A   1      33.172  30.290  23.866  1.00  0.00     0.163 HD
BRANCH   5   8
ATOM      8  C   UNL A   1      33.045  26.945  24.482  1.00  0.00     0.117 C 
ATOM      9  C   UNL A   1      33.969  23.887  25.507  1.00  0.00     0.320 C 
ATOM     10  O   UNL A   1      33.582  23.665  26.654  1.00  0.00    -0.248 OA
ATOM     11  N   UNL A   1      33.969  25.160  25.001  1.00  0.00    -0.323 N 
ATOM     12  C   UNL A   1      33.707  26.390  25.741  1.00  0.00     0.136 C 
ATOM     13  C   UNL A   1      33.404  25.653  23.749  1.00  0.00     0.136 C 
BRANCH   9  14
ATOM     14  N   UNL A   1      34.440  22.881  24.681  1.00  0.00    -0.310 N 
ATOM     15  C   UNL A   1      36.592  22.652  23.509  1.00  0.00     0.037 C 
ATOM     16  C   UNL A   1      35.785  22.293  24.762  1.00  0.00     0.139 C 
ATOM     17  C   UNL A   1      35.775  20.738  24.955  1.00  0.00     0.287 C 
ATOM     18  N   UNL A   1      34.495  20.038  25.115  1.00  0.00    -0.329 N 
ATOM     19  C   UNL A   1      33.476  22.071  23.946  1.00  0.00     0.186 C 
ATOM     20  C   UNL A   1      34.506  18.670  24.592  1.00  0.00     0.262 C 
ATOM     21  C   UNL A   1      33.276  20.725  24.652  1.00  0.00     0.204 C 
ATOM     22  H   UNL A   1      34.428  20.026  26.132  1.00  0.00     0.348 HD
ATOM     23  C   UNL A   1      33.048  18.373  24.295  1.00  0.00     0.068 C 
ATOM     24  C   UNL A   1      32.541  19.708  23.781  1.00  0.00     0.073 C 
ENDBRANCH   9  14
ENDBRANCH   5   8
ENDBRANCH   3   4
ENDBRANCH   2   3
ENDBRANCH   1   2
BRANCH   1  25
ATOM     25  C   UNL A   1      33.188  32.439  27.408  1.00  0.00     0.116 C 
BRANCH  25  26
ATOM     26  N   UNL A   1      32.921  33.844  27.681  1.00  0.00    -0.352 N 
ATOM     27  C   UNL A   1      33.487  34.669  28.622  1.00  0.00     0.251 C 
ATOM     28  H   UNL A   1      32.237  34.262  27.109  1.00  0.00     0.163 HD
ATOM     29  O   UNL A   1      33.036  35.799  28.794  1.00  0.00    -0.269 OA
BRANCH  27  30
ATOM     30  C   UNL A   1      34.614  34.185  29.450  1.00  0.00     0.039 A 
ATOM     31  C   UNL A   1      34.334  33.485  30.627  1.00  0.00     0.014 A 
ATOM     32  C   UNL A   1      35.938  34.406  29.062  1.00  0.00     0.014 A 
ATOM     33  C   UNL A   1      35.383  32.943  31.376  1.00  0.00     0.010 A 
ATOM     34  C   UNL A   1      36.976  33.807  29.772  1.00  0.00     0.010 A 
ATOM     35  C   UNL A   1      36.710  33.066  30.933  1.00  0.00    -0.014 A 
BRANCH  35  36
ATOM     36  C   UNL A   1      37.830  32.411  31.658  1.00  0.00     0.031 A 
ATOM     37  C   UNL A   1      38.277  32.935  32.996  1.00  0.00     0.074 A 
ATOM     38  C   UNL A   1      38.493  31.389  31.079  1.00  0.00     0.049 A 
ATOM     39  N   UNL A   1      39.279  32.543  33.741  1.00  0.00    -0.248 NA
ATOM     40  C   UNL A   1      37.516  34.063  33.557  1.00  0.00     0.031 C 
ATOM     41  C   UNL A   1      38.184  30.813  29.767  1.00  0.00     0.029 A 
ATOM     42  N   UNL A   1      39.570  30.659  31.514  1.00  0.00    -0.354 N 
ATOM     43  C   UNL A   1      39.280  33.385  34.847  1.00  0.00     0.074 A 
ATOM     44  C   UNL A   1      38.209  34.337  34.654  1.00  0.00     0.031 C 
ATOM     45  C   UNL A   1      39.037  29.807  29.517  1.00  0.00     0.029 A 
ATOM     46  C   UNL A   1      39.978  29.691  30.627  1.00  0.00     0.049 A 
ATOM     47  H   UNL A   1      40.011  30.814  32.382  1.00  0.00     0.167 HD
ATOM     48  C   UNL A   1      40.088  33.357  35.934  1.00  0.00     0.031 A 
ATOM     49  C   UNL A   1      40.998  28.813  30.692  1.00  0.00     0.031 A 
ATOM     50  C   UNL A   1      41.146  32.402  36.131  1.00  0.00     0.049 A 
ATOM     51  C   UNL A   1      41.886  28.806  31.905  1.00  0.00     0.074 A 
ATOM     52  C   UNL A   1      41.982  32.258  37.225  1.00  0.00     0.029 A 
ATOM     53  N   UNL A   1      41.516  31.429  35.215  1.00  0.00    -0.354 N 
ATOM     54  N   UNL A   1      41.830  29.570  32.970  1.00  0.00    -0.248 NA
ATOM     55  C   UNL A   1      42.967  27.812  31.931  1.00  0.00     0.031 C 
ATOM     56  C   UNL A   1      42.888  31.229  36.950  1.00  0.00     0.029 A 
ATOM     57  C   UNL A   1      42.581  30.695  35.709  1.00  0.00     0.049 A 
ATOM     58  H   UNL A   1      41.084  31.282  34.343  1.00  0.00     0.167 HD
ATOM     59  C   UNL A   1      42.852  29.130  33.805  1.00  0.00     0.074 A 
ATOM     60  C   UNL A   1      43.500  28.027  33.127  1.00  0.00     0.031 C 
ATOM     61  C   UNL A   1      43.217  29.598  35.024  1.00  0.00     0.031 A 
BRANCH  48  62
ATOM     62  C   UNL A   1      39.859  34.400  36.997  1.00  0.00    -0.014 A 
ATOM     63  C   UNL A   1      39.062  34.126  38.124  1.00  0.00     0.010 A 
ATOM     64  C   UNL A   1      40.479  35.658  36.888  1.00  0.00     0.010 A 
ATOM     65  C   UNL A   1      38.852  35.105  39.098  1.00  0.00     0.020 A 
ATOM     66  C   UNL A   1      40.295  36.631  37.875  1.00  0.00     0.020 A 
ATOM     67  C   UNL A   1      39.467  36.353  38.965  1.00  0.00     0.054 A 
BRANCH  67  68
ATOM     68  S   UNL A   1      39.190  37.599  40.254  1.00  0.00     0.124 S 
ATOM     69  O   UNL A   1      38.179  38.452  39.634  1.00  0.00    -0.237 OA
ATOM     70  O   UNL A   1      38.728  36.797  41.383  1.00  0.00    -0.237 OA
ATOM     71  O   UNL A   1      40.504  38.216  40.428  1.00  0.00    -0.744 OA
ENDBRANCH  67  68
ENDBRANCH  48  62
BRANCH  49  72
ATOM     72  C   UNL A   1      41.226  27.855  29.575  1.00  0.00    -0.014 A 
ATOM     73  C   UNL A   1      42.332  28.009  28.721  1.00  0.00     0.010 A 
ATOM     74  C   UNL A   1      40.346  26.777  29.368  1.00  0.00     0.010 A 
ATOM     75  C   UNL A   1      42.546  27.111  27.670  1.00  0.00     0.020 A 
ATOM     76  C   UNL A   1      40.573  25.862  28.336  1.00  0.00     0.020 A 
ATOM     77  C   UNL A   1      41.666  26.042  27.486  1.00  0.00     0.054 A 
BRANCH  77  78
ATOM     78  S   UNL A   1      41.992  24.858  26.149  1.00  0.00     0.124 S 
ATOM     79  O   UNL A   1      43.448  24.894  26.062  1.00  0.00    -0.237 OA
ATOM     80  O   UNL A   1      41.420  23.621  26.677  1.00  0.00    -0.237 OA
ATOM     81  O   UNL A   1      41.279  25.427  25.008  1.00  0.00    -0.744 OA
ENDBRANCH  77  78
ENDBRANCH  49  72
BRANCH  61  82
ATOM     82  C   UNL A   1      44.350  28.897  35.725  1.00  0.00    -0.014 A 
ATOM     83  C   UNL A   1      45.675  29.354  35.606  1.00  0.00     0.010 A 
ATOM     84  C   UNL A   1      44.074  27.800  36.561  1.00  0.00     0.010 A 
ATOM     85  C   UNL A   1      46.707  28.708  36.292  1.00  0.00     0.020 A 
ATOM     86  C   UNL A   1      45.100  27.169  37.268  1.00  0.00     0.020 A 
ATOM     87  C   UNL A   1      46.413  27.619  37.119  1.00  0.00     0.054 A 
BRANCH  87  88
ATOM     88  S   UNL A   1      47.764  26.827  38.036  1.00  0.00     0.124 S 
ATOM     89  O   UNL A   1      47.400  27.115  39.420  1.00  0.00    -0.237 OA
ATOM     90  O   UNL A   1      47.649  25.428  37.633  1.00  0.00    -0.237 OA
ATOM     91  O   UNL A   1      48.960  27.513  37.551  1.00  0.00    -0.744 OA
ENDBRANCH  87  88
ENDBRANCH  61  82
ENDBRANCH  35  36
ENDBRANCH  27  30
ENDBRANCH  25  26
ENDBRANCH   1  25
TORSDOF 15
ENDMDL
MODEL 2
REMARK VINA RESULT:     -11.5      6.000     10.357
REMARK SMILES C[C@@H]1C[N@@H+]2CCC[C@@H]2CN1C(=O)N1CC(C(=O)NCCCCNC(=O)c2ccc(-c3c4nc(c(-c5ccc(S(=O)(=O)[O-])cc5)c5ccc([nH]5)c(-c5ccc(S(=O)(=O)[O-])cc5)c5nc(c(-c6ccc(S(=O)(=O)[O-])cc6)c6ccc3[nH]6)C=C5)C=C4)cc2)C1
REMARK SMILES IDX 21 1 20 2 19 3 18 4 16 5 17 6 15 8 11 9 12 10 13 11 14 12
REMARK SMILES IDX 86 13 10 14 1 15 2 16 3 17 4 18 9 19 5 20 8 21 6 23 7 24
REMARK SMILES IDX 22 25 23 26 24 27 25 29 26 30 27 31 85 32 28 33 84 34 29 35
REMARK SMILES IDX 30 36 31 37 78 38 32 39 83 40 77 41 79 42 33 43 82 44 76 45
REMARK SMILES IDX 75 46 34 48 64 49 45 50 63 51 46 52 49 53 62 54 80 55 47 56
REMARK SMILES IDX 48 57 61 59 81 60 50 61 35 62 36 63 44 64 37 65 43 66 38 67
REMARK SMILES IDX 39 68 40 69 41 70 42 71 65 72 66 73 74 74 67 75 73 76 68 77
REMARK SMILES IDX 69 78 70 79 71 80 72 81 51 82 52 83 60 84 53 85 59 86 54 87
REMARK SMILES IDX 55 88 56 89 57 90 58 91
REMARK H PARENT 18 7 4 22 23 28 79 47 49 58
REMARK Flexibility Score: inf
ROOT
ATOM      1  C   UNL A   1      38.367  19.995  24.848  1.00  0.00     0.023 C 
ENDROOT
BRANCH   1   2
ATOM      2  C   UNL A   1      36.893  20.379  25.016  1.00  0.00     0.023 C 
BRANCH   2   3
ATOM      3  C   UNL A   1      36.649  21.849  25.359  1.00  0.00     0.116 C 
BRANCH   3   4
ATOM      4  N   UNL A   1      35.774  21.990  26.505  1.00  0.00    -0.356 N 
ATOM      5  C   UNL A   1      34.641  22.745  26.691  1.00  0.00     0.226 C 
ATOM      6  O   UNL A   1      34.117  22.658  27.812  1.00  0.00    -0.275 OA
ATOM      7  H   UNL A   1      36.036  21.451  27.287  1.00  0.00     0.163 HD
BRANCH   5   8
ATOM      8  C   UNL A   1      34.043  23.630  25.595  1.00  0.00     0.117 C 
ATOM      9  C   UNL A   1      33.175  26.704  24.568  1.00  0.00     0.320 C 
ATOM     10  O   UNL A   1      33.739  26.998  23.514  1.00  0.00    -0.248 OA
ATOM     11  N   UNL A   1      33.600  25.639  25.318  1.00  0.00    -0.323 N 
ATOM     12  C   UNL A   1      34.812  24.855  25.105  1.00  0.00     0.136 C 
ATOM     13  C   UNL A   1      32.829  24.521  25.851  1.00  0.00     0.136 C 
BRANCH   9  14
ATOM     14  N   UNL A   1      32.105  27.433  25.060  1.00  0.00    -0.310 N 
ATOM     15  C   UNL A   1      31.774  28.503  27.251  1.00  0.00     0.037 C 
ATOM     16  C   UNL A   1      32.225  28.698  25.799  1.00  0.00     0.139 C 
ATOM     17  C   UNL A   1      31.421  29.877  25.150  1.00  0.00     0.287 C 
ATOM     18  N   UNL A   1      30.717  29.660  23.882  1.00  0.00    -0.329 N 
ATOM     19  C   UNL A   1      30.778  27.182  24.512  1.00  0.00     0.186 C 
ATOM     20  C   UNL A   1      29.508  30.473  23.735  1.00  0.00     0.262 C 
ATOM     21  C   UNL A   1      30.417  28.270  23.494  1.00  0.00     0.204 C 
ATOM     22  H   UNL A   1      31.435  29.973  23.228  1.00  0.00     0.348 HD
ATOM     23  C   UNL A   1      28.659  29.703  22.740  1.00  0.00     0.068 C 
ATOM     24  C   UNL A   1      28.935  28.261  23.123  1.00  0.00     0.073 C 
ENDBRANCH   9  14
ENDBRANCH   5   8
ENDBRANCH   3   4
ENDBRANCH   2   3
ENDBRANCH   1   2
BRANCH   1  25
ATOM     25  C   UNL A   1      39.260  20.269  26.055  1.00  0.00     0.116 C 
BRANCH  25  26
ATOM     26  N   UNL A   1      40.400  19.366  26.137  1.00  0.00    -0.352 N 
ATOM     27  C   UNL A   1      41.728  19.661  26.325  1.00  0.00     0.251 C 
ATOM     28  H   UNL A   1      40.188  18.409  26.042  1.00  0.00     0.163 HD
ATOM     29  O   UNL A   1      42.569  18.770  26.232  1.00  0.00    -0.269 OA
BRANCH  27  30
ATOM     30  C   UNL A   1      42.146  21.052  26.606  1.00  0.00     0.039 A 
ATOM     31  C   UNL A   1      42.354  21.439  27.933  1.00  0.00     0.014 A 
ATOM     32  C   UNL A   1      42.344  21.967  25.568  1.00  0.00     0.014 A 
ATOM     33  C   UNL A   1      42.835  22.722  28.212  1.00  0.00     0.010 A 
ATOM     34  C   UNL A   1      42.888  23.219  25.844  1.00  0.00     0.010 A 
ATOM     35  C   UNL A   1      43.144  23.608  27.168  1.00  0.00    -0.014 A 
BRANCH  35  36
ATOM     36  C   UNL A   1      43.751  24.938  27.437  1.00  0.00     0.031 A 
ATOM     37  C   UNL A   1      42.897  26.078  27.920  1.00  0.00     0.074 A 
ATOM     38  C   UNL A   1      45.059  25.139  27.177  1.00  0.00     0.049 A 
ATOM     39  N   UNL A   1      43.233  27.324  28.137  1.00  0.00    -0.248 NA
ATOM     40  C   UNL A   1      41.475  25.788  28.166  1.00  0.00     0.031 C 
ATOM     41  C   UNL A   1      45.988  24.126  26.667  1.00  0.00     0.029 A 
ATOM     42  N   UNL A   1      45.833  26.265  27.296  1.00  0.00    -0.354 N 
ATOM     43  C   UNL A   1      42.065  27.969  28.527  1.00  0.00     0.074 A 
ATOM     44  C   UNL A   1      41.004  26.988  28.472  1.00  0.00     0.031 C 
ATOM     45  C   UNL A   1      47.208  24.672  26.539  1.00  0.00     0.029 A 
ATOM     46  C   UNL A   1      47.143  26.080  26.917  1.00  0.00     0.049 A 
ATOM     47  H   UNL A   1      45.484  27.127  27.621  1.00  0.00     0.167 HD
ATOM     48  C   UNL A   1      41.893  29.256  28.913  1.00  0.00     0.031 A 
ATOM     49  C   UNL A   1      48.174  26.946  26.870  1.00  0.00     0.031 A 
ATOM     50  C   UNL A   1      42.953  30.228  28.979  1.00  0.00     0.049 A 
ATOM     51  C   UNL A   1      47.958  28.371  27.296  1.00  0.00     0.074 A 
ATOM     52  C   UNL A   1      42.889  31.542  29.411  1.00  0.00     0.029 A 
ATOM     53  N   UNL A   1      44.266  29.995  28.601  1.00  0.00    -0.354 N 
ATOM     54  N   UNL A   1      46.858  28.945  27.722  1.00  0.00    -0.248 NA
ATOM     55  C   UNL A   1      49.124  29.263  27.246  1.00  0.00     0.031 C 
ATOM     56  C   UNL A   1      44.153  32.117  29.249  1.00  0.00     0.029 A 
ATOM     57  C   UNL A   1      45.018  31.147  28.769  1.00  0.00     0.049 A 
ATOM     58  H   UNL A   1      44.613  29.138  28.263  1.00  0.00     0.167 HD
ATOM     59  C   UNL A   1      47.207  30.259  28.017  1.00  0.00     0.074 A 
ATOM     60  C   UNL A   1      48.621  30.390  27.732  1.00  0.00     0.031 C 
ATOM     61  C   UNL A   1      46.425  31.264  28.483  1.00  0.00     0.031 A 
BRANCH  48  62
ATOM     62  C   UNL A   1      40.501  29.689  29.291  1.00  0.00    -0.014 A 
ATOM     63  C   UNL A   1      40.164  29.963  30.630  1.00  0.00     0.010 A 
ATOM     64  C   UNL A   1      39.526  29.861  28.292  1.00  0.00     0.010 A 
ATOM     65  C   UNL A   1      38.866  30.356  30.967  1.00  0.00     0.020 A 
ATOM     66  C   UNL A   1      38.234  30.282  28.622  1.00  0.00     0.020 A 
ATOM     67  C   UNL A   1      37.909  30.509  29.961  1.00  0.00     0.054 A 
BRANCH  67  68
ATOM     68  S   UNL A   1      36.237  31.038  30.427  1.00  0.00     0.124 S 
ATOM     69  O   UNL A   1      35.899  30.076  31.473  1.00  0.00    -0.237 OA
ATOM     70  O   UNL A   1      36.448  32.410  30.880  1.00  0.00    -0.237 OA
ATOM     71  O   UNL A   1      35.473  30.904  29.188  1.00  0.00    -0.744 OA
ENDBRANCH  67  68
ENDBRANCH  48  62
BRANCH  49  72
ATOM     72  C   UNL A   1      49.513  26.481  26.412  1.00  0.00    -0.014 A 
ATOM     73  C   UNL A   1      50.379  25.821  27.301  1.00  0.00     0.010 A 
ATOM     74  C   UNL A   1      49.921  26.683  25.081  1.00  0.00     0.010 A 
ATOM     75  C   UNL A   1      51.637  25.387  26.872  1.00  0.00     0.020 A 
ATOM     76  C   UNL A   1      51.167  26.225  24.642  1.00  0.00     0.020 A 
ATOM     77  C   UNL A   1      52.022  25.589  25.545  1.00  0.00     0.054 A 
BRANCH  77  78
ATOM     78  S   UNL A   1      53.637  24.969  24.996  1.00  0.00     0.124 S 
ATOM     79  O   UNL A   1      54.527  25.485  26.030  1.00  0.00    -0.237 OA
ATOM     80  O   UNL A   1      53.436  23.521  24.998  1.00  0.00    -0.237 OA
ATOM     81  O   UNL A   1      53.799  25.565  23.671  1.00  0.00    -0.744 OA
ENDBRANCH  77  78
ENDBRANCH  49  72
BRANCH  61  82
ATOM     82  C   UNL A   1      47.086  32.590  28.750  1.00  0.00    -0.014 A 
ATOM     83  C   UNL A   1      47.129  33.595  27.768  1.00  0.00     0.010 A 
ATOM     84  C   UNL A   1      47.620  32.852  30.025  1.00  0.00     0.010 A 
ATOM     85  C   UNL A   1      47.719  34.830  28.048  1.00  0.00     0.020 A 
ATOM     86  C   UNL A   1      48.186  34.095  30.317  1.00  0.00     0.020 A 
ATOM     87  C   UNL A   1      48.244  35.073  29.321  1.00  0.00     0.054 A 
BRANCH  87  88
ATOM     88  S   UNL A   1      48.961  36.701  29.675  1.00  0.00     0.124 S 
ATOM     89  O   UNL A   1      48.625  36.881  31.085  1.00  0.00    -0.237 OA
ATOM     90  O   UNL A   1      50.378  36.498  29.387  1.00  0.00    -0.237 OA
ATOM     91  O   UNL A   1      48.266  37.594  28.751  1.00  0.00    -0.744 OA
ENDBRANCH  87  88
ENDBRANCH  61  82
ENDBRANCH  35  36
ENDBRANCH  27  30
ENDBRANCH  25  26
ENDBRANCH   1  25
TORSDOF 15
ENDMDL
MODEL 3
REMARK VINA RESULT:     -11.4      5.813      8.055
REMARK SMILES C[C@@H]1C[N@@H+]2CCC[C@@H]2CN1C(=O)N1CC(C(=O)NCCCCNC(=O)c2ccc(-c3c4nc(c(-c5ccc(S(=O)(=O)[O-])cc5)c5ccc([nH]5)c(-c5ccc(S(=O)(=O)[O-])cc5)c5nc(c(-c6ccc(S(=O)(=O)[O-])cc6)c6ccc3[nH]6)C=C5)C=C4)cc2)C1
REMARK SMILES IDX 21 1 20 2 19 3 18 4 16 5 17 6 15 8 11 9 12 10 13 11 14 12
REMARK SMILES IDX 86 13 10 14 1 15 2 16 3 17 4 18 9 19 5 20 8 21 6 23 7 24
REMARK SMILES IDX 22 25 23 26 24 27 25 29 26 30 27 31 85 32 28 33 84 34 29 35
REMARK SMILES IDX 30 36 31 37 78 38 32 39 83 40 77 41 79 42 33 43 82 44 76 45
REMARK SMILES IDX 75 46 34 48 64 49 45 50 63 51 46 52 49 53 62 54 80 55 47 56
REMARK SMILES IDX 48 57 61 59 81 60 50 61 35 62 36 63 44 64 37 65 43 66 38 67
REMARK SMILES IDX 39 68 40 69 41 70 42 71 65 72 66 73 74 74 67 75 73 76 68 77
REMARK SMILES IDX 69 78 70 79 71 80 72 81 51 82 52 83 60 84 53 85 59 86 54 87
REMARK SMILES IDX 55 88 56 89 57 90 58 91
REMARK H PARENT 18 7 4 22 23 28 79 47 49 58
REMARK Flexibility Score: inf
ROOT
ATOM      1  C   UNL A   1      34.292  31.911  28.198  1.00  0.00     0.023 C 
ENDROOT
BRANCH   1   2
ATOM      2  C   UNL A   1      33.729  30.852  27.244  1.00  0.00     0.023 C 
BRANCH   2   3
ATOM      3  C   UNL A   1      34.101  29.412  27.594  1.00  0.00     0.116 C 
BRANCH   3   4
ATOM      4  N   UNL A   1      32.939  28.545  27.595  1.00  0.00    -0.356 N 
ATOM      5  C   UNL A   1      32.534  27.574  26.712  1.00  0.00     0.226 C 
ATOM      6  O   UNL A   1      31.465  27.010  26.990  1.00  0.00    -0.275 OA
ATOM      7  H   UNL A   1      32.335  28.676  28.361  1.00  0.00     0.163 HD
BRANCH   5   8
ATOM      8  C   UNL A   1      33.342  27.190  25.470  1.00  0.00     0.117 C 
ATOM      9  C   UNL A   1      33.837  25.042  22.941  1.00  0.00     0.320 C 
ATOM     10  O   UNL A   1      33.768  25.612  21.851  1.00  0.00    -0.248 OA
ATOM     11  N   UNL A   1      33.377  25.649  24.080  1.00  0.00    -0.323 N 
ATOM     12  C   UNL A   1      32.621  26.894  24.157  1.00  0.00     0.136 C 
ATOM     13  C   UNL A   1      34.056  25.844  25.357  1.00  0.00     0.136 C 
BRANCH   9  14
ATOM     14  N   UNL A   1      34.356  23.766  23.073  1.00  0.00    -0.310 N 
ATOM     15  C   UNL A   1      36.690  22.985  23.085  1.00  0.00     0.037 C 
ATOM     16  C   UNL A   1      35.490  23.410  23.939  1.00  0.00     0.139 C 
ATOM     17  C   UNL A   1      35.153  22.283  24.974  1.00  0.00     0.287 C 
ATOM     18  N   UNL A   1      33.786  21.757  25.051  1.00  0.00    -0.329 N 
ATOM     19  C   UNL A   1      33.538  22.632  22.661  1.00  0.00     0.186 C 
ATOM     20  C   UNL A   1      33.720  20.351  25.456  1.00  0.00     0.262 C 
ATOM     21  C   UNL A   1      32.904  21.969  23.889  1.00  0.00     0.204 C 
ATOM     22  H   UNL A   1      33.410  22.354  25.788  1.00  0.00     0.348 HD
ATOM     23  C   UNL A   1      32.394  19.865  24.900  1.00  0.00     0.068 C 
ATOM     24  C   UNL A   1      32.305  20.599  23.575  1.00  0.00     0.073 C 
ENDBRANCH   9  14
ENDBRANCH   5   8
ENDBRANCH   3   4
ENDBRANCH   2   3
ENDBRANCH   1   2
BRANCH   1  25
ATOM     25  C   UNL A   1      35.632  31.569  28.842  1.00  0.00     0.116 C 
BRANCH  25  26
ATOM     26  N   UNL A   1      35.508  31.158  30.233  1.00  0.00    -0.352 N 
ATOM     27  C   UNL A   1      36.432  30.543  31.042  1.00  0.00     0.251 C 
ATOM     28  H   UNL A   1      34.637  31.346  30.652  1.00  0.00     0.163 HD
ATOM     29  O   UNL A   1      36.099  30.148  32.157  1.00  0.00    -0.269 OA
BRANCH  27  30
ATOM     30  C   UNL A   1      37.813  30.328  30.559  1.00  0.00     0.039 A 
ATOM     31  C   UNL A   1      38.836  30.150  31.496  1.00  0.00     0.014 A 
ATOM     32  C   UNL A   1      38.099  30.287  29.191  1.00  0.00     0.014 A 
ATOM     33  C   UNL A   1      40.131  29.857  31.060  1.00  0.00     0.010 A 
ATOM     34  C   UNL A   1      39.375  29.927  28.762  1.00  0.00     0.010 A 
ATOM     35  C   UNL A   1      40.402  29.703  29.691  1.00  0.00    -0.014 A 
BRANCH  35  36
ATOM     36  C   UNL A   1      41.747  29.292  29.211  1.00  0.00     0.031 A 
ATOM     37  C   UNL A   1      42.861  30.299  29.120  1.00  0.00     0.074 A 
ATOM     38  C   UNL A   1      41.947  28.027  28.787  1.00  0.00     0.049 A 
ATOM     39  N   UNL A   1      44.076  30.145  28.658  1.00  0.00    -0.248 NA
ATOM     40  C   UNL A   1      42.564  31.664  29.585  1.00  0.00     0.031 C 
ATOM     41  C   UNL A   1      40.937  26.965  28.785  1.00  0.00     0.029 A 
ATOM     42  N   UNL A   1      43.063  27.422  28.267  1.00  0.00    -0.354 N 
ATOM     43  C   UNL A   1      44.682  31.392  28.759  1.00  0.00     0.074 A 
ATOM     44  C   UNL A   1      43.687  32.302  29.284  1.00  0.00     0.031 C 
ATOM     45  C   UNL A   1      41.487  25.836  28.310  1.00  0.00     0.029 A 
ATOM     46  C   UNL A   1      42.872  26.101  27.935  1.00  0.00     0.049 A 
ATOM     47  H   UNL A   1      43.920  27.890  28.143  1.00  0.00     0.167 HD
ATOM     48  C   UNL A   1      45.954  31.744  28.461  1.00  0.00     0.031 A 
ATOM     49  C   UNL A   1      43.713  25.204  27.382  1.00  0.00     0.031 A 
ATOM     50  C   UNL A   1      46.947  30.835  27.950  1.00  0.00     0.049 A 
ATOM     51  C   UNL A   1      45.119  25.621  27.052  1.00  0.00     0.074 A 
ATOM     52  C   UNL A   1      48.279  31.086  27.670  1.00  0.00     0.029 A 
ATOM     53  N   UNL A   1      46.717  29.503  27.642  1.00  0.00    -0.354 N 
ATOM     54  N   UNL A   1      45.691  26.791  27.215  1.00  0.00    -0.248 NA
ATOM     55  C   UNL A   1      45.998  24.595  26.474  1.00  0.00     0.031 C 
ATOM     56  C   UNL A   1      48.842  29.917  27.147  1.00  0.00     0.029 A 
ATOM     57  C   UNL A   1      47.876  28.924  27.154  1.00  0.00     0.049 A 
ATOM     58  H   UNL A   1      45.856  29.038  27.754  1.00  0.00     0.167 HD
ATOM     59  C   UNL A   1      47.004  26.633  26.785  1.00  0.00     0.074 A 
ATOM     60  C   UNL A   1      47.144  25.253  26.367  1.00  0.00     0.031 C 
ATOM     61  C   UNL A   1      48.002  27.549  26.742  1.00  0.00     0.031 A 
BRANCH  48  62
ATOM     62  C   UNL A   1      46.346  33.183  28.675  1.00  0.00    -0.014 A 
ATOM     63  C   UNL A   1      46.832  33.626  29.918  1.00  0.00     0.010 A 
ATOM     64  C   UNL A   1      46.262  34.097  27.609  1.00  0.00     0.010 A 
ATOM     65  C   UNL A   1      47.184  34.966  30.105  1.00  0.00     0.020 A 
ATOM     66  C   UNL A   1      46.641  35.432  27.784  1.00  0.00     0.020 A 
ATOM     67  C   UNL A   1      47.082  35.861  29.037  1.00  0.00     0.054 A 
BRANCH  67  68
ATOM     68  S   UNL A   1      47.563  37.589  29.304  1.00  0.00     0.124 S 
ATOM     69  O   UNL A   1      48.559  37.463  30.365  1.00  0.00    -0.237 OA
ATOM     70  O   UNL A   1      48.084  37.984  27.998  1.00  0.00    -0.237 OA
ATOM     71  O   UNL A   1      46.315  38.240  29.696  1.00  0.00    -0.744 OA
ENDBRANCH  67  68
ENDBRANCH  48  62
BRANCH  49  72
ATOM     72  C   UNL A   1      43.248  23.814  27.120  1.00  0.00    -0.014 A 
ATOM     73  C   UNL A   1      42.985  23.389  25.806  1.00  0.00     0.010 A 
ATOM     74  C   UNL A   1      43.080  22.905  28.180  1.00  0.00     0.010 A 
ATOM     75  C   UNL A   1      42.546  22.085  25.558  1.00  0.00     0.020 A 
ATOM     76  C   UNL A   1      42.668  21.592  27.933  1.00  0.00     0.020 A 
ATOM     77  C   UNL A   1      42.392  21.194  26.624  1.00  0.00     0.054 A 
BRANCH  77  78
ATOM     78  S   UNL A   1      41.874  19.490  26.274  1.00  0.00     0.124 S 
ATOM     79  O   UNL A   1      42.638  19.182  25.070  1.00  0.00    -0.237 OA
ATOM     80  O   UNL A   1      42.285  18.781  27.484  1.00  0.00    -0.237 OA
ATOM     81  O   UNL A   1      40.429  19.605  26.090  1.00  0.00    -0.744 OA
ENDBRANCH  77  78
ENDBRANCH  49  72
BRANCH  61  82
ATOM     82  C   UNL A   1      49.351  27.084  26.259  1.00  0.00    -0.014 A 
ATOM     83  C   UNL A   1      50.298  26.544  27.146  1.00  0.00     0.010 A 
ATOM     84  C   UNL A   1      49.649  27.137  24.885  1.00  0.00     0.010 A 
ATOM     85  C   UNL A   1      51.531  26.089  26.671  1.00  0.00     0.020 A 
ATOM     86  C   UNL A   1      50.869  26.658  24.403  1.00  0.00     0.020 A 
ATOM     87  C   UNL A   1      51.809  26.149  25.302  1.00  0.00     0.054 A 
BRANCH  87  88
ATOM     88  S   UNL A   1      53.397  25.508  24.704  1.00  0.00     0.124 S 
ATOM     89  O   UNL A   1      53.308  24.095  25.061  1.00  0.00    -0.237 OA
ATOM     90  O   UNL A   1      53.343  25.800  23.273  1.00  0.00    -0.237 OA
ATOM     91  O   UNL A   1      54.386  26.278  25.454  1.00  0.00    -0.744 OA
ENDBRANCH  87  88
ENDBRANCH  61  82
ENDBRANCH  35  36
ENDBRANCH  27  30
ENDBRANCH  25  26
ENDBRANCH   1  25
TORSDOF 15
ENDMDL
