MODEL 1
REMARK VINA RESULT:     -11.8      0.000      0.000
REMARK SMILES COc1ccc(CCN2C(=O)C[C@@H](C(=O)NCCCCNC(=O)c3ccc(-c4c5nc(c(-c6ccc(S(=O)(=O)[O-])cc6)c6ccc([nH]6)c(-c6ccc(S(=O)(=O)[O-])cc6)c6nc(c(-c7ccc(S(=O)(=O)[O-])cc7)c7ccc4[nH]7)C=C6)C=C5)cc3)S/C2=[NH+]\c2ccc(F)cc2)cc1OC
REMARK SMILES IDX 18 1 17 2 16 3 14 4 15 5 13 7 9 8 10 9 85 10 11 11 12 12
REMARK SMILES IDX 84 13 86 14 8 16 7 17 6 18 3 19 4 20 95 21 5 22 94 23 2 24
REMARK SMILES IDX 1 25 96 26 97 27 87 28 88 29 93 30 89 31 92 32 90 33 91 34
REMARK SMILES IDX 19 35 20 36 21 37 22 38 23 40 24 41 25 42 83 43 26 44 82 45
REMARK SMILES IDX 27 46 28 47 29 48 76 49 30 50 81 51 75 52 77 53 31 54 80 55
REMARK SMILES IDX 74 56 73 57 32 59 62 60 43 61 61 62 44 63 47 64 60 65 78 66
REMARK SMILES IDX 45 67 46 68 59 70 79 71 48 72 33 73 34 74 42 75 35 76 41 77
REMARK SMILES IDX 36 78 37 79 38 80 39 81 40 82 63 83 64 84 72 85 65 86 71 87
REMARK SMILES IDX 66 88 67 89 68 90 69 91 70 92 49 93 50 94 58 95 51 96 57 97
REMARK SMILES IDX 52 98 53 99 54 100 55 101 56 102
REMARK H PARENT 16 6 86 15 21 39 77 58 47 69
REMARK Flexibility Score: inf
ROOT
ATOM      1  C   UNL A   1      34.105  32.356  28.328  1.00  0.00     0.023 C 
ENDROOT
BRANCH   1   2
ATOM      2  C   UNL A   1      33.243  31.473  27.434  1.00  0.00     0.116 C 
BRANCH   2   3
ATOM      3  N   UNL A   1      33.912  30.309  26.889  1.00  0.00    -0.355 N 
ATOM      4  C   UNL A   1      33.427  29.181  26.292  1.00  0.00     0.234 C 
ATOM      5  O   UNL A   1      34.259  28.428  25.774  1.00  0.00    -0.274 OA
ATOM      6  H   UNL A   1      34.893  30.336  26.964  1.00  0.00     0.163 HD
BRANCH   4   7
ATOM      7  C   UNL A   1      31.934  28.840  26.182  1.00  0.00     0.160 C 
ATOM      8  N   UNL A   1      30.530  26.776  24.546  1.00  0.00    -0.191 N 
ATOM      9  C   UNL A   1      30.704  26.561  25.902  1.00  0.00     0.311 C 
ATOM     10  C   UNL A   1      30.265  28.051  24.063  1.00  0.00     0.319 C 
ATOM     11  O   UNL A   1      30.183  25.607  26.487  1.00  0.00    -0.247 OA
ATOM     12  C   UNL A   1      31.608  27.466  26.697  1.00  0.00     0.153 C 
ATOM     13  S   UNL A   1      31.291  29.353  24.613  1.00  0.00    -0.024 SA
ATOM     14  N   UNL A   1      29.318  28.254  23.190  1.00  0.00    -0.235 N 
ATOM     15  H   UNL A   1      28.819  27.499  22.804  1.00  0.00     0.313 HD
BRANCH   8  16
ATOM     16  C   UNL A   1      30.136  25.584  23.751  1.00  0.00     0.251 C 
BRANCH  16  17
ATOM     17  C   UNL A   1      31.265  25.012  22.837  1.00  0.00     0.082 C 
BRANCH  17  18
ATOM     18  C   UNL A   1      32.463  24.339  23.486  1.00  0.00    -0.040 A 
ATOM     19  C   UNL A   1      34.784  23.130  24.612  1.00  0.00     0.160 A 
ATOM     20  C   UNL A   1      34.809  24.448  24.174  1.00  0.00     0.051 A 
ATOM     21  C   UNL A   1      33.598  22.393  24.477  1.00  0.00     0.160 A 
ATOM     22  C   UNL A   1      33.675  25.010  23.597  1.00  0.00     0.008 A 
ATOM     23  C   UNL A   1      32.448  23.007  23.923  1.00  0.00     0.054 A 
BRANCH  19  24
ATOM     24  O   UNL A   1      35.878  22.603  25.243  1.00  0.00    -0.493 OA
ATOM     25  C   UNL A   1      36.610  23.545  26.026  1.00  0.00     0.278 C 
ENDBRANCH  19  24
BRANCH  21  26
ATOM     26  O   UNL A   1      33.403  21.079  24.827  1.00  0.00    -0.493 OA
ATOM     27  C   UNL A   1      32.584  20.293  23.965  1.00  0.00     0.278 C 
ENDBRANCH  21  26
ENDBRANCH  17  18
ENDBRANCH  16  17
ENDBRANCH   8  16
BRANCH  14  28
ATOM     28  C   UNL A   1      29.026  29.583  22.812  1.00  0.00     0.125 A 
ATOM     29  C   UNL A   1      29.546  30.096  21.611  1.00  0.00     0.055 A 
ATOM     30  C   UNL A   1      28.112  30.349  23.544  1.00  0.00     0.055 A 
ATOM     31  C   UNL A   1      29.085  31.315  21.106  1.00  0.00     0.043 A 
ATOM     32  C   UNL A   1      27.646  31.564  23.036  1.00  0.00     0.043 A 
ATOM     33  C   UNL A   1      28.125  32.027  21.815  1.00  0.00     0.123 A 
ATOM     34  F   UNL A   1      27.643  33.167  21.306  1.00  0.00    -0.207 F 
ENDBRANCH  14  28
ENDBRANCH   4   7
ENDBRANCH   2   3
ENDBRANCH   1   2
BRANCH   1  35
ATOM     35  C   UNL A   1      35.574  32.460  27.931  1.00  0.00     0.023 C 
BRANCH  35  36
ATOM     36  C   UNL A   1      36.586  32.356  29.069  1.00  0.00     0.116 C 
BRANCH  36  37
ATOM     37  N   UNL A   1      36.115  31.583  30.209  1.00  0.00    -0.352 N 
ATOM     38  C   UNL A   1      36.648  30.438  30.761  1.00  0.00     0.251 C 
ATOM     39  H   UNL A   1      35.304  31.926  30.648  1.00  0.00     0.163 HD
ATOM     40  O   UNL A   1      36.057  29.858  31.668  1.00  0.00    -0.269 OA
BRANCH  38  41
ATOM     41  C   UNL A   1      37.915  29.886  30.230  1.00  0.00     0.039 A 
ATOM     42  C   UNL A   1      38.094  29.805  28.846  1.00  0.00     0.014 A 
ATOM     43  C   UNL A   1      38.943  29.497  31.092  1.00  0.00     0.014 A 
ATOM     44  C   UNL A   1      39.337  29.425  28.330  1.00  0.00     0.010 A 
ATOM     45  C   UNL A   1      40.201  29.198  30.578  1.00  0.00     0.010 A 
ATOM     46  C   UNL A   1      40.417  29.168  29.191  1.00  0.00    -0.014 A 
BRANCH  46  47
ATOM     47  C   UNL A   1      41.782  28.894  28.667  1.00  0.00     0.031 A 
ATOM     48  C   UNL A   1      42.151  27.512  28.196  1.00  0.00     0.074 A 
ATOM     49  C   UNL A   1      42.718  29.865  28.697  1.00  0.00     0.049 A 
ATOM     50  N   UNL A   1      43.310  27.063  27.789  1.00  0.00    -0.248 NA
ATOM     51  C   UNL A   1      41.085  26.496  28.212  1.00  0.00     0.031 C 
ATOM     52  C   UNL A   1      42.507  31.234  29.176  1.00  0.00     0.029 A 
ATOM     53  N   UNL A   1      44.040  29.848  28.327  1.00  0.00    -0.354 N 
ATOM     54  C   UNL A   1      43.121  25.712  27.523  1.00  0.00     0.074 A 
ATOM     55  C   UNL A   1      41.747  25.404  27.859  1.00  0.00     0.031 C 
ATOM     56  C   UNL A   1      43.649  31.927  29.050  1.00  0.00     0.029 A 
ATOM     57  C   UNL A   1      44.686  31.046  28.523  1.00  0.00     0.049 A 
ATOM     58  H   UNL A   1      44.485  29.051  27.957  1.00  0.00     0.167 HD
ATOM     59  C   UNL A   1      44.003  24.811  27.028  1.00  0.00     0.031 A 
ATOM     60  C   UNL A   1      45.971  31.398  28.314  1.00  0.00     0.031 A 
ATOM     61  C   UNL A   1      45.364  25.121  26.676  1.00  0.00     0.049 A 
ATOM     62  C   UNL A   1      46.932  30.381  27.761  1.00  0.00     0.074 A 
ATOM     63  C   UNL A   1      46.312  24.294  26.100  1.00  0.00     0.029 A 
ATOM     64  N   UNL A   1      45.971  26.353  26.867  1.00  0.00    -0.354 N 
ATOM     65  N   UNL A   1      46.710  29.127  27.444  1.00  0.00    -0.248 NA
ATOM     66  C   UNL A   1      48.312  30.828  27.527  1.00  0.00     0.031 C 
ATOM     67  C   UNL A   1      47.508  25.009  25.993  1.00  0.00     0.029 A 
ATOM     68  C   UNL A   1      47.289  26.300  26.446  1.00  0.00     0.049 A 
ATOM     69  H   UNL A   1      45.530  27.147  27.247  1.00  0.00     0.167 HD
ATOM     70  C   UNL A   1      47.917  28.645  26.949  1.00  0.00     0.074 A 
ATOM     71  C   UNL A   1      48.858  29.744  26.994  1.00  0.00     0.031 C 
ATOM     72  C   UNL A   1      48.216  27.403  26.495  1.00  0.00     0.031 A 
BRANCH  59  73
ATOM     73  C   UNL A   1      43.524  23.395  26.841  1.00  0.00    -0.014 A 
ATOM     74  C   UNL A   1      43.282  22.872  25.558  1.00  0.00     0.010 A 
ATOM     75  C   UNL A   1      43.357  22.561  27.962  1.00  0.00     0.010 A 
ATOM     76  C   UNL A   1      42.840  21.556  25.403  1.00  0.00     0.020 A 
ATOM     77  C   UNL A   1      42.943  21.235  27.809  1.00  0.00     0.020 A 
ATOM     78  C   UNL A   1      42.670  20.746  26.529  1.00  0.00     0.054 A 
BRANCH  78  79
ATOM     79  S   UNL A   1      42.117  19.035  26.295  1.00  0.00     0.124 S 
ATOM     80  O   UNL A   1      42.213  18.502  27.652  1.00  0.00    -0.237 OA
ATOM     81  O   UNL A   1      40.760  19.204  25.783  1.00  0.00    -0.237 OA
ATOM     82  O   UNL A   1      43.077  18.487  25.341  1.00  0.00    -0.744 OA
ENDBRANCH  78  79
ENDBRANCH  59  73
BRANCH  60  83
ATOM     83  C   UNL A   1      46.423  32.784  28.622  1.00  0.00    -0.014 A 
ATOM     84  C   UNL A   1      46.338  33.796  27.648  1.00  0.00     0.010 A 
ATOM     85  C   UNL A   1      46.936  33.100  29.893  1.00  0.00     0.010 A 
ATOM     86  C   UNL A   1      46.774  35.093  27.935  1.00  0.00     0.020 A 
ATOM     87  C   UNL A   1      47.346  34.403  30.192  1.00  0.00     0.020 A 
ATOM     88  C   UNL A   1      47.273  35.388  29.206  1.00  0.00     0.054 A 
BRANCH  88  89
ATOM     89  S   UNL A   1      47.786  37.091  29.571  1.00  0.00     0.124 S 
ATOM     90  O   UNL A   1      46.609  37.854  29.171  1.00  0.00    -0.237 OA
ATOM     91  O   UNL A   1      48.050  37.039  31.007  1.00  0.00    -0.237 OA
ATOM     92  O   UNL A   1      48.970  37.277  28.735  1.00  0.00    -0.744 OA
ENDBRANCH  88  89
ENDBRANCH  60  83
BRANCH  72  93
ATOM     93  C   UNL A   1      49.610  27.167  25.979  1.00  0.00    -0.014 A 
ATOM     94  C   UNL A   1      50.653  26.784  26.839  1.00  0.00     0.010 A 
ATOM     95  C   UNL A   1      49.864  27.272  24.598  1.00  0.00     0.010 A 
ATOM     96  C   UNL A   1      51.932  26.536  26.333  1.00  0.00     0.020 A 
ATOM     97  C   UNL A   1      51.133  26.999  24.085  1.00  0.00     0.020 A 
ATOM     98  C   UNL A   1      52.164  26.645  24.958  1.00  0.00     0.054 A 
BRANCH  98  99
ATOM     99  S   UNL A   1      53.820  26.270  24.319  1.00  0.00     0.124 S 
ATOM    100  O   UNL A   1      54.674  27.037  25.221  1.00  0.00    -0.237 OA
ATOM    101  O   UNL A   1      53.898  24.818  24.463  1.00  0.00    -0.237 OA
ATOM    102  O   UNL A   1      53.777  26.752  22.940  1.00  0.00    -0.744 OA
ENDBRANCH  98  99
ENDBRANCH  72  93
ENDBRANCH  46  47
ENDBRANCH  38  41
ENDBRANCH  36  37
ENDBRANCH  35  36
ENDBRANCH   1  35
TORSDOF 20
ENDMDL
MODEL 2
REMARK VINA RESULT:     -11.6      5.832      9.751
REMARK SMILES COc1ccc(CCN2C(=O)C[C@@H](C(=O)NCCCCNC(=O)c3ccc(-c4c5nc(c(-c6ccc(S(=O)(=O)[O-])cc6)c6ccc([nH]6)c(-c6ccc(S(=O)(=O)[O-])cc6)c6nc(c(-c7ccc(S(=O)(=O)[O-])cc7)c7ccc4[nH]7)C=C6)C=C5)cc3)S/C2=[NH+]\c2ccc(F)cc2)cc1OC
REMARK SMILES IDX 18 1 17 2 16 3 14 4 15 5 13 7 9 8 10 9 85 10 11 11 12 12
REMARK SMILES IDX 84 13 86 14 8 16 7 17 6 18 3 19 4 20 95 21 5 22 94 23 2 24
REMARK SMILES IDX 1 25 96 26 97 27 87 28 88 29 93 30 89 31 92 32 90 33 91 34
REMARK SMILES IDX 19 35 20 36 21 37 22 38 23 40 24 41 25 42 83 43 26 44 82 45
REMARK SMILES IDX 27 46 28 47 29 48 76 49 30 50 81 51 75 52 77 53 31 54 80 55
REMARK SMILES IDX 74 56 73 57 32 59 62 60 43 61 61 62 44 63 47 64 60 65 78 66
REMARK SMILES IDX 45 67 46 68 59 70 79 71 48 72 33 73 34 74 42 75 35 76 41 77
REMARK SMILES IDX 36 78 37 79 38 80 39 81 40 82 63 83 64 84 72 85 65 86 71 87
REMARK SMILES IDX 66 88 67 89 68 90 69 91 70 92 49 93 50 94 58 95 51 96 57 97
REMARK SMILES IDX 52 98 53 99 54 100 55 101 56 102
REMARK H PARENT 16 6 86 15 21 39 77 58 47 69
REMARK Flexibility Score: inf
ROOT
ATOM      1  C   UNL A   1      33.962  32.515  27.908  1.00  0.00     0.023 C 
ENDROOT
BRANCH   1   2
ATOM      2  C   UNL A   1      33.343  31.128  27.778  1.00  0.00     0.116 C 
BRANCH   2   3
ATOM      3  N   UNL A   1      33.956  30.272  26.782  1.00  0.00    -0.355 N 
ATOM      4  C   UNL A   1      33.423  29.352  25.926  1.00  0.00     0.234 C 
ATOM      5  O   UNL A   1      34.182  28.891  25.067  1.00  0.00    -0.274 OA
ATOM      6  H   UNL A   1      34.933  30.371  26.711  1.00  0.00     0.163 HD
BRANCH   4   7
ATOM      7  C   UNL A   1      31.950  28.917  25.939  1.00  0.00     0.160 C 
ATOM      8  N   UNL A   1      30.571  26.691  24.505  1.00  0.00    -0.191 N 
ATOM      9  C   UNL A   1      30.851  26.557  25.853  1.00  0.00     0.311 C 
ATOM     10  C   UNL A   1      30.194  27.922  23.983  1.00  0.00     0.319 C 
ATOM     11  O   UNL A   1      30.433  25.604  26.518  1.00  0.00    -0.247 OA
ATOM     12  C   UNL A   1      31.748  27.554  26.539  1.00  0.00     0.153 C 
ATOM     13  S   UNL A   1      31.171  29.310  24.397  1.00  0.00    -0.024 SA
ATOM     14  N   UNL A   1      29.179  28.024  23.172  1.00  0.00    -0.235 N 
ATOM     15  H   UNL A   1      28.704  27.221  22.857  1.00  0.00     0.313 HD
BRANCH   8  16
ATOM     16  C   UNL A   1      30.200  25.439  23.796  1.00  0.00     0.251 C 
BRANCH  16  17
ATOM     17  C   UNL A   1      31.290  24.902  22.816  1.00  0.00     0.082 C 
BRANCH  17  18
ATOM     18  C   UNL A   1      32.302  23.890  23.328  1.00  0.00    -0.040 A 
ATOM     19  C   UNL A   1      34.272  22.020  24.185  1.00  0.00     0.160 A 
ATOM     20  C   UNL A   1      34.641  23.258  23.675  1.00  0.00     0.051 A 
ATOM     21  C   UNL A   1      32.910  21.693  24.258  1.00  0.00     0.160 A 
ATOM     22  C   UNL A   1      33.665  24.145  23.231  1.00  0.00     0.008 A 
ATOM     23  C   UNL A   1      31.939  22.635  23.837  1.00  0.00     0.054 A 
BRANCH  19  24
ATOM     24  O   UNL A   1      35.230  21.179  24.685  1.00  0.00    -0.493 OA
ATOM     25  C   UNL A   1      35.959  21.716  25.788  1.00  0.00     0.278 C 
ENDBRANCH  19  24
BRANCH  21  26
ATOM     26  O   UNL A   1      32.370  20.512  24.704  1.00  0.00    -0.493 OA
ATOM     27  C   UNL A   1      32.466  19.386  23.837  1.00  0.00     0.278 C 
ENDBRANCH  21  26
ENDBRANCH  17  18
ENDBRANCH  16  17
ENDBRANCH   8  16
BRANCH  14  28
ATOM     28  C   UNL A   1      28.778  29.312  22.753  1.00  0.00     0.125 A 
ATOM     29  C   UNL A   1      27.863  30.044  23.529  1.00  0.00     0.055 A 
ATOM     30  C   UNL A   1      29.388  29.926  21.653  1.00  0.00     0.055 A 
ATOM     31  C   UNL A   1      27.635  31.396  23.263  1.00  0.00     0.043 A 
ATOM     32  C   UNL A   1      29.164  31.280  21.390  1.00  0.00     0.043 A 
ATOM     33  C   UNL A   1      28.303  32.005  22.207  1.00  0.00     0.123 A 
ATOM     34  F   UNL A   1      28.127  33.313  21.985  1.00  0.00    -0.207 F 
ENDBRANCH  14  28
ENDBRANCH   4   7
ENDBRANCH   2   3
ENDBRANCH   1   2
BRANCH   1  35
ATOM     35  C   UNL A   1      32.973  33.677  27.926  1.00  0.00     0.023 C 
BRANCH  35  36
ATOM     36  C   UNL A   1      33.447  34.951  28.621  1.00  0.00     0.116 C 
BRANCH  36  37
ATOM     37  N   UNL A   1      32.762  35.227  29.877  1.00  0.00    -0.352 N 
ATOM     38  C   UNL A   1      33.129  34.880  31.159  1.00  0.00     0.251 C 
ATOM     39  H   UNL A   1      31.922  35.734  29.799  1.00  0.00     0.163 HD
ATOM     40  O   UNL A   1      32.373  35.111  32.099  1.00  0.00    -0.269 OA
BRANCH  38  41
ATOM     41  C   UNL A   1      34.419  34.192  31.395  1.00  0.00     0.039 A 
ATOM     42  C   UNL A   1      35.602  34.936  31.364  1.00  0.00     0.014 A 
ATOM     43  C   UNL A   1      34.457  32.828  31.694  1.00  0.00     0.014 A 
ATOM     44  C   UNL A   1      36.809  34.332  31.729  1.00  0.00     0.010 A 
ATOM     45  C   UNL A   1      35.644  32.251  32.134  1.00  0.00     0.010 A 
ATOM     46  C   UNL A   1      36.833  32.998  32.167  1.00  0.00    -0.014 A 
BRANCH  46  47
ATOM     47  C   UNL A   1      38.077  32.371  32.688  1.00  0.00     0.031 A 
ATOM     48  C   UNL A   1      38.554  32.674  34.084  1.00  0.00     0.074 A 
ATOM     49  C   UNL A   1      38.827  31.598  31.875  1.00  0.00     0.049 A 
ATOM     50  N   UNL A   1      39.654  32.292  34.680  1.00  0.00    -0.248 NA
ATOM     51  C   UNL A   1      37.696  33.543  34.907  1.00  0.00     0.031 C 
ATOM     52  C   UNL A   1      38.507  31.266  30.485  1.00  0.00     0.029 A 
ATOM     53  N   UNL A   1      40.023  30.959  32.098  1.00  0.00    -0.354 N 
ATOM     54  C   UNL A   1      39.632  32.890  35.935  1.00  0.00     0.074 A 
ATOM     55  C   UNL A   1      38.433  33.697  35.997  1.00  0.00     0.031 C 
ATOM     56  C   UNL A   1      39.467  30.470  29.988  1.00  0.00     0.029 A 
ATOM     57  C   UNL A   1      40.493  30.268  31.005  1.00  0.00     0.049 A 
ATOM     58  H   UNL A   1      40.500  30.994  32.958  1.00  0.00     0.167 HD
ATOM     59  C   UNL A   1      40.520  32.766  36.951  1.00  0.00     0.031 A 
ATOM     60  C   UNL A   1      41.627  29.560  30.834  1.00  0.00     0.031 A 
ATOM     61  C   UNL A   1      41.703  31.948  36.895  1.00  0.00     0.049 A 
ATOM     62  C   UNL A   1      42.597  29.434  31.977  1.00  0.00     0.074 A 
ATOM     63  C   UNL A   1      42.624  31.702  37.898  1.00  0.00     0.029 A 
ATOM     64  N   UNL A   1      42.129  31.245  35.779  1.00  0.00    -0.354 N 
ATOM     65  N   UNL A   1      42.518  29.946  33.183  1.00  0.00    -0.248 NA
ATOM     66  C   UNL A   1      43.802  28.627  31.743  1.00  0.00     0.031 C 
ATOM     67  C   UNL A   1      43.637  30.894  37.372  1.00  0.00     0.029 A 
ATOM     68  C   UNL A   1      43.316  30.588  36.060  1.00  0.00     0.049 A 
ATOM     69  H   UNL A   1      41.659  31.218  34.914  1.00  0.00     0.167 HD
ATOM     70  C   UNL A   1      43.649  29.501  33.857  1.00  0.00     0.074 A 
ATOM     71  C   UNL A   1      44.388  28.667  32.932  1.00  0.00     0.031 C 
ATOM     72  C   UNL A   1      44.040  29.759  35.130  1.00  0.00     0.031 A 
BRANCH  59  73
ATOM     73  C   UNL A   1      40.248  33.540  38.214  1.00  0.00    -0.014 A 
ATOM     74  C   UNL A   1      39.496  32.981  39.262  1.00  0.00     0.010 A 
ATOM     75  C   UNL A   1      40.790  34.829  38.372  1.00  0.00     0.010 A 
ATOM     76  C   UNL A   1      39.254  33.713  40.428  1.00  0.00     0.020 A 
ATOM     77  C   UNL A   1      40.575  35.553  39.549  1.00  0.00     0.020 A 
ATOM     78  C   UNL A   1      39.793  34.996  40.563  1.00  0.00     0.054 A 
BRANCH  78  79
ATOM     79  S   UNL A   1      39.481  35.913  42.096  1.00  0.00     0.124 S 
ATOM     80  O   UNL A   1      39.502  37.296  41.626  1.00  0.00    -0.237 OA
ATOM     81  O   UNL A   1      38.174  35.411  42.510  1.00  0.00    -0.237 OA
ATOM     82  O   UNL A   1      40.594  35.532  42.961  1.00  0.00    -0.744 OA
ENDBRANCH  78  79
ENDBRANCH  59  73
BRANCH  60  83
ATOM     83  C   UNL A   1      41.906  28.904  29.526  1.00  0.00    -0.014 A 
ATOM     84  C   UNL A   1      41.623  27.539  29.336  1.00  0.00     0.010 A 
ATOM     85  C   UNL A   1      42.448  29.643  28.459  1.00  0.00     0.010 A 
ATOM     86  C   UNL A   1      41.895  26.922  28.111  1.00  0.00     0.020 A 
ATOM     87  C   UNL A   1      42.695  29.036  27.224  1.00  0.00     0.020 A 
ATOM     88  C   UNL A   1      42.428  27.676  27.063  1.00  0.00     0.054 A 
BRANCH  88  89
ATOM     89  S   UNL A   1      42.726  26.866  25.466  1.00  0.00     0.124 S 
ATOM     90  O   UNL A   1      42.725  27.999  24.547  1.00  0.00    -0.237 OA
ATOM     91  O   UNL A   1      44.020  26.222  25.676  1.00  0.00    -0.237 OA
ATOM     92  O   UNL A   1      41.597  25.948  25.333  1.00  0.00    -0.744 OA
ENDBRANCH  88  89
ENDBRANCH  60  83
BRANCH  72  93
ATOM     93  C   UNL A   1      45.308  29.108  35.614  1.00  0.00    -0.014 A 
ATOM     94  C   UNL A   1      45.297  27.827  36.193  1.00  0.00     0.010 A 
ATOM     95  C   UNL A   1      46.539  29.765  35.428  1.00  0.00     0.010 A 
ATOM     96  C   UNL A   1      46.490  27.227  36.604  1.00  0.00     0.020 A 
ATOM     97  C   UNL A   1      47.736  29.158  35.812  1.00  0.00     0.020 A 
ATOM     98  C   UNL A   1      47.703  27.897  36.410  1.00  0.00     0.054 A 
BRANCH  98  99
ATOM     99  S   UNL A   1      49.243  27.076  36.906  1.00  0.00     0.124 S 
ATOM    100  O   UNL A   1      50.014  27.099  35.667  1.00  0.00    -0.237 OA
ATOM    101  O   UNL A   1      49.739  27.945  37.971  1.00  0.00    -0.237 OA
ATOM    102  O   UNL A   1      48.805  25.753  37.345  1.00  0.00    -0.744 OA
ENDBRANCH  98  99
ENDBRANCH  72  93
ENDBRANCH  46  47
ENDBRANCH  38  41
ENDBRANCH  36  37
ENDBRANCH  35  36
ENDBRANCH   1  35
TORSDOF 20
ENDMDL
MODEL 3
REMARK VINA RESULT:     -11.3      6.212      8.422
REMARK SMILES COc1ccc(CCN2C(=O)C[C@@H](C(=O)NCCCCNC(=O)c3ccc(-c4c5nc(c(-c6ccc(S(=O)(=O)[O-])cc6)c6ccc([nH]6)c(-c6ccc(S(=O)(=O)[O-])cc6)c6nc(c(-c7ccc(S(=O)(=O)[O-])cc7)c7ccc4[nH]7)C=C6)C=C5)cc3)S/C2=[NH+]\c2ccc(F)cc2)cc1OC
REMARK SMILES IDX 18 1 17 2 16 3 14 4 15 5 13 7 9 8 10 9 85 10 11 11 12 12
REMARK SMILES IDX 84 13 86 14 8 16 7 17 6 18 3 19 4 20 95 21 5 22 94 23 2 24
REMARK SMILES IDX 1 25 96 26 97 27 87 28 88 29 93 30 89 31 92 32 90 33 91 34
REMARK SMILES IDX 19 35 20 36 21 37 22 38 23 40 24 41 25 42 83 43 26 44 82 45
REMARK SMILES IDX 27 46 28 47 29 48 76 49 30 50 81 51 75 52 77 53 31 54 80 55
REMARK SMILES IDX 74 56 73 57 32 59 62 60 43 61 61 62 44 63 47 64 60 65 78 66
REMARK SMILES IDX 45 67 46 68 59 70 79 71 48 72 33 73 34 74 42 75 35 76 41 77
REMARK SMILES IDX 36 78 37 79 38 80 39 81 40 82 63 83 64 84 72 85 65 86 71 87
REMARK SMILES IDX 66 88 67 89 68 90 69 91 70 92 49 93 50 94 58 95 51 96 57 97
REMARK SMILES IDX 52 98 53 99 54 100 55 101 56 102
REMARK H PARENT 16 6 86 15 21 39 77 58 47 69
REMARK Flexibility Score: inf
ROOT
ATOM      1  C   UNL A   1      34.244  32.322  27.850  1.00  0.00     0.023 C 
ENDROOT
BRANCH   1   2
ATOM      2  C   UNL A   1      33.317  31.175  27.462  1.00  0.00     0.116 C 
BRANCH   2   3
ATOM      3  N   UNL A   1      33.908  30.172  26.601  1.00  0.00    -0.355 N 
ATOM      4  C   UNL A   1      33.347  29.177  25.852  1.00  0.00     0.234 C 
ATOM      5  O   UNL A   1      34.101  28.574  25.079  1.00  0.00    -0.274 OA
ATOM      6  H   UNL A   1      34.889  30.214  26.545  1.00  0.00     0.163 HD
BRANCH   4   7
ATOM      7  C   UNL A   1      31.854  28.818  25.877  1.00  0.00     0.160 C 
ATOM      8  N   UNL A   1      30.346  26.683  24.435  1.00  0.00    -0.191 N 
ATOM      9  C   UNL A   1      30.634  26.519  25.778  1.00  0.00     0.311 C 
ATOM     10  C   UNL A   1      30.027  27.938  23.932  1.00  0.00     0.319 C 
ATOM     11  O   UNL A   1      30.174  25.582  26.438  1.00  0.00    -0.247 OA
ATOM     12  C   UNL A   1      31.588  27.460  26.464  1.00  0.00     0.153 C 
ATOM     13  S   UNL A   1      31.079  29.268  24.349  1.00  0.00    -0.024 SA
ATOM     14  N   UNL A   1      29.010  28.101  23.133  1.00  0.00    -0.235 N 
ATOM     15  H   UNL A   1      28.490  27.328  22.815  1.00  0.00     0.313 HD
BRANCH   8  16
ATOM     16  C   UNL A   1      29.903  25.460  23.717  1.00  0.00     0.251 C 
BRANCH  16  17
ATOM     17  C   UNL A   1      31.012  24.776  22.857  1.00  0.00     0.082 C 
BRANCH  17  18
ATOM     18  C   UNL A   1      31.876  23.701  23.495  1.00  0.00    -0.040 A 
ATOM     19  C   UNL A   1      33.436  21.710  24.804  1.00  0.00     0.160 A 
ATOM     20  C   UNL A   1      32.080  21.840  25.071  1.00  0.00     0.051 A 
ATOM     21  C   UNL A   1      34.035  22.587  23.888  1.00  0.00     0.160 A 
ATOM     22  C   UNL A   1      31.341  22.840  24.446  1.00  0.00     0.008 A 
ATOM     23  C   UNL A   1      33.247  23.568  23.237  1.00  0.00     0.054 A 
BRANCH  19  24
ATOM     24  O   UNL A   1      34.144  20.681  25.366  1.00  0.00    -0.493 OA
ATOM     25  C   UNL A   1      34.084  19.461  24.629  1.00  0.00     0.278 C 
ENDBRANCH  19  24
BRANCH  21  26
ATOM     26  O   UNL A   1      35.360  22.622  23.528  1.00  0.00    -0.493 OA
ATOM     27  C   UNL A   1      36.225  23.436  24.314  1.00  0.00     0.278 C 
ENDBRANCH  21  26
ENDBRANCH  17  18
ENDBRANCH  16  17
ENDBRANCH   8  16
BRANCH  14  28
ATOM     28  C   UNL A   1      28.672  29.413  22.734  1.00  0.00     0.125 A 
ATOM     29  C   UNL A   1      27.801  30.180  23.526  1.00  0.00     0.055 A 
ATOM     30  C   UNL A   1      29.304  30.010  21.636  1.00  0.00     0.055 A 
ATOM     31  C   UNL A   1      27.639  31.546  23.278  1.00  0.00     0.043 A 
ATOM     32  C   UNL A   1      29.147  31.376  21.392  1.00  0.00     0.043 A 
ATOM     33  C   UNL A   1      28.329  32.134  22.224  1.00  0.00     0.123 A 
ATOM     34  F   UNL A   1      28.218  33.452  22.019  1.00  0.00    -0.207 F 
ENDBRANCH  14  28
ENDBRANCH   4   7
ENDBRANCH   2   3
ENDBRANCH   1   2
BRANCH   1  35
ATOM     35  C   UNL A   1      33.566  33.670  28.075  1.00  0.00     0.023 C 
BRANCH  35  36
ATOM     36  C   UNL A   1      34.126  34.523  29.209  1.00  0.00     0.116 C 
BRANCH  36  37
ATOM     37  N   UNL A   1      33.115  35.004  30.141  1.00  0.00    -0.352 N 
ATOM     38  C   UNL A   1      33.134  35.001  31.519  1.00  0.00     0.251 C 
ATOM     39  H   UNL A   1      32.306  35.386  29.729  1.00  0.00     0.163 HD
ATOM     40  O   UNL A   1      32.142  35.358  32.149  1.00  0.00    -0.269 OA
BRANCH  38  41
ATOM     41  C   UNL A   1      34.339  34.527  32.237  1.00  0.00     0.039 A 
ATOM     42  C   UNL A   1      34.263  33.354  32.992  1.00  0.00     0.014 A 
ATOM     43  C   UNL A   1      35.552  35.211  32.126  1.00  0.00     0.014 A 
ATOM     44  C   UNL A   1      35.425  32.817  33.555  1.00  0.00     0.010 A 
ATOM     45  C   UNL A   1      36.719  34.632  32.617  1.00  0.00     0.010 A 
ATOM     46  C   UNL A   1      36.671  33.423  33.328  1.00  0.00    -0.014 A 
BRANCH  46  47
ATOM     47  C   UNL A   1      37.937  32.801  33.800  1.00  0.00     0.031 A 
ATOM     48  C   UNL A   1      38.579  31.690  33.011  1.00  0.00     0.074 A 
ATOM     49  C   UNL A   1      38.465  33.173  34.985  1.00  0.00     0.049 A 
ATOM     50  N   UNL A   1      39.632  30.972  33.305  1.00  0.00    -0.248 NA
ATOM     51  C   UNL A   1      37.937  31.321  31.738  1.00  0.00     0.031 C 
ATOM     52  C   UNL A   1      37.916  34.200  35.874  1.00  0.00     0.029 A 
ATOM     53  N   UNL A   1      39.576  32.721  35.653  1.00  0.00    -0.354 N 
ATOM     54  C   UNL A   1      39.764  30.053  32.270  1.00  0.00     0.074 A 
ATOM     55  C   UNL A   1      38.658  30.274  31.364  1.00  0.00     0.031 C 
ATOM     56  C   UNL A   1      38.702  34.314  36.956  1.00  0.00     0.029 A 
ATOM     57  C   UNL A   1      39.786  33.342  36.863  1.00  0.00     0.049 A 
ATOM     58  H   UNL A   1      40.167  32.017  35.301  1.00  0.00     0.167 HD
ATOM     59  C   UNL A   1      40.728  29.120  32.080  1.00  0.00     0.031 A 
ATOM     60  C   UNL A   1      40.737  33.147  37.799  1.00  0.00     0.031 A 
ATOM     61  C   UNL A   1      41.839  28.912  32.972  1.00  0.00     0.049 A 
ATOM     62  C   UNL A   1      41.798  32.107  37.565  1.00  0.00     0.074 A 
ATOM     63  C   UNL A   1      42.904  28.041  32.828  1.00  0.00     0.029 A 
ATOM     64  N   UNL A   1      42.027  29.579  34.172  1.00  0.00    -0.354 N 
ATOM     65  N   UNL A   1      41.948  31.301  36.540  1.00  0.00    -0.248 NA
ATOM     66  C   UNL A   1      42.824  31.958  38.606  1.00  0.00     0.031 C 
ATOM     67  C   UNL A   1      43.709  28.142  33.967  1.00  0.00     0.029 A 
ATOM     68  C   UNL A   1      43.177  29.119  34.792  1.00  0.00     0.049 A 
ATOM     69  H   UNL A   1      41.431  30.276  34.531  1.00  0.00     0.167 HD
ATOM     70  C   UNL A   1      43.100  30.568  36.803  1.00  0.00     0.074 A 
ATOM     71  C   UNL A   1      43.615  31.036  38.072  1.00  0.00     0.031 C 
ATOM     72  C   UNL A   1      43.680  29.595  36.057  1.00  0.00     0.031 A 
BRANCH  59  73
ATOM     73  C   UNL A   1      40.621  28.245  30.859  1.00  0.00    -0.014 A 
ATOM     74  C   UNL A   1      39.502  27.420  30.650  1.00  0.00     0.010 A 
ATOM     75  C   UNL A   1      41.635  28.282  29.883  1.00  0.00     0.010 A 
ATOM     76  C   UNL A   1      39.418  26.617  29.510  1.00  0.00     0.020 A 
ATOM     77  C   UNL A   1      41.541  27.502  28.728  1.00  0.00     0.020 A 
ATOM     78  C   UNL A   1      40.440  26.660  28.557  1.00  0.00     0.054 A 
BRANCH  78  79
ATOM     79  S   UNL A   1      40.293  25.622  27.077  1.00  0.00     0.124 S 
ATOM     80  O   UNL A   1      40.759  26.528  26.030  1.00  0.00    -0.237 OA
ATOM     81  O   UNL A   1      41.181  24.504  27.380  1.00  0.00    -0.237 OA
ATOM     82  O   UNL A   1      38.872  25.290  27.025  1.00  0.00    -0.744 OA
ENDBRANCH  78  79
ENDBRANCH  59  73
BRANCH  60  83
ATOM     83  C   UNL A   1      40.733  33.963  39.045  1.00  0.00    -0.014 A 
ATOM     84  C   UNL A   1      41.419  35.190  39.097  1.00  0.00     0.010 A 
ATOM     85  C   UNL A   1      40.038  33.521  40.185  1.00  0.00     0.010 A 
ATOM     86  C   UNL A   1      41.425  35.949  40.271  1.00  0.00     0.020 A 
ATOM     87  C   UNL A   1      40.017  34.292  41.351  1.00  0.00     0.020 A 
ATOM     88  C   UNL A   1      40.722  35.496  41.390  1.00  0.00     0.054 A 
BRANCH  88  89
ATOM     89  S   UNL A   1      40.701  36.522  42.887  1.00  0.00     0.124 S 
ATOM     90  O   UNL A   1      42.063  37.047  42.913  1.00  0.00    -0.237 OA
ATOM     91  O   UNL A   1      39.653  37.495  42.588  1.00  0.00    -0.237 OA
ATOM     92  O   UNL A   1      40.373  35.572  43.947  1.00  0.00    -0.744 OA
ENDBRANCH  88  89
ENDBRANCH  60  83
BRANCH  72  93
ATOM     93  C   UNL A   1      44.957  28.990  36.574  1.00  0.00    -0.014 A 
ATOM     94  C   UNL A   1      44.947  27.834  37.374  1.00  0.00     0.010 A 
ATOM     95  C   UNL A   1      46.192  29.553  36.200  1.00  0.00     0.010 A 
ATOM     96  C   UNL A   1      46.146  27.269  37.814  1.00  0.00     0.020 A 
ATOM     97  C   UNL A   1      47.393  28.975  36.614  1.00  0.00     0.020 A 
ATOM     98  C   UNL A   1      47.363  27.843  37.430  1.00  0.00     0.054 A 
BRANCH  98  99
ATOM     99  S   UNL A   1      48.907  27.061  37.973  1.00  0.00     0.124 S 
ATOM    100  O   UNL A   1      49.270  27.875  39.130  1.00  0.00    -0.237 OA
ATOM    101  O   UNL A   1      48.486  25.695  38.274  1.00  0.00    -0.237 OA
ATOM    102  O   UNL A   1      49.789  27.194  36.816  1.00  0.00    -0.744 OA
ENDBRANCH  98  99
ENDBRANCH  72  93
ENDBRANCH  46  47
ENDBRANCH  38  41
ENDBRANCH  36  37
ENDBRANCH  35  36
ENDBRANCH   1  35
TORSDOF 20
ENDMDL
