MODEL 1
REMARK VINA RESULT:     -12.1      0.000      0.000
REMARK SMILES Cc1ccc(S(=O)(=O)n2cc(C(=O)C(=O)NCC(=O)NCC(=O)NCCCCNC(=O)c3ccc(-c4c5nc(c(-c6ccc(S(=O)(=O)[O-])cc6)c6ccc([nH]6)c(-c6ccc(S(=O)(=O)[O-])cc6)c6nc(c(-c7ccc(S(=O)(=O)[O-])cc7)c7ccc4[nH]7)C=C6)C=C5)cc3)c3ccccc32)cc1
REMARK SMILES IDX 22 1 23 2 24 3 21 5 20 6 18 7 19 8 17 10 16 11 14 12 15 13
REMARK SMILES IDX 12 15 13 16 11 17 9 18 10 19 97 20 92 21 96 22 93 23 95 24
REMARK SMILES IDX 94 25 6 26 7 27 8 28 5 29 1 30 2 31 3 32 99 33 4 34 98 35
REMARK SMILES IDX 25 36 26 37 27 38 28 39 29 40 30 41 31 43 32 44 33 45 91 46
REMARK SMILES IDX 34 47 90 48 35 49 36 50 37 51 84 52 38 53 89 54 83 55 85 56
REMARK SMILES IDX 39 57 88 58 82 59 81 60 40 62 70 63 51 64 69 65 52 66 55 67
REMARK SMILES IDX 68 68 86 69 53 70 54 71 67 73 87 74 56 75 41 76 42 77 50 78
REMARK SMILES IDX 43 79 49 80 44 81 45 82 46 83 47 84 48 85 71 86 72 87 80 88
REMARK SMILES IDX 73 89 79 90 74 91 75 92 76 93 77 94 78 95 57 96 58 97 66 98
REMARK SMILES IDX 59 99 65 100 60 101 61 102 62 103 63 104 64 105
REMARK H PARENT 24 4 20 9 16 14 29 42 85 61 55 72
REMARK Flexibility Score: inf
ROOT
ATOM      1  C   UNL A   1      33.738  26.662  25.664  1.00  0.00     0.239 C 
ATOM      2  O   UNL A   1      34.149  25.555  25.307  1.00  0.00    -0.273 OA
ATOM      3  N   UNL A   1      32.641  26.710  26.475  1.00  0.00    -0.355 N 
ATOM      4  H   UNL A   1      32.176  25.852  26.607  1.00  0.00     0.163 HD
ENDROOT
BRANCH   1   5
ATOM      5  C   UNL A   1      34.540  27.932  25.340  1.00  0.00     0.216 C 
BRANCH   5   6
ATOM      6  N   UNL A   1      33.948  28.795  24.335  1.00  0.00    -0.346 N 
ATOM      7  C   UNL A   1      33.523  28.546  23.067  1.00  0.00     0.239 C 
ATOM      8  O   UNL A   1      32.844  29.429  22.533  1.00  0.00    -0.273 OA
ATOM      9  H   UNL A   1      33.834  29.730  24.624  1.00  0.00     0.164 HD
BRANCH   7  10
ATOM     10  C   UNL A   1      33.714  27.187  22.363  1.00  0.00     0.216 C 
BRANCH  10  11
ATOM     11  N   UNL A   1      32.831  26.886  21.237  1.00  0.00    -0.340 N 
ATOM     12  C   UNL A   1      32.431  25.699  20.661  1.00  0.00     0.292 C 
ATOM     13  O   UNL A   1      31.787  25.740  19.621  1.00  0.00    -0.265 OA
ATOM     14  H   UNL A   1      32.450  27.686  20.805  1.00  0.00     0.164 HD
BRANCH  12  15
ATOM     15  C   UNL A   1      32.802  24.343  21.299  1.00  0.00     0.252 C 
ATOM     16  O   UNL A   1      33.473  23.565  20.624  1.00  0.00    -0.283 OA
BRANCH  15  17
ATOM     17  C   UNL A   1      32.379  23.947  22.651  1.00  0.00     0.054 A 
ATOM     18  N   UNL A   1      32.111  22.898  24.607  1.00  0.00    -0.240 N 
ATOM     19  C   UNL A   1      32.789  22.865  23.411  1.00  0.00     0.117 A 
ATOM     20  C   UNL A   1      31.256  23.980  24.668  1.00  0.00     0.065 A 
ATOM     21  C   UNL A   1      31.404  24.652  23.449  1.00  0.00     0.012 A 
ATOM     22  C   UNL A   1      30.348  24.421  25.649  1.00  0.00     0.028 A 
ATOM     23  C   UNL A   1      30.621  25.805  23.219  1.00  0.00     0.011 A 
ATOM     24  C   UNL A   1      29.569  25.549  25.376  1.00  0.00     0.002 A 
ATOM     25  C   UNL A   1      29.706  26.238  24.179  1.00  0.00     0.001 A 
BRANCH  18  26
ATOM     26  S   UNL A   1      32.241  21.701  25.818  1.00  0.00     0.268 S 
ATOM     27  O   UNL A   1      30.880  21.451  26.239  1.00  0.00    -0.201 OA
ATOM     28  O   UNL A   1      33.264  22.182  26.732  1.00  0.00    -0.201 OA
BRANCH  26  29
ATOM     29  C   UNL A   1      32.852  20.219  25.055  1.00  0.00     0.088 A 
ATOM     30  C   UNL A   1      34.259  16.800  22.850  1.00  0.00     0.044 C 
ATOM     31  C   UNL A   1      33.769  17.983  23.632  1.00  0.00    -0.051 A 
ATOM     32  C   UNL A   1      32.500  18.516  23.371  1.00  0.00     0.005 A 
ATOM     33  C   UNL A   1      34.558  18.560  24.634  1.00  0.00     0.005 A 
ATOM     34  C   UNL A   1      32.045  19.633  24.074  1.00  0.00     0.022 A 
ATOM     35  C   UNL A   1      34.100  19.667  25.355  1.00  0.00     0.022 A 
ENDBRANCH  26  29
ENDBRANCH  18  26
ENDBRANCH  15  17
ENDBRANCH  12  15
ENDBRANCH  10  11
ENDBRANCH   7  10
ENDBRANCH   5   6
ENDBRANCH   1   5
BRANCH   3  36
ATOM     36  C   UNL A   1      32.065  27.844  27.168  1.00  0.00     0.116 C 
BRANCH  36  37
ATOM     37  C   UNL A   1      31.515  28.923  26.241  1.00  0.00     0.023 C 
BRANCH  37  38
ATOM     38  C   UNL A   1      31.995  30.329  26.567  1.00  0.00     0.023 C 
BRANCH  38  39
ATOM     39  C   UNL A   1      33.039  30.393  27.673  1.00  0.00     0.116 C 
BRANCH  39  40
ATOM     40  N   UNL A   1      33.985  31.492  27.528  1.00  0.00    -0.352 N 
ATOM     41  C   UNL A   1      35.286  31.626  27.989  1.00  0.00     0.251 C 
ATOM     42  H   UNL A   1      33.645  32.264  27.021  1.00  0.00     0.163 HD
ATOM     43  O   UNL A   1      35.864  32.706  28.028  1.00  0.00    -0.269 OA
BRANCH  41  44
ATOM     44  C   UNL A   1      36.086  30.406  28.245  1.00  0.00     0.039 A 
ATOM     45  C   UNL A   1      36.321  30.157  29.607  1.00  0.00     0.014 A 
ATOM     46  C   UNL A   1      36.975  29.977  27.274  1.00  0.00     0.014 A 
ATOM     47  C   UNL A   1      37.605  29.849  30.002  1.00  0.00     0.010 A 
ATOM     48  C   UNL A   1      38.282  29.875  27.653  1.00  0.00     0.010 A 
ATOM     49  C   UNL A   1      38.583  29.861  29.014  1.00  0.00    -0.014 A 
BRANCH  49  50
ATOM     50  C   UNL A   1      39.977  29.642  29.292  1.00  0.00     0.031 A 
ATOM     51  C   UNL A   1      40.411  28.286  28.937  1.00  0.00     0.074 A 
ATOM     52  C   UNL A   1      40.696  30.682  29.763  1.00  0.00     0.049 A 
ATOM     53  N   UNL A   1      41.226  27.565  29.612  1.00  0.00    -0.248 NA
ATOM     54  C   UNL A   1      39.786  27.541  27.831  1.00  0.00     0.031 C 
ATOM     55  C   UNL A   1      42.126  30.794  29.997  1.00  0.00     0.029 A 
ATOM     56  N   UNL A   1      40.156  31.826  30.370  1.00  0.00    -0.354 N 
ATOM     57  C   UNL A   1      41.544  26.504  28.790  1.00  0.00     0.074 A 
ATOM     58  C   UNL A   1      40.469  26.397  27.848  1.00  0.00     0.031 C 
ATOM     59  C   UNL A   1      42.322  31.711  30.967  1.00  0.00     0.029 A 
ATOM     60  C   UNL A   1      41.010  32.144  31.438  1.00  0.00     0.049 A 
ATOM     61  H   UNL A   1      39.341  32.309  30.101  1.00  0.00     0.167 HD
ATOM     62  C   UNL A   1      42.819  26.032  28.812  1.00  0.00     0.031 A 
ATOM     63  C   UNL A   1      40.548  31.996  32.713  1.00  0.00     0.031 A 
ATOM     64  C   UNL A   1      43.581  26.760  29.826  1.00  0.00     0.049 A 
ATOM     65  C   UNL A   1      41.246  30.838  33.392  1.00  0.00     0.074 A 
ATOM     66  C   UNL A   1      44.412  27.865  29.732  1.00  0.00     0.029 A 
ATOM     67  N   UNL A   1      43.164  26.688  31.149  1.00  0.00    -0.354 N 
ATOM     68  N   UNL A   1      41.703  29.783  32.763  1.00  0.00    -0.248 NA
ATOM     69  C   UNL A   1      41.617  30.856  34.804  1.00  0.00     0.031 C 
ATOM     70  C   UNL A   1      44.400  28.519  30.997  1.00  0.00     0.029 A 
ATOM     71  C   UNL A   1      43.567  27.812  31.849  1.00  0.00     0.049 A 
ATOM     72  H   UNL A   1      42.651  25.942  31.536  1.00  0.00     0.167 HD
ATOM     73  C   UNL A   1      42.481  29.047  33.621  1.00  0.00     0.074 A 
ATOM     74  C   UNL A   1      42.376  29.750  34.890  1.00  0.00     0.031 C 
ATOM     75  C   UNL A   1      43.213  27.951  33.253  1.00  0.00     0.031 A 
BRANCH  62  76
ATOM     76  C   UNL A   1      43.442  25.212  27.709  1.00  0.00    -0.014 A 
ATOM     77  C   UNL A   1      44.134  24.037  28.059  1.00  0.00     0.010 A 
ATOM     78  C   UNL A   1      43.418  25.534  26.336  1.00  0.00     0.010 A 
ATOM     79  C   UNL A   1      44.787  23.244  27.107  1.00  0.00     0.020 A 
ATOM     80  C   UNL A   1      44.086  24.762  25.371  1.00  0.00     0.020 A 
ATOM     81  C   UNL A   1      44.762  23.613  25.765  1.00  0.00     0.054 A 
BRANCH  81  82
ATOM     82  S   UNL A   1      45.579  22.549  24.552  1.00  0.00     0.124 S 
ATOM     83  O   UNL A   1      46.478  23.478  23.872  1.00  0.00    -0.237 OA
ATOM     84  O   UNL A   1      46.226  21.551  25.399  1.00  0.00    -0.237 OA
ATOM     85  O   UNL A   1      44.478  22.045  23.732  1.00  0.00    -0.744 OA
ENDBRANCH  81  82
ENDBRANCH  62  76
BRANCH  63  86
ATOM     86  C   UNL A   1      39.145  32.495  32.894  1.00  0.00    -0.014 A 
ATOM     87  C   UNL A   1      38.863  33.781  32.373  1.00  0.00     0.010 A 
ATOM     88  C   UNL A   1      38.055  31.652  33.177  1.00  0.00     0.010 A 
ATOM     89  C   UNL A   1      37.563  34.164  32.024  1.00  0.00     0.020 A 
ATOM     90  C   UNL A   1      36.738  32.036  32.828  1.00  0.00     0.020 A 
ATOM     91  C   UNL A   1      36.511  33.270  32.211  1.00  0.00     0.054 A 
BRANCH  91  92
ATOM     92  S   UNL A   1      34.872  33.745  31.575  1.00  0.00     0.124 S 
ATOM     93  O   UNL A   1      34.271  32.451  31.256  1.00  0.00    -0.237 OA
ATOM     94  O   UNL A   1      34.284  34.424  32.732  1.00  0.00    -0.237 OA
ATOM     95  O   UNL A   1      35.178  34.583  30.424  1.00  0.00    -0.744 OA
ENDBRANCH  91  92
ENDBRANCH  63  86
BRANCH  75  96
ATOM     96  C   UNL A   1      43.751  26.914  34.212  1.00  0.00    -0.014 A 
ATOM     97  C   UNL A   1      42.997  25.832  34.688  1.00  0.00     0.010 A 
ATOM     98  C   UNL A   1      45.131  26.921  34.535  1.00  0.00     0.010 A 
ATOM     99  C   UNL A   1      43.567  24.861  35.517  1.00  0.00     0.020 A 
ATOM    100  C   UNL A   1      45.727  25.916  35.295  1.00  0.00     0.020 A 
ATOM    101  C   UNL A   1      44.927  24.912  35.817  1.00  0.00     0.054 A 
BRANCH 101 102
ATOM    102  S   UNL A   1      45.644  23.636  36.872  1.00  0.00     0.124 S 
ATOM    103  O   UNL A   1      47.073  23.886  36.706  1.00  0.00    -0.237 OA
ATOM    104  O   UNL A   1      45.098  23.960  38.188  1.00  0.00    -0.237 OA
ATOM    105  O   UNL A   1      45.154  22.389  36.290  1.00  0.00    -0.744 OA
ENDBRANCH 101 102
ENDBRANCH  75  96
ENDBRANCH  49  50
ENDBRANCH  41  44
ENDBRANCH  39  40
ENDBRANCH  38  39
ENDBRANCH  37  38
ENDBRANCH  36  37
ENDBRANCH   3  36
TORSDOF 21
ENDMDL
MODEL 2
REMARK VINA RESULT:     -11.7      4.296     10.770
REMARK SMILES Cc1ccc(S(=O)(=O)n2cc(C(=O)C(=O)NCC(=O)NCC(=O)NCCCCNC(=O)c3ccc(-c4c5nc(c(-c6ccc(S(=O)(=O)[O-])cc6)c6ccc([nH]6)c(-c6ccc(S(=O)(=O)[O-])cc6)c6nc(c(-c7ccc(S(=O)(=O)[O-])cc7)c7ccc4[nH]7)C=C6)C=C5)cc3)c3ccccc32)cc1
REMARK SMILES IDX 22 1 23 2 24 3 21 5 20 6 18 7 19 8 17 10 16 11 14 12 15 13
REMARK SMILES IDX 12 15 13 16 11 17 9 18 10 19 97 20 92 21 96 22 93 23 95 24
REMARK SMILES IDX 94 25 6 26 7 27 8 28 5 29 1 30 2 31 3 32 99 33 4 34 98 35
REMARK SMILES IDX 25 36 26 37 27 38 28 39 29 40 30 41 31 43 32 44 33 45 91 46
REMARK SMILES IDX 34 47 90 48 35 49 36 50 37 51 84 52 38 53 89 54 83 55 85 56
REMARK SMILES IDX 39 57 88 58 82 59 81 60 40 62 70 63 51 64 69 65 52 66 55 67
REMARK SMILES IDX 68 68 86 69 53 70 54 71 67 73 87 74 56 75 41 76 42 77 50 78
REMARK SMILES IDX 43 79 49 80 44 81 45 82 46 83 47 84 48 85 71 86 72 87 80 88
REMARK SMILES IDX 73 89 79 90 74 91 75 92 76 93 77 94 78 95 57 96 58 97 66 98
REMARK SMILES IDX 59 99 65 100 60 101 61 102 62 103 63 104 64 105
REMARK H PARENT 24 4 20 9 16 14 29 42 85 61 55 72
REMARK Flexibility Score: inf
ROOT
ATOM      1  C   UNL A   1      41.326  20.577  27.101  1.00  0.00     0.239 C 
ATOM      2  O   UNL A   1      40.816  19.949  28.032  1.00  0.00    -0.273 OA
ATOM      3  N   UNL A   1      42.667  20.438  26.889  1.00  0.00    -0.355 N 
ATOM      4  H   UNL A   1      43.156  19.943  27.586  1.00  0.00     0.163 HD
ENDROOT
BRANCH   1   5
ATOM      5  C   UNL A   1      40.444  21.357  26.113  1.00  0.00     0.216 C 
BRANCH   5   6
ATOM      6  N   UNL A   1      40.033  22.676  26.562  1.00  0.00    -0.346 N 
ATOM      7  C   UNL A   1      38.829  23.306  26.529  1.00  0.00     0.239 C 
ATOM      8  O   UNL A   1      38.731  24.337  27.201  1.00  0.00    -0.273 OA
ATOM      9  H   UNL A   1      40.758  23.208  26.963  1.00  0.00     0.164 HD
BRANCH   7  10
ATOM     10  C   UNL A   1      37.583  22.713  25.840  1.00  0.00     0.216 C 
BRANCH  10  11
ATOM     11  N   UNL A   1      37.496  22.841  24.386  1.00  0.00    -0.340 N 
ATOM     12  C   UNL A   1      36.437  22.754  23.506  1.00  0.00     0.292 C 
ATOM     13  O   UNL A   1      36.671  22.762  22.305  1.00  0.00    -0.265 OA
ATOM     14  H   UNL A   1      38.361  23.022  23.950  1.00  0.00     0.164 HD
BRANCH  12  15
ATOM     15  C   UNL A   1      34.987  22.631  24.020  1.00  0.00     0.252 C 
ATOM     16  O   UNL A   1      34.662  21.569  24.547  1.00  0.00    -0.283 OA
BRANCH  15  17
ATOM     17  C   UNL A   1      33.994  23.708  23.893  1.00  0.00     0.054 A 
ATOM     18  N   UNL A   1      32.847  25.522  23.266  1.00  0.00    -0.240 N 
ATOM     19  C   UNL A   1      33.962  24.764  22.998  1.00  0.00     0.117 A 
ATOM     20  C   UNL A   1      32.127  24.998  24.321  1.00  0.00     0.065 A 
ATOM     21  C   UNL A   1      32.830  23.860  24.734  1.00  0.00     0.012 A 
ATOM     22  C   UNL A   1      30.954  25.418  24.975  1.00  0.00     0.028 A 
ATOM     23  C   UNL A   1      32.329  23.121  25.830  1.00  0.00     0.011 A 
ATOM     24  C   UNL A   1      30.503  24.680  26.073  1.00  0.00     0.002 A 
ATOM     25  C   UNL A   1      31.177  23.542  26.494  1.00  0.00     0.001 A 
BRANCH  18  26
ATOM     26  S   UNL A   1      32.458  26.976  22.461  1.00  0.00     0.268 S 
ATOM     27  O   UNL A   1      31.131  26.760  21.927  1.00  0.00    -0.201 OA
ATOM     28  O   UNL A   1      33.600  27.269  21.611  1.00  0.00    -0.201 OA
BRANCH  26  29
ATOM     29  C   UNL A   1      32.348  28.261  23.680  1.00  0.00     0.088 A 
ATOM     30  C   UNL A   1      31.736  31.210  26.756  1.00  0.00     0.044 C 
ATOM     31  C   UNL A   1      31.961  30.191  25.677  1.00  0.00    -0.051 A 
ATOM     32  C   UNL A   1      30.955  29.935  24.737  1.00  0.00     0.005 A 
ATOM     33  C   UNL A   1      33.172  29.495  25.588  1.00  0.00     0.005 A 
ATOM     34  C   UNL A   1      31.144  28.970  23.746  1.00  0.00     0.022 A 
ATOM     35  C   UNL A   1      33.375  28.542  24.586  1.00  0.00     0.022 A 
ENDBRANCH  26  29
ENDBRANCH  18  26
ENDBRANCH  15  17
ENDBRANCH  12  15
ENDBRANCH  10  11
ENDBRANCH   7  10
ENDBRANCH   5   6
ENDBRANCH   1   5
BRANCH   3  36
ATOM     36  C   UNL A   1      43.473  20.916  25.784  1.00  0.00     0.116 C 
BRANCH  36  37
ATOM     37  C   UNL A   1      43.881  22.381  25.902  1.00  0.00     0.023 C 
BRANCH  37  38
ATOM     38  C   UNL A   1      43.466  23.241  24.718  1.00  0.00     0.023 C 
BRANCH  38  39
ATOM     39  C   UNL A   1      43.251  24.709  25.056  1.00  0.00     0.116 C 
BRANCH  39  40
ATOM     40  N   UNL A   1      42.262  24.934  26.103  1.00  0.00    -0.352 N 
ATOM     41  C   UNL A   1      42.415  25.397  27.401  1.00  0.00     0.251 C 
ATOM     42  H   UNL A   1      41.336  24.723  25.847  1.00  0.00     0.163 HD
ATOM     43  O   UNL A   1      41.541  25.278  28.252  1.00  0.00    -0.269 OA
BRANCH  41  44
ATOM     44  C   UNL A   1      43.582  26.250  27.726  1.00  0.00     0.039 A 
ATOM     45  C   UNL A   1      44.043  26.104  29.045  1.00  0.00     0.014 A 
ATOM     46  C   UNL A   1      43.750  27.438  27.035  1.00  0.00     0.014 A 
ATOM     47  C   UNL A   1      44.295  27.244  29.777  1.00  0.00     0.010 A 
ATOM     48  C   UNL A   1      43.795  28.575  27.788  1.00  0.00     0.010 A 
ATOM     49  C   UNL A   1      44.020  28.459  29.159  1.00  0.00    -0.014 A 
BRANCH  49  50
ATOM     50  C   UNL A   1      44.153  29.725  29.829  1.00  0.00     0.031 A 
ATOM     51  C   UNL A   1      42.857  30.281  30.235  1.00  0.00     0.074 A 
ATOM     52  C   UNL A   1      45.399  30.192  30.049  1.00  0.00     0.049 A 
ATOM     53  N   UNL A   1      42.527  31.517  30.176  1.00  0.00    -0.248 NA
ATOM     54  C   UNL A   1      41.721  29.412  30.586  1.00  0.00     0.031 C 
ATOM     55  C   UNL A   1      45.838  31.350  30.809  1.00  0.00     0.029 A 
ATOM     56  N   UNL A   1      46.549  29.775  29.362  1.00  0.00    -0.354 N 
ATOM     57  C   UNL A   1      41.351  31.616  30.890  1.00  0.00     0.074 A 
ATOM     58  C   UNL A   1      40.779  30.302  30.894  1.00  0.00     0.031 C 
ATOM     59  C   UNL A   1      47.015  31.765  30.301  1.00  0.00     0.029 A 
ATOM     60  C   UNL A   1      47.317  30.930  29.142  1.00  0.00     0.049 A 
ATOM     61  H   UNL A   1      46.774  28.856  29.089  1.00  0.00     0.167 HD
ATOM     62  C   UNL A   1      41.151  32.726  31.649  1.00  0.00     0.031 A 
ATOM     63  C   UNL A   1      47.462  31.387  27.865  1.00  0.00     0.031 A 
ATOM     64  C   UNL A   1      42.270  33.648  31.454  1.00  0.00     0.049 A 
ATOM     65  C   UNL A   1      46.701  32.682  27.682  1.00  0.00     0.074 A 
ATOM     66  C   UNL A   1      43.433  33.845  32.180  1.00  0.00     0.029 A 
ATOM     67  N   UNL A   1      42.509  34.141  30.177  1.00  0.00    -0.354 N 
ATOM     68  N   UNL A   1      45.612  32.995  28.341  1.00  0.00    -0.248 NA
ATOM     69  C   UNL A   1      47.197  33.781  26.858  1.00  0.00     0.031 C 
ATOM     70  C   UNL A   1      44.413  34.366  31.286  1.00  0.00     0.029 A 
ATOM     71  C   UNL A   1      43.842  34.482  30.029  1.00  0.00     0.049 A 
ATOM     72  H   UNL A   1      41.826  34.234  29.474  1.00  0.00     0.167 HD
ATOM     73  C   UNL A   1      45.315  34.317  28.118  1.00  0.00     0.074 A 
ATOM     74  C   UNL A   1      46.323  34.755  27.167  1.00  0.00     0.031 C 
ATOM     75  C   UNL A   1      44.315  35.000  28.754  1.00  0.00     0.031 A 
BRANCH  62  76
ATOM     76  C   UNL A   1      40.176  32.807  32.798  1.00  0.00    -0.014 A 
ATOM     77  C   UNL A   1      40.576  33.484  33.967  1.00  0.00     0.010 A 
ATOM     78  C   UNL A   1      38.887  32.235  32.822  1.00  0.00     0.010 A 
ATOM     79  C   UNL A   1      39.757  33.563  35.100  1.00  0.00     0.020 A 
ATOM     80  C   UNL A   1      38.062  32.286  33.957  1.00  0.00     0.020 A 
ATOM     81  C   UNL A   1      38.502  32.959  35.090  1.00  0.00     0.054 A 
BRANCH  81  82
ATOM     82  S   UNL A   1      37.449  33.113  36.553  1.00  0.00     0.124 S 
ATOM     83  O   UNL A   1      37.418  31.744  37.063  1.00  0.00    -0.237 OA
ATOM     84  O   UNL A   1      38.187  34.073  37.369  1.00  0.00    -0.237 OA
ATOM     85  O   UNL A   1      36.179  33.601  36.018  1.00  0.00    -0.744 OA
ENDBRANCH  81  82
ENDBRANCH  62  76
BRANCH  63  86
ATOM     86  C   UNL A   1      47.723  30.293  26.873  1.00  0.00    -0.014 A 
ATOM     87  C   UNL A   1      48.892  29.521  27.082  1.00  0.00     0.010 A 
ATOM     88  C   UNL A   1      46.731  29.759  26.030  1.00  0.00     0.010 A 
ATOM     89  C   UNL A   1      49.013  28.219  26.582  1.00  0.00     0.020 A 
ATOM     90  C   UNL A   1      46.850  28.445  25.520  1.00  0.00     0.020 A 
ATOM     91  C   UNL A   1      47.969  27.670  25.840  1.00  0.00     0.054 A 
BRANCH  91  92
ATOM     92  S   UNL A   1      48.096  25.915  25.369  1.00  0.00     0.124 S 
ATOM     93  O   UNL A   1      49.462  25.581  25.764  1.00  0.00    -0.237 OA
ATOM     94  O   UNL A   1      47.052  25.305  26.196  1.00  0.00    -0.237 OA
ATOM     95  O   UNL A   1      47.854  25.926  23.932  1.00  0.00    -0.744 OA
ENDBRANCH  91  92
ENDBRANCH  63  86
BRANCH  75  96
ATOM     96  C   UNL A   1      43.719  36.302  28.269  1.00  0.00    -0.014 A 
ATOM     97  C   UNL A   1      43.054  36.442  27.043  1.00  0.00     0.010 A 
ATOM     98  C   UNL A   1      43.674  37.412  29.150  1.00  0.00     0.010 A 
ATOM     99  C   UNL A   1      42.458  37.652  26.676  1.00  0.00     0.020 A 
ATOM    100  C   UNL A   1      43.015  38.597  28.827  1.00  0.00     0.020 A 
ATOM    101  C   UNL A   1      42.446  38.722  27.569  1.00  0.00     0.054 A 
BRANCH 101 102
ATOM    102  S   UNL A   1      41.652  40.267  27.080  1.00  0.00     0.124 S 
ATOM    103  O   UNL A   1      41.062  40.707  28.342  1.00  0.00    -0.237 OA
ATOM    104  O   UNL A   1      42.774  41.069  26.599  1.00  0.00    -0.237 OA
ATOM    105  O   UNL A   1      40.699  39.858  26.052  1.00  0.00    -0.744 OA
ENDBRANCH 101 102
ENDBRANCH  75  96
ENDBRANCH  49  50
ENDBRANCH  41  44
ENDBRANCH  39  40
ENDBRANCH  38  39
ENDBRANCH  37  38
ENDBRANCH  36  37
ENDBRANCH   3  36
TORSDOF 21
ENDMDL
MODEL 3
REMARK VINA RESULT:     -11.3      4.723     10.692
REMARK SMILES Cc1ccc(S(=O)(=O)n2cc(C(=O)C(=O)NCC(=O)NCC(=O)NCCCCNC(=O)c3ccc(-c4c5nc(c(-c6ccc(S(=O)(=O)[O-])cc6)c6ccc([nH]6)c(-c6ccc(S(=O)(=O)[O-])cc6)c6nc(c(-c7ccc(S(=O)(=O)[O-])cc7)c7ccc4[nH]7)C=C6)C=C5)cc3)c3ccccc32)cc1
REMARK SMILES IDX 22 1 23 2 24 3 21 5 20 6 18 7 19 8 17 10 16 11 14 12 15 13
REMARK SMILES IDX 12 15 13 16 11 17 9 18 10 19 97 20 92 21 96 22 93 23 95 24
REMARK SMILES IDX 94 25 6 26 7 27 8 28 5 29 1 30 2 31 3 32 99 33 4 34 98 35
REMARK SMILES IDX 25 36 26 37 27 38 28 39 29 40 30 41 31 43 32 44 33 45 91 46
REMARK SMILES IDX 34 47 90 48 35 49 36 50 37 51 84 52 38 53 89 54 83 55 85 56
REMARK SMILES IDX 39 57 88 58 82 59 81 60 40 62 70 63 51 64 69 65 52 66 55 67
REMARK SMILES IDX 68 68 86 69 53 70 54 71 67 73 87 74 56 75 41 76 42 77 50 78
REMARK SMILES IDX 43 79 49 80 44 81 45 82 46 83 47 84 48 85 71 86 72 87 80 88
REMARK SMILES IDX 73 89 79 90 74 91 75 92 76 93 77 94 78 95 57 96 58 97 66 98
REMARK SMILES IDX 59 99 65 100 60 101 61 102 62 103 63 104 64 105
REMARK H PARENT 24 4 20 9 16 14 29 42 85 61 55 72
REMARK Flexibility Score: inf
ROOT
ATOM      1  C   UNL A   1      41.142  20.524  27.161  1.00  0.00     0.239 C 
ATOM      2  O   UNL A   1      40.676  20.178  28.250  1.00  0.00    -0.273 OA
ATOM      3  N   UNL A   1      42.375  20.054  26.811  1.00  0.00    -0.355 N 
ATOM      4  H   UNL A   1      42.862  19.575  27.521  1.00  0.00     0.163 HD
ENDROOT
BRANCH   1   5
ATOM      5  C   UNL A   1      40.286  21.321  26.166  1.00  0.00     0.216 C 
BRANCH   5   6
ATOM      6  N   UNL A   1      40.032  22.702  26.538  1.00  0.00    -0.346 N 
ATOM      7  C   UNL A   1      38.905  23.460  26.480  1.00  0.00     0.239 C 
ATOM      8  O   UNL A   1      38.935  24.534  27.089  1.00  0.00    -0.273 OA
ATOM      9  H   UNL A   1      40.819  23.173  26.897  1.00  0.00     0.164 HD
BRANCH   7  10
ATOM     10  C   UNL A   1      37.589  22.971  25.842  1.00  0.00     0.216 C 
BRANCH  10  11
ATOM     11  N   UNL A   1      37.466  23.082  24.389  1.00  0.00    -0.340 N 
ATOM     12  C   UNL A   1      36.399  22.918  23.531  1.00  0.00     0.292 C 
ATOM     13  O   UNL A   1      36.609  22.933  22.325  1.00  0.00    -0.265 OA
ATOM     14  H   UNL A   1      38.308  23.318  23.936  1.00  0.00     0.164 HD
BRANCH  12  15
ATOM     15  C   UNL A   1      34.970  22.701  24.074  1.00  0.00     0.252 C 
ATOM     16  O   UNL A   1      34.662  21.562  24.414  1.00  0.00    -0.283 OA
BRANCH  15  17
ATOM     17  C   UNL A   1      33.979  23.782  24.184  1.00  0.00     0.054 A 
ATOM     18  N   UNL A   1      32.540  25.322  24.931  1.00  0.00    -0.240 N 
ATOM     19  C   UNL A   1      33.436  24.355  25.321  1.00  0.00     0.117 A 
ATOM     20  C   UNL A   1      32.470  25.414  23.555  1.00  0.00     0.065 A 
ATOM     21  C   UNL A   1      33.362  24.452  23.064  1.00  0.00     0.012 A 
ATOM     22  C   UNL A   1      31.698  26.213  22.692  1.00  0.00     0.028 A 
ATOM     23  C   UNL A   1      33.484  24.302  21.664  1.00  0.00     0.011 A 
ATOM     24  C   UNL A   1      31.822  26.018  21.314  1.00  0.00     0.002 A 
ATOM     25  C   UNL A   1      32.708  25.079  20.803  1.00  0.00     0.001 A 
BRANCH  18  26
ATOM     26  S   UNL A   1      31.571  26.226  26.008  1.00  0.00     0.268 S 
ATOM     27  O   UNL A   1      31.496  25.418  27.206  1.00  0.00    -0.201 OA
ATOM     28  O   UNL A   1      30.390  26.601  25.248  1.00  0.00    -0.201 OA
BRANCH  26  29
ATOM     29  C   UNL A   1      32.449  27.714  26.413  1.00  0.00     0.088 A 
ATOM     30  C   UNL A   1      34.345  31.351  27.720  1.00  0.00     0.044 C 
ATOM     31  C   UNL A   1      33.691  30.084  27.250  1.00  0.00    -0.051 A 
ATOM     32  C   UNL A   1      32.299  30.027  27.110  1.00  0.00     0.005 A 
ATOM     33  C   UNL A   1      34.456  28.954  26.937  1.00  0.00     0.005 A 
ATOM     34  C   UNL A   1      31.679  28.846  26.699  1.00  0.00     0.022 A 
ATOM     35  C   UNL A   1      33.842  27.775  26.506  1.00  0.00     0.022 A 
ENDBRANCH  26  29
ENDBRANCH  18  26
ENDBRANCH  15  17
ENDBRANCH  12  15
ENDBRANCH  10  11
ENDBRANCH   7  10
ENDBRANCH   5   6
ENDBRANCH   1   5
BRANCH   3  36
ATOM     36  C   UNL A   1      43.069  20.161  25.543  1.00  0.00     0.116 C 
BRANCH  36  37
ATOM     37  C   UNL A   1      43.856  18.912  25.161  1.00  0.00     0.023 C 
BRANCH  37  38
ATOM     38  C   UNL A   1      45.182  19.197  24.472  1.00  0.00     0.023 C 
BRANCH  38  39
ATOM     39  C   UNL A   1      46.042  20.237  25.177  1.00  0.00     0.116 C 
BRANCH  39  40
ATOM     40  N   UNL A   1      46.447  21.344  24.321  1.00  0.00    -0.352 N 
ATOM     41  C   UNL A   1      45.974  22.646  24.247  1.00  0.00     0.251 C 
ATOM     42  H   UNL A   1      47.176  21.134  23.693  1.00  0.00     0.163 HD
ATOM     43  O   UNL A   1      46.218  23.385  23.300  1.00  0.00    -0.269 OA
BRANCH  41  44
ATOM     44  C   UNL A   1      45.328  23.242  25.439  1.00  0.00     0.039 A 
ATOM     45  C   UNL A   1      45.046  24.612  25.306  1.00  0.00     0.014 A 
ATOM     46  C   UNL A   1      45.571  22.677  26.680  1.00  0.00     0.014 A 
ATOM     47  C   UNL A   1      45.400  25.454  26.338  1.00  0.00     0.010 A 
ATOM     48  C   UNL A   1      46.112  23.501  27.623  1.00  0.00     0.010 A 
ATOM     49  C   UNL A   1      46.062  24.879  27.417  1.00  0.00    -0.014 A 
BRANCH  49  50
ATOM     50  C   UNL A   1      46.566  25.645  28.525  1.00  0.00     0.031 A 
ATOM     51  C   UNL A   1      45.494  26.120  29.408  1.00  0.00     0.074 A 
ATOM     52  C   UNL A   1      47.902  25.772  28.646  1.00  0.00     0.049 A 
ATOM     53  N   UNL A   1      45.448  27.270  29.969  1.00  0.00    -0.248 NA
ATOM     54  C   UNL A   1      44.245  25.359  29.585  1.00  0.00     0.031 C 
ATOM     55  C   UNL A   1      48.688  26.359  29.719  1.00  0.00     0.029 A 
ATOM     56  N   UNL A   1      48.829  25.572  27.611  1.00  0.00    -0.354 N 
ATOM     57  C   UNL A   1      44.429  27.185  30.895  1.00  0.00     0.074 A 
ATOM     58  C   UNL A   1      43.579  26.121  30.450  1.00  0.00     0.031 C 
ATOM     59  C   UNL A   1      49.853  26.794  29.197  1.00  0.00     0.029 A 
ATOM     60  C   UNL A   1      49.803  26.572  27.755  1.00  0.00     0.049 A 
ATOM     61  H   UNL A   1      48.801  24.870  26.921  1.00  0.00     0.167 HD
ATOM     62  C   UNL A   1      44.586  27.821  32.086  1.00  0.00     0.031 A 
ATOM     63  C   UNL A   1      49.881  27.552  26.810  1.00  0.00     0.031 A 
ATOM     64  C   UNL A   1      45.850  28.557  32.073  1.00  0.00     0.049 A 
ATOM     65  C   UNL A   1      49.416  28.873  27.384  1.00  0.00     0.074 A 
ATOM     66  C   UNL A   1      47.112  28.222  32.535  1.00  0.00     0.029 A 
ATOM     67  N   UNL A   1      46.027  29.556  31.122  1.00  0.00    -0.354 N 
ATOM     68  N   UNL A   1      48.523  28.988  28.335  1.00  0.00    -0.248 NA
ATOM     69  C   UNL A   1      50.037  30.148  27.037  1.00  0.00     0.031 C 
ATOM     70  C   UNL A   1      48.060  28.959  31.767  1.00  0.00     0.029 A 
ATOM     71  C   UNL A   1      47.371  29.735  30.848  1.00  0.00     0.049 A 
ATOM     72  H   UNL A   1      45.297  30.065  30.701  1.00  0.00     0.167 HD
ATOM     73  C   UNL A   1      48.507  30.285  28.785  1.00  0.00     0.074 A 
ATOM     74  C   UNL A   1      49.455  30.974  27.925  1.00  0.00     0.031 C 
ATOM     75  C   UNL A   1      47.779  30.720  29.859  1.00  0.00     0.031 A 
BRANCH  62  76
ATOM     76  C   UNL A   1      43.814  27.486  33.339  1.00  0.00    -0.014 A 
ATOM     77  C   UNL A   1      44.401  26.608  34.271  1.00  0.00     0.010 A 
ATOM     78  C   UNL A   1      42.524  27.959  33.657  1.00  0.00     0.010 A 
ATOM     79  C   UNL A   1      43.735  26.203  35.435  1.00  0.00     0.020 A 
ATOM     80  C   UNL A   1      41.834  27.545  34.808  1.00  0.00     0.020 A 
ATOM     81  C   UNL A   1      42.451  26.672  35.696  1.00  0.00     0.054 A 
BRANCH  81  82
ATOM     82  S   UNL A   1      41.631  26.163  37.226  1.00  0.00     0.124 S 
ATOM     83  O   UNL A   1      40.587  27.174  37.376  1.00  0.00    -0.237 OA
ATOM     84  O   UNL A   1      41.165  24.819  36.897  1.00  0.00    -0.237 OA
ATOM     85  O   UNL A   1      42.696  26.221  38.227  1.00  0.00    -0.744 OA
ENDBRANCH  81  82
ENDBRANCH  62  76
BRANCH  63  86
ATOM     86  C   UNL A   1      49.755  27.032  25.408  1.00  0.00    -0.014 A 
ATOM     87  C   UNL A   1      48.451  27.031  24.854  1.00  0.00     0.010 A 
ATOM     88  C   UNL A   1      50.841  26.926  24.521  1.00  0.00     0.010 A 
ATOM     89  C   UNL A   1      48.241  27.056  23.470  1.00  0.00     0.020 A 
ATOM     90  C   UNL A   1      50.633  26.948  23.121  1.00  0.00     0.020 A 
ATOM     91  C   UNL A   1      49.337  27.060  22.610  1.00  0.00     0.054 A 
BRANCH  91  92
ATOM     92  S   UNL A   1      49.016  27.277  20.830  1.00  0.00     0.124 S 
ATOM     93  O   UNL A   1      47.592  27.601  20.803  1.00  0.00    -0.237 OA
ATOM     94  O   UNL A   1      49.904  28.394  20.498  1.00  0.00    -0.237 OA
ATOM     95  O   UNL A   1      49.366  25.985  20.256  1.00  0.00    -0.744 OA
ENDBRANCH  91  92
ENDBRANCH  63  86
BRANCH  75  96
ATOM     96  C   UNL A   1      47.436  32.167  30.137  1.00  0.00    -0.014 A 
ATOM     97  C   UNL A   1      48.264  33.036  30.861  1.00  0.00     0.010 A 
ATOM     98  C   UNL A   1      46.303  32.741  29.506  1.00  0.00     0.010 A 
ATOM     99  C   UNL A   1      47.931  34.383  31.026  1.00  0.00     0.020 A 
ATOM    100  C   UNL A   1      46.005  34.099  29.598  1.00  0.00     0.020 A 
ATOM    101  C   UNL A   1      46.802  34.905  30.397  1.00  0.00     0.054 A 
BRANCH 101 102
ATOM    102  S   UNL A   1      46.405  36.652  30.608  1.00  0.00     0.124 S 
ATOM    103  O   UNL A   1      47.379  37.284  29.722  1.00  0.00    -0.237 OA
ATOM    104  O   UNL A   1      45.015  36.724  30.165  1.00  0.00    -0.237 OA
ATOM    105  O   UNL A   1      46.612  36.885  32.035  1.00  0.00    -0.744 OA
ENDBRANCH 101 102
ENDBRANCH  75  96
ENDBRANCH  49  50
ENDBRANCH  41  44
ENDBRANCH  39  40
ENDBRANCH  38  39
ENDBRANCH  37  38
ENDBRANCH  36  37
ENDBRANCH   3  36
TORSDOF 21
ENDMDL
