MODEL 1
REMARK VINA RESULT:     -13.9      0.000      0.000
REMARK SMILES Cc1ccc(S(=O)(=O)N2c3ccc(C(=O)NCCCCNC(=O)c4ccc(-c5c6nc(c(-c7ccc(S(=O)(=O)[O-])cc7)c7ccc([nH]7)c(-c7ccc(S(=O)(=O)[O-])cc7)c7nc(c(-c8ccc(S(=O)(=O)[O-])cc8)c8ccc5[nH]8)C=C7)C=C6)cc4)cc3C[C@H]2C)cc1
REMARK SMILES IDX 19 1 18 2 17 3 16 4 14 5 15 6 13 8 9 9 10 10 87 11 11 12
REMARK SMILES IDX 85 13 86 14 88 15 12 16 84 17 6 18 7 19 8 20 5 21 1 22 2 23
REMARK SMILES IDX 3 24 90 25 4 26 89 27 20 28 21 29 22 30 23 32 24 33 25 34
REMARK SMILES IDX 83 35 26 36 82 37 27 38 28 39 29 40 76 41 30 42 81 43 75 44
REMARK SMILES IDX 77 45 31 46 80 47 74 48 73 49 32 51 62 52 43 53 61 54 44 55
REMARK SMILES IDX 47 56 60 57 78 58 45 59 46 60 59 62 79 63 48 64 33 65 34 66
REMARK SMILES IDX 42 67 35 68 41 69 36 70 37 71 38 72 39 73 40 74 63 75 64 76
REMARK SMILES IDX 72 77 65 78 71 79 66 80 67 81 68 82 69 83 70 84 49 85 50 86
REMARK SMILES IDX 58 87 51 88 57 89 52 90 53 91 54 92 55 93 56 94
REMARK H PARENT 16 7 21 31 77 50 47 61
REMARK Flexibility Score: inf
ROOT
ATOM      1  C   UNL A   1      33.857  28.614  26.140  1.00  0.00     0.023 C 
ENDROOT
BRANCH   1   2
ATOM      2  C   UNL A   1      33.324  29.520  25.038  1.00  0.00     0.023 C 
BRANCH   2   3
ATOM      3  C   UNL A   1      33.036  28.862  23.687  1.00  0.00     0.116 C 
BRANCH   3   4
ATOM      4  N   UNL A   1      31.642  28.949  23.254  1.00  0.00    -0.352 N 
ATOM      5  C   UNL A   1      30.634  28.013  23.203  1.00  0.00     0.251 C 
ATOM      6  O   UNL A   1      29.543  28.334  22.732  1.00  0.00    -0.269 OA
ATOM      7  H   UNL A   1      31.375  29.844  22.942  1.00  0.00     0.163 HD
BRANCH   5   8
ATOM      8  C   UNL A   1      30.842  26.603  23.628  1.00  0.00     0.040 A 
ATOM      9  N   UNL A   1      30.914  22.679  25.179  1.00  0.00    -0.263 N 
ATOM     10  C   UNL A   1      30.960  23.964  24.509  1.00  0.00     0.055 A 
ATOM     11  C   UNL A   1      30.850  23.026  26.657  1.00  0.00     0.101 C 
ATOM     12  C   UNL A   1      30.922  24.214  23.150  1.00  0.00     0.028 A 
ATOM     13  C   UNL A   1      31.035  25.016  25.418  1.00  0.00    -0.021 A 
ATOM     14  C   UNL A   1      31.280  24.501  26.795  1.00  0.00     0.063 C 
ATOM     15  C   UNL A   1      29.403  22.855  27.137  1.00  0.00     0.032 C 
ATOM     16  C   UNL A   1      30.937  25.543  22.714  1.00  0.00     0.016 A 
ATOM     17  C   UNL A   1      30.963  26.339  25.001  1.00  0.00     0.019 A 
BRANCH   9  18
ATOM     18  S   UNL A   1      32.187  21.638  24.670  1.00  0.00     0.264 S 
ATOM     19  O   UNL A   1      32.031  21.413  23.247  1.00  0.00    -0.201 OA
ATOM     20  O   UNL A   1      32.258  20.524  25.598  1.00  0.00    -0.201 OA
BRANCH  18  21
ATOM     21  C   UNL A   1      33.758  22.471  24.859  1.00  0.00     0.088 A 
ATOM     22  C   UNL A   1      37.780  23.837  25.567  1.00  0.00     0.044 C 
ATOM     23  C   UNL A   1      36.361  23.421  25.324  1.00  0.00    -0.051 A 
ATOM     24  C   UNL A   1      35.565  23.000  26.393  1.00  0.00     0.005 A 
ATOM     25  C   UNL A   1      35.814  23.437  24.036  1.00  0.00     0.005 A 
ATOM     26  C   UNL A   1      34.273  22.527  26.163  1.00  0.00     0.022 A 
ATOM     27  C   UNL A   1      34.515  22.970  23.803  1.00  0.00     0.022 A 
ENDBRANCH  18  21
ENDBRANCH   9  18
ENDBRANCH   5   8
ENDBRANCH   3   4
ENDBRANCH   2   3
ENDBRANCH   1   2
BRANCH   1  28
ATOM     28  C   UNL A   1      34.482  29.333  27.322  1.00  0.00     0.116 C 
BRANCH  28  29
ATOM     29  N   UNL A   1      35.492  30.336  27.023  1.00  0.00    -0.352 N 
ATOM     30  C   UNL A   1      36.434  30.647  28.010  1.00  0.00     0.251 C 
ATOM     31  H   UNL A   1      35.513  30.787  26.149  1.00  0.00     0.163 HD
ATOM     32  O   UNL A   1      36.420  31.649  28.700  1.00  0.00    -0.269 OA
BRANCH  30  33
ATOM     33  C   UNL A   1      37.394  29.548  28.272  1.00  0.00     0.039 A 
ATOM     34  C   UNL A   1      37.455  28.907  29.509  1.00  0.00     0.014 A 
ATOM     35  C   UNL A   1      38.373  29.332  27.303  1.00  0.00     0.014 A 
ATOM     36  C   UNL A   1      38.591  28.157  29.827  1.00  0.00     0.010 A 
ATOM     37  C   UNL A   1      39.540  28.704  27.662  1.00  0.00     0.010 A 
ATOM     38  C   UNL A   1      39.661  28.133  28.931  1.00  0.00    -0.014 A 
BRANCH  38  39
ATOM     39  C   UNL A   1      40.974  27.561  29.193  1.00  0.00     0.031 A 
ATOM     40  C   UNL A   1      41.266  26.177  28.751  1.00  0.00     0.074 A 
ATOM     41  C   UNL A   1      41.968  28.369  29.625  1.00  0.00     0.049 A 
ATOM     42  N   UNL A   1      42.244  25.462  29.191  1.00  0.00    -0.248 NA
ATOM     43  C   UNL A   1      40.441  25.474  27.770  1.00  0.00     0.031 C 
ATOM     44  C   UNL A   1      43.402  28.096  29.593  1.00  0.00     0.029 A 
ATOM     45  N   UNL A   1      41.869  29.538  30.380  1.00  0.00    -0.354 N 
ATOM     46  C   UNL A   1      42.371  24.379  28.347  1.00  0.00     0.074 A 
ATOM     47  C   UNL A   1      41.181  24.388  27.531  1.00  0.00     0.031 C 
ATOM     48  C   UNL A   1      44.000  28.847  30.531  1.00  0.00     0.029 A 
ATOM     49  C   UNL A   1      42.943  29.501  31.286  1.00  0.00     0.049 A 
ATOM     50  H   UNL A   1      41.189  30.244  30.296  1.00  0.00     0.167 HD
ATOM     51  C   UNL A   1      43.538  23.677  28.316  1.00  0.00     0.031 A 
ATOM     52  C   UNL A   1      42.779  29.415  32.640  1.00  0.00     0.031 A 
ATOM     53  C   UNL A   1      44.491  24.183  29.298  1.00  0.00     0.049 A 
ATOM     54  C   UNL A   1      43.421  28.172  33.226  1.00  0.00     0.074 A 
ATOM     55  C   UNL A   1      45.582  25.032  29.203  1.00  0.00     0.029 A 
ATOM     56  N   UNL A   1      44.187  24.080  30.650  1.00  0.00    -0.354 N 
ATOM     57  N   UNL A   1      43.780  27.135  32.517  1.00  0.00    -0.248 NA
ATOM     58  C   UNL A   1      43.696  27.985  34.647  1.00  0.00     0.031 C 
ATOM     59  C   UNL A   1      45.873  25.517  30.505  1.00  0.00     0.029 A 
ATOM     60  C   UNL A   1      44.980  24.936  31.389  1.00  0.00     0.049 A 
ATOM     61  H   UNL A   1      43.503  23.482  31.027  1.00  0.00     0.167 HD
ATOM     62  C   UNL A   1      44.340  26.184  33.328  1.00  0.00     0.074 A 
ATOM     63  C   UNL A   1      44.260  26.761  34.658  1.00  0.00     0.031 C 
ATOM     64  C   UNL A   1      44.826  25.006  32.836  1.00  0.00     0.031 A 
BRANCH  51  65
ATOM     65  C   UNL A   1      43.908  22.736  27.193  1.00  0.00    -0.014 A 
ATOM     66  C   UNL A   1      43.002  21.725  26.807  1.00  0.00     0.010 A 
ATOM     67  C   UNL A   1      45.138  22.764  26.509  1.00  0.00     0.010 A 
ATOM     68  C   UNL A   1      43.339  20.742  25.865  1.00  0.00     0.020 A 
ATOM     69  C   UNL A   1      45.503  21.766  25.590  1.00  0.00     0.020 A 
ATOM     70  C   UNL A   1      44.601  20.752  25.280  1.00  0.00     0.054 A 
BRANCH  70  71
ATOM     71  S   UNL A   1      45.044  19.431  24.122  1.00  0.00     0.124 S 
ATOM     72  O   UNL A   1      44.363  18.270  24.690  1.00  0.00    -0.237 OA
ATOM     73  O   UNL A   1      44.499  19.924  22.860  1.00  0.00    -0.237 OA
ATOM     74  O   UNL A   1      46.503  19.382  24.190  1.00  0.00    -0.744 OA
ENDBRANCH  70  71
ENDBRANCH  51  65
BRANCH  52  75
ATOM     75  C   UNL A   1      41.535  30.075  33.140  1.00  0.00    -0.014 A 
ATOM     76  C   UNL A   1      41.564  31.483  33.254  1.00  0.00     0.010 A 
ATOM     77  C   UNL A   1      40.290  29.433  33.009  1.00  0.00     0.010 A 
ATOM     78  C   UNL A   1      40.413  32.240  33.017  1.00  0.00     0.020 A 
ATOM     79  C   UNL A   1      39.131  30.193  32.786  1.00  0.00     0.020 A 
ATOM     80  C   UNL A   1      39.224  31.587  32.699  1.00  0.00     0.054 A 
BRANCH  80  81
ATOM     81  S   UNL A   1      37.869  32.568  31.975  1.00  0.00     0.124 S 
ATOM     82  O   UNL A   1      38.438  33.005  30.705  1.00  0.00    -0.237 OA
ATOM     83  O   UNL A   1      36.789  31.582  31.879  1.00  0.00    -0.237 OA
ATOM     84  O   UNL A   1      37.654  33.620  32.962  1.00  0.00    -0.744 OA
ENDBRANCH  80  81
ENDBRANCH  52  75
BRANCH  64  85
ATOM     85  C   UNL A   1      45.287  23.814  33.643  1.00  0.00    -0.014 A 
ATOM     86  C   UNL A   1      46.502  23.752  34.339  1.00  0.00     0.010 A 
ATOM     87  C   UNL A   1      44.383  22.736  33.834  1.00  0.00     0.010 A 
ATOM     88  C   UNL A   1      46.821  22.647  35.145  1.00  0.00     0.020 A 
ATOM     89  C   UNL A   1      44.672  21.655  34.671  1.00  0.00     0.020 A 
ATOM     90  C   UNL A   1      45.905  21.606  35.305  1.00  0.00     0.054 A 
BRANCH  90  91
ATOM     91  S   UNL A   1      46.294  20.225  36.407  1.00  0.00     0.124 S 
ATOM     92  O   UNL A   1      47.729  20.063  36.192  1.00  0.00    -0.237 OA
ATOM     93  O   UNL A   1      45.912  20.736  37.722  1.00  0.00    -0.237 OA
ATOM     94  O   UNL A   1      45.457  19.138  35.904  1.00  0.00    -0.744 OA
ENDBRANCH  90  91
ENDBRANCH  64  85
ENDBRANCH  38  39
ENDBRANCH  30  33
ENDBRANCH  28  29
ENDBRANCH   1  28
TORSDOF 16
ENDMDL
MODEL 2
REMARK VINA RESULT:     -13.8      1.333      2.036
REMARK SMILES Cc1ccc(S(=O)(=O)N2c3ccc(C(=O)NCCCCNC(=O)c4ccc(-c5c6nc(c(-c7ccc(S(=O)(=O)[O-])cc7)c7ccc([nH]7)c(-c7ccc(S(=O)(=O)[O-])cc7)c7nc(c(-c8ccc(S(=O)(=O)[O-])cc8)c8ccc5[nH]8)C=C7)C=C6)cc4)cc3C[C@H]2C)cc1
REMARK SMILES IDX 19 1 18 2 17 3 16 4 14 5 15 6 13 8 9 9 10 10 87 11 11 12
REMARK SMILES IDX 85 13 86 14 88 15 12 16 84 17 6 18 7 19 8 20 5 21 1 22 2 23
REMARK SMILES IDX 3 24 90 25 4 26 89 27 20 28 21 29 22 30 23 32 24 33 25 34
REMARK SMILES IDX 83 35 26 36 82 37 27 38 28 39 29 40 76 41 30 42 81 43 75 44
REMARK SMILES IDX 77 45 31 46 80 47 74 48 73 49 32 51 62 52 43 53 61 54 44 55
REMARK SMILES IDX 47 56 60 57 78 58 45 59 46 60 59 62 79 63 48 64 33 65 34 66
REMARK SMILES IDX 42 67 35 68 41 69 36 70 37 71 38 72 39 73 40 74 63 75 64 76
REMARK SMILES IDX 72 77 65 78 71 79 66 80 67 81 68 82 69 83 70 84 49 85 50 86
REMARK SMILES IDX 58 87 51 88 57 89 52 90 53 91 54 92 55 93 56 94
REMARK H PARENT 16 7 21 31 77 50 47 61
REMARK Flexibility Score: inf
ROOT
ATOM      1  C   UNL A   1      33.768  28.768  26.317  1.00  0.00     0.023 C 
ENDROOT
BRANCH   1   2
ATOM      2  C   UNL A   1      32.664  29.588  25.662  1.00  0.00     0.023 C 
BRANCH   2   3
ATOM      3  C   UNL A   1      32.413  29.338  24.173  1.00  0.00     0.116 C 
BRANCH   3   4
ATOM      4  N   UNL A   1      31.029  29.006  23.838  1.00  0.00    -0.352 N 
ATOM      5  C   UNL A   1      30.354  27.807  23.795  1.00  0.00     0.251 C 
ATOM      6  O   UNL A   1      29.183  27.793  23.416  1.00  0.00    -0.269 OA
ATOM      7  H   UNL A   1      30.477  29.786  23.599  1.00  0.00     0.163 HD
BRANCH   5   8
ATOM      8  C   UNL A   1      31.016  26.515  24.118  1.00  0.00     0.040 A 
ATOM      9  N   UNL A   1      33.404  23.096  24.760  1.00  0.00    -0.263 N 
ATOM     10  C   UNL A   1      32.505  24.231  24.681  1.00  0.00     0.055 A 
ATOM     11  C   UNL A   1      33.852  22.870  23.325  1.00  0.00     0.101 C 
ATOM     12  C   UNL A   1      31.900  24.908  25.723  1.00  0.00     0.028 A 
ATOM     13  C   UNL A   1      32.293  24.629  23.363  1.00  0.00    -0.021 A 
ATOM     14  C   UNL A   1      32.864  23.630  22.416  1.00  0.00     0.063 C 
ATOM     15  C   UNL A   1      35.266  23.441  23.158  1.00  0.00     0.032 C 
ATOM     16  C   UNL A   1      31.095  26.012  25.425  1.00  0.00     0.016 A 
ATOM     17  C   UNL A   1      31.566  25.774  23.062  1.00  0.00     0.019 A 
BRANCH   9  18
ATOM     18  S   UNL A   1      32.690  21.761  25.580  1.00  0.00     0.264 S 
ATOM     19  O   UNL A   1      31.252  21.888  25.460  1.00  0.00    -0.201 OA
ATOM     20  O   UNL A   1      33.323  21.641  26.881  1.00  0.00    -0.201 OA
BRANCH  18  21
ATOM     21  C   UNL A   1      33.114  20.241  24.741  1.00  0.00     0.088 A 
ATOM     22  C   UNL A   1      34.212  16.303  23.387  1.00  0.00     0.044 C 
ATOM     23  C   UNL A   1      33.849  17.696  23.803  1.00  0.00    -0.051 A 
ATOM     24  C   UNL A   1      34.758  18.463  24.537  1.00  0.00     0.005 A 
ATOM     25  C   UNL A   1      32.604  18.246  23.476  1.00  0.00     0.005 A 
ATOM     26  C   UNL A   1      34.393  19.727  25.004  1.00  0.00     0.022 A 
ATOM     27  C   UNL A   1      32.239  19.516  23.937  1.00  0.00     0.022 A 
ENDBRANCH  18  21
ENDBRANCH   9  18
ENDBRANCH   5   8
ENDBRANCH   3   4
ENDBRANCH   2   3
ENDBRANCH   1   2
BRANCH   1  28
ATOM     28  C   UNL A   1      34.500  29.461  27.451  1.00  0.00     0.116 C 
BRANCH  28  29
ATOM     29  N   UNL A   1      35.518  30.434  27.082  1.00  0.00    -0.352 N 
ATOM     30  C   UNL A   1      36.510  30.747  28.017  1.00  0.00     0.251 C 
ATOM     31  H   UNL A   1      35.509  30.861  26.196  1.00  0.00     0.163 HD
ATOM     32  O   UNL A   1      36.549  31.766  28.681  1.00  0.00    -0.269 OA
BRANCH  30  33
ATOM     33  C   UNL A   1      37.457  29.633  28.264  1.00  0.00     0.039 A 
ATOM     34  C   UNL A   1      37.506  28.971  29.491  1.00  0.00     0.014 A 
ATOM     35  C   UNL A   1      38.437  29.421  27.295  1.00  0.00     0.014 A 
ATOM     36  C   UNL A   1      38.633  28.203  29.800  1.00  0.00     0.010 A 
ATOM     37  C   UNL A   1      39.595  28.775  27.648  1.00  0.00     0.010 A 
ATOM     38  C   UNL A   1      39.705  28.182  28.907  1.00  0.00    -0.014 A 
BRANCH  38  39
ATOM     39  C   UNL A   1      41.011  27.591  29.164  1.00  0.00     0.031 A 
ATOM     40  C   UNL A   1      41.281  26.203  28.721  1.00  0.00     0.074 A 
ATOM     41  C   UNL A   1      42.018  28.384  29.593  1.00  0.00     0.049 A 
ATOM     42  N   UNL A   1      42.251  25.474  29.156  1.00  0.00    -0.248 NA
ATOM     43  C   UNL A   1      40.442  25.513  27.742  1.00  0.00     0.031 C 
ATOM     44  C   UNL A   1      43.448  28.090  29.556  1.00  0.00     0.029 A 
ATOM     45  N   UNL A   1      41.939  29.554  30.349  1.00  0.00    -0.354 N 
ATOM     46  C   UNL A   1      42.359  24.389  28.311  1.00  0.00     0.074 A 
ATOM     47  C   UNL A   1      41.166  24.416  27.499  1.00  0.00     0.031 C 
ATOM     48  C   UNL A   1      44.060  28.833  30.491  1.00  0.00     0.029 A 
ATOM     49  C   UNL A   1      43.015  29.501  31.250  1.00  0.00     0.049 A 
ATOM     50  H   UNL A   1      41.269  30.270  30.268  1.00  0.00     0.167 HD
ATOM     51  C   UNL A   1      43.516  23.671  28.276  1.00  0.00     0.031 A 
ATOM     52  C   UNL A   1      42.855  29.417  32.606  1.00  0.00     0.031 A 
ATOM     53  C   UNL A   1      44.479  24.162  29.254  1.00  0.00     0.049 A 
ATOM     54  C   UNL A   1      43.482  28.164  33.188  1.00  0.00     0.074 A 
ATOM     55  C   UNL A   1      45.582  24.995  29.155  1.00  0.00     0.029 A 
ATOM     56  N   UNL A   1      44.179  24.063  30.607  1.00  0.00    -0.354 N 
ATOM     57  N   UNL A   1      43.823  27.123  32.477  1.00  0.00    -0.248 NA
ATOM     58  C   UNL A   1      43.759  27.972  34.608  1.00  0.00     0.031 C 
ATOM     59  C   UNL A   1      45.884  25.475  30.457  1.00  0.00     0.029 A 
ATOM     60  C   UNL A   1      44.987  24.907  31.344  1.00  0.00     0.049 A 
ATOM     61  H   UNL A   1      43.487  23.475  30.986  1.00  0.00     0.167 HD
ATOM     62  C   UNL A   1      44.372  26.163  33.286  1.00  0.00     0.074 A 
ATOM     63  C   UNL A   1      44.305  26.741  34.616  1.00  0.00     0.031 C 
ATOM     64  C   UNL A   1      44.840  24.979  32.791  1.00  0.00     0.031 A 
BRANCH  51  65
ATOM     65  C   UNL A   1      43.867  22.725  27.151  1.00  0.00    -0.014 A 
ATOM     66  C   UNL A   1      43.005  21.648  26.853  1.00  0.00     0.010 A 
ATOM     67  C   UNL A   1      45.043  22.812  26.381  1.00  0.00     0.010 A 
ATOM     68  C   UNL A   1      43.340  20.664  25.911  1.00  0.00     0.020 A 
ATOM     69  C   UNL A   1      45.408  21.815  25.461  1.00  0.00     0.020 A 
ATOM     70  C   UNL A   1      44.555  20.739  25.238  1.00  0.00     0.054 A 
BRANCH  70  71
ATOM     71  S   UNL A   1      45.002  19.417  24.082  1.00  0.00     0.124 S 
ATOM     72  O   UNL A   1      44.280  18.267  24.621  1.00  0.00    -0.237 OA
ATOM     73  O   UNL A   1      44.504  19.933  22.810  1.00  0.00    -0.237 OA
ATOM     74  O   UNL A   1      46.457  19.336  24.192  1.00  0.00    -0.744 OA
ENDBRANCH  70  71
ENDBRANCH  51  65
BRANCH  52  75
ATOM     75  C   UNL A   1      41.623  30.094  33.110  1.00  0.00    -0.014 A 
ATOM     76  C   UNL A   1      41.669  31.502  33.215  1.00  0.00     0.010 A 
ATOM     77  C   UNL A   1      40.370  29.466  32.993  1.00  0.00     0.010 A 
ATOM     78  C   UNL A   1      40.525  32.271  32.982  1.00  0.00     0.020 A 
ATOM     79  C   UNL A   1      39.218  30.239  32.773  1.00  0.00     0.020 A 
ATOM     80  C   UNL A   1      39.326  31.630  32.676  1.00  0.00     0.054 A 
BRANCH  80  81
ATOM     81  S   UNL A   1      37.978  32.623  31.956  1.00  0.00     0.124 S 
ATOM     82  O   UNL A   1      38.575  33.119  30.721  1.00  0.00    -0.237 OA
ATOM     83  O   UNL A   1      36.915  31.627  31.790  1.00  0.00    -0.237 OA
ATOM     84  O   UNL A   1      37.721  33.631  32.980  1.00  0.00    -0.744 OA
ENDBRANCH  80  81
ENDBRANCH  52  75
BRANCH  64  85
ATOM     85  C   UNL A   1      45.286  23.780  33.596  1.00  0.00    -0.014 A 
ATOM     86  C   UNL A   1      46.581  23.605  34.104  1.00  0.00     0.010 A 
ATOM     87  C   UNL A   1      44.309  22.828  33.991  1.00  0.00     0.010 A 
ATOM     88  C   UNL A   1      46.898  22.509  34.924  1.00  0.00     0.020 A 
ATOM     89  C   UNL A   1      44.604  21.761  34.844  1.00  0.00     0.020 A 
ATOM     90  C   UNL A   1      45.908  21.595  35.287  1.00  0.00     0.054 A 
BRANCH  90  91
ATOM     91  S   UNL A   1      46.310  20.231  36.406  1.00  0.00     0.124 S 
ATOM     92  O   UNL A   1      45.755  20.706  37.670  1.00  0.00    -0.237 OA
ATOM     93  O   UNL A   1      45.613  19.096  35.805  1.00  0.00    -0.237 OA
ATOM     94  O   UNL A   1      47.768  20.157  36.348  1.00  0.00    -0.744 OA
ENDBRANCH  90  91
ENDBRANCH  64  85
ENDBRANCH  38  39
ENDBRANCH  30  33
ENDBRANCH  28  29
ENDBRANCH   1  28
TORSDOF 16
ENDMDL
MODEL 3
REMARK VINA RESULT:     -13.8      1.477      1.890
REMARK SMILES Cc1ccc(S(=O)(=O)N2c3ccc(C(=O)NCCCCNC(=O)c4ccc(-c5c6nc(c(-c7ccc(S(=O)(=O)[O-])cc7)c7ccc([nH]7)c(-c7ccc(S(=O)(=O)[O-])cc7)c7nc(c(-c8ccc(S(=O)(=O)[O-])cc8)c8ccc5[nH]8)C=C7)C=C6)cc4)cc3C[C@H]2C)cc1
REMARK SMILES IDX 19 1 18 2 17 3 16 4 14 5 15 6 13 8 9 9 10 10 87 11 11 12
REMARK SMILES IDX 85 13 86 14 88 15 12 16 84 17 6 18 7 19 8 20 5 21 1 22 2 23
REMARK SMILES IDX 3 24 90 25 4 26 89 27 20 28 21 29 22 30 23 32 24 33 25 34
REMARK SMILES IDX 83 35 26 36 82 37 27 38 28 39 29 40 76 41 30 42 81 43 75 44
REMARK SMILES IDX 77 45 31 46 80 47 74 48 73 49 32 51 62 52 43 53 61 54 44 55
REMARK SMILES IDX 47 56 60 57 78 58 45 59 46 60 59 62 79 63 48 64 33 65 34 66
REMARK SMILES IDX 42 67 35 68 41 69 36 70 37 71 38 72 39 73 40 74 63 75 64 76
REMARK SMILES IDX 72 77 65 78 71 79 66 80 67 81 68 82 69 83 70 84 49 85 50 86
REMARK SMILES IDX 58 87 51 88 57 89 52 90 53 91 54 92 55 93 56 94
REMARK H PARENT 16 7 21 31 77 50 47 61
REMARK Flexibility Score: inf
ROOT
ATOM      1  C   UNL A   1      32.682  30.006  27.261  1.00  0.00     0.023 C 
ENDROOT
BRANCH   1   2
ATOM      2  C   UNL A   1      32.045  30.462  25.954  1.00  0.00     0.023 C 
BRANCH   2   3
ATOM      3  C   UNL A   1      31.885  29.403  24.862  1.00  0.00     0.116 C 
BRANCH   3   4
ATOM      4  N   UNL A   1      32.931  29.419  23.841  1.00  0.00    -0.352 N 
ATOM      5  C   UNL A   1      33.565  28.407  23.156  1.00  0.00     0.251 C 
ATOM      6  O   UNL A   1      34.472  28.690  22.375  1.00  0.00    -0.269 OA
ATOM      7  H   UNL A   1      33.239  30.322  23.598  1.00  0.00     0.163 HD
BRANCH   5   8
ATOM      8  C   UNL A   1      33.241  26.973  23.386  1.00  0.00     0.040 A 
ATOM      9  N   UNL A   1      31.876  23.118  24.427  1.00  0.00    -0.263 N 
ATOM     10  C   UNL A   1      32.384  24.379  23.921  1.00  0.00     0.055 A 
ATOM     11  C   UNL A   1      31.977  23.251  25.937  1.00  0.00     0.101 C 
ATOM     12  C   UNL A   1      32.414  24.816  22.610  1.00  0.00     0.028 A 
ATOM     13  C   UNL A   1      32.865  25.188  24.946  1.00  0.00    -0.021 A 
ATOM     14  C   UNL A   1      32.930  24.429  26.227  1.00  0.00     0.063 C 
ATOM     15  C   UNL A   1      30.581  23.555  26.496  1.00  0.00     0.032 C 
ATOM     16  C   UNL A   1      32.915  26.094  22.343  1.00  0.00     0.016 A 
ATOM     17  C   UNL A   1      33.284  26.491  24.703  1.00  0.00     0.019 A 
BRANCH   9  18
ATOM     18  S   UNL A   1      32.658  21.767  23.702  1.00  0.00     0.264 S 
ATOM     19  O   UNL A   1      32.676  21.985  22.269  1.00  0.00    -0.201 OA
ATOM     20  O   UNL A   1      32.086  20.559  24.265  1.00  0.00    -0.201 OA
BRANCH  18  21
ATOM     21  C   UNL A   1      34.372  21.721  24.206  1.00  0.00     0.088 A 
ATOM     22  C   UNL A   1      38.398  22.303  25.622  1.00  0.00     0.044 C 
ATOM     23  C   UNL A   1      37.018  22.054  25.093  1.00  0.00    -0.051 A 
ATOM     24  C   UNL A   1      36.540  22.802  24.014  1.00  0.00     0.005 A 
ATOM     25  C   UNL A   1      36.188  21.086  25.669  1.00  0.00     0.005 A 
ATOM     26  C   UNL A   1      35.226  22.638  23.573  1.00  0.00     0.022 A 
ATOM     27  C   UNL A   1      34.871  20.914  25.224  1.00  0.00     0.022 A 
ENDBRANCH  18  21
ENDBRANCH   9  18
ENDBRANCH   5   8
ENDBRANCH   3   4
ENDBRANCH   2   3
ENDBRANCH   1   2
BRANCH   1  28
ATOM     28  C   UNL A   1      34.124  29.546  27.151  1.00  0.00     0.116 C 
BRANCH  28  29
ATOM     29  N   UNL A   1      35.122  30.566  26.870  1.00  0.00    -0.352 N 
ATOM     30  C   UNL A   1      36.082  30.846  27.848  1.00  0.00     0.251 C 
ATOM     31  H   UNL A   1      35.122  31.049  26.012  1.00  0.00     0.163 HD
ATOM     32  O   UNL A   1      36.077  31.822  28.575  1.00  0.00    -0.269 OA
BRANCH  30  33
ATOM     33  C   UNL A   1      37.054  29.745  28.048  1.00  0.00     0.039 A 
ATOM     34  C   UNL A   1      37.041  28.956  29.199  1.00  0.00     0.014 A 
ATOM     35  C   UNL A   1      38.111  29.672  27.141  1.00  0.00     0.014 A 
ATOM     36  C   UNL A   1      38.173  28.198  29.512  1.00  0.00     0.010 A 
ATOM     37  C   UNL A   1      39.266  29.031  27.512  1.00  0.00     0.010 A 
ATOM     38  C   UNL A   1      39.308  28.309  28.707  1.00  0.00    -0.014 A 
BRANCH  38  39
ATOM     39  C   UNL A   1      40.615  27.738  29.000  1.00  0.00     0.031 A 
ATOM     40  C   UNL A   1      40.896  26.332  28.624  1.00  0.00     0.074 A 
ATOM     41  C   UNL A   1      41.614  28.556  29.400  1.00  0.00     0.049 A 
ATOM     42  N   UNL A   1      41.866  25.630  29.100  1.00  0.00    -0.248 NA
ATOM     43  C   UNL A   1      40.068  25.593  27.672  1.00  0.00     0.031 C 
ATOM     44  C   UNL A   1      43.046  28.269  29.386  1.00  0.00     0.029 A 
ATOM     45  N   UNL A   1      41.523  29.759  30.100  1.00  0.00    -0.354 N 
ATOM     46  C   UNL A   1      41.986  24.508  28.307  1.00  0.00     0.074 A 
ATOM     47  C   UNL A   1      40.799  24.490  27.486  1.00  0.00     0.031 C 
ATOM     48  C   UNL A   1      43.647  29.057  30.291  1.00  0.00     0.029 A 
ATOM     49  C   UNL A   1      42.593  29.753  31.011  1.00  0.00     0.049 A 
ATOM     50  H   UNL A   1      40.850  30.466  29.981  1.00  0.00     0.167 HD
ATOM     51  C   UNL A   1      43.147  23.795  28.313  1.00  0.00     0.031 A 
ATOM     52  C   UNL A   1      42.423  29.731  32.368  1.00  0.00     0.031 A 
ATOM     53  C   UNL A   1      44.100  24.337  29.275  1.00  0.00     0.049 A 
ATOM     54  C   UNL A   1      43.052  28.510  33.012  1.00  0.00     0.074 A 
ATOM     55  C   UNL A   1      45.199  25.171  29.145  1.00  0.00     0.029 A 
ATOM     56  N   UNL A   1      43.791  24.299  30.629  1.00  0.00    -0.354 N 
ATOM     57  N   UNL A   1      43.404  27.439  32.352  1.00  0.00    -0.248 NA
ATOM     58  C   UNL A   1      43.319  28.386  34.441  1.00  0.00     0.031 C 
ATOM     59  C   UNL A   1      45.489  25.712  30.425  1.00  0.00     0.029 A 
ATOM     60  C   UNL A   1      44.588  25.180  31.331  1.00  0.00     0.049 A 
ATOM     61  H   UNL A   1      43.099  23.725  31.029  1.00  0.00     0.167 HD
ATOM     62  C   UNL A   1      43.952  26.521  33.209  1.00  0.00     0.074 A 
ATOM     63  C   UNL A   1      43.872  27.159  34.510  1.00  0.00     0.031 C 
ATOM     64  C   UNL A   1      44.430  25.318  32.773  1.00  0.00     0.031 A 
BRANCH  51  65
ATOM     65  C   UNL A   1      43.512  22.800  27.235  1.00  0.00    -0.014 A 
ATOM     66  C   UNL A   1      42.676  21.688  27.005  1.00  0.00     0.010 A 
ATOM     67  C   UNL A   1      44.677  22.877  26.448  1.00  0.00     0.010 A 
ATOM     68  C   UNL A   1      43.027  20.664  26.113  1.00  0.00     0.020 A 
ATOM     69  C   UNL A   1      45.059  21.843  25.579  1.00  0.00     0.020 A 
ATOM     70  C   UNL A   1      44.233  20.734  25.423  1.00  0.00     0.054 A 
BRANCH  70  71
ATOM     71  S   UNL A   1      44.703  19.365  24.333  1.00  0.00     0.124 S 
ATOM     72  O   UNL A   1      43.783  18.305  24.740  1.00  0.00    -0.237 OA
ATOM     73  O   UNL A   1      44.468  19.926  23.006  1.00  0.00    -0.237 OA
ATOM     74  O   UNL A   1      46.106  19.122  24.664  1.00  0.00    -0.744 OA
ENDBRANCH  70  71
ENDBRANCH  51  65
BRANCH  52  75
ATOM     75  C   UNL A   1      41.183  30.424  32.831  1.00  0.00    -0.014 A 
ATOM     76  C   UNL A   1      40.082  29.603  33.163  1.00  0.00     0.010 A 
ATOM     77  C   UNL A   1      41.258  31.713  33.390  1.00  0.00     0.010 A 
ATOM     78  C   UNL A   1      39.208  29.966  34.191  1.00  0.00     0.020 A 
ATOM     79  C   UNL A   1      40.370  32.084  34.413  1.00  0.00     0.020 A 
ATOM     80  C   UNL A   1      39.414  31.168  34.866  1.00  0.00     0.054 A 
BRANCH  80  81
ATOM     81  S   UNL A   1      38.561  31.421  36.456  1.00  0.00     0.124 S 
ATOM     82  O   UNL A   1      38.183  30.063  36.832  1.00  0.00    -0.237 OA
ATOM     83  O   UNL A   1      39.609  32.037  37.276  1.00  0.00    -0.237 OA
ATOM     84  O   UNL A   1      37.456  32.307  36.106  1.00  0.00    -0.744 OA
ENDBRANCH  80  81
ENDBRANCH  52  75
BRANCH  64  85
ATOM     85  C   UNL A   1      44.876  24.160  33.635  1.00  0.00    -0.014 A 
ATOM     86  C   UNL A   1      44.048  23.097  34.023  1.00  0.00     0.010 A 
ATOM     87  C   UNL A   1      46.253  24.052  33.964  1.00  0.00     0.010 A 
ATOM     88  C   UNL A   1      44.558  22.007  34.747  1.00  0.00     0.020 A 
ATOM     89  C   UNL A   1      46.778  22.950  34.643  1.00  0.00     0.020 A 
ATOM     90  C   UNL A   1      45.918  21.941  35.053  1.00  0.00     0.054 A 
BRANCH  90  91
ATOM     91  S   UNL A   1      46.578  20.494  35.918  1.00  0.00     0.124 S 
ATOM     92  O   UNL A   1      46.610  20.960  37.301  1.00  0.00    -0.237 OA
ATOM     93  O   UNL A   1      45.588  19.459  35.630  1.00  0.00    -0.237 OA
ATOM     94  O   UNL A   1      47.883  20.287  35.293  1.00  0.00    -0.744 OA
ENDBRANCH  90  91
ENDBRANCH  64  85
ENDBRANCH  38  39
ENDBRANCH  30  33
ENDBRANCH  28  29
ENDBRANCH   1  28
TORSDOF 16
ENDMDL
