MODEL 1
REMARK VINA RESULT:     -11.5      0.000      0.000
REMARK SMILES O=C(COc1ccc(Br)cc1/C=C1\NC(=O)N(Cc2ccc(F)cc2)C1=O)NCCCCNC(=O)c1ccc(-c2c3nc(c(-c4ccc(S(=O)(=O)[O-])cc4)c4ccc([nH]4)c(-c4ccc(S(=O)(=O)[O-])cc4)c4nc(c(-c5ccc(S(=O)(=O)[O-])cc5)c5ccc2[nH]5)C=C4)C=C3)cc1
REMARK SMILES IDX 29 1 28 2 1 3 2 4 3 6 4 7 5 8 6 9 11 10 7 11 10 12 8 13 9 14
REMARK SMILES IDX 12 15 13 16 14 17 26 18 15 19 17 21 27 22 16 23 18 24 19 25
REMARK SMILES IDX 20 26 25 27 21 28 24 29 22 30 23 31 30 32 31 33 32 34 33 35
REMARK SMILES IDX 34 36 35 38 36 39 37 40 95 41 38 42 94 43 39 44 40 45 41 46
REMARK SMILES IDX 88 47 42 48 93 49 87 50 89 51 43 52 92 53 86 54 85 55 44 57
REMARK SMILES IDX 74 58 55 59 73 60 56 61 59 62 72 63 90 64 57 65 58 66 71 68
REMARK SMILES IDX 91 69 60 70 45 71 46 72 54 73 47 74 53 75 48 76 49 77 50 78
REMARK SMILES IDX 51 79 52 80 75 81 76 82 84 83 77 84 83 85 78 86 79 87 80 88
REMARK SMILES IDX 81 89 82 90 61 91 62 92 70 93 63 94 69 95 64 96 65 97 66 98
REMARK SMILES IDX 67 99 68 100
REMARK H PARENT 28 5 14 20 33 37 89 56 59 67
REMARK Flexibility Score: inf
ROOT
ATOM      1  C   UNL A   1      35.464  32.075  27.750  1.00  0.00     0.116 C 
ENDROOT
BRANCH   1   2
ATOM      2  N   UNL A   1      34.391  31.274  27.204  1.00  0.00    -0.353 N 
ATOM      3  O   UNL A   1      35.522  29.268  27.238  1.00  0.00    -0.271 OA
ATOM      4  C   UNL A   1      34.486  29.904  27.065  1.00  0.00     0.257 C 
ATOM      5  H   UNL A   1      33.562  31.722  26.922  1.00  0.00     0.163 HD
BRANCH   4   6
ATOM      6  C   UNL A   1      33.166  29.229  26.698  1.00  0.00     0.329 C 
BRANCH   6   7
ATOM      7  O   UNL A   1      33.046  28.873  25.321  1.00  0.00    -0.483 OA
BRANCH   7   8
ATOM      8  C   UNL A   1      31.881  29.295  24.726  1.00  0.00     0.127 A 
ATOM      9  C   UNL A   1      31.126  30.339  25.268  1.00  0.00     0.048 A 
ATOM     10  C   UNL A   1      31.543  28.770  23.467  1.00  0.00     0.020 A 
ATOM     11  C   UNL A   1      30.035  30.858  24.568  1.00  0.00     0.019 A 
ATOM     12  C   UNL A   1      30.452  29.303  22.764  1.00  0.00     0.027 A 
ATOM     13  C   UNL A   1      29.708  30.344  23.318  1.00  0.00     0.018 A 
ATOM     14  Br  UNL A   1      28.261  31.086  22.355  1.00  0.00    -0.051 Br
BRANCH  10  15
ATOM     15  C   UNL A   1      32.311  27.686  22.851  1.00  0.00     0.044 C 
ATOM     16  C   UNL A   1      32.319  26.426  23.292  1.00  0.00     0.109 C 
ATOM     17  N   UNL A   1      31.635  25.879  24.336  1.00  0.00    -0.303 N 
ATOM     18  C   UNL A   1      33.111  25.325  22.674  1.00  0.00     0.278 C 
ATOM     19  C   UNL A   1      31.896  24.518  24.408  1.00  0.00     0.329 C 
ATOM     20  H   UNL A   1      31.044  26.376  24.947  1.00  0.00     0.172 HD
ATOM     21  N   UNL A   1      32.750  24.201  23.372  1.00  0.00    -0.254 N 
ATOM     22  O   UNL A   1      33.912  25.448  21.763  1.00  0.00    -0.267 OA
ATOM     23  O   UNL A   1      31.445  23.770  25.260  1.00  0.00    -0.248 OA
BRANCH  21  24
ATOM     24  C   UNL A   1      33.247  22.872  23.096  1.00  0.00     0.166 C 
BRANCH  24  25
ATOM     25  C   UNL A   1      34.492  22.540  23.897  1.00  0.00    -0.028 A 
ATOM     26  C   UNL A   1      35.762  22.931  23.436  1.00  0.00     0.008 A 
ATOM     27  C   UNL A   1      34.403  21.846  25.113  1.00  0.00     0.008 A 
ATOM     28  C   UNL A   1      36.914  22.621  24.159  1.00  0.00     0.039 A 
ATOM     29  C   UNL A   1      35.557  21.554  25.847  1.00  0.00     0.039 A 
ATOM     30  C   UNL A   1      36.800  21.938  25.360  1.00  0.00     0.123 A 
ATOM     31  F   UNL A   1      37.905  21.649  26.062  1.00  0.00    -0.207 F 
ENDBRANCH  24  25
ENDBRANCH  21  24
ENDBRANCH  10  15
ENDBRANCH   7   8
ENDBRANCH   6   7
ENDBRANCH   4   6
ENDBRANCH   1   2
BRANCH   1  32
ATOM     32  C   UNL A   1      35.067  32.807  29.025  1.00  0.00     0.023 C 
BRANCH  32  33
ATOM     33  C   UNL A   1      36.158  33.697  29.623  1.00  0.00     0.023 C 
BRANCH  33  34
ATOM     34  C   UNL A   1      36.820  33.165  30.891  1.00  0.00     0.116 C 
BRANCH  34  35
ATOM     35  N   UNL A   1      36.245  31.911  31.349  1.00  0.00    -0.352 N 
ATOM     36  C   UNL A   1      36.730  30.629  31.226  1.00  0.00     0.251 C 
ATOM     37  H   UNL A   1      35.382  31.990  31.817  1.00  0.00     0.163 HD
ATOM     38  O   UNL A   1      36.023  29.678  31.550  1.00  0.00    -0.269 OA
BRANCH  36  39
ATOM     39  C   UNL A   1      38.084  30.393  30.675  1.00  0.00     0.039 A 
ATOM     40  C   UNL A   1      39.147  30.191  31.561  1.00  0.00     0.014 A 
ATOM     41  C   UNL A   1      38.311  30.368  29.296  1.00  0.00     0.014 A 
ATOM     42  C   UNL A   1      40.418  29.892  31.063  1.00  0.00     0.010 A 
ATOM     43  C   UNL A   1      39.560  29.992  28.805  1.00  0.00     0.010 A 
ATOM     44  C   UNL A   1      40.628  29.748  29.681  1.00  0.00    -0.014 A 
BRANCH  44  45
ATOM     45  C   UNL A   1      41.950  29.330  29.140  1.00  0.00     0.031 A 
ATOM     46  C   UNL A   1      43.062  30.333  28.984  1.00  0.00     0.074 A 
ATOM     47  C   UNL A   1      42.131  28.058  28.730  1.00  0.00     0.049 A 
ATOM     48  N   UNL A   1      44.259  30.165  28.481  1.00  0.00    -0.248 NA
ATOM     49  C   UNL A   1      42.787  31.708  29.432  1.00  0.00     0.031 C 
ATOM     50  C   UNL A   1      41.123  26.996  28.789  1.00  0.00     0.029 A 
ATOM     51  N   UNL A   1      43.226  27.441  28.176  1.00  0.00    -0.354 N 
ATOM     52  C   UNL A   1      44.873  31.411  28.541  1.00  0.00     0.074 A 
ATOM     53  C   UNL A   1      43.899  32.335  29.076  1.00  0.00     0.031 C 
ATOM     54  C   UNL A   1      41.654  25.858  28.317  1.00  0.00     0.029 A 
ATOM     55  C   UNL A   1      43.021  26.115  27.876  1.00  0.00     0.049 A 
ATOM     56  H   UNL A   1      44.078  27.905  28.008  1.00  0.00     0.167 HD
ATOM     57  C   UNL A   1      46.140  31.751  28.200  1.00  0.00     0.031 A 
ATOM     58  C   UNL A   1      43.834  25.206  27.300  1.00  0.00     0.031 A 
ATOM     59  C   UNL A   1      47.109  30.829  27.666  1.00  0.00     0.049 A 
ATOM     60  C   UNL A   1      45.227  25.614  26.905  1.00  0.00     0.074 A 
ATOM     61  C   UNL A   1      48.431  31.069  27.333  1.00  0.00     0.029 A 
ATOM     62  N   UNL A   1      46.861  29.495  27.380  1.00  0.00    -0.354 N 
ATOM     63  N   UNL A   1      45.810  26.782  27.029  1.00  0.00    -0.248 NA
ATOM     64  C   UNL A   1      46.077  24.577  26.302  1.00  0.00     0.031 C 
ATOM     65  C   UNL A   1      48.963  29.896  26.789  1.00  0.00     0.029 A 
ATOM     66  C   UNL A   1      47.997  28.906  26.850  1.00  0.00     0.049 A 
ATOM     67  H   UNL A   1      46.004  29.034  27.533  1.00  0.00     0.167 HD
ATOM     68  C   UNL A   1      47.104  26.613  26.548  1.00  0.00     0.074 A 
ATOM     69  C   UNL A   1      47.223  25.227  26.146  1.00  0.00     0.031 C 
ATOM     70  C   UNL A   1      48.103  27.525  26.450  1.00  0.00     0.031 A 
BRANCH  57  71
ATOM     71  C   UNL A   1      46.550  33.190  28.392  1.00  0.00    -0.014 A 
ATOM     72  C   UNL A   1      46.367  34.142  27.372  1.00  0.00     0.010 A 
ATOM     73  C   UNL A   1      47.090  33.606  29.623  1.00  0.00     0.010 A 
ATOM     74  C   UNL A   1      46.756  35.470  27.563  1.00  0.00     0.020 A 
ATOM     75  C   UNL A   1      47.451  34.941  29.830  1.00  0.00     0.020 A 
ATOM     76  C   UNL A   1      47.298  35.861  28.791  1.00  0.00     0.054 A 
BRANCH  76  77
ATOM     77  S   UNL A   1      47.778  37.596  29.014  1.00  0.00     0.124 S 
ATOM     78  O   UNL A   1      48.507  37.867  27.777  1.00  0.00    -0.237 OA
ATOM     79  O   UNL A   1      46.489  38.269  29.142  1.00  0.00    -0.237 OA
ATOM     80  O   UNL A   1      48.593  37.578  30.225  1.00  0.00    -0.744 OA
ENDBRANCH  76  77
ENDBRANCH  57  71
BRANCH  58  81
ATOM     81  C   UNL A   1      43.348  23.817  27.067  1.00  0.00    -0.014 A 
ATOM     82  C   UNL A   1      43.338  22.873  28.109  1.00  0.00     0.010 A 
ATOM     83  C   UNL A   1      42.878  23.433  25.797  1.00  0.00     0.010 A 
ATOM     84  C   UNL A   1      42.886  21.570  27.883  1.00  0.00     0.020 A 
ATOM     85  C   UNL A   1      42.394  22.142  25.574  1.00  0.00     0.020 A 
ATOM     86  C   UNL A   1      42.412  21.214  26.616  1.00  0.00     0.054 A 
BRANCH  86  87
ATOM     87  S   UNL A   1      41.779  19.533  26.361  1.00  0.00     0.124 S 
ATOM     88  O   UNL A   1      40.345  19.765  26.223  1.00  0.00    -0.237 OA
ATOM     89  O   UNL A   1      42.475  19.116  25.146  1.00  0.00    -0.237 OA
ATOM     90  O   UNL A   1      42.186  18.828  27.574  1.00  0.00    -0.744 OA
ENDBRANCH  86  87
ENDBRANCH  58  81
BRANCH  70  91
ATOM     91  C   UNL A   1      49.432  27.048  25.920  1.00  0.00    -0.014 A 
ATOM     92  C   UNL A   1      49.775  27.188  24.564  1.00  0.00     0.010 A 
ATOM     93  C   UNL A   1      50.375  26.501  26.810  1.00  0.00     0.010 A 
ATOM     94  C   UNL A   1      51.023  26.758  24.102  1.00  0.00     0.020 A 
ATOM     95  C   UNL A   1      51.635  26.100  26.359  1.00  0.00     0.020 A 
ATOM     96  C   UNL A   1      51.946  26.219  25.004  1.00  0.00     0.054 A 
BRANCH  96  97
ATOM     97  S   UNL A   1      53.574  25.713  24.386  1.00  0.00     0.124 S 
ATOM     98  O   UNL A   1      53.436  25.933  22.949  1.00  0.00    -0.237 OA
ATOM     99  O   UNL A   1      54.477  26.628  25.079  1.00  0.00    -0.237 OA
ATOM    100  O   UNL A   1      53.681  24.313  24.794  1.00  0.00    -0.744 OA
ENDBRANCH  96  97
ENDBRANCH  70  91
ENDBRANCH  44  45
ENDBRANCH  36  39
ENDBRANCH  34  35
ENDBRANCH  33  34
ENDBRANCH  32  33
ENDBRANCH   1  32
TORSDOF 19
ENDMDL
MODEL 2
REMARK VINA RESULT:     -11.4      6.182     11.765
REMARK SMILES O=C(COc1ccc(Br)cc1/C=C1\NC(=O)N(Cc2ccc(F)cc2)C1=O)NCCCCNC(=O)c1ccc(-c2c3nc(c(-c4ccc(S(=O)(=O)[O-])cc4)c4ccc([nH]4)c(-c4ccc(S(=O)(=O)[O-])cc4)c4nc(c(-c5ccc(S(=O)(=O)[O-])cc5)c5ccc2[nH]5)C=C4)C=C3)cc1
REMARK SMILES IDX 29 1 28 2 1 3 2 4 3 6 4 7 5 8 6 9 11 10 7 11 10 12 8 13 9 14
REMARK SMILES IDX 12 15 13 16 14 17 26 18 15 19 17 21 27 22 16 23 18 24 19 25
REMARK SMILES IDX 20 26 25 27 21 28 24 29 22 30 23 31 30 32 31 33 32 34 33 35
REMARK SMILES IDX 34 36 35 38 36 39 37 40 95 41 38 42 94 43 39 44 40 45 41 46
REMARK SMILES IDX 88 47 42 48 93 49 87 50 89 51 43 52 92 53 86 54 85 55 44 57
REMARK SMILES IDX 74 58 55 59 73 60 56 61 59 62 72 63 90 64 57 65 58 66 71 68
REMARK SMILES IDX 91 69 60 70 45 71 46 72 54 73 47 74 53 75 48 76 49 77 50 78
REMARK SMILES IDX 51 79 52 80 75 81 76 82 84 83 77 84 83 85 78 86 79 87 80 88
REMARK SMILES IDX 81 89 82 90 61 91 62 92 70 93 63 94 69 95 64 96 65 97 66 98
REMARK SMILES IDX 67 99 68 100
REMARK H PARENT 28 5 14 20 33 37 89 56 59 67
REMARK Flexibility Score: inf
ROOT
ATOM      1  C   UNL A   1      39.358  22.908  26.871  1.00  0.00     0.116 C 
ENDROOT
BRANCH   1   2
ATOM      2  N   UNL A   1      38.427  22.308  25.940  1.00  0.00    -0.353 N 
ATOM      3  O   UNL A   1      36.911  24.042  25.935  1.00  0.00    -0.271 OA
ATOM      4  C   UNL A   1      37.304  22.970  25.485  1.00  0.00     0.257 C 
ATOM      5  H   UNL A   1      38.601  21.395  25.619  1.00  0.00     0.163 HD
BRANCH   4   6
ATOM      6  C   UNL A   1      36.594  22.258  24.335  1.00  0.00     0.329 C 
BRANCH   6   7
ATOM      7  O   UNL A   1      35.191  22.077  24.528  1.00  0.00    -0.483 OA
BRANCH   7   8
ATOM      8  C   UNL A   1      34.769  20.774  24.420  1.00  0.00     0.127 A 
ATOM      9  C   UNL A   1      35.603  19.708  24.769  1.00  0.00     0.048 A 
ATOM     10  C   UNL A   1      33.420  20.530  24.109  1.00  0.00     0.020 A 
ATOM     11  C   UNL A   1      35.107  18.404  24.804  1.00  0.00     0.019 A 
ATOM     12  C   UNL A   1      32.924  19.218  24.156  1.00  0.00     0.027 A 
ATOM     13  C   UNL A   1      33.770  18.166  24.505  1.00  0.00     0.018 A 
ATOM     14  Br  UNL A   1      33.093  16.404  24.603  1.00  0.00    -0.051 Br
BRANCH  10  15
ATOM     15  C   UNL A   1      32.502  21.613  23.751  1.00  0.00     0.044 C 
ATOM     16  C   UNL A   1      31.982  22.477  24.625  1.00  0.00     0.109 C 
ATOM     17  N   UNL A   1      32.190  22.568  25.969  1.00  0.00    -0.303 N 
ATOM     18  C   UNL A   1      31.037  23.572  24.263  1.00  0.00     0.278 C 
ATOM     19  C   UNL A   1      31.489  23.650  26.482  1.00  0.00     0.329 C 
ATOM     20  H   UNL A   1      32.754  21.957  26.496  1.00  0.00     0.172 HD
ATOM     21  N   UNL A   1      30.840  24.263  25.431  1.00  0.00    -0.254 N 
ATOM     22  O   UNL A   1      30.552  23.759  23.160  1.00  0.00    -0.267 OA
ATOM     23  O   UNL A   1      31.463  23.963  27.661  1.00  0.00    -0.248 OA
BRANCH  21  24
ATOM     24  C   UNL A   1      30.013  25.443  25.553  1.00  0.00     0.166 C 
BRANCH  24  25
ATOM     25  C   UNL A   1      30.823  26.725  25.530  1.00  0.00    -0.028 A 
ATOM     26  C   UNL A   1      31.238  27.329  26.730  1.00  0.00     0.008 A 
ATOM     27  C   UNL A   1      31.181  27.329  24.314  1.00  0.00     0.008 A 
ATOM     28  C   UNL A   1      31.974  28.514  26.720  1.00  0.00     0.039 A 
ATOM     29  C   UNL A   1      31.935  28.506  24.305  1.00  0.00     0.039 A 
ATOM     30  C   UNL A   1      32.319  29.090  25.506  1.00  0.00     0.123 A 
ATOM     31  F   UNL A   1      33.035  30.223  25.494  1.00  0.00    -0.207 F 
ENDBRANCH  24  25
ENDBRANCH  21  24
ENDBRANCH  10  15
ENDBRANCH   7   8
ENDBRANCH   6   7
ENDBRANCH   4   6
ENDBRANCH   1   2
BRANCH   1  32
ATOM     32  C   UNL A   1      40.426  21.934  27.350  1.00  0.00     0.023 C 
BRANCH  32  33
ATOM     33  C   UNL A   1      41.795  22.105  26.691  1.00  0.00     0.023 C 
BRANCH  33  34
ATOM     34  C   UNL A   1      42.505  23.425  26.979  1.00  0.00     0.116 C 
BRANCH  34  35
ATOM     35  N   UNL A   1      42.395  24.380  25.887  1.00  0.00    -0.352 N 
ATOM     36  C   UNL A   1      42.071  25.717  25.923  1.00  0.00     0.251 C 
ATOM     37  H   UNL A   1      42.579  24.016  24.991  1.00  0.00     0.163 HD
ATOM     38  O   UNL A   1      41.883  26.325  24.872  1.00  0.00    -0.269 OA
BRANCH  36  39
ATOM     39  C   UNL A   1      41.918  26.414  27.221  1.00  0.00     0.039 A 
ATOM     40  C   UNL A   1      42.818  27.431  27.550  1.00  0.00     0.014 A 
ATOM     41  C   UNL A   1      40.896  26.071  28.111  1.00  0.00     0.014 A 
ATOM     42  C   UNL A   1      42.646  28.153  28.736  1.00  0.00     0.010 A 
ATOM     43  C   UNL A   1      40.680  26.842  29.251  1.00  0.00     0.010 A 
ATOM     44  C   UNL A   1      41.551  27.893  29.577  1.00  0.00    -0.014 A 
BRANCH  44  45
ATOM     45  C   UNL A   1      41.296  28.717  30.789  1.00  0.00     0.031 A 
ATOM     46  C   UNL A   1      40.184  29.732  30.802  1.00  0.00     0.074 A 
ATOM     47  C   UNL A   1      42.107  28.597  31.860  1.00  0.00     0.049 A 
ATOM     48  N   UNL A   1      39.848  30.577  31.744  1.00  0.00    -0.248 NA
ATOM     49  C   UNL A   1      39.352  29.824  29.591  1.00  0.00     0.031 C 
ATOM     50  C   UNL A   1      43.246  27.681  31.964  1.00  0.00     0.029 A 
ATOM     51  N   UNL A   1      42.103  29.254  33.067  1.00  0.00    -0.354 N 
ATOM     52  C   UNL A   1      38.779  31.306  31.237  1.00  0.00     0.074 A 
ATOM     53  C   UNL A   1      38.558  30.843  29.885  1.00  0.00     0.031 C 
ATOM     54  C   UNL A   1      43.811  27.815  33.174  1.00  0.00     0.029 A 
ATOM     55  C   UNL A   1      43.110  28.859  33.916  1.00  0.00     0.049 A 
ATOM     56  H   UNL A   1      41.441  29.944  33.302  1.00  0.00     0.167 HD
ATOM     57  C   UNL A   1      38.035  32.260  31.847  1.00  0.00     0.031 A 
ATOM     58  C   UNL A   1      43.444  29.292  35.148  1.00  0.00     0.031 A 
ATOM     59  C   UNL A   1      38.257  32.720  33.193  1.00  0.00     0.049 A 
ATOM     60  C   UNL A   1      42.620  30.372  35.795  1.00  0.00     0.074 A 
ATOM     61  C   UNL A   1      37.529  33.650  33.915  1.00  0.00     0.029 A 
ATOM     62  N   UNL A   1      39.287  32.292  34.019  1.00  0.00    -0.354 N 
ATOM     63  N   UNL A   1      41.573  31.004  35.322  1.00  0.00    -0.248 NA
ATOM     64  C   UNL A   1      43.017  30.789  37.147  1.00  0.00     0.031 C 
ATOM     65  C   UNL A   1      38.154  33.829  35.153  1.00  0.00     0.029 A 
ATOM     66  C   UNL A   1      39.229  32.959  35.231  1.00  0.00     0.049 A 
ATOM     67  H   UNL A   1      39.959  31.614  33.778  1.00  0.00     0.167 HD
ATOM     68  C   UNL A   1      41.167  31.871  36.330  1.00  0.00     0.074 A 
ATOM     69  C   UNL A   1      42.072  31.672  37.443  1.00  0.00     0.031 C 
ATOM     70  C   UNL A   1      40.137  32.754  36.333  1.00  0.00     0.031 A 
BRANCH  57  71
ATOM     71  C   UNL A   1      36.908  32.876  31.057  1.00  0.00    -0.014 A 
ATOM     72  C   UNL A   1      37.164  33.703  29.947  1.00  0.00     0.010 A 
ATOM     73  C   UNL A   1      35.573  32.593  31.402  1.00  0.00     0.010 A 
ATOM     74  C   UNL A   1      36.109  34.270  29.227  1.00  0.00     0.020 A 
ATOM     75  C   UNL A   1      34.515  33.133  30.665  1.00  0.00     0.020 A 
ATOM     76  C   UNL A   1      34.791  33.983  29.592  1.00  0.00     0.054 A 
BRANCH  76  77
ATOM     77  S   UNL A   1      33.443  34.721  28.628  1.00  0.00     0.124 S 
ATOM     78  O   UNL A   1      34.108  35.867  28.013  1.00  0.00    -0.237 OA
ATOM     79  O   UNL A   1      33.078  33.643  27.714  1.00  0.00    -0.237 OA
ATOM     80  O   UNL A   1      32.437  35.052  29.633  1.00  0.00    -0.744 OA
ENDBRANCH  76  77
ENDBRANCH  57  71
BRANCH  58  81
ATOM     81  C   UNL A   1      44.616  28.698  35.852  1.00  0.00    -0.014 A 
ATOM     82  C   UNL A   1      45.902  29.242  35.693  1.00  0.00     0.010 A 
ATOM     83  C   UNL A   1      44.446  27.586  36.699  1.00  0.00     0.010 A 
ATOM     84  C   UNL A   1      46.998  28.678  36.352  1.00  0.00     0.020 A 
ATOM     85  C   UNL A   1      45.533  27.039  37.385  1.00  0.00     0.020 A 
ATOM     86  C   UNL A   1      46.805  27.581  37.198  1.00  0.00     0.054 A 
BRANCH  86  87
ATOM     87  S   UNL A   1      48.234  26.899  38.084  1.00  0.00     0.124 S 
ATOM     88  O   UNL A   1      49.199  27.989  37.989  1.00  0.00    -0.237 OA
ATOM     89  O   UNL A   1      47.688  26.649  39.416  1.00  0.00    -0.237 OA
ATOM     90  O   UNL A   1      48.568  25.698  37.321  1.00  0.00    -0.744 OA
ENDBRANCH  86  87
ENDBRANCH  58  81
BRANCH  70  91
ATOM     91  C   UNL A   1      39.902  33.548  37.593  1.00  0.00    -0.014 A 
ATOM     92  C   UNL A   1      40.535  34.785  37.809  1.00  0.00     0.010 A 
ATOM     93  C   UNL A   1      38.988  33.070  38.551  1.00  0.00     0.010 A 
ATOM     94  C   UNL A   1      40.282  35.512  38.976  1.00  0.00     0.020 A 
ATOM     95  C   UNL A   1      38.709  33.810  39.703  1.00  0.00     0.020 A 
ATOM     96  C   UNL A   1      39.369  35.021  39.914  1.00  0.00     0.054 A 
BRANCH  96  97
ATOM     97  S   UNL A   1      39.026  36.008  41.397  1.00  0.00     0.124 S 
ATOM     98  O   UNL A   1      37.781  35.414  41.875  1.00  0.00    -0.237 OA
ATOM     99  O   UNL A   1      40.202  35.758  42.226  1.00  0.00    -0.237 OA
ATOM    100  O   UNL A   1      38.909  37.373  40.886  1.00  0.00    -0.744 OA
ENDBRANCH  96  97
ENDBRANCH  70  91
ENDBRANCH  44  45
ENDBRANCH  36  39
ENDBRANCH  34  35
ENDBRANCH  33  34
ENDBRANCH  32  33
ENDBRANCH   1  32
TORSDOF 19
ENDMDL
MODEL 3
REMARK VINA RESULT:     -11.4      3.154      9.218
REMARK SMILES O=C(COc1ccc(Br)cc1/C=C1\NC(=O)N(Cc2ccc(F)cc2)C1=O)NCCCCNC(=O)c1ccc(-c2c3nc(c(-c4ccc(S(=O)(=O)[O-])cc4)c4ccc([nH]4)c(-c4ccc(S(=O)(=O)[O-])cc4)c4nc(c(-c5ccc(S(=O)(=O)[O-])cc5)c5ccc2[nH]5)C=C4)C=C3)cc1
REMARK SMILES IDX 29 1 28 2 1 3 2 4 3 6 4 7 5 8 6 9 11 10 7 11 10 12 8 13 9 14
REMARK SMILES IDX 12 15 13 16 14 17 26 18 15 19 17 21 27 22 16 23 18 24 19 25
REMARK SMILES IDX 20 26 25 27 21 28 24 29 22 30 23 31 30 32 31 33 32 34 33 35
REMARK SMILES IDX 34 36 35 38 36 39 37 40 95 41 38 42 94 43 39 44 40 45 41 46
REMARK SMILES IDX 88 47 42 48 93 49 87 50 89 51 43 52 92 53 86 54 85 55 44 57
REMARK SMILES IDX 74 58 55 59 73 60 56 61 59 62 72 63 90 64 57 65 58 66 71 68
REMARK SMILES IDX 91 69 60 70 45 71 46 72 54 73 47 74 53 75 48 76 49 77 50 78
REMARK SMILES IDX 51 79 52 80 75 81 76 82 84 83 77 84 83 85 78 86 79 87 80 88
REMARK SMILES IDX 81 89 82 90 61 91 62 92 70 93 63 94 69 95 64 96 65 97 66 98
REMARK SMILES IDX 67 99 68 100
REMARK H PARENT 28 5 14 20 33 37 89 56 59 67
REMARK Flexibility Score: inf
ROOT
ATOM      1  C   UNL A   1      40.033  23.050  26.952  1.00  0.00     0.116 C 
ENDROOT
BRANCH   1   2
ATOM      2  N   UNL A   1      39.073  22.477  26.035  1.00  0.00    -0.353 N 
ATOM      3  O   UNL A   1      37.410  24.029  26.396  1.00  0.00    -0.271 OA
ATOM      4  C   UNL A   1      37.854  23.068  25.773  1.00  0.00     0.257 C 
ATOM      5  H   UNL A   1      39.298  21.633  25.581  1.00  0.00     0.163 HD
BRANCH   4   6
ATOM      6  C   UNL A   1      37.100  22.434  24.606  1.00  0.00     0.329 C 
BRANCH   6   7
ATOM      7  O   UNL A   1      35.678  22.483  24.723  1.00  0.00    -0.483 OA
BRANCH   7   8
ATOM      8  C   UNL A   1      35.052  21.276  24.522  1.00  0.00     0.127 A 
ATOM      9  C   UNL A   1      35.641  20.075  24.926  1.00  0.00     0.048 A 
ATOM     10  C   UNL A   1      33.728  21.278  24.050  1.00  0.00     0.020 A 
ATOM     11  C   UNL A   1      34.926  18.879  24.857  1.00  0.00     0.019 A 
ATOM     12  C   UNL A   1      33.010  20.074  23.993  1.00  0.00     0.027 A 
ATOM     13  C   UNL A   1      33.612  18.884  24.399  1.00  0.00     0.018 A 
ATOM     14  Br  UNL A   1      32.633  17.268  24.357  1.00  0.00    -0.051 Br
BRANCH  10  15
ATOM     15  C   UNL A   1      33.061  22.512  23.627  1.00  0.00     0.044 C 
ATOM     16  C   UNL A   1      32.256  23.236  24.407  1.00  0.00     0.109 C 
ATOM     17  N   UNL A   1      31.907  23.028  25.707  1.00  0.00    -0.303 N 
ATOM     18  C   UNL A   1      31.567  24.485  23.973  1.00  0.00     0.278 C 
ATOM     19  C   UNL A   1      31.087  24.058  26.146  1.00  0.00     0.329 C 
ATOM     20  H   UNL A   1      32.194  22.261  26.254  1.00  0.00     0.172 HD
ATOM     21  N   UNL A   1      30.934  24.943  25.100  1.00  0.00    -0.254 N 
ATOM     22  O   UNL A   1      31.572  24.946  22.845  1.00  0.00    -0.267 OA
ATOM     23  O   UNL A   1      30.596  24.126  27.261  1.00  0.00    -0.248 OA
BRANCH  21  24
ATOM     24  C   UNL A   1      30.159  26.162  25.163  1.00  0.00     0.166 C 
BRANCH  24  25
ATOM     25  C   UNL A   1      30.999  27.366  25.545  1.00  0.00    -0.028 A 
ATOM     26  C   UNL A   1      31.380  27.576  26.882  1.00  0.00     0.008 A 
ATOM     27  C   UNL A   1      31.421  28.287  24.573  1.00  0.00     0.008 A 
ATOM     28  C   UNL A   1      32.144  28.685  27.245  1.00  0.00     0.039 A 
ATOM     29  C   UNL A   1      32.204  29.388  24.935  1.00  0.00     0.039 A 
ATOM     30  C   UNL A   1      32.552  29.580  26.267  1.00  0.00     0.123 A 
ATOM     31  F   UNL A   1      33.295  30.640  26.612  1.00  0.00    -0.207 F 
ENDBRANCH  24  25
ENDBRANCH  21  24
ENDBRANCH  10  15
ENDBRANCH   7   8
ENDBRANCH   6   7
ENDBRANCH   4   6
ENDBRANCH   1   2
BRANCH   1  32
ATOM     32  C   UNL A   1      40.931  22.005  27.600  1.00  0.00     0.023 C 
BRANCH  32  33
ATOM     33  C   UNL A   1      40.820  20.601  27.002  1.00  0.00     0.023 C 
BRANCH  33  34
ATOM     34  C   UNL A   1      42.014  19.683  27.247  1.00  0.00     0.116 C 
BRANCH  34  35
ATOM     35  N   UNL A   1      42.631  19.212  26.017  1.00  0.00    -0.352 N 
ATOM     36  C   UNL A   1      43.446  19.882  25.135  1.00  0.00     0.251 C 
ATOM     37  H   UNL A   1      42.436  18.276  25.782  1.00  0.00     0.163 HD
ATOM     38  O   UNL A   1      43.750  19.355  24.068  1.00  0.00    -0.269 OA
BRANCH  36  39
ATOM     39  C   UNL A   1      43.931  21.245  25.453  1.00  0.00     0.039 A 
ATOM     40  C   UNL A   1      43.318  22.339  24.835  1.00  0.00     0.014 A 
ATOM     41  C   UNL A   1      44.980  21.449  26.353  1.00  0.00     0.014 A 
ATOM     42  C   UNL A   1      43.708  23.638  25.177  1.00  0.00     0.010 A 
ATOM     43  C   UNL A   1      45.312  22.743  26.750  1.00  0.00     0.010 A 
ATOM     44  C   UNL A   1      44.680  23.853  26.169  1.00  0.00    -0.014 A 
BRANCH  44  45
ATOM     45  C   UNL A   1      45.034  25.226  26.618  1.00  0.00     0.031 A 
ATOM     46  C   UNL A   1      46.388  25.806  26.306  1.00  0.00     0.074 A 
ATOM     47  C   UNL A   1      44.157  25.932  27.362  1.00  0.00     0.049 A 
ATOM     48  N   UNL A   1      46.893  26.960  26.662  1.00  0.00    -0.248 NA
ATOM     49  C   UNL A   1      47.302  24.972  25.509  1.00  0.00     0.031 C 
ATOM     50  C   UNL A   1      42.827  25.472  27.769  1.00  0.00     0.029 A 
ATOM     51  N   UNL A   1      44.255  27.185  27.916  1.00  0.00    -0.354 N 
ATOM     52  C   UNL A   1      48.182  26.986  26.143  1.00  0.00     0.074 A 
ATOM     53  C   UNL A   1      48.402  25.711  25.498  1.00  0.00     0.031 C 
ATOM     54  C   UNL A   1      42.226  26.437  28.482  1.00  0.00     0.029 A 
ATOM     55  C   UNL A   1      43.141  27.565  28.627  1.00  0.00     0.049 A 
ATOM     56  H   UNL A   1      45.049  27.758  27.814  1.00  0.00     0.167 HD
ATOM     57  C   UNL A   1      49.095  27.988  26.182  1.00  0.00     0.031 A 
ATOM     58  C   UNL A   1      42.883  28.687  29.328  1.00  0.00     0.031 A 
ATOM     59  C   UNL A   1      48.874  29.256  26.827  1.00  0.00     0.049 A 
ATOM     60  C   UNL A   1      43.923  29.773  29.381  1.00  0.00     0.074 A 
ATOM     61  C   UNL A   1      49.721  30.351  26.882  1.00  0.00     0.029 A 
ATOM     62  N   UNL A   1      47.732  29.600  27.533  1.00  0.00    -0.354 N 
ATOM     63  N   UNL A   1      45.112  29.803  28.830  1.00  0.00    -0.248 NA
ATOM     64  C   UNL A   1      43.579  30.984  30.141  1.00  0.00     0.031 C 
ATOM     65  C   UNL A   1      49.115  31.332  27.673  1.00  0.00     0.029 A 
ATOM     66  C   UNL A   1      47.862  30.878  28.050  1.00  0.00     0.049 A 
ATOM     67  H   UNL A   1      46.944  29.021  27.649  1.00  0.00     0.167 HD
ATOM     68  C   UNL A   1      45.647  31.046  29.152  1.00  0.00     0.074 A 
ATOM     69  C   UNL A   1      44.645  31.744  29.931  1.00  0.00     0.031 C 
ATOM     70  C   UNL A   1      46.859  31.563  28.828  1.00  0.00     0.031 A 
BRANCH  57  71
ATOM     71  C   UNL A   1      50.424  27.746  25.511  1.00  0.00    -0.014 A 
ATOM     72  C   UNL A   1      50.598  27.984  24.135  1.00  0.00     0.010 A 
ATOM     73  C   UNL A   1      51.525  27.314  26.273  1.00  0.00     0.010 A 
ATOM     74  C   UNL A   1      51.835  27.751  23.527  1.00  0.00     0.020 A 
ATOM     75  C   UNL A   1      52.772  27.111  25.675  1.00  0.00     0.020 A 
ATOM     76  C   UNL A   1      52.913  27.314  24.300  1.00  0.00     0.054 A 
BRANCH  76  77
ATOM     77  S   UNL A   1      54.510  27.037  23.484  1.00  0.00     0.124 S 
ATOM     78  O   UNL A   1      55.142  26.073  24.381  1.00  0.00    -0.237 OA
ATOM     79  O   UNL A   1      54.115  26.514  22.180  1.00  0.00    -0.237 OA
ATOM     80  O   UNL A   1      55.124  28.362  23.463  1.00  0.00    -0.744 OA
ENDBRANCH  76  77
ENDBRANCH  57  71
BRANCH  58  81
ATOM     81  C   UNL A   1      41.581  28.838  30.035  1.00  0.00    -0.014 A 
ATOM     82  C   UNL A   1      41.424  28.388  31.358  1.00  0.00     0.010 A 
ATOM     83  C   UNL A   1      40.489  29.448  29.390  1.00  0.00     0.010 A 
ATOM     84  C   UNL A   1      40.198  28.529  32.016  1.00  0.00     0.020 A 
ATOM     85  C   UNL A   1      39.271  29.619  30.053  1.00  0.00     0.020 A 
ATOM     86  C   UNL A   1      39.130  29.148  31.359  1.00  0.00     0.054 A 
BRANCH  86  87
ATOM     87  S   UNL A   1      37.565  29.367  32.251  1.00  0.00     0.124 S 
ATOM     88  O   UNL A   1      37.768  30.653  32.909  1.00  0.00    -0.237 OA
ATOM     89  O   UNL A   1      36.583  29.355  31.170  1.00  0.00    -0.237 OA
ATOM     90  O   UNL A   1      37.515  28.209  33.140  1.00  0.00    -0.744 OA
ENDBRANCH  86  87
ENDBRANCH  58  81
BRANCH  70  91
ATOM     91  C   UNL A   1      47.162  32.968  29.283  1.00  0.00    -0.014 A 
ATOM     92  C   UNL A   1      46.806  34.084  28.505  1.00  0.00     0.010 A 
ATOM     93  C   UNL A   1      47.764  33.174  30.539  1.00  0.00     0.010 A 
ATOM     94  C   UNL A   1      47.078  35.378  28.960  1.00  0.00     0.020 A 
ATOM     95  C   UNL A   1      48.007  34.466  31.011  1.00  0.00     0.020 A 
ATOM     96  C   UNL A   1      47.674  35.560  30.212  1.00  0.00     0.054 A 
BRANCH  96  97
ATOM     97  S   UNL A   1      47.973  37.251  30.797  1.00  0.00     0.124 S 
ATOM     98  O   UNL A   1      47.503  38.050  29.669  1.00  0.00    -0.237 OA
ATOM     99  O   UNL A   1      47.152  37.321  32.003  1.00  0.00    -0.237 OA
ATOM    100  O   UNL A   1      49.416  37.288  31.029  1.00  0.00    -0.744 OA
ENDBRANCH  96  97
ENDBRANCH  70  91
ENDBRANCH  44  45
ENDBRANCH  36  39
ENDBRANCH  34  35
ENDBRANCH  33  34
ENDBRANCH  32  33
ENDBRANCH   1  32
TORSDOF 19
ENDMDL
