MODEL 1
REMARK VINA RESULT:     -11.0      0.000      0.000
REMARK SMILES O=C(NCCCCNC(=O)c1ccc(Cl)nc1NC[C@@H]1C[N@@H+]2CCC[C@@H]2CO1)c1ccc(-c2c3nc(c(-c4ccc(S(=O)(=O)[O-])cc4)c4ccc([nH]4)c(-c4ccc(S(=O)(=O)[O-])cc4)c4nc(c(-c5ccc(S(=O)(=O)[O-])cc5)c5ccc2[nH]5)C=C4)C=C3)cc1
REMARK SMILES IDX 5 1 4 2 3 3 1 4 2 5 29 7 30 8 88 9 31 10 87 11 32 12 33 13
REMARK SMILES IDX 34 14 81 15 35 16 86 17 80 18 82 19 36 20 85 21 79 22 78 23
REMARK SMILES IDX 37 25 67 26 48 27 66 28 49 29 52 30 65 31 83 32 50 33 51 34
REMARK SMILES IDX 64 36 84 37 53 38 38 39 39 40 47 41 40 42 46 43 41 44 42 45
REMARK SMILES IDX 43 46 44 47 45 48 68 49 69 50 77 51 70 52 76 53 71 54 72 55
REMARK SMILES IDX 73 56 74 57 75 58 54 59 55 60 63 61 56 62 62 63 57 64 58 65
REMARK SMILES IDX 59 66 60 67 61 68 6 69 7 70 8 71 9 72 10 74 11 75 12 76
REMARK SMILES IDX 17 77 13 78 16 79 14 80 15 81 18 82 19 84 20 85 21 86 28 87
REMARK SMILES IDX 22 88 27 89 23 90 26 91 24 93 25 94
REMARK H PARENT 3 6 82 24 52 35 8 73 18 83 22 92
REMARK Flexibility Score: inf
ROOT
ATOM      1  C   UNL A   1      33.598  27.704  26.173  1.00  0.00     0.023 C 
ENDROOT
BRANCH   1   2
ATOM      2  C   UNL A   1      34.511  28.912  26.008  1.00  0.00     0.116 C 
BRANCH   2   3
ATOM      3  N   UNL A   1      33.910  30.153  26.471  1.00  0.00    -0.352 N 
ATOM      4  O   UNL A   1      33.590  31.925  27.827  1.00  0.00    -0.269 OA
ATOM      5  C   UNL A   1      34.298  30.972  27.505  1.00  0.00     0.251 C 
ATOM      6  H   UNL A   1      33.113  30.447  25.975  1.00  0.00     0.163 HD
BRANCH   5   7
ATOM      7  C   UNL A   1      35.546  30.688  28.248  1.00  0.00     0.039 A 
ATOM      8  C   UNL A   1      36.708  31.421  27.999  1.00  0.00     0.014 A 
ATOM      9  C   UNL A   1      35.554  29.666  29.202  1.00  0.00     0.014 A 
ATOM     10  C   UNL A   1      37.906  31.038  28.593  1.00  0.00     0.010 A 
ATOM     11  C   UNL A   1      36.743  29.335  29.858  1.00  0.00     0.010 A 
ATOM     12  C   UNL A   1      37.937  29.996  29.533  1.00  0.00    -0.014 A 
BRANCH  12  13
ATOM     13  C   UNL A   1      39.221  29.656  30.200  1.00  0.00     0.031 A 
ATOM     14  C   UNL A   1      39.654  30.351  31.463  1.00  0.00     0.074 A 
ATOM     15  C   UNL A   1      39.981  28.676  29.674  1.00  0.00     0.049 A 
ATOM     16  N   UNL A   1      40.727  30.145  32.185  1.00  0.00    -0.248 NA
ATOM     17  C   UNL A   1      38.779  31.415  31.980  1.00  0.00     0.031 C 
ATOM     18  C   UNL A   1      39.667  27.931  28.451  1.00  0.00     0.029 A 
ATOM     19  N   UNL A   1      41.156  28.118  30.109  1.00  0.00    -0.354 N 
ATOM     20  C   UNL A   1      40.663  31.057  33.234  1.00  0.00     0.074 A 
ATOM     21  C   UNL A   1      39.459  31.837  33.038  1.00  0.00     0.031 C 
ATOM     22  C   UNL A   1      40.598  26.984  28.262  1.00  0.00     0.029 A 
ATOM     23  C   UNL A   1      41.603  27.091  29.313  1.00  0.00     0.049 A 
ATOM     24  H   UNL A   1      41.634  28.425  30.913  1.00  0.00     0.167 HD
ATOM     25  C   UNL A   1      41.524  31.225  34.267  1.00  0.00     0.031 A 
ATOM     26  C   UNL A   1      42.706  26.325  29.406  1.00  0.00     0.031 A 
ATOM     27  C   UNL A   1      42.724  30.450  34.455  1.00  0.00     0.049 A 
ATOM     28  C   UNL A   1      43.657  26.550  30.544  1.00  0.00     0.074 A 
ATOM     29  C   UNL A   1      43.655  30.539  35.476  1.00  0.00     0.029 A 
ATOM     30  N   UNL A   1      43.159  29.443  33.607  1.00  0.00    -0.354 N 
ATOM     31  N   UNL A   1      43.568  27.408  31.531  1.00  0.00    -0.248 NA
ATOM     32  C   UNL A   1      44.857  25.704  30.581  1.00  0.00     0.031 C 
ATOM     33  C   UNL A   1      44.675  29.614  35.223  1.00  0.00     0.029 A 
ATOM     34  C   UNL A   1      44.353  28.915  34.071  1.00  0.00     0.049 A 
ATOM     35  H   UNL A   1      42.689  29.147  32.795  1.00  0.00     0.167 HD
ATOM     36  C   UNL A   1      44.696  27.198  32.315  1.00  0.00     0.074 A 
ATOM     37  C   UNL A   1      45.439  26.116  31.698  1.00  0.00     0.031 C 
ATOM     38  C   UNL A   1      45.084  27.845  33.440  1.00  0.00     0.031 A 
BRANCH  25  39
ATOM     39  C   UNL A   1      41.211  32.305  35.269  1.00  0.00    -0.014 A 
ATOM     40  C   UNL A   1      41.637  33.630  35.063  1.00  0.00     0.010 A 
ATOM     41  C   UNL A   1      40.438  32.003  36.405  1.00  0.00     0.010 A 
ATOM     42  C   UNL A   1      41.326  34.625  35.995  1.00  0.00     0.020 A 
ATOM     43  C   UNL A   1      40.107  33.000  37.327  1.00  0.00     0.020 A 
ATOM     44  C   UNL A   1      40.568  34.304  37.124  1.00  0.00     0.054 A 
BRANCH  44  45
ATOM     45  S   UNL A   1      40.165  35.618  38.309  1.00  0.00     0.124 S 
ATOM     46  O   UNL A   1      38.932  35.112  38.908  1.00  0.00    -0.237 OA
ATOM     47  O   UNL A   1      41.332  35.629  39.187  1.00  0.00    -0.237 OA
ATOM     48  O   UNL A   1      40.009  36.804  37.470  1.00  0.00    -0.744 OA
ENDBRANCH  44  45
ENDBRANCH  25  39
BRANCH  26  49
ATOM     49  C   UNL A   1      42.969  25.284  28.376  1.00  0.00    -0.014 A 
ATOM     50  C   UNL A   1      43.618  25.614  27.174  1.00  0.00     0.010 A 
ATOM     51  C   UNL A   1      42.590  23.950  28.609  1.00  0.00     0.010 A 
ATOM     52  C   UNL A   1      43.870  24.627  26.217  1.00  0.00     0.020 A 
ATOM     53  C   UNL A   1      42.865  22.957  27.667  1.00  0.00     0.020 A 
ATOM     54  C   UNL A   1      43.492  23.305  26.470  1.00  0.00     0.054 A 
BRANCH  54  55
ATOM     55  S   UNL A   1      43.877  22.028  25.239  1.00  0.00     0.124 S 
ATOM     56  O   UNL A   1      42.797  21.070  25.451  1.00  0.00    -0.237 OA
ATOM     57  O   UNL A   1      43.830  22.771  23.983  1.00  0.00    -0.237 OA
ATOM     58  O   UNL A   1      45.208  21.570  25.632  1.00  0.00    -0.744 OA
ENDBRANCH  54  55
ENDBRANCH  26  49
BRANCH  38  59
ATOM     59  C   UNL A   1      46.361  27.383  34.088  1.00  0.00    -0.014 A 
ATOM     60  C   UNL A   1      47.595  27.967  33.753  1.00  0.00     0.010 A 
ATOM     61  C   UNL A   1      46.320  26.370  35.063  1.00  0.00     0.010 A 
ATOM     62  C   UNL A   1      48.773  27.521  34.357  1.00  0.00     0.020 A 
ATOM     63  C   UNL A   1      47.493  25.940  35.687  1.00  0.00     0.020 A 
ATOM     64  C   UNL A   1      48.715  26.507  35.317  1.00  0.00     0.054 A 
BRANCH  64  65
ATOM     65  S   UNL A   1      50.252  25.964  36.112  1.00  0.00     0.124 S 
ATOM     66  O   UNL A   1      50.029  24.529  36.254  1.00  0.00    -0.237 OA
ATOM     67  O   UNL A   1      51.272  26.349  35.140  1.00  0.00    -0.237 OA
ATOM     68  O   UNL A   1      50.278  26.718  37.364  1.00  0.00    -0.744 OA
ENDBRANCH  64  65
ENDBRANCH  38  59
ENDBRANCH  12  13
ENDBRANCH   5   7
ENDBRANCH   2   3
ENDBRANCH   1   2
BRANCH   1  69
ATOM     69  C   UNL A   1      32.358  27.925  27.038  1.00  0.00     0.023 C 
BRANCH  69  70
ATOM     70  C   UNL A   1      31.088  27.229  26.554  1.00  0.00     0.116 C 
BRANCH  70  71
ATOM     71  N   UNL A   1      31.101  25.798  26.805  1.00  0.00    -0.352 N 
ATOM     72  C   UNL A   1      31.242  24.757  25.923  1.00  0.00     0.255 C 
ATOM     73  H   UNL A   1      30.992  25.537  27.749  1.00  0.00     0.163 HD
ATOM     74  O   UNL A   1      31.068  23.600  26.297  1.00  0.00    -0.269 OA
BRANCH  72  75
ATOM     75  C   UNL A   1      31.590  25.014  24.514  1.00  0.00     0.082 A 
ATOM     76  C   UNL A   1      30.758  25.817  23.724  1.00  0.00     0.021 A 
ATOM     77  C   UNL A   1      32.780  24.496  23.979  1.00  0.00     0.140 A 
ATOM     78  C   UNL A   1      31.082  26.013  22.390  1.00  0.00     0.042 A 
ATOM     79  N   UNL A   1      33.087  24.681  22.675  1.00  0.00    -0.219 NA
ATOM     80  C   UNL A   1      32.239  25.418  21.923  1.00  0.00     0.131 A 
ATOM     81  Cl  UNL A   1      32.698  25.575  20.278  1.00  0.00    -0.062 Cl
BRANCH  77  82
ATOM     82  N   UNL A   1      33.616  23.713  24.754  1.00  0.00    -0.367 N 
ATOM     83  H   UNL A   1      33.868  24.043  25.647  1.00  0.00     0.162 HD
BRANCH  82  84
ATOM     84  C   UNL A   1      34.140  22.432  24.323  1.00  0.00     0.152 C 
BRANCH  84  85
ATOM     85  C   UNL A   1      33.563  21.243  25.127  1.00  0.00     0.192 C 
ATOM     86  C   UNL A   1      34.527  20.018  25.114  1.00  0.00     0.296 C 
ATOM     87  O   UNL A   1      32.236  20.966  24.632  1.00  0.00    -0.364 OA
ATOM     88  N   UNL A   1      33.946  18.688  24.872  1.00  0.00    -0.328 N 
ATOM     89  C   UNL A   1      32.264  20.050  23.543  1.00  0.00     0.225 C 
ATOM     90  C   UNL A   1      34.906  17.755  24.270  1.00  0.00     0.262 C 
ATOM     91  C   UNL A   1      32.721  18.686  24.052  1.00  0.00     0.210 C 
ATOM     92  H   UNL A   1      33.693  18.376  25.809  1.00  0.00     0.348 HD
ATOM     93  C   UNL A   1      34.041  16.783  23.488  1.00  0.00     0.068 C 
ATOM     94  C   UNL A   1      32.962  17.687  22.925  1.00  0.00     0.073 C 
ENDBRANCH  84  85
ENDBRANCH  82  84
ENDBRANCH  77  82
ENDBRANCH  72  75
ENDBRANCH  70  71
ENDBRANCH  69  70
ENDBRANCH   1  69
TORSDOF 17
ENDMDL
MODEL 2
REMARK VINA RESULT:     -10.7      2.820      4.563
REMARK SMILES O=C(NCCCCNC(=O)c1ccc(Cl)nc1NC[C@@H]1C[N@@H+]2CCC[C@@H]2CO1)c1ccc(-c2c3nc(c(-c4ccc(S(=O)(=O)[O-])cc4)c4ccc([nH]4)c(-c4ccc(S(=O)(=O)[O-])cc4)c4nc(c(-c5ccc(S(=O)(=O)[O-])cc5)c5ccc2[nH]5)C=C4)C=C3)cc1
REMARK SMILES IDX 5 1 4 2 3 3 1 4 2 5 29 7 30 8 88 9 31 10 87 11 32 12 33 13
REMARK SMILES IDX 34 14 81 15 35 16 86 17 80 18 82 19 36 20 85 21 79 22 78 23
REMARK SMILES IDX 37 25 67 26 48 27 66 28 49 29 52 30 65 31 83 32 50 33 51 34
REMARK SMILES IDX 64 36 84 37 53 38 38 39 39 40 47 41 40 42 46 43 41 44 42 45
REMARK SMILES IDX 43 46 44 47 45 48 68 49 69 50 77 51 70 52 76 53 71 54 72 55
REMARK SMILES IDX 73 56 74 57 75 58 54 59 55 60 63 61 56 62 62 63 57 64 58 65
REMARK SMILES IDX 59 66 60 67 61 68 6 69 7 70 8 71 9 72 10 74 11 75 12 76
REMARK SMILES IDX 17 77 13 78 16 79 14 80 15 81 18 82 19 84 20 85 21 86 28 87
REMARK SMILES IDX 22 88 27 89 23 90 26 91 24 93 25 94
REMARK H PARENT 3 6 82 24 52 35 8 73 18 83 22 92
REMARK Flexibility Score: inf
ROOT
ATOM      1  C   UNL A   1      32.151  27.442  27.222  1.00  0.00     0.023 C 
ENDROOT
BRANCH   1   2
ATOM      2  C   UNL A   1      33.484  28.180  27.270  1.00  0.00     0.116 C 
BRANCH   2   3
ATOM      3  N   UNL A   1      33.340  29.607  27.510  1.00  0.00    -0.352 N 
ATOM      4  O   UNL A   1      33.915  31.655  28.254  1.00  0.00    -0.269 OA
ATOM      5  C   UNL A   1      34.259  30.501  28.007  1.00  0.00     0.251 C 
ATOM      6  H   UNL A   1      32.460  29.986  27.286  1.00  0.00     0.163 HD
BRANCH   5   7
ATOM      7  C   UNL A   1      35.647  30.065  28.274  1.00  0.00     0.039 A 
ATOM      8  C   UNL A   1      36.019  29.597  29.535  1.00  0.00     0.014 A 
ATOM      9  C   UNL A   1      36.592  30.133  27.245  1.00  0.00     0.014 A 
ATOM     10  C   UNL A   1      37.359  29.339  29.809  1.00  0.00     0.010 A 
ATOM     11  C   UNL A   1      37.925  29.795  27.501  1.00  0.00     0.010 A 
ATOM     12  C   UNL A   1      38.326  29.428  28.794  1.00  0.00    -0.014 A 
BRANCH  12  13
ATOM     13  C   UNL A   1      39.737  29.080  29.103  1.00  0.00     0.031 A 
ATOM     14  C   UNL A   1      40.639  30.044  29.826  1.00  0.00     0.074 A 
ATOM     15  C   UNL A   1      40.190  27.859  28.758  1.00  0.00     0.049 A 
ATOM     16  N   UNL A   1      41.883  29.878  30.201  1.00  0.00    -0.248 NA
ATOM     17  C   UNL A   1      40.081  31.361  30.168  1.00  0.00     0.031 C 
ATOM     18  C   UNL A   1      39.411  26.839  28.050  1.00  0.00     0.029 A 
ATOM     19  N   UNL A   1      41.403  27.256  28.976  1.00  0.00    -0.354 N 
ATOM     20  C   UNL A   1      42.260  31.069  30.813  1.00  0.00     0.074 A 
ATOM     21  C   UNL A   1      41.121  31.959  30.734  1.00  0.00     0.031 C 
ATOM     22  C   UNL A   1      40.145  25.723  27.937  1.00  0.00     0.029 A 
ATOM     23  C   UNL A   1      41.465  25.966  28.509  1.00  0.00     0.049 A 
ATOM     24  H   UNL A   1      42.156  27.705  29.423  1.00  0.00     0.167 HD
ATOM     25  C   UNL A   1      43.443  31.388  31.392  1.00  0.00     0.031 A 
ATOM     26  C   UNL A   1      42.474  25.074  28.524  1.00  0.00     0.031 A 
ATOM     27  C   UNL A   1      44.576  30.501  31.464  1.00  0.00     0.049 A 
ATOM     28  C   UNL A   1      43.782  25.464  29.146  1.00  0.00     0.074 A 
ATOM     29  C   UNL A   1      45.815  30.731  32.038  1.00  0.00     0.029 A 
ATOM     30  N   UNL A   1      44.610  29.215  30.947  1.00  0.00    -0.354 N 
ATOM     31  N   UNL A   1      44.111  26.590  29.731  1.00  0.00    -0.248 NA
ATOM     32  C   UNL A   1      44.856  24.462  29.111  1.00  0.00     0.031 C 
ATOM     33  C   UNL A   1      46.612  29.598  31.833  1.00  0.00     0.029 A 
ATOM     34  C   UNL A   1      45.852  28.645  31.174  1.00  0.00     0.049 A 
ATOM     35  H   UNL A   1      43.862  28.772  30.486  1.00  0.00     0.167 HD
ATOM     36  C   UNL A   1      45.427  26.430  30.145  1.00  0.00     0.074 A 
ATOM     37  C   UNL A   1      45.825  25.089  29.763  1.00  0.00     0.031 C 
ATOM     38  C   UNL A   1      46.236  27.313  30.779  1.00  0.00     0.031 A 
BRANCH  25  39
ATOM     39  C   UNL A   1      43.583  32.769  31.979  1.00  0.00    -0.014 A 
ATOM     40  C   UNL A   1      43.302  33.011  33.336  1.00  0.00     0.010 A 
ATOM     41  C   UNL A   1      44.050  33.826  31.177  1.00  0.00     0.010 A 
ATOM     42  C   UNL A   1      43.450  34.295  33.870  1.00  0.00     0.020 A 
ATOM     43  C   UNL A   1      44.221  35.106  31.714  1.00  0.00     0.020 A 
ATOM     44  C   UNL A   1      43.903  35.336  33.055  1.00  0.00     0.054 A 
BRANCH  44  45
ATOM     45  S   UNL A   1      44.103  36.988  33.778  1.00  0.00     0.124 S 
ATOM     46  O   UNL A   1      44.852  37.683  32.734  1.00  0.00    -0.237 OA
ATOM     47  O   UNL A   1      42.723  37.429  33.961  1.00  0.00    -0.237 OA
ATOM     48  O   UNL A   1      44.843  36.739  35.013  1.00  0.00    -0.744 OA
ENDBRANCH  44  45
ENDBRANCH  25  39
BRANCH  26  49
ATOM     49  C   UNL A   1      42.280  23.732  27.913  1.00  0.00    -0.014 A 
ATOM     50  C   UNL A   1      42.658  23.489  26.582  1.00  0.00     0.010 A 
ATOM     51  C   UNL A   1      41.736  22.682  28.676  1.00  0.00     0.010 A 
ATOM     52  C   UNL A   1      42.482  22.221  26.020  1.00  0.00     0.020 A 
ATOM     53  C   UNL A   1      41.584  21.408  28.126  1.00  0.00     0.020 A 
ATOM     54  C   UNL A   1      41.947  21.189  26.796  1.00  0.00     0.054 A 
BRANCH  54  55
ATOM     55  S   UNL A   1      41.776  19.536  26.067  1.00  0.00     0.124 S 
ATOM     56  O   UNL A   1      42.227  18.677  27.158  1.00  0.00    -0.237 OA
ATOM     57  O   UNL A   1      40.351  19.470  25.755  1.00  0.00    -0.237 OA
ATOM     58  O   UNL A   1      42.658  19.588  24.903  1.00  0.00    -0.744 OA
ENDBRANCH  54  55
ENDBRANCH  26  49
BRANCH  38  59
ATOM     59  C   UNL A   1      47.624  26.847  31.117  1.00  0.00    -0.014 A 
ATOM     60  C   UNL A   1      47.910  26.269  32.367  1.00  0.00     0.010 A 
ATOM     61  C   UNL A   1      48.650  26.964  30.162  1.00  0.00     0.010 A 
ATOM     62  C   UNL A   1      49.207  25.848  32.669  1.00  0.00     0.020 A 
ATOM     63  C   UNL A   1      49.942  26.521  30.452  1.00  0.00     0.020 A 
ATOM     64  C   UNL A   1      50.217  25.981  31.711  1.00  0.00     0.054 A 
BRANCH  64  65
ATOM     65  S   UNL A   1      51.888  25.401  32.112  1.00  0.00     0.124 S 
ATOM     66  O   UNL A   1      52.181  26.143  33.333  1.00  0.00    -0.237 OA
ATOM     67  O   UNL A   1      51.698  23.962  32.281  1.00  0.00    -0.237 OA
ATOM     68  O   UNL A   1      52.676  25.785  30.943  1.00  0.00    -0.744 OA
ENDBRANCH  64  65
ENDBRANCH  38  59
ENDBRANCH  12  13
ENDBRANCH   5   7
ENDBRANCH   2   3
ENDBRANCH   1   2
BRANCH   1  69
ATOM     69  C   UNL A   1      32.001  26.419  26.097  1.00  0.00     0.023 C 
BRANCH  69  70
ATOM     70  C   UNL A   1      32.720  25.091  26.317  1.00  0.00     0.116 C 
BRANCH  70  71
ATOM     71  N   UNL A   1      34.060  25.077  25.752  1.00  0.00    -0.352 N 
ATOM     72  C   UNL A   1      34.793  24.023  25.268  1.00  0.00     0.255 C 
ATOM     73  H   UNL A   1      34.506  25.954  25.710  1.00  0.00     0.163 HD
ATOM     74  O   UNL A   1      35.976  24.176  24.975  1.00  0.00    -0.269 OA
BRANCH  72  75
ATOM     75  C   UNL A   1      34.175  22.695  25.108  1.00  0.00     0.082 A 
ATOM     76  C   UNL A   1      34.170  21.793  26.179  1.00  0.00     0.021 A 
ATOM     77  C   UNL A   1      33.550  22.352  23.899  1.00  0.00     0.140 A 
ATOM     78  C   UNL A   1      33.620  20.534  25.995  1.00  0.00     0.042 A 
ATOM     79  N   UNL A   1      33.024  21.119  23.720  1.00  0.00    -0.219 NA
ATOM     80  C   UNL A   1      33.079  20.251  24.755  1.00  0.00     0.131 A 
ATOM     81  Cl  UNL A   1      32.412  18.706  24.425  1.00  0.00    -0.062 Cl
BRANCH  77  82
ATOM     82  N   UNL A   1      33.539  23.240  22.838  1.00  0.00    -0.367 N 
ATOM     83  H   UNL A   1      34.366  23.356  22.318  1.00  0.00     0.162 HD
BRANCH  82  84
ATOM     84  C   UNL A   1      32.372  24.010  22.453  1.00  0.00     0.152 C 
BRANCH  84  85
ATOM     85  C   UNL A   1      32.731  25.291  21.662  1.00  0.00     0.192 C 
ATOM     86  C   UNL A   1      33.739  26.186  22.446  1.00  0.00     0.296 C 
ATOM     87  O   UNL A   1      31.503  25.953  21.295  1.00  0.00    -0.364 OA
ATOM     88  N   UNL A   1      33.479  27.634  22.495  1.00  0.00    -0.328 N 
ATOM     89  C   UNL A   1      31.069  26.853  22.309  1.00  0.00     0.225 C 
ATOM     90  C   UNL A   1      34.046  28.268  23.692  1.00  0.00     0.262 C 
ATOM     91  C   UNL A   1      32.057  28.013  22.400  1.00  0.00     0.210 C 
ATOM     92  H   UNL A   1      33.949  27.979  21.659  1.00  0.00     0.348 HD
ATOM     93  C   UNL A   1      33.151  29.470  23.936  1.00  0.00     0.068 C 
ATOM     94  C   UNL A   1      31.778  28.932  23.584  1.00  0.00     0.073 C 
ENDBRANCH  84  85
ENDBRANCH  82  84
ENDBRANCH  77  82
ENDBRANCH  72  75
ENDBRANCH  70  71
ENDBRANCH  69  70
ENDBRANCH   1  69
TORSDOF 17
ENDMDL
MODEL 3
REMARK VINA RESULT:     -10.7      5.243      6.513
REMARK SMILES O=C(NCCCCNC(=O)c1ccc(Cl)nc1NC[C@@H]1C[N@@H+]2CCC[C@@H]2CO1)c1ccc(-c2c3nc(c(-c4ccc(S(=O)(=O)[O-])cc4)c4ccc([nH]4)c(-c4ccc(S(=O)(=O)[O-])cc4)c4nc(c(-c5ccc(S(=O)(=O)[O-])cc5)c5ccc2[nH]5)C=C4)C=C3)cc1
REMARK SMILES IDX 5 1 4 2 3 3 1 4 2 5 29 7 30 8 88 9 31 10 87 11 32 12 33 13
REMARK SMILES IDX 34 14 81 15 35 16 86 17 80 18 82 19 36 20 85 21 79 22 78 23
REMARK SMILES IDX 37 25 67 26 48 27 66 28 49 29 52 30 65 31 83 32 50 33 51 34
REMARK SMILES IDX 64 36 84 37 53 38 38 39 39 40 47 41 40 42 46 43 41 44 42 45
REMARK SMILES IDX 43 46 44 47 45 48 68 49 69 50 77 51 70 52 76 53 71 54 72 55
REMARK SMILES IDX 73 56 74 57 75 58 54 59 55 60 63 61 56 62 62 63 57 64 58 65
REMARK SMILES IDX 59 66 60 67 61 68 6 69 7 70 8 71 9 72 10 74 11 75 12 76
REMARK SMILES IDX 17 77 13 78 16 79 14 80 15 81 18 82 19 84 20 85 21 86 28 87
REMARK SMILES IDX 22 88 27 89 23 90 26 91 24 93 25 94
REMARK H PARENT 3 6 82 24 52 35 8 73 18 83 22 92
REMARK Flexibility Score: inf
ROOT
ATOM      1  C   UNL A   1      34.689  28.801  27.208  1.00  0.00     0.023 C 
ENDROOT
BRANCH   1   2
ATOM      2  C   UNL A   1      35.356  30.093  27.665  1.00  0.00     0.116 C 
BRANCH   2   3
ATOM      3  N   UNL A   1      35.334  30.269  29.108  1.00  0.00    -0.352 N 
ATOM      4  O   UNL A   1      36.080  30.117  31.230  1.00  0.00    -0.269 OA
ATOM      5  C   UNL A   1      36.324  30.018  30.029  1.00  0.00     0.251 C 
ATOM      6  H   UNL A   1      34.491  30.616  29.479  1.00  0.00     0.163 HD
BRANCH   5   7
ATOM      7  C   UNL A   1      37.669  29.600  29.575  1.00  0.00     0.039 A 
ATOM      8  C   UNL A   1      38.583  29.041  30.469  1.00  0.00     0.014 A 
ATOM      9  C   UNL A   1      38.022  29.780  28.233  1.00  0.00     0.014 A 
ATOM     10  C   UNL A   1      39.890  28.799  30.059  1.00  0.00     0.010 A 
ATOM     11  C   UNL A   1      39.313  29.459  27.805  1.00  0.00     0.010 A 
ATOM     12  C   UNL A   1      40.269  28.999  28.722  1.00  0.00    -0.014 A 
BRANCH  12  13
ATOM     13  C   UNL A   1      41.655  28.666  28.301  1.00  0.00     0.031 A 
ATOM     14  C   UNL A   1      42.744  29.706  28.306  1.00  0.00     0.074 A 
ATOM     15  C   UNL A   1      41.936  27.396  27.952  1.00  0.00     0.049 A 
ATOM     16  N   UNL A   1      44.010  29.568  28.002  1.00  0.00    -0.248 NA
ATOM     17  C   UNL A   1      42.367  31.074  28.694  1.00  0.00     0.031 C 
ATOM     18  C   UNL A   1      40.963  26.300  27.905  1.00  0.00     0.029 A 
ATOM     19  N   UNL A   1      43.120  26.803  27.595  1.00  0.00    -0.354 N 
ATOM     20  C   UNL A   1      44.579  30.828  28.151  1.00  0.00     0.074 A 
ATOM     21  C   UNL A   1      43.513  31.725  28.546  1.00  0.00     0.031 C 
ATOM     22  C   UNL A   1      41.598  25.161  27.590  1.00  0.00     0.029 A 
ATOM     23  C   UNL A   1      43.007  25.455  27.354  1.00  0.00     0.049 A 
ATOM     24  H   UNL A   1      43.968  27.295  27.517  1.00  0.00     0.167 HD
ATOM     25  C   UNL A   1      45.870  31.202  27.981  1.00  0.00     0.031 A 
ATOM     26  C   UNL A   1      43.929  24.551  26.973  1.00  0.00     0.031 A 
ATOM     27  C   UNL A   1      46.928  30.308  27.583  1.00  0.00     0.049 A 
ATOM     28  C   UNL A   1      45.345  24.997  26.765  1.00  0.00     0.074 A 
ATOM     29  C   UNL A   1      48.269  30.591  27.393  1.00  0.00     0.029 A 
ATOM     30  N   UNL A   1      46.765  28.958  27.315  1.00  0.00    -0.354 N 
ATOM     31  N   UNL A   1      45.863  26.191  26.926  1.00  0.00    -0.248 NA
ATOM     32  C   UNL A   1      46.303  23.975  26.323  1.00  0.00     0.031 C 
ATOM     33  C   UNL A   1      48.911  29.421  26.970  1.00  0.00     0.029 A 
ATOM     34  C   UNL A   1      47.977  28.398  26.945  1.00  0.00     0.049 A 
ATOM     35  H   UNL A   1      45.913  28.469  27.377  1.00  0.00     0.167 HD
ATOM     36  C   UNL A   1      47.211  26.062  26.616  1.00  0.00     0.074 A 
ATOM     37  C   UNL A   1      47.432  24.670  26.280  1.00  0.00     0.031 C 
ATOM     38  C   UNL A   1      48.178  27.012  26.605  1.00  0.00     0.031 A 
BRANCH  25  39
ATOM     39  C   UNL A   1      46.213  32.652  28.205  1.00  0.00    -0.014 A 
ATOM     40  C   UNL A   1      46.177  33.578  27.146  1.00  0.00     0.010 A 
ATOM     41  C   UNL A   1      46.525  33.105  29.500  1.00  0.00     0.010 A 
ATOM     42  C   UNL A   1      46.483  34.923  27.373  1.00  0.00     0.020 A 
ATOM     43  C   UNL A   1      46.810  34.454  29.733  1.00  0.00     0.020 A 
ATOM     44  C   UNL A   1      46.803  35.352  28.664  1.00  0.00     0.054 A 
BRANCH  44  45
ATOM     45  S   UNL A   1      47.180  37.107  28.932  1.00  0.00     0.124 S 
ATOM     46  O   UNL A   1      46.151  37.490  29.897  1.00  0.00    -0.237 OA
ATOM     47  O   UNL A   1      48.545  37.068  29.451  1.00  0.00    -0.237 OA
ATOM     48  O   UNL A   1      47.039  37.699  27.604  1.00  0.00    -0.744 OA
ENDBRANCH  44  45
ENDBRANCH  25  39
BRANCH  26  49
ATOM     49  C   UNL A   1      43.526  23.136  26.752  1.00  0.00    -0.014 A 
ATOM     50  C   UNL A   1      43.863  22.473  25.560  1.00  0.00     0.010 A 
ATOM     51  C   UNL A   1      42.822  22.439  27.750  1.00  0.00     0.010 A 
ATOM     52  C   UNL A   1      43.490  21.141  25.365  1.00  0.00     0.020 A 
ATOM     53  C   UNL A   1      42.471  21.100  27.570  1.00  0.00     0.020 A 
ATOM     54  C   UNL A   1      42.796  20.462  26.372  1.00  0.00     0.054 A 
BRANCH  54  55
ATOM     55  S   UNL A   1      42.368  18.717  26.124  1.00  0.00     0.124 S 
ATOM     56  O   UNL A   1      42.651  18.147  27.437  1.00  0.00    -0.237 OA
ATOM     57  O   UNL A   1      40.957  18.784  25.753  1.00  0.00    -0.237 OA
ATOM     58  O   UNL A   1      43.266  18.297  25.050  1.00  0.00    -0.744 OA
ENDBRANCH  54  55
ENDBRANCH  26  49
BRANCH  38  59
ATOM     59  C   UNL A   1      49.567  26.568  26.238  1.00  0.00    -0.014 A 
ATOM     60  C   UNL A   1      50.068  26.757  24.938  1.00  0.00     0.010 A 
ATOM     61  C   UNL A   1      50.390  25.978  27.214  1.00  0.00     0.010 A 
ATOM     62  C   UNL A   1      51.358  26.332  24.611  1.00  0.00     0.020 A 
ATOM     63  C   UNL A   1      51.689  25.575  26.896  1.00  0.00     0.020 A 
ATOM     64  C   UNL A   1      52.158  25.739  25.591  1.00  0.00     0.054 A 
BRANCH  64  65
ATOM     65  S   UNL A   1      53.841  25.222  25.153  1.00  0.00     0.124 S 
ATOM     66  O   UNL A   1      54.038  25.886  23.869  1.00  0.00    -0.237 OA
ATOM     67  O   UNL A   1      54.638  25.746  26.261  1.00  0.00    -0.237 OA
ATOM     68  O   UNL A   1      53.750  23.765  25.096  1.00  0.00    -0.744 OA
ENDBRANCH  64  65
ENDBRANCH  38  59
ENDBRANCH  12  13
ENDBRANCH   5   7
ENDBRANCH   2   3
ENDBRANCH   1   2
BRANCH   1  69
ATOM     69  C   UNL A   1      34.029  28.848  25.831  1.00  0.00     0.023 C 
BRANCH  69  70
ATOM     70  C   UNL A   1      33.140  27.654  25.488  1.00  0.00     0.116 C 
BRANCH  70  71
ATOM     71  N   UNL A   1      33.445  27.081  24.188  1.00  0.00    -0.352 N 
ATOM     72  C   UNL A   1      32.644  26.946  23.083  1.00  0.00     0.255 C 
ATOM     73  H   UNL A   1      34.364  26.740  24.086  1.00  0.00     0.163 HD
ATOM     74  O   UNL A   1      33.026  26.289  22.118  1.00  0.00    -0.269 OA
BRANCH  72  75
ATOM     75  C   UNL A   1      31.312  27.575  23.045  1.00  0.00     0.082 A 
ATOM     76  C   UNL A   1      31.172  28.886  22.575  1.00  0.00     0.021 A 
ATOM     77  C   UNL A   1      30.178  26.843  23.433  1.00  0.00     0.140 A 
ATOM     78  C   UNL A   1      29.916  29.474  22.587  1.00  0.00     0.042 A 
ATOM     79  N   UNL A   1      28.957  27.424  23.452  1.00  0.00    -0.219 NA
ATOM     80  C   UNL A   1      28.860  28.708  23.042  1.00  0.00     0.131 A 
ATOM     81  Cl  UNL A   1      27.278  29.365  23.127  1.00  0.00    -0.062 Cl
BRANCH  77  82
ATOM     82  N   UNL A   1      30.304  25.542  23.886  1.00  0.00    -0.367 N 
ATOM     83  H   UNL A   1      30.252  24.813  23.227  1.00  0.00     0.162 HD
BRANCH  82  84
ATOM     84  C   UNL A   1      30.507  25.197  25.279  1.00  0.00     0.152 C 
BRANCH  84  85
ATOM     85  C   UNL A   1      30.506  23.669  25.526  1.00  0.00     0.192 C 
ATOM     86  C   UNL A   1      31.241  23.301  26.851  1.00  0.00     0.296 C 
ATOM     87  O   UNL A   1      31.032  23.021  24.349  1.00  0.00    -0.364 OA
ATOM     88  N   UNL A   1      32.181  22.169  26.824  1.00  0.00    -0.328 N 
ATOM     89  C   UNL A   1      32.449  22.901  24.407  1.00  0.00     0.225 C 
ATOM     90  C   UNL A   1      33.234  22.287  27.839  1.00  0.00     0.262 C 
ATOM     91  C   UNL A   1      32.821  21.924  25.519  1.00  0.00     0.210 C 
ATOM     92  H   UNL A   1      31.581  21.370  27.031  1.00  0.00     0.348 HD
ATOM     93  C   UNL A   1      34.405  21.519  27.252  1.00  0.00     0.068 C 
ATOM     94  C   UNL A   1      34.321  21.872  25.780  1.00  0.00     0.073 C 
ENDBRANCH  84  85
ENDBRANCH  82  84
ENDBRANCH  77  82
ENDBRANCH  72  75
ENDBRANCH  70  71
ENDBRANCH  69  70
ENDBRANCH   1  69
TORSDOF 17
ENDMDL
