MODEL 1
REMARK VINA RESULT:     -11.8      0.000      0.000
REMARK SMILES [NH3+][C@]1(C(=O)NCCCCNC(=O)c2ccc(-c3c4nc(c(-c5ccc(S(=O)(=O)[O-])cc5)c5ccc([nH]5)c(-c5ccc(S(=O)(=O)[O-])cc5)c5nc(c(-c6ccc(S(=O)(=O)[O-])cc6)c6ccc3[nH]6)C=C5)C=C4)cc2)CC[C@@H](Sc2cc3ccccc3[nH]2)C1
REMARK SMILES IDX 8 1 7 2 6 3 5 4 3 5 4 6 2 8 73 9 86 10 74 11 75 12 1 13
REMARK SMILES IDX 76 17 77 18 78 19 85 20 79 21 84 22 80 24 83 25 81 26 82 27
REMARK SMILES IDX 9 28 10 29 11 30 12 32 13 33 14 34 72 35 15 36 71 37 16 38
REMARK SMILES IDX 17 39 18 40 65 41 19 42 70 43 64 44 66 45 20 46 69 47 63 48
REMARK SMILES IDX 62 49 21 51 51 52 32 53 50 54 33 55 36 56 49 57 67 58 34 59
REMARK SMILES IDX 35 60 48 62 68 63 37 64 22 65 23 66 31 67 24 68 30 69 25 70
REMARK SMILES IDX 26 71 27 72 28 73 29 74 52 75 53 76 61 77 54 78 60 79 55 80
REMARK SMILES IDX 56 81 57 82 58 83 59 84 38 85 39 86 47 87 40 88 46 89 41 90
REMARK SMILES IDX 42 91 43 92 44 93 45 94
REMARK H PARENT 5 7 1 14 1 15 1 16 85 23 10 31 66 50 36 61
REMARK Flexibility Score: inf
ROOT
ATOM      1  C   UNL A   1      36.090  33.508  28.968  1.00  0.00     0.023 C 
ENDROOT
BRANCH   1   2
ATOM      2  C   UNL A   1      34.570  33.451  28.876  1.00  0.00     0.023 C 
BRANCH   2   3
ATOM      3  C   UNL A   1      34.019  32.396  27.928  1.00  0.00     0.116 C 
BRANCH   3   4
ATOM      4  N   UNL A   1      34.955  31.313  27.706  1.00  0.00    -0.351 N 
ATOM      5  C   UNL A   1      34.803  30.056  27.224  1.00  0.00     0.281 C 
ATOM      6  O   UNL A   1      35.830  29.361  27.200  1.00  0.00    -0.268 OA
ATOM      7  H   UNL A   1      35.881  31.533  27.952  1.00  0.00     0.163 HD
BRANCH   5   8
ATOM      8  C   UNL A   1      33.441  29.419  26.829  1.00  0.00     0.175 C 
ATOM      9  C   UNL A   1      32.306  30.303  26.306  1.00  0.00     0.080 C 
ATOM     10  C   UNL A   1      33.717  28.497  25.616  1.00  0.00     0.094 C 
ATOM     11  C   UNL A   1      31.437  29.387  25.462  1.00  0.00     0.022 C 
ATOM     12  C   UNL A   1      32.432  28.458  24.788  1.00  0.00     0.060 C 
BRANCH   8  13
ATOM     13  N   UNL A   1      32.931  28.621  27.977  1.00  0.00    -0.345 N 
ATOM     14  H   UNL A   1      33.076  27.628  27.794  1.00  0.00     0.345 HD
ATOM     15  H   UNL A   1      31.934  28.801  28.100  1.00  0.00     0.345 HD
ATOM     16  H   UNL A   1      33.431  28.887  28.825  1.00  0.00     0.345 HD
ENDBRANCH   8  13
BRANCH  12  17
ATOM     17  S   UNL A   1      32.767  28.769  23.044  1.00  0.00    -0.105 SA
BRANCH  17  18
ATOM     18  C   UNL A   1      31.256  28.797  22.186  1.00  0.00     0.073 A 
ATOM     19  C   UNL A   1      30.093  28.094  22.430  1.00  0.00     0.043 A 
ATOM     20  N   UNL A   1      30.886  29.975  21.585  1.00  0.00    -0.350 N 
ATOM     21  C   UNL A   1      29.089  29.111  22.565  1.00  0.00     0.001 A 
ATOM     22  C   UNL A   1      29.637  30.298  22.074  1.00  0.00     0.046 A 
ATOM     23  H   UNL A   1      31.411  30.489  20.931  1.00  0.00     0.167 HD
ATOM     24  C   UNL A   1      27.839  29.166  23.211  1.00  0.00     0.010 A 
ATOM     25  C   UNL A   1      29.023  31.545  22.214  1.00  0.00     0.027 A 
ATOM     26  C   UNL A   1      27.253  30.418  23.442  1.00  0.00     0.001 A 
ATOM     27  C   UNL A   1      27.842  31.586  22.959  1.00  0.00     0.002 A 
ENDBRANCH  17  18
ENDBRANCH  12  17
ENDBRANCH   5   8
ENDBRANCH   3   4
ENDBRANCH   2   3
ENDBRANCH   1   2
BRANCH   1  28
ATOM     28  C   UNL A   1      36.671  33.165  30.334  1.00  0.00     0.116 C 
BRANCH  28  29
ATOM     29  N   UNL A   1      36.133  31.935  30.900  1.00  0.00    -0.352 N 
ATOM     30  C   UNL A   1      36.695  30.681  30.939  1.00  0.00     0.251 C 
ATOM     31  H   UNL A   1      35.242  32.013  31.311  1.00  0.00     0.163 HD
ATOM     32  O   UNL A   1      36.050  29.725  31.359  1.00  0.00    -0.269 OA
BRANCH  30  33
ATOM     33  C   UNL A   1      38.070  30.494  30.433  1.00  0.00     0.039 A 
ATOM     34  C   UNL A   1      39.104  30.283  31.346  1.00  0.00     0.014 A 
ATOM     35  C   UNL A   1      38.317  30.459  29.059  1.00  0.00     0.014 A 
ATOM     36  C   UNL A   1      40.376  29.950  30.877  1.00  0.00     0.010 A 
ATOM     37  C   UNL A   1      39.558  30.041  28.597  1.00  0.00     0.010 A 
ATOM     38  C   UNL A   1      40.600  29.781  29.500  1.00  0.00    -0.014 A 
BRANCH  38  39
ATOM     39  C   UNL A   1      41.915  29.327  28.979  1.00  0.00     0.031 A 
ATOM     40  C   UNL A   1      43.061  30.294  28.884  1.00  0.00     0.074 A 
ATOM     41  C   UNL A   1      42.053  28.066  28.524  1.00  0.00     0.049 A 
ATOM     42  N   UNL A   1      44.266  30.103  28.411  1.00  0.00    -0.248 NA
ATOM     43  C   UNL A   1      42.811  31.666  29.356  1.00  0.00     0.031 C 
ATOM     44  C   UNL A   1      41.006  27.043  28.525  1.00  0.00     0.029 A 
ATOM     45  N   UNL A   1      43.137  27.431  27.972  1.00  0.00    -0.354 N 
ATOM     46  C   UNL A   1      44.906  31.332  28.506  1.00  0.00     0.074 A 
ATOM     47  C   UNL A   1      43.940  32.273  29.027  1.00  0.00     0.031 C 
ATOM     48  C   UNL A   1      41.512  25.896  28.042  1.00  0.00     0.029 A 
ATOM     49  C   UNL A   1      42.903  26.114  27.656  1.00  0.00     0.049 A 
ATOM     50  H   UNL A   1      44.001  27.877  27.815  1.00  0.00     0.167 HD
ATOM     51  C   UNL A   1      46.190  31.647  28.208  1.00  0.00     0.031 A 
ATOM     52  C   UNL A   1      43.718  25.182  27.122  1.00  0.00     0.031 A 
ATOM     53  C   UNL A   1      47.151  30.708  27.696  1.00  0.00     0.049 A 
ATOM     54  C   UNL A   1      45.133  25.556  26.782  1.00  0.00     0.074 A 
ATOM     55  C   UNL A   1      48.490  30.909  27.416  1.00  0.00     0.029 A 
ATOM     56  N   UNL A   1      46.869  29.386  27.379  1.00  0.00    -0.354 N 
ATOM     57  N   UNL A   1      45.741  26.707  26.938  1.00  0.00    -0.248 NA
ATOM     58  C   UNL A   1      45.973  24.501  26.199  1.00  0.00     0.031 C 
ATOM     59  C   UNL A   1      49.007  29.722  26.883  1.00  0.00     0.029 A 
ATOM     60  C   UNL A   1      48.004  28.767  26.883  1.00  0.00     0.049 A 
ATOM     61  H   UNL A   1      45.992  28.952  27.491  1.00  0.00     0.167 HD
ATOM     62  C   UNL A   1      47.047  26.508  26.500  1.00  0.00     0.074 A 
ATOM     63  C   UNL A   1      47.138  25.124  26.079  1.00  0.00     0.031 C 
ATOM     64  C   UNL A   1      48.076  27.390  26.459  1.00  0.00     0.031 A 
BRANCH  51  65
ATOM     65  C   UNL A   1      46.607  33.081  28.417  1.00  0.00    -0.014 A 
ATOM     66  C   UNL A   1      47.111  33.520  29.656  1.00  0.00     0.010 A 
ATOM     67  C   UNL A   1      46.465  34.009  27.369  1.00  0.00     0.010 A 
ATOM     68  C   UNL A   1      47.392  34.871  29.866  1.00  0.00     0.020 A 
ATOM     69  C   UNL A   1      46.777  35.357  27.567  1.00  0.00     0.020 A 
ATOM     70  C   UNL A   1      47.209  35.784  28.824  1.00  0.00     0.054 A 
BRANCH  70  71
ATOM     71  S   UNL A   1      47.544  37.540  29.133  1.00  0.00     0.124 S 
ATOM     72  O   UNL A   1      46.585  37.845  30.192  1.00  0.00    -0.237 OA
ATOM     73  O   UNL A   1      48.947  37.534  29.540  1.00  0.00    -0.237 OA
ATOM     74  O   UNL A   1      47.275  38.175  27.846  1.00  0.00    -0.744 OA
ENDBRANCH  70  71
ENDBRANCH  51  65
BRANCH  52  75
ATOM     75  C   UNL A   1      43.222  23.792  26.932  1.00  0.00    -0.014 A 
ATOM     76  C   UNL A   1      42.808  23.364  25.659  1.00  0.00     0.010 A 
ATOM     77  C   UNL A   1      43.205  22.879  28.002  1.00  0.00     0.010 A 
ATOM     78  C   UNL A   1      42.386  22.047  25.457  1.00  0.00     0.020 A 
ATOM     79  C   UNL A   1      42.805  21.555  27.798  1.00  0.00     0.020 A 
ATOM     80  C   UNL A   1      42.395  21.148  26.527  1.00  0.00     0.054 A 
BRANCH  80  81
ATOM     81  S   UNL A   1      41.924  19.423  26.220  1.00  0.00     0.124 S 
ATOM     82  O   UNL A   1      42.768  19.075  25.080  1.00  0.00    -0.237 OA
ATOM     83  O   UNL A   1      42.267  18.773  27.483  1.00  0.00    -0.237 OA
ATOM     84  O   UNL A   1      40.492  19.504  25.938  1.00  0.00    -0.744 OA
ENDBRANCH  80  81
ENDBRANCH  52  75
BRANCH  64  85
ATOM     85  C   UNL A   1      49.403  26.879  25.965  1.00  0.00    -0.014 A 
ATOM     86  C   UNL A   1      49.811  27.072  24.633  1.00  0.00     0.010 A 
ATOM     87  C   UNL A   1      50.278  26.242  26.865  1.00  0.00     0.010 A 
ATOM     88  C   UNL A   1      51.058  26.612  24.203  1.00  0.00     0.020 A 
ATOM     89  C   UNL A   1      51.537  25.806  26.446  1.00  0.00     0.020 A 
ATOM     90  C   UNL A   1      51.914  25.982  25.114  1.00  0.00     0.054 A 
BRANCH  90  91
ATOM     91  S   UNL A   1      53.548  25.437  24.544  1.00  0.00     0.124 S 
ATOM     92  O   UNL A   1      53.513  25.802  23.130  1.00  0.00    -0.237 OA
ATOM     93  O   UNL A   1      54.456  26.223  25.375  1.00  0.00    -0.237 OA
ATOM     94  O   UNL A   1      53.548  24.002  24.817  1.00  0.00    -0.744 OA
ENDBRANCH  90  91
ENDBRANCH  64  85
ENDBRANCH  38  39
ENDBRANCH  30  33
ENDBRANCH  28  29
ENDBRANCH   1  28
TORSDOF 17
ENDMDL
MODEL 2
REMARK VINA RESULT:     -11.3      4.329     10.310
REMARK SMILES [NH3+][C@]1(C(=O)NCCCCNC(=O)c2ccc(-c3c4nc(c(-c5ccc(S(=O)(=O)[O-])cc5)c5ccc([nH]5)c(-c5ccc(S(=O)(=O)[O-])cc5)c5nc(c(-c6ccc(S(=O)(=O)[O-])cc6)c6ccc3[nH]6)C=C5)C=C4)cc2)CC[C@@H](Sc2cc3ccccc3[nH]2)C1
REMARK SMILES IDX 8 1 7 2 6 3 5 4 3 5 4 6 2 8 73 9 86 10 74 11 75 12 1 13
REMARK SMILES IDX 76 17 77 18 78 19 85 20 79 21 84 22 80 24 83 25 81 26 82 27
REMARK SMILES IDX 9 28 10 29 11 30 12 32 13 33 14 34 72 35 15 36 71 37 16 38
REMARK SMILES IDX 17 39 18 40 65 41 19 42 70 43 64 44 66 45 20 46 69 47 63 48
REMARK SMILES IDX 62 49 21 51 51 52 32 53 50 54 33 55 36 56 49 57 67 58 34 59
REMARK SMILES IDX 35 60 48 62 68 63 37 64 22 65 23 66 31 67 24 68 30 69 25 70
REMARK SMILES IDX 26 71 27 72 28 73 29 74 52 75 53 76 61 77 54 78 60 79 55 80
REMARK SMILES IDX 56 81 57 82 58 83 59 84 38 85 39 86 47 87 40 88 46 89 41 90
REMARK SMILES IDX 42 91 43 92 44 93 45 94
REMARK H PARENT 5 7 1 14 1 15 1 16 85 23 10 31 66 50 36 61
REMARK Flexibility Score: inf
ROOT
ATOM      1  C   UNL A   1      36.048  22.860  24.515  1.00  0.00     0.023 C 
ENDROOT
BRANCH   1   2
ATOM      2  C   UNL A   1      35.537  21.430  24.643  1.00  0.00     0.023 C 
BRANCH   2   3
ATOM      3  C   UNL A   1      34.046  21.253  24.394  1.00  0.00     0.116 C 
BRANCH   3   4
ATOM      4  N   UNL A   1      33.238  22.038  25.304  1.00  0.00    -0.351 N 
ATOM      5  C   UNL A   1      32.339  23.032  25.107  1.00  0.00     0.281 C 
ATOM      6  O   UNL A   1      31.844  23.522  26.133  1.00  0.00    -0.268 OA
ATOM      7  H   UNL A   1      33.367  21.802  26.251  1.00  0.00     0.163 HD
BRANCH   5   8
ATOM      8  C   UNL A   1      31.997  23.653  23.723  1.00  0.00     0.175 C 
ATOM      9  C   UNL A   1      30.795  24.589  23.580  1.00  0.00     0.080 C 
ATOM     10  C   UNL A   1      33.177  24.583  23.349  1.00  0.00     0.094 C 
ATOM     11  C   UNL A   1      31.105  25.462  22.378  1.00  0.00     0.022 C 
ATOM     12  C   UNL A   1      32.603  25.694  22.471  1.00  0.00     0.060 C 
BRANCH   8  13
ATOM     13  N   UNL A   1      31.867  22.557  22.723  1.00  0.00    -0.345 N 
ATOM     14  H   UNL A   1      32.793  22.287  22.392  1.00  0.00     0.345 HD
ATOM     15  H   UNL A   1      31.305  22.880  21.936  1.00  0.00     0.345 HD
ATOM     16  H   UNL A   1      31.414  21.753  23.157  1.00  0.00     0.345 HD
ENDBRANCH   8  13
BRANCH  12  17
ATOM     17  S   UNL A   1      33.131  27.320  23.043  1.00  0.00    -0.105 SA
BRANCH  17  18
ATOM     18  C   UNL A   1      32.882  27.412  24.760  1.00  0.00     0.073 A 
ATOM     19  C   UNL A   1      33.782  27.222  25.790  1.00  0.00     0.043 A 
ATOM     20  N   UNL A   1      31.936  28.293  25.221  1.00  0.00    -0.350 N 
ATOM     21  C   UNL A   1      33.712  28.440  26.547  1.00  0.00     0.001 A 
ATOM     22  C   UNL A   1      32.567  29.119  26.128  1.00  0.00     0.046 A 
ATOM     23  H   UNL A   1      30.989  28.327  24.956  1.00  0.00     0.167 HD
ATOM     24  C   UNL A   1      34.602  29.097  27.418  1.00  0.00     0.010 A 
ATOM     25  C   UNL A   1      32.269  30.431  26.506  1.00  0.00     0.027 A 
ATOM     26  C   UNL A   1      34.367  30.443  27.733  1.00  0.00     0.001 A 
ATOM     27  C   UNL A   1      33.224  31.098  27.275  1.00  0.00     0.002 A 
ENDBRANCH  17  18
ENDBRANCH  12  17
ENDBRANCH   5   8
ENDBRANCH   3   4
ENDBRANCH   2   3
ENDBRANCH   1   2
BRANCH   1  28
ATOM     28  C   UNL A   1      36.934  23.338  25.659  1.00  0.00     0.116 C 
BRANCH  28  29
ATOM     29  N   UNL A   1      38.127  22.523  25.845  1.00  0.00    -0.352 N 
ATOM     30  C   UNL A   1      39.345  22.880  26.372  1.00  0.00     0.251 C 
ATOM     31  H   UNL A   1      38.049  21.587  25.553  1.00  0.00     0.163 HD
ATOM     32  O   UNL A   1      40.284  22.090  26.353  1.00  0.00    -0.269 OA
BRANCH  30  33
ATOM     33  C   UNL A   1      39.519  24.238  26.926  1.00  0.00     0.039 A 
ATOM     34  C   UNL A   1      39.115  24.491  28.238  1.00  0.00     0.014 A 
ATOM     35  C   UNL A   1      40.143  25.232  26.171  1.00  0.00     0.014 A 
ATOM     36  C   UNL A   1      39.416  25.721  28.824  1.00  0.00     0.010 A 
ATOM     37  C   UNL A   1      40.520  26.422  26.783  1.00  0.00     0.010 A 
ATOM     38  C   UNL A   1      40.162  26.678  28.115  1.00  0.00    -0.014 A 
BRANCH  38  39
ATOM     39  C   UNL A   1      40.586  27.954  28.746  1.00  0.00     0.031 A 
ATOM     40  C   UNL A   1      41.983  28.100  29.280  1.00  0.00     0.074 A 
ATOM     41  C   UNL A   1      39.692  28.950  28.905  1.00  0.00     0.049 A 
ATOM     42  N   UNL A   1      42.525  29.112  29.908  1.00  0.00    -0.248 NA
ATOM     43  C   UNL A   1      42.880  26.946  29.111  1.00  0.00     0.031 C 
ATOM     44  C   UNL A   1      38.296  28.917  28.466  1.00  0.00     0.029 A 
ATOM     45  N   UNL A   1      39.830  30.188  29.480  1.00  0.00    -0.354 N 
ATOM     46  C   UNL A   1      43.814  28.707  30.230  1.00  0.00     0.074 A 
ATOM     47  C   UNL A   1      43.954  27.341  29.779  1.00  0.00     0.031 C 
ATOM     48  C   UNL A   1      37.719  30.097  28.746  1.00  0.00     0.029 A 
ATOM     49  C   UNL A   1      38.689  30.953  29.423  1.00  0.00     0.049 A 
ATOM     50  H   UNL A   1      40.666  30.500  29.896  1.00  0.00     0.167 HD
ATOM     51  C   UNL A   1      44.804  29.415  30.827  1.00  0.00     0.031 A 
ATOM     52  C   UNL A   1      38.450  32.205  29.861  1.00  0.00     0.031 A 
ATOM     53  C   UNL A   1      44.665  30.777  31.269  1.00  0.00     0.049 A 
ATOM     54  C   UNL A   1      39.556  32.967  30.536  1.00  0.00     0.074 A 
ATOM     55  C   UNL A   1      45.621  31.603  31.831  1.00  0.00     0.029 A 
ATOM     56  N   UNL A   1      43.489  31.511  31.203  1.00  0.00    -0.354 N 
ATOM     57  N   UNL A   1      40.789  32.592  30.775  1.00  0.00    -0.248 NA
ATOM     58  C   UNL A   1      39.236  34.326  30.996  1.00  0.00     0.031 C 
ATOM     59  C   UNL A   1      45.010  32.821  32.151  1.00  0.00     0.029 A 
ATOM     60  C   UNL A   1      43.688  32.772  31.738  1.00  0.00     0.049 A 
ATOM     61  H   UNL A   1      42.638  31.183  30.831  1.00  0.00     0.167 HD
ATOM     62  C   UNL A   1      41.404  33.680  31.386  1.00  0.00     0.074 A 
ATOM     63  C   UNL A   1      40.406  34.728  31.475  1.00  0.00     0.031 C 
ATOM     64  C   UNL A   1      42.681  33.800  31.827  1.00  0.00     0.031 A 
BRANCH  51  65
ATOM     65  C   UNL A   1      46.114  28.704  31.047  1.00  0.00    -0.014 A 
ATOM     66  C   UNL A   1      46.379  28.019  32.249  1.00  0.00     0.010 A 
ATOM     67  C   UNL A   1      47.106  28.744  30.051  1.00  0.00     0.010 A 
ATOM     68  C   UNL A   1      47.636  27.456  32.480  1.00  0.00     0.020 A 
ATOM     69  C   UNL A   1      48.355  28.152  30.266  1.00  0.00     0.020 A 
ATOM     70  C   UNL A   1      48.621  27.539  31.492  1.00  0.00     0.054 A 
BRANCH  70  71
ATOM     71  S   UNL A   1      50.258  26.834  31.831  1.00  0.00     0.124 S 
ATOM     72  O   UNL A   1      50.095  25.461  31.356  1.00  0.00    -0.237 OA
ATOM     73  O   UNL A   1      51.143  27.674  31.027  1.00  0.00    -0.237 OA
ATOM     74  O   UNL A   1      50.406  26.982  33.275  1.00  0.00    -0.744 OA
ENDBRANCH  70  71
ENDBRANCH  51  65
BRANCH  52  75
ATOM     75  C   UNL A   1      37.122  32.829  29.619  1.00  0.00    -0.014 A 
ATOM     76  C   UNL A   1      36.171  32.878  30.653  1.00  0.00     0.010 A 
ATOM     77  C   UNL A   1      36.816  33.417  28.378  1.00  0.00     0.010 A 
ATOM     78  C   UNL A   1      34.937  33.504  30.453  1.00  0.00     0.020 A 
ATOM     79  C   UNL A   1      35.591  34.064  28.182  1.00  0.00     0.020 A 
ATOM     80  C   UNL A   1      34.659  34.101  29.221  1.00  0.00     0.054 A 
BRANCH  80  81
ATOM     81  S   UNL A   1      33.085  34.981  29.015  1.00  0.00     0.124 S 
ATOM     82  O   UNL A   1      32.501  34.877  30.349  1.00  0.00    -0.237 OA
ATOM     83  O   UNL A   1      33.522  36.317  28.617  1.00  0.00    -0.237 OA
ATOM     84  O   UNL A   1      32.402  34.221  27.970  1.00  0.00    -0.744 OA
ENDBRANCH  80  81
ENDBRANCH  52  75
BRANCH  64  85
ATOM     85  C   UNL A   1      43.083  35.124  32.422  1.00  0.00    -0.014 A 
ATOM     86  C   UNL A   1      43.617  36.151  31.624  1.00  0.00     0.010 A 
ATOM     87  C   UNL A   1      42.870  35.359  33.793  1.00  0.00     0.010 A 
ATOM     88  C   UNL A   1      43.957  37.381  32.193  1.00  0.00     0.020 A 
ATOM     89  C   UNL A   1      43.185  36.597  34.360  1.00  0.00     0.020 A 
ATOM     90  C   UNL A   1      43.739  37.596  33.558  1.00  0.00     0.054 A 
BRANCH  90  91
ATOM     91  S   UNL A   1      44.145  39.217  34.263  1.00  0.00     0.124 S 
ATOM     92  O   UNL A   1      43.031  40.039  33.798  1.00  0.00    -0.237 OA
ATOM     93  O   UNL A   1      44.170  38.946  35.698  1.00  0.00    -0.237 OA
ATOM     94  O   UNL A   1      45.443  39.536  33.674  1.00  0.00    -0.744 OA
ENDBRANCH  90  91
ENDBRANCH  64  85
ENDBRANCH  38  39
ENDBRANCH  30  33
ENDBRANCH  28  29
ENDBRANCH   1  28
TORSDOF 17
ENDMDL
MODEL 3
REMARK VINA RESULT:     -11.2      6.520     11.953
REMARK SMILES [NH3+][C@]1(C(=O)NCCCCNC(=O)c2ccc(-c3c4nc(c(-c5ccc(S(=O)(=O)[O-])cc5)c5ccc([nH]5)c(-c5ccc(S(=O)(=O)[O-])cc5)c5nc(c(-c6ccc(S(=O)(=O)[O-])cc6)c6ccc3[nH]6)C=C5)C=C4)cc2)CC[C@@H](Sc2cc3ccccc3[nH]2)C1
REMARK SMILES IDX 8 1 7 2 6 3 5 4 3 5 4 6 2 8 73 9 86 10 74 11 75 12 1 13
REMARK SMILES IDX 76 17 77 18 78 19 85 20 79 21 84 22 80 24 83 25 81 26 82 27
REMARK SMILES IDX 9 28 10 29 11 30 12 32 13 33 14 34 72 35 15 36 71 37 16 38
REMARK SMILES IDX 17 39 18 40 65 41 19 42 70 43 64 44 66 45 20 46 69 47 63 48
REMARK SMILES IDX 62 49 21 51 51 52 32 53 50 54 33 55 36 56 49 57 67 58 34 59
REMARK SMILES IDX 35 60 48 62 68 63 37 64 22 65 23 66 31 67 24 68 30 69 25 70
REMARK SMILES IDX 26 71 27 72 28 73 29 74 52 75 53 76 61 77 54 78 60 79 55 80
REMARK SMILES IDX 56 81 57 82 58 83 59 84 38 85 39 86 47 87 40 88 46 89 41 90
REMARK SMILES IDX 42 91 43 92 44 93 45 94
REMARK H PARENT 5 7 1 14 1 15 1 16 85 23 10 31 66 50 36 61
REMARK Flexibility Score: inf
ROOT
ATOM      1  C   UNL A   1      37.725  22.699  26.037  1.00  0.00     0.023 C 
ENDROOT
BRANCH   1   2
ATOM      2  C   UNL A   1      36.560  22.866  25.069  1.00  0.00     0.023 C 
BRANCH   2   3
ATOM      3  C   UNL A   1      35.819  24.192  25.173  1.00  0.00     0.116 C 
BRANCH   3   4
ATOM      4  N   UNL A   1      34.456  24.027  25.634  1.00  0.00    -0.351 N 
ATOM      5  C   UNL A   1      33.257  24.182  25.023  1.00  0.00     0.281 C 
ATOM      6  O   UNL A   1      32.261  23.990  25.735  1.00  0.00    -0.268 OA
ATOM      7  H   UNL A   1      34.388  23.747  26.575  1.00  0.00     0.163 HD
BRANCH   5   8
ATOM      8  C   UNL A   1      33.068  24.686  23.564  1.00  0.00     0.175 C 
ATOM      9  C   UNL A   1      31.659  24.862  22.992  1.00  0.00     0.080 C 
ATOM     10  C   UNL A   1      33.618  26.133  23.519  1.00  0.00     0.094 C 
ATOM     11  C   UNL A   1      31.797  25.901  21.894  1.00  0.00     0.022 C 
ATOM     12  C   UNL A   1      32.832  26.871  22.436  1.00  0.00     0.060 C 
BRANCH   8  13
ATOM     13  N   UNL A   1      33.847  23.810  22.647  1.00  0.00    -0.345 N 
ATOM     14  H   UNL A   1      34.099  22.948  23.131  1.00  0.00     0.345 HD
ATOM     15  H   UNL A   1      34.694  24.294  22.353  1.00  0.00     0.345 HD
ATOM     16  H   UNL A   1      33.281  23.587  21.828  1.00  0.00     0.345 HD
ENDBRANCH   8  13
BRANCH  12  17
ATOM     17  S   UNL A   1      32.213  28.453  23.038  1.00  0.00    -0.105 SA
BRANCH  17  18
ATOM     18  C   UNL A   1      30.661  28.753  22.315  1.00  0.00     0.073 A 
ATOM     19  C   UNL A   1      29.401  28.413  22.766  1.00  0.00     0.043 A 
ATOM     20  N   UNL A   1      30.516  29.893  21.566  1.00  0.00    -0.350 N 
ATOM     21  C   UNL A   1      28.696  29.663  22.818  1.00  0.00     0.001 A 
ATOM     22  C   UNL A   1      29.451  30.590  22.099  1.00  0.00     0.046 A 
ATOM     23  H   UNL A   1      31.067  30.161  20.795  1.00  0.00     0.167 HD
ATOM     24  C   UNL A   1      27.585  30.124  23.549  1.00  0.00     0.010 A 
ATOM     25  C   UNL A   1      29.178  31.960  22.086  1.00  0.00     0.027 A 
ATOM     26  C   UNL A   1      27.352  31.504  23.623  1.00  0.00     0.001 A 
ATOM     27  C   UNL A   1      28.143  32.405  22.910  1.00  0.00     0.002 A 
ENDBRANCH  17  18
ENDBRANCH  12  17
ENDBRANCH   5   8
ENDBRANCH   3   4
ENDBRANCH   2   3
ENDBRANCH   1   2
BRANCH   1  28
ATOM     28  C   UNL A   1      38.469  23.982  26.386  1.00  0.00     0.116 C 
BRANCH  28  29
ATOM     29  N   UNL A   1      39.888  23.935  26.058  1.00  0.00    -0.352 N 
ATOM     30  C   UNL A   1      40.898  24.775  26.462  1.00  0.00     0.251 C 
ATOM     31  H   UNL A   1      40.161  23.198  25.465  1.00  0.00     0.163 HD
ATOM     32  O   UNL A   1      42.028  24.654  25.998  1.00  0.00    -0.269 OA
BRANCH  30  33
ATOM     33  C   UNL A   1      40.596  25.849  27.430  1.00  0.00     0.039 A 
ATOM     34  C   UNL A   1      39.719  25.584  28.484  1.00  0.00     0.014 A 
ATOM     35  C   UNL A   1      41.234  27.087  27.332  1.00  0.00     0.014 A 
ATOM     36  C   UNL A   1      39.549  26.535  29.490  1.00  0.00     0.010 A 
ATOM     37  C   UNL A   1      41.131  27.995  28.378  1.00  0.00     0.010 A 
ATOM     38  C   UNL A   1      40.289  27.729  29.468  1.00  0.00    -0.014 A 
BRANCH  38  39
ATOM     39  C   UNL A   1      40.206  28.713  30.577  1.00  0.00     0.031 A 
ATOM     40  C   UNL A   1      41.124  28.592  31.760  1.00  0.00     0.074 A 
ATOM     41  C   UNL A   1      39.256  29.669  30.552  1.00  0.00     0.049 A 
ATOM     42  N   UNL A   1      41.171  29.319  32.847  1.00  0.00    -0.248 NA
ATOM     43  C   UNL A   1      42.099  27.490  31.732  1.00  0.00     0.031 C 
ATOM     44  C   UNL A   1      38.279  29.869  29.480  1.00  0.00     0.029 A 
ATOM     45  N   UNL A   1      38.958  30.655  31.459  1.00  0.00    -0.354 N 
ATOM     46  C   UNL A   1      42.160  28.749  33.638  1.00  0.00     0.074 A 
ATOM     47  C   UNL A   1      42.646  27.584  32.934  1.00  0.00     0.031 C 
ATOM     48  C   UNL A   1      37.522  30.939  29.769  1.00  0.00     0.029 A 
ATOM     49  C   UNL A   1      37.927  31.474  31.064  1.00  0.00     0.049 A 
ATOM     50  H   UNL A   1      39.437  30.765  32.312  1.00  0.00     0.167 HD
ATOM     51  C   UNL A   1      42.638  29.168  34.835  1.00  0.00     0.031 A 
ATOM     52  C   UNL A   1      37.375  32.542  31.674  1.00  0.00     0.031 A 
ATOM     53  C   UNL A   1      42.158  30.331  35.531  1.00  0.00     0.049 A 
ATOM     54  C   UNL A   1      37.908  32.980  33.009  1.00  0.00     0.074 A 
ATOM     55  C   UNL A   1      42.613  30.875  36.718  1.00  0.00     0.029 A 
ATOM     56  N   UNL A   1      41.104  31.127  35.102  1.00  0.00    -0.354 N 
ATOM     57  N   UNL A   1      38.887  32.467  33.714  1.00  0.00    -0.248 NA
ATOM     58  C   UNL A   1      37.263  34.147  33.627  1.00  0.00     0.031 C 
ATOM     59  C   UNL A   1      41.801  31.971  37.034  1.00  0.00     0.029 A 
ATOM     60  C   UNL A   1      40.877  32.143  36.016  1.00  0.00     0.049 A 
ATOM     61  H   UNL A   1      40.593  30.989  34.272  1.00  0.00     0.167 HD
ATOM     62  C   UNL A   1      38.997  33.267  34.847  1.00  0.00     0.074 A 
ATOM     63  C   UNL A   1      37.987  34.300  34.728  1.00  0.00     0.031 C 
ATOM     64  C   UNL A   1      39.861  33.158  35.886  1.00  0.00     0.031 A 
BRANCH  51  65
ATOM     65  C   UNL A   1      43.728  28.336  35.463  1.00  0.00    -0.014 A 
ATOM     66  C   UNL A   1      45.083  28.553  35.148  1.00  0.00     0.010 A 
ATOM     67  C   UNL A   1      43.391  27.305  36.359  1.00  0.00     0.010 A 
ATOM     68  C   UNL A   1      46.071  27.706  35.655  1.00  0.00     0.020 A 
ATOM     69  C   UNL A   1      44.381  26.477  36.894  1.00  0.00     0.020 A 
ATOM     70  C   UNL A   1      45.711  26.664  36.514  1.00  0.00     0.054 A 
BRANCH  70  71
ATOM     71  S   UNL A   1      47.008  25.554  37.129  1.00  0.00     0.124 S 
ATOM     72  O   UNL A   1      47.939  26.496  37.746  1.00  0.00    -0.237 OA
ATOM     73  O   UNL A   1      46.280  24.693  38.059  1.00  0.00    -0.237 OA
ATOM     74  O   UNL A   1      47.496  24.891  35.924  1.00  0.00    -0.744 OA
ENDBRANCH  70  71
ENDBRANCH  51  65
BRANCH  52  75
ATOM     75  C   UNL A   1      36.290  33.299  30.992  1.00  0.00    -0.014 A 
ATOM     76  C   UNL A   1      35.094  33.577  31.676  1.00  0.00     0.010 A 
ATOM     77  C   UNL A   1      36.460  33.783  29.683  1.00  0.00     0.010 A 
ATOM     78  C   UNL A   1      34.086  34.329  31.065  1.00  0.00     0.020 A 
ATOM     79  C   UNL A   1      35.464  34.554  29.077  1.00  0.00     0.020 A 
ATOM     80  C   UNL A   1      34.281  34.820  29.771  1.00  0.00     0.054 A 
BRANCH  80  81
ATOM     81  S   UNL A   1      32.994  35.864  29.032  1.00  0.00     0.124 S 
ATOM     82  O   UNL A   1      32.342  34.937  28.111  1.00  0.00    -0.237 OA
ATOM     83  O   UNL A   1      32.205  36.261  30.195  1.00  0.00    -0.237 OA
ATOM     84  O   UNL A   1      33.750  36.945  28.403  1.00  0.00    -0.744 OA
ENDBRANCH  80  81
ENDBRANCH  52  75
BRANCH  64  85
ATOM     85  C   UNL A   1      39.773  34.201  36.968  1.00  0.00    -0.014 A 
ATOM     86  C   UNL A   1      40.302  35.490  36.786  1.00  0.00     0.010 A 
ATOM     87  C   UNL A   1      39.099  33.899  38.167  1.00  0.00     0.010 A 
ATOM     88  C   UNL A   1      40.184  36.451  37.794  1.00  0.00     0.020 A 
ATOM     89  C   UNL A   1      38.956  34.865  39.166  1.00  0.00     0.020 A 
ATOM     90  C   UNL A   1      39.511  36.131  38.978  1.00  0.00     0.054 A 
BRANCH  90  91
ATOM     91  S   UNL A   1      39.330  37.410  40.252  1.00  0.00     0.124 S 
ATOM     92  O   UNL A   1      40.720  37.756  40.535  1.00  0.00    -0.237 OA
ATOM     93  O   UNL A   1      38.552  38.438  39.566  1.00  0.00    -0.237 OA
ATOM     94  O   UNL A   1      38.626  36.724  41.333  1.00  0.00    -0.744 OA
ENDBRANCH  90  91
ENDBRANCH  64  85
ENDBRANCH  38  39
ENDBRANCH  30  33
ENDBRANCH  28  29
ENDBRANCH   1  28
TORSDOF 17
ENDMDL
