MODEL 1
REMARK VINA RESULT:     -10.3      0.000      0.000
REMARK SMILES CC(=O)Oc1ccccc1C(=O)NCCCCNC(=O)c1ccc(-c2c3nc(c(-c4ccc(S(=O)(=O)[O-])cc4)c4ccc([nH]4)c(-c4ccc(S(=O)(=O)[O-])cc4)c4nc(c(-c5ccc(S(=O)(=O)[O-])cc5)c5ccc2[nH]5)C=C4)C=C3)cc1
REMARK SMILES IDX 16 1 15 2 14 3 13 4 11 5 12 6 10 8 5 9 6 10 7 11 9 12 8 13
REMARK SMILES IDX 4 14 2 15 1 16 3 17 17 18 18 19 19 20 20 22 21 23 22 24
REMARK SMILES IDX 80 25 23 26 79 27 24 28 25 29 26 30 73 31 27 32 78 33 72 34
REMARK SMILES IDX 74 35 28 36 77 37 71 38 70 39 29 41 59 42 40 43 58 44 41 45
REMARK SMILES IDX 44 46 57 47 75 48 42 49 43 50 56 52 76 53 45 54 30 55 31 56
REMARK SMILES IDX 39 57 32 58 38 59 33 60 34 61 35 62 36 63 37 64 60 65 61 66
REMARK SMILES IDX 69 67 62 68 68 69 63 70 64 71 65 72 66 73 67 74 46 75 47 76
REMARK SMILES IDX 55 77 48 78 54 79 49 80 50 81 51 82 52 83 53 84
REMARK H PARENT 13 7 18 21 74 40 44 51
REMARK Flexibility Score: inf
ROOT
ATOM      1  C   UNL A   1      31.781  28.376  26.663  1.00  0.00     0.023 C 
ENDROOT
BRANCH   1   2
ATOM      2  C   UNL A   1      31.343  26.924  26.847  1.00  0.00     0.023 C 
BRANCH   2   3
ATOM      3  C   UNL A   1      32.148  25.862  26.117  1.00  0.00     0.116 C 
BRANCH   3   4
ATOM      4  N   UNL A   1      31.418  24.965  25.257  1.00  0.00    -0.352 N 
ATOM      5  C   UNL A   1      30.820  25.210  24.039  1.00  0.00     0.255 C 
ATOM      6  O   UNL A   1      30.317  24.249  23.454  1.00  0.00    -0.269 OA
ATOM      7  H   UNL A   1      31.334  24.042  25.588  1.00  0.00     0.163 HD
BRANCH   5   8
ATOM      8  C   UNL A   1      30.646  26.574  23.450  1.00  0.00     0.082 A 
ATOM      9  C   UNL A   1      31.612  27.392  22.848  1.00  0.00     0.143 A 
ATOM     10  C   UNL A   1      31.305  28.702  22.446  1.00  0.00     0.048 A 
ATOM     11  C   UNL A   1      30.009  29.193  22.574  1.00  0.00     0.004 A 
ATOM     12  C   UNL A   1      29.330  27.081  23.526  1.00  0.00     0.018 A 
ATOM     13  C   UNL A   1      29.014  28.375  23.096  1.00  0.00     0.001 A 
BRANCH   9  14
ATOM     14  O   UNL A   1      32.962  27.050  22.684  1.00  0.00    -0.426 OA
BRANCH  14  15
ATOM     15  C   UNL A   1      33.247  25.870  22.009  1.00  0.00     0.308 C 
ATOM     16  C   UNL A   1      32.532  25.890  20.685  1.00  0.00     0.139 C 
ATOM     17  O   UNL A   1      33.935  24.944  22.421  1.00  0.00    -0.252 OA
ENDBRANCH  14  15
ENDBRANCH   9  14
ENDBRANCH   5   8
ENDBRANCH   3   4
ENDBRANCH   2   3
ENDBRANCH   1   2
BRANCH   1  18
ATOM     18  C   UNL A   1      33.156  28.779  27.193  1.00  0.00     0.116 C 
BRANCH  18  19
ATOM     19  N   UNL A   1      33.266  30.161  27.640  1.00  0.00    -0.352 N 
ATOM     20  C   UNL A   1      34.361  30.847  28.123  1.00  0.00     0.251 C 
ATOM     21  H   UNL A   1      32.433  30.684  27.589  1.00  0.00     0.163 HD
ATOM     22  O   UNL A   1      34.245  32.029  28.435  1.00  0.00    -0.269 OA
BRANCH  20  23
ATOM     23  C   UNL A   1      35.650  30.148  28.335  1.00  0.00     0.039 A 
ATOM     24  C   UNL A   1      36.554  30.086  27.271  1.00  0.00     0.014 A 
ATOM     25  C   UNL A   1      36.002  29.614  29.578  1.00  0.00     0.014 A 
ATOM     26  C   UNL A   1      37.847  29.600  27.485  1.00  0.00     0.010 A 
ATOM     27  C   UNL A   1      37.316  29.208  29.810  1.00  0.00     0.010 A 
ATOM     28  C   UNL A   1      38.261  29.220  28.773  1.00  0.00    -0.014 A 
BRANCH  28  29
ATOM     29  C   UNL A   1      39.693  28.912  29.046  1.00  0.00     0.031 A 
ATOM     30  C   UNL A   1      40.599  29.926  29.687  1.00  0.00     0.074 A 
ATOM     31  C   UNL A   1      40.189  27.714  28.672  1.00  0.00     0.049 A 
ATOM     32  N   UNL A   1      41.856  29.802  30.036  1.00  0.00    -0.248 NA
ATOM     33  C   UNL A   1      40.033  31.258  29.951  1.00  0.00     0.031 C 
ATOM     34  C   UNL A   1      39.433  26.664  27.983  1.00  0.00     0.029 A 
ATOM     35  N   UNL A   1      41.441  27.170  28.825  1.00  0.00    -0.354 N 
ATOM     36  C   UNL A   1      42.229  31.035  30.557  1.00  0.00     0.074 A 
ATOM     37  C   UNL A   1      41.085  31.911  30.423  1.00  0.00     0.031 C 
ATOM     38  C   UNL A   1      40.218  25.588  27.821  1.00  0.00     0.029 A 
ATOM     39  C   UNL A   1      41.544  25.881  28.355  1.00  0.00     0.049 A 
ATOM     40  H   UNL A   1      42.193  27.656  29.232  1.00  0.00     0.167 HD
ATOM     41  C   UNL A   1      43.410  31.401  31.116  1.00  0.00     0.031 A 
ATOM     42  C   UNL A   1      42.584  25.022  28.357  1.00  0.00     0.031 A 
ATOM     43  C   UNL A   1      44.553  30.531  31.234  1.00  0.00     0.049 A 
ATOM     44  C   UNL A   1      43.885  25.454  28.973  1.00  0.00     0.074 A 
ATOM     45  C   UNL A   1      45.774  30.791  31.832  1.00  0.00     0.029 A 
ATOM     46  N   UNL A   1      44.622  29.240  30.733  1.00  0.00    -0.354 N 
ATOM     47  N   UNL A   1      44.190  26.596  29.544  1.00  0.00    -0.248 NA
ATOM     48  C   UNL A   1      44.979  24.473  28.960  1.00  0.00     0.031 C 
ATOM     49  C   UNL A   1      46.603  29.681  31.637  1.00  0.00     0.029 A 
ATOM     50  C   UNL A   1      45.876  28.702  30.978  1.00  0.00     0.049 A 
ATOM     51  H   UNL A   1      43.889  28.772  30.271  1.00  0.00     0.167 HD
ATOM     52  C   UNL A   1      45.506  26.465  29.974  1.00  0.00     0.074 A 
ATOM     53  C   UNL A   1      45.927  25.123  29.622  1.00  0.00     0.031 C 
ATOM     54  C   UNL A   1      46.294  27.373  30.602  1.00  0.00     0.031 A 
BRANCH  41  55
ATOM     55  C   UNL A   1      43.523  32.814  31.632  1.00  0.00    -0.014 A 
ATOM     56  C   UNL A   1      43.919  33.868  30.788  1.00  0.00     0.010 A 
ATOM     57  C   UNL A   1      43.205  33.098  32.974  1.00  0.00     0.010 A 
ATOM     58  C   UNL A   1      44.049  35.168  31.287  1.00  0.00     0.020 A 
ATOM     59  C   UNL A   1      43.301  34.403  33.468  1.00  0.00     0.020 A 
ATOM     60  C   UNL A   1      43.744  35.425  32.626  1.00  0.00     0.054 A 
BRANCH  60  61
ATOM     61  S   UNL A   1      43.917  37.122  33.245  1.00  0.00     0.124 S 
ATOM     62  O   UNL A   1      43.869  37.899  32.009  1.00  0.00    -0.237 OA
ATOM     63  O   UNL A   1      42.755  37.263  34.119  1.00  0.00    -0.237 OA
ATOM     64  O   UNL A   1      45.209  37.114  33.927  1.00  0.00    -0.744 OA
ENDBRANCH  60  61
ENDBRANCH  41  55
BRANCH  42  65
ATOM     65  C   UNL A   1      42.422  23.658  27.781  1.00  0.00    -0.014 A 
ATOM     66  C   UNL A   1      42.658  23.425  26.415  1.00  0.00     0.010 A 
ATOM     67  C   UNL A   1      42.057  22.576  28.604  1.00  0.00     0.010 A 
ATOM     68  C   UNL A   1      42.523  22.140  25.880  1.00  0.00     0.020 A 
ATOM     69  C   UNL A   1      41.951  21.285  28.080  1.00  0.00     0.020 A 
ATOM     70  C   UNL A   1      42.178  21.076  26.718  1.00  0.00     0.054 A 
BRANCH  70  71
ATOM     71  S   UNL A   1      42.082  19.405  26.017  1.00  0.00     0.124 S 
ATOM     72  O   UNL A   1      42.535  18.581  27.133  1.00  0.00    -0.237 OA
ATOM     73  O   UNL A   1      40.667  19.289  25.677  1.00  0.00    -0.237 OA
ATOM     74  O   UNL A   1      42.987  19.462  24.872  1.00  0.00    -0.744 OA
ENDBRANCH  70  71
ENDBRANCH  42  65
BRANCH  54  75
ATOM     75  C   UNL A   1      47.692  26.938  30.958  1.00  0.00    -0.014 A 
ATOM     76  C   UNL A   1      47.972  26.306  32.183  1.00  0.00     0.010 A 
ATOM     77  C   UNL A   1      48.742  27.148  30.043  1.00  0.00     0.010 A 
ATOM     78  C   UNL A   1      49.281  25.942  32.509  1.00  0.00     0.020 A 
ATOM     79  C   UNL A   1      50.047  26.753  30.350  1.00  0.00     0.020 A 
ATOM     80  C   UNL A   1      50.311  26.172  31.593  1.00  0.00     0.054 A 
BRANCH  80  81
ATOM     81  S   UNL A   1      51.999  25.680  32.035  1.00  0.00     0.124 S 
ATOM     82  O   UNL A   1      52.228  26.446  33.257  1.00  0.00    -0.237 OA
ATOM     83  O   UNL A   1      51.877  24.235  32.211  1.00  0.00    -0.237 OA
ATOM     84  O   UNL A   1      52.796  26.095  30.882  1.00  0.00    -0.744 OA
ENDBRANCH  80  81
ENDBRANCH  54  75
ENDBRANCH  28  29
ENDBRANCH  20  23
ENDBRANCH  18  19
ENDBRANCH   1  18
TORSDOF 16
ENDMDL
MODEL 2
REMARK VINA RESULT:     -10.2      1.191      1.989
REMARK SMILES CC(=O)Oc1ccccc1C(=O)NCCCCNC(=O)c1ccc(-c2c3nc(c(-c4ccc(S(=O)(=O)[O-])cc4)c4ccc([nH]4)c(-c4ccc(S(=O)(=O)[O-])cc4)c4nc(c(-c5ccc(S(=O)(=O)[O-])cc5)c5ccc2[nH]5)C=C4)C=C3)cc1
REMARK SMILES IDX 16 1 15 2 14 3 13 4 11 5 12 6 10 8 5 9 6 10 7 11 9 12 8 13
REMARK SMILES IDX 4 14 2 15 1 16 3 17 17 18 18 19 19 20 20 22 21 23 22 24
REMARK SMILES IDX 80 25 23 26 79 27 24 28 25 29 26 30 73 31 27 32 78 33 72 34
REMARK SMILES IDX 74 35 28 36 77 37 71 38 70 39 29 41 59 42 40 43 58 44 41 45
REMARK SMILES IDX 44 46 57 47 75 48 42 49 43 50 56 52 76 53 45 54 30 55 31 56
REMARK SMILES IDX 39 57 32 58 38 59 33 60 34 61 35 62 36 63 37 64 60 65 61 66
REMARK SMILES IDX 69 67 62 68 68 69 63 70 64 71 65 72 66 73 67 74 46 75 47 76
REMARK SMILES IDX 55 77 48 78 54 79 49 80 50 81 51 82 52 83 53 84
REMARK H PARENT 13 7 18 21 74 40 44 51
REMARK Flexibility Score: inf
ROOT
ATOM      1  C   UNL A   1      32.155  28.599  26.163  1.00  0.00     0.023 C 
ENDROOT
BRANCH   1   2
ATOM      2  C   UNL A   1      32.497  28.879  24.701  1.00  0.00     0.023 C 
BRANCH   2   3
ATOM      3  C   UNL A   1      33.853  28.403  24.206  1.00  0.00     0.116 C 
BRANCH   3   4
ATOM      4  N   UNL A   1      33.860  27.523  23.065  1.00  0.00    -0.352 N 
ATOM      5  C   UNL A   1      33.443  26.212  22.965  1.00  0.00     0.255 C 
ATOM      6  O   UNL A   1      33.479  25.691  21.849  1.00  0.00    -0.269 OA
ATOM      7  H   UNL A   1      34.215  27.914  22.235  1.00  0.00     0.163 HD
BRANCH   5   8
ATOM      8  C   UNL A   1      33.067  25.361  24.138  1.00  0.00     0.082 A 
ATOM      9  C   UNL A   1      33.910  24.655  25.006  1.00  0.00     0.143 A 
ATOM     10  C   UNL A   1      33.386  23.806  25.995  1.00  0.00     0.048 A 
ATOM     11  C   UNL A   1      32.010  23.703  26.179  1.00  0.00     0.004 A 
ATOM     12  C   UNL A   1      31.678  25.274  24.377  1.00  0.00     0.018 A 
ATOM     13  C   UNL A   1      31.154  24.454  25.383  1.00  0.00     0.001 A 
BRANCH   9  14
ATOM     14  O   UNL A   1      35.310  24.630  24.920  1.00  0.00    -0.426 OA
BRANCH  14  15
ATOM     15  C   UNL A   1      35.887  23.634  24.142  1.00  0.00     0.308 C 
ATOM     16  C   UNL A   1      37.043  23.041  24.904  1.00  0.00     0.139 C 
ATOM     17  O   UNL A   1      35.547  23.304  23.013  1.00  0.00    -0.252 OA
ENDBRANCH  14  15
ENDBRANCH   9  14
ENDBRANCH   5   8
ENDBRANCH   3   4
ENDBRANCH   2   3
ENDBRANCH   1   2
BRANCH   1  18
ATOM     18  C   UNL A   1      33.252  28.805  27.206  1.00  0.00     0.116 C 
BRANCH  18  19
ATOM     19  N   UNL A   1      33.345  30.153  27.749  1.00  0.00    -0.352 N 
ATOM     20  C   UNL A   1      34.428  30.812  28.292  1.00  0.00     0.251 C 
ATOM     21  H   UNL A   1      32.507  30.672  27.724  1.00  0.00     0.163 HD
ATOM     22  O   UNL A   1      34.298  31.969  28.683  1.00  0.00    -0.269 OA
BRANCH  20  23
ATOM     23  C   UNL A   1      35.721  30.110  28.471  1.00  0.00     0.039 A 
ATOM     24  C   UNL A   1      36.619  30.090  27.400  1.00  0.00     0.014 A 
ATOM     25  C   UNL A   1      36.081  29.533  29.691  1.00  0.00     0.014 A 
ATOM     26  C   UNL A   1      37.914  29.601  27.589  1.00  0.00     0.010 A 
ATOM     27  C   UNL A   1      37.398  29.122  29.901  1.00  0.00     0.010 A 
ATOM     28  C   UNL A   1      38.337  29.175  28.859  1.00  0.00    -0.014 A 
BRANCH  28  29
ATOM     29  C   UNL A   1      39.771  28.863  29.112  1.00  0.00     0.031 A 
ATOM     30  C   UNL A   1      40.688  29.872  29.746  1.00  0.00     0.074 A 
ATOM     31  C   UNL A   1      40.259  27.665  28.727  1.00  0.00     0.049 A 
ATOM     32  N   UNL A   1      41.949  29.743  30.078  1.00  0.00    -0.248 NA
ATOM     33  C   UNL A   1      40.129  31.203  30.023  1.00  0.00     0.031 C 
ATOM     34  C   UNL A   1      39.492  26.619  28.044  1.00  0.00     0.029 A 
ATOM     35  N   UNL A   1      41.512  27.117  28.862  1.00  0.00    -0.354 N 
ATOM     36  C   UNL A   1      42.333  30.972  30.600  1.00  0.00     0.074 A 
ATOM     37  C   UNL A   1      41.189  31.852  30.485  1.00  0.00     0.031 C 
ATOM     38  C   UNL A   1      40.272  25.542  27.867  1.00  0.00     0.029 A 
ATOM     39  C   UNL A   1      41.605  25.830  28.385  1.00  0.00     0.049 A 
ATOM     40  H   UNL A   1      42.270  27.600  29.262  1.00  0.00     0.167 HD
ATOM     41  C   UNL A   1      43.521  31.333  31.145  1.00  0.00     0.031 A 
ATOM     42  C   UNL A   1      42.643  24.968  28.370  1.00  0.00     0.031 A 
ATOM     43  C   UNL A   1      44.663  30.460  31.245  1.00  0.00     0.049 A 
ATOM     44  C   UNL A   1      43.953  25.394  28.972  1.00  0.00     0.074 A 
ATOM     45  C   UNL A   1      45.893  30.714  31.828  1.00  0.00     0.029 A 
ATOM     46  N   UNL A   1      44.723  29.170  30.738  1.00  0.00    -0.354 N 
ATOM     47  N   UNL A   1      44.268  26.532  29.543  1.00  0.00    -0.248 NA
ATOM     48  C   UNL A   1      45.044  24.410  28.940  1.00  0.00     0.031 C 
ATOM     49  C   UNL A   1      46.716  29.602  31.618  1.00  0.00     0.029 A 
ATOM     50  C   UNL A   1      45.978  28.628  30.964  1.00  0.00     0.049 A 
ATOM     51  H   UNL A   1      43.982  28.707  30.284  1.00  0.00     0.167 HD
ATOM     52  C   UNL A   1      45.589  26.396  29.955  1.00  0.00     0.074 A 
ATOM     53  C   UNL A   1      46.002  25.055  29.593  1.00  0.00     0.031 C 
ATOM     54  C   UNL A   1      46.388  27.300  30.577  1.00  0.00     0.031 A 
BRANCH  41  55
ATOM     55  C   UNL A   1      43.645  32.743  31.666  1.00  0.00    -0.014 A 
ATOM     56  C   UNL A   1      44.105  33.787  30.841  1.00  0.00     0.010 A 
ATOM     57  C   UNL A   1      43.272  33.037  32.991  1.00  0.00     0.010 A 
ATOM     58  C   UNL A   1      44.243  35.083  31.346  1.00  0.00     0.020 A 
ATOM     59  C   UNL A   1      43.377  34.340  33.489  1.00  0.00     0.020 A 
ATOM     60  C   UNL A   1      43.883  35.350  32.669  1.00  0.00     0.054 A 
BRANCH  60  61
ATOM     61  S   UNL A   1      44.068  37.043  33.295  1.00  0.00     0.124 S 
ATOM     62  O   UNL A   1      45.356  36.970  33.980  1.00  0.00    -0.237 OA
ATOM     63  O   UNL A   1      44.054  37.839  32.071  1.00  0.00    -0.237 OA
ATOM     64  O   UNL A   1      42.909  37.221  34.166  1.00  0.00    -0.744 OA
ENDBRANCH  60  61
ENDBRANCH  41  55
BRANCH  42  65
ATOM     65  C   UNL A   1      42.470  23.607  27.791  1.00  0.00    -0.014 A 
ATOM     66  C   UNL A   1      42.656  23.386  26.415  1.00  0.00     0.010 A 
ATOM     67  C   UNL A   1      42.145  22.517  28.619  1.00  0.00     0.010 A 
ATOM     68  C   UNL A   1      42.511  22.104  25.876  1.00  0.00     0.020 A 
ATOM     69  C   UNL A   1      42.029  21.228  28.090  1.00  0.00     0.020 A 
ATOM     70  C   UNL A   1      42.206  21.031  26.719  1.00  0.00     0.054 A 
BRANCH  70  71
ATOM     71  S   UNL A   1      42.096  19.364  26.009  1.00  0.00     0.124 S 
ATOM     72  O   UNL A   1      42.584  18.534  27.106  1.00  0.00    -0.237 OA
ATOM     73  O   UNL A   1      40.673  19.244  25.708  1.00  0.00    -0.237 OA
ATOM     74  O   UNL A   1      42.969  19.432  24.839  1.00  0.00    -0.744 OA
ENDBRANCH  70  71
ENDBRANCH  42  65
BRANCH  54  75
ATOM     75  C   UNL A   1      47.789  26.859  30.913  1.00  0.00    -0.014 A 
ATOM     76  C   UNL A   1      48.083  26.221  32.132  1.00  0.00     0.010 A 
ATOM     77  C   UNL A   1      48.828  27.072  29.987  1.00  0.00     0.010 A 
ATOM     78  C   UNL A   1      49.395  25.851  32.439  1.00  0.00     0.020 A 
ATOM     79  C   UNL A   1      50.135  26.672  30.275  1.00  0.00     0.020 A 
ATOM     80  C   UNL A   1      50.414  26.084  31.511  1.00  0.00     0.054 A 
BRANCH  80  81
ATOM     81  S   UNL A   1      52.106  25.586  31.929  1.00  0.00     0.124 S 
ATOM     82  O   UNL A   1      52.412  26.465  33.055  1.00  0.00    -0.237 OA
ATOM     83  O   UNL A   1      51.952  24.171  32.260  1.00  0.00    -0.237 OA
ATOM     84  O   UNL A   1      52.861  25.854  30.707  1.00  0.00    -0.744 OA
ENDBRANCH  80  81
ENDBRANCH  54  75
ENDBRANCH  28  29
ENDBRANCH  20  23
ENDBRANCH  18  19
ENDBRANCH   1  18
TORSDOF 16
ENDMDL
MODEL 3
REMARK VINA RESULT:     -10.2      1.837      8.960
REMARK SMILES CC(=O)Oc1ccccc1C(=O)NCCCCNC(=O)c1ccc(-c2c3nc(c(-c4ccc(S(=O)(=O)[O-])cc4)c4ccc([nH]4)c(-c4ccc(S(=O)(=O)[O-])cc4)c4nc(c(-c5ccc(S(=O)(=O)[O-])cc5)c5ccc2[nH]5)C=C4)C=C3)cc1
REMARK SMILES IDX 16 1 15 2 14 3 13 4 11 5 12 6 10 8 5 9 6 10 7 11 9 12 8 13
REMARK SMILES IDX 4 14 2 15 1 16 3 17 17 18 18 19 19 20 20 22 21 23 22 24
REMARK SMILES IDX 80 25 23 26 79 27 24 28 25 29 26 30 73 31 27 32 78 33 72 34
REMARK SMILES IDX 74 35 28 36 77 37 71 38 70 39 29 41 59 42 40 43 58 44 41 45
REMARK SMILES IDX 44 46 57 47 75 48 42 49 43 50 56 52 76 53 45 54 30 55 31 56
REMARK SMILES IDX 39 57 32 58 38 59 33 60 34 61 35 62 36 63 37 64 60 65 61 66
REMARK SMILES IDX 69 67 62 68 68 69 63 70 64 71 65 72 66 73 67 74 46 75 47 76
REMARK SMILES IDX 55 77 48 78 54 79 49 80 50 81 51 82 52 83 53 84
REMARK H PARENT 13 7 18 21 74 40 44 51
REMARK Flexibility Score: inf
ROOT
ATOM      1  C   UNL A   1      33.618  28.323  25.844  1.00  0.00     0.023 C 
ENDROOT
BRANCH   1   2
ATOM      2  C   UNL A   1      34.165  26.958  25.432  1.00  0.00     0.023 C 
BRANCH   2   3
ATOM      3  C   UNL A   1      33.157  25.925  24.955  1.00  0.00     0.116 C 
BRANCH   3   4
ATOM      4  N   UNL A   1      33.274  25.478  23.590  1.00  0.00    -0.352 N 
ATOM      5  C   UNL A   1      33.811  24.309  23.094  1.00  0.00     0.255 C 
ATOM      6  O   UNL A   1      33.725  24.119  21.879  1.00  0.00    -0.269 OA
ATOM      7  H   UNL A   1      32.920  26.097  22.914  1.00  0.00     0.163 HD
BRANCH   5   8
ATOM      8  C   UNL A   1      34.586  23.327  23.915  1.00  0.00     0.082 A 
ATOM      9  C   UNL A   1      34.242  22.011  24.252  1.00  0.00     0.143 A 
ATOM     10  C   UNL A   1      35.034  21.256  25.133  1.00  0.00     0.048 A 
ATOM     11  C   UNL A   1      36.221  21.780  25.637  1.00  0.00     0.004 A 
ATOM     12  C   UNL A   1      35.817  23.816  24.404  1.00  0.00     0.018 A 
ATOM     13  C   UNL A   1      36.625  23.054  25.257  1.00  0.00     0.001 A 
BRANCH   9  14
ATOM     14  O   UNL A   1      33.064  21.363  23.852  1.00  0.00    -0.426 OA
BRANCH  14  15
ATOM     15  C   UNL A   1      32.202  20.927  24.850  1.00  0.00     0.308 C 
ATOM     16  C   UNL A   1      31.504  22.126  25.437  1.00  0.00     0.139 C 
ATOM     17  O   UNL A   1      32.047  19.772  25.224  1.00  0.00    -0.252 OA
ENDBRANCH  14  15
ENDBRANCH   9  14
ENDBRANCH   5   8
ENDBRANCH   3   4
ENDBRANCH   2   3
ENDBRANCH   1   2
BRANCH   1  18
ATOM     18  C   UNL A   1      33.358  28.569  27.329  1.00  0.00     0.116 C 
BRANCH  18  19
ATOM     19  N   UNL A   1      33.437  29.962  27.749  1.00  0.00    -0.352 N 
ATOM     20  C   UNL A   1      34.523  30.690  28.190  1.00  0.00     0.251 C 
ATOM     21  H   UNL A   1      32.587  30.459  27.711  1.00  0.00     0.163 HD
ATOM     22  O   UNL A   1      34.379  31.873  28.483  1.00  0.00    -0.269 OA
BRANCH  20  23
ATOM     23  C   UNL A   1      35.838  30.034  28.379  1.00  0.00     0.039 A 
ATOM     24  C   UNL A   1      36.740  30.035  27.311  1.00  0.00     0.014 A 
ATOM     25  C   UNL A   1      36.214  29.480  29.605  1.00  0.00     0.014 A 
ATOM     26  C   UNL A   1      38.051  29.593  27.509  1.00  0.00     0.010 A 
ATOM     27  C   UNL A   1      37.543  29.117  29.823  1.00  0.00     0.010 A 
ATOM     28  C   UNL A   1      38.484  29.193  28.784  1.00  0.00    -0.014 A 
BRANCH  28  29
ATOM     29  C   UNL A   1      39.927  28.932  29.045  1.00  0.00     0.031 A 
ATOM     30  C   UNL A   1      40.554  27.610  28.698  1.00  0.00     0.074 A 
ATOM     31  C   UNL A   1      40.669  29.888  29.641  1.00  0.00     0.049 A 
ATOM     32  N   UNL A   1      41.805  27.237  28.816  1.00  0.00    -0.248 NA
ATOM     33  C   UNL A   1      39.664  26.564  28.172  1.00  0.00     0.031 C 
ATOM     34  C   UNL A   1      40.168  31.191  30.087  1.00  0.00     0.029 A 
ATOM     35  N   UNL A   1      42.003  29.921  29.966  1.00  0.00    -0.354 N 
ATOM     36  C   UNL A   1      41.851  25.918  28.382  1.00  0.00     0.074 A 
ATOM     37  C   UNL A   1      40.493  25.536  28.055  1.00  0.00     0.031 C 
ATOM     38  C   UNL A   1      41.188  31.913  30.578  1.00  0.00     0.029 A 
ATOM     39  C   UNL A   1      42.407  31.114  30.521  1.00  0.00     0.049 A 
ATOM     40  H   UNL A   1      42.613  29.163  29.816  1.00  0.00     0.167 HD
ATOM     41  C   UNL A   1      42.927  25.103  28.247  1.00  0.00     0.031 A 
ATOM     42  C   UNL A   1      43.623  31.527  30.933  1.00  0.00     0.031 A 
ATOM     43  C   UNL A   1      44.275  25.480  28.587  1.00  0.00     0.049 A 
ATOM     44  C   UNL A   1      44.798  30.603  30.782  1.00  0.00     0.074 A 
ATOM     45  C   UNL A   1      45.439  24.745  28.436  1.00  0.00     0.029 A 
ATOM     46  N   UNL A   1      44.640  26.690  29.159  1.00  0.00    -0.354 N 
ATOM     47  N   UNL A   1      44.835  29.389  30.284  1.00  0.00    -0.248 NA
ATOM     48  C   UNL A   1      46.100  31.111  31.235  1.00  0.00     0.031 C 
ATOM     49  C   UNL A   1      46.497  25.485  28.974  1.00  0.00     0.029 A 
ATOM     50  C   UNL A   1      46.005  26.709  29.399  1.00  0.00     0.049 A 
ATOM     51  H   UNL A   1      44.021  27.427  29.365  1.00  0.00     0.167 HD
ATOM     52  C   UNL A   1      46.167  28.995  30.347  1.00  0.00     0.074 A 
ATOM     53  C   UNL A   1      46.906  30.110  30.905  1.00  0.00     0.031 C 
ATOM     54  C   UNL A   1      46.727  27.816  29.978  1.00  0.00     0.031 A 
BRANCH  41  55
ATOM     55  C   UNL A   1      42.679  23.712  27.716  1.00  0.00    -0.014 A 
ATOM     56  C   UNL A   1      42.354  22.650  28.580  1.00  0.00     0.010 A 
ATOM     57  C   UNL A   1      42.749  23.467  26.332  1.00  0.00     0.010 A 
ATOM     58  C   UNL A   1      42.156  21.360  28.078  1.00  0.00     0.020 A 
ATOM     59  C   UNL A   1      42.519  22.185  25.823  1.00  0.00     0.020 A 
ATOM     60  C   UNL A   1      42.246  21.135  26.702  1.00  0.00     0.054 A 
BRANCH  60  61
ATOM     61  S   UNL A   1      41.981  19.452  26.079  1.00  0.00     0.124 S 
ATOM     62  O   UNL A   1      42.441  18.640  27.202  1.00  0.00    -0.237 OA
ATOM     63  O   UNL A   1      40.541  19.425  25.834  1.00  0.00    -0.237 OA
ATOM     64  O   UNL A   1      42.816  19.389  24.881  1.00  0.00    -0.744 OA
ENDBRANCH  60  61
ENDBRANCH  41  55
BRANCH  42  65
ATOM     65  C   UNL A   1      43.789  32.895  31.499  1.00  0.00    -0.014 A 
ATOM     66  C   UNL A   1      43.658  33.119  32.881  1.00  0.00     0.010 A 
ATOM     67  C   UNL A   1      44.108  33.979  30.660  1.00  0.00     0.010 A 
ATOM     68  C   UNL A   1      43.834  34.400  33.413  1.00  0.00     0.020 A 
ATOM     69  C   UNL A   1      44.314  35.256  31.191  1.00  0.00     0.020 A 
ATOM     70  C   UNL A   1      44.168  35.460  32.565  1.00  0.00     0.054 A 
BRANCH  70  71
ATOM     71  S   UNL A   1      44.463  37.098  33.286  1.00  0.00     0.124 S 
ATOM     72  O   UNL A   1      43.111  37.529  33.627  1.00  0.00    -0.237 OA
ATOM     73  O   UNL A   1      45.333  36.791  34.417  1.00  0.00    -0.237 OA
ATOM     74  O   UNL A   1      45.103  37.840  32.202  1.00  0.00    -0.744 OA
ENDBRANCH  70  71
ENDBRANCH  42  65
BRANCH  54  75
ATOM     75  C   UNL A   1      48.218  27.679  30.157  1.00  0.00    -0.014 A 
ATOM     76  C   UNL A   1      49.116  28.080  29.151  1.00  0.00     0.010 A 
ATOM     77  C   UNL A   1      48.729  27.156  31.360  1.00  0.00     0.010 A 
ATOM     78  C   UNL A   1      50.492  27.912  29.323  1.00  0.00     0.020 A 
ATOM     79  C   UNL A   1      50.107  27.020  31.550  1.00  0.00     0.020 A 
ATOM     80  C   UNL A   1      50.979  27.379  30.519  1.00  0.00     0.054 A 
BRANCH  80  81
ATOM     81  S   UNL A   1      52.770  27.181  30.722  1.00  0.00     0.124 S 
ATOM     82  O   UNL A   1      52.851  26.372  31.936  1.00  0.00    -0.237 OA
ATOM     83  O   UNL A   1      53.160  26.504  29.488  1.00  0.00    -0.237 OA
ATOM     84  O   UNL A   1      53.259  28.552  30.855  1.00  0.00    -0.744 OA
ENDBRANCH  80  81
ENDBRANCH  54  75
ENDBRANCH  28  29
ENDBRANCH  20  23
ENDBRANCH  18  19
ENDBRANCH   1  18
TORSDOF 16
ENDMDL
