MODEL 1
REMARK VINA RESULT:     -12.3      0.000      0.000
REMARK SMILES COc1ccc(-c2ncn(CC(=O)NCCCCNC(=O)c3ccc(-c4c5nc(c(-c6ccc(S(=O)(=O)[O-])cc6)c6ccc([nH]6)c(-c6ccc(S(=O)(=O)[O-])cc6)c6nc(c(-c7ccc(S(=O)(=O)[O-])cc7)c7ccc4[nH]7)C=C6)C=C5)cc3)c2-c2ccc(OC)cc2)cc1
REMARK SMILES IDX 16 1 15 2 14 3 12 4 13 5 11 7 10 8 7 9 8 10 82 11 9 12 6 13
REMARK SMILES IDX 3 14 4 15 92 16 5 17 91 18 2 19 1 20 83 21 84 22 90 23 85 24
REMARK SMILES IDX 89 25 86 26 87 27 88 28 17 29 18 30 19 31 20 32 21 34 22 35
REMARK SMILES IDX 23 36 81 37 24 38 80 39 25 40 26 41 27 42 74 43 28 44 79 45
REMARK SMILES IDX 73 46 75 47 29 48 78 49 72 50 71 51 30 53 60 54 41 55 59 56
REMARK SMILES IDX 42 57 45 58 58 59 76 60 43 61 44 62 57 64 77 65 46 66 31 67
REMARK SMILES IDX 32 68 40 69 33 70 39 71 34 72 35 73 36 74 37 75 38 76 61 77
REMARK SMILES IDX 62 78 70 79 63 80 69 81 64 82 65 83 66 84 67 85 68 86 47 87
REMARK SMILES IDX 48 88 56 89 49 90 55 91 50 92 51 93 52 94 53 95 54 96
REMARK H PARENT 14 6 19 33 75 52 45 63
REMARK Flexibility Score: inf
ROOT
ATOM      1  C   UNL A   1      31.737  27.668  26.829  1.00  0.00     0.023 C 
ENDROOT
BRANCH   1   2
ATOM      2  C   UNL A   1      30.929  26.730  25.924  1.00  0.00     0.116 C 
BRANCH   2   3
ATOM      3  N   UNL A   1      30.839  27.187  24.551  1.00  0.00    -0.355 N 
ATOM      4  C   UNL A   1      31.552  26.808  23.450  1.00  0.00     0.239 C 
ATOM      5  O   UNL A   1      31.200  27.270  22.362  1.00  0.00    -0.273 OA
ATOM      6  H   UNL A   1      30.156  27.878  24.387  1.00  0.00     0.163 HD
BRANCH   4   7
ATOM      7  C   UNL A   1      32.696  25.817  23.534  1.00  0.00     0.223 C 
BRANCH   7   8
ATOM      8  N   UNL A   1      32.294  24.421  23.484  1.00  0.00    -0.321 N 
ATOM      9  C   UNL A   1      32.114  22.260  23.675  1.00  0.00     0.096 A 
ATOM     10  N   UNL A   1      30.986  22.686  23.020  1.00  0.00    -0.236 NA
ATOM     11  C   UNL A   1      32.993  23.311  23.913  1.00  0.00     0.076 A 
ATOM     12  C   UNL A   1      31.137  23.982  22.893  1.00  0.00     0.201 A 
BRANCH   9  13
ATOM     13  C   UNL A   1      32.358  20.869  24.002  1.00  0.00     0.003 A 
ATOM     14  C   UNL A   1      32.723  18.173  24.685  1.00  0.00     0.118 A 
ATOM     15  C   UNL A   1      32.471  18.535  23.362  1.00  0.00     0.047 A 
ATOM     16  C   UNL A   1      32.836  19.165  25.661  1.00  0.00     0.047 A 
ATOM     17  C   UNL A   1      32.282  19.874  23.019  1.00  0.00     0.014 A 
ATOM     18  C   UNL A   1      32.661  20.510  25.317  1.00  0.00     0.014 A 
BRANCH  14  19
ATOM     19  O   UNL A   1      32.892  16.833  24.903  1.00  0.00    -0.497 OA
ATOM     20  C   UNL A   1      33.819  16.185  24.041  1.00  0.00     0.278 C 
ENDBRANCH  14  19
ENDBRANCH   9  13
BRANCH  11  21
ATOM     21  C   UNL A   1      34.374  23.297  24.386  1.00  0.00     0.001 A 
ATOM     22  C   UNL A   1      34.706  23.553  25.716  1.00  0.00     0.014 A 
ATOM     23  C   UNL A   1      35.395  22.983  23.482  1.00  0.00     0.014 A 
ATOM     24  C   UNL A   1      36.044  23.558  26.118  1.00  0.00     0.047 A 
ATOM     25  C   UNL A   1      36.732  22.959  23.892  1.00  0.00     0.047 A 
ATOM     26  C   UNL A   1      37.063  23.258  25.212  1.00  0.00     0.118 A 
BRANCH  26  27
ATOM     27  O   UNL A   1      38.325  23.291  25.735  1.00  0.00    -0.497 OA
ATOM     28  C   UNL A   1      38.934  22.037  26.008  1.00  0.00     0.278 C 
ENDBRANCH  26  27
ENDBRANCH  11  21
ENDBRANCH   7   8
ENDBRANCH   4   7
ENDBRANCH   2   3
ENDBRANCH   1   2
BRANCH   1  29
ATOM     29  C   UNL A   1      32.277  28.954  26.190  1.00  0.00     0.023 C 
BRANCH  29  30
ATOM     30  C   UNL A   1      33.596  29.449  26.763  1.00  0.00     0.116 C 
BRANCH  30  31
ATOM     31  N   UNL A   1      33.672  30.909  26.867  1.00  0.00    -0.352 N 
ATOM     32  C   UNL A   1      34.523  31.667  27.662  1.00  0.00     0.251 C 
ATOM     33  H   UNL A   1      33.043  31.416  26.304  1.00  0.00     0.163 HD
ATOM     34  O   UNL A   1      34.253  32.817  27.960  1.00  0.00    -0.269 OA
BRANCH  32  35
ATOM     35  C   UNL A   1      35.785  31.047  28.111  1.00  0.00     0.039 A 
ATOM     36  C   UNL A   1      36.144  29.732  27.796  1.00  0.00     0.014 A 
ATOM     37  C   UNL A   1      36.636  31.857  28.852  1.00  0.00     0.014 A 
ATOM     38  C   UNL A   1      37.404  29.271  28.181  1.00  0.00     0.010 A 
ATOM     39  C   UNL A   1      37.933  31.485  29.033  1.00  0.00     0.010 A 
ATOM     40  C   UNL A   1      38.292  30.164  28.794  1.00  0.00    -0.014 A 
BRANCH  40  41
ATOM     41  C   UNL A   1      39.658  29.815  29.156  1.00  0.00     0.031 A 
ATOM     42  C   UNL A   1      39.931  29.868  30.619  1.00  0.00     0.074 A 
ATOM     43  C   UNL A   1      40.448  29.155  28.276  1.00  0.00     0.049 A 
ATOM     44  N   UNL A   1      40.700  30.684  31.261  1.00  0.00    -0.248 NA
ATOM     45  C   UNL A   1      39.111  29.015  31.501  1.00  0.00     0.031 C 
ATOM     46  C   UNL A   1      40.102  28.692  26.921  1.00  0.00     0.029 A 
ATOM     47  N   UNL A   1      41.676  28.607  28.458  1.00  0.00    -0.354 N 
ATOM     48  C   UNL A   1      40.649  30.278  32.593  1.00  0.00     0.074 A 
ATOM     49  C   UNL A   1      39.482  29.442  32.708  1.00  0.00     0.031 C 
ATOM     50  C   UNL A   1      40.972  27.735  26.530  1.00  0.00     0.029 A 
ATOM     51  C   UNL A   1      42.030  27.639  27.519  1.00  0.00     0.049 A 
ATOM     52  H   UNL A   1      42.271  28.872  29.194  1.00  0.00     0.167 HD
ATOM     53  C   UNL A   1      41.725  30.398  33.422  1.00  0.00     0.031 A 
ATOM     54  C   UNL A   1      43.089  26.790  27.583  1.00  0.00     0.031 A 
ATOM     55  C   UNL A   1      42.748  31.222  32.829  1.00  0.00     0.049 A 
ATOM     56  C   UNL A   1      44.018  27.349  28.598  1.00  0.00     0.074 A 
ATOM     57  C   UNL A   1      42.814  32.523  32.378  1.00  0.00     0.029 A 
ATOM     58  N   UNL A   1      43.800  30.556  32.242  1.00  0.00    -0.354 N 
ATOM     59  N   UNL A   1      44.628  28.495  28.464  1.00  0.00    -0.248 NA
ATOM     60  C   UNL A   1      43.882  26.870  29.966  1.00  0.00     0.031 C 
ATOM     61  C   UNL A   1      43.598  32.456  31.190  1.00  0.00     0.029 A 
ATOM     62  C   UNL A   1      44.043  31.141  31.028  1.00  0.00     0.049 A 
ATOM     63  H   UNL A   1      44.292  29.795  32.626  1.00  0.00     0.167 HD
ATOM     64  C   UNL A   1      44.568  29.079  29.723  1.00  0.00     0.074 A 
ATOM     65  C   UNL A   1      44.173  27.995  30.623  1.00  0.00     0.031 C 
ATOM     66  C   UNL A   1      44.557  30.436  29.871  1.00  0.00     0.031 A 
BRANCH  53  67
ATOM     67  C   UNL A   1      42.049  29.437  34.547  1.00  0.00    -0.014 A 
ATOM     68  C   UNL A   1      42.792  29.915  35.647  1.00  0.00     0.010 A 
ATOM     69  C   UNL A   1      41.898  28.039  34.447  1.00  0.00     0.010 A 
ATOM     70  C   UNL A   1      43.417  29.039  36.544  1.00  0.00     0.020 A 
ATOM     71  C   UNL A   1      42.479  27.157  35.361  1.00  0.00     0.020 A 
ATOM     72  C   UNL A   1      43.268  27.663  36.384  1.00  0.00     0.054 A 
BRANCH  72  73
ATOM     73  S   UNL A   1      44.161  26.537  37.482  1.00  0.00     0.124 S 
ATOM     74  O   UNL A   1      44.305  27.346  38.686  1.00  0.00    -0.237 OA
ATOM     75  O   UNL A   1      43.240  25.408  37.580  1.00  0.00    -0.237 OA
ATOM     76  O   UNL A   1      45.399  26.264  36.755  1.00  0.00    -0.744 OA
ENDBRANCH  72  73
ENDBRANCH  53  67
BRANCH  54  77
ATOM     77  C   UNL A   1      43.199  25.389  27.090  1.00  0.00    -0.014 A 
ATOM     78  C   UNL A   1      42.618  24.996  25.867  1.00  0.00     0.010 A 
ATOM     79  C   UNL A   1      44.123  24.502  27.681  1.00  0.00     0.010 A 
ATOM     80  C   UNL A   1      42.989  23.793  25.235  1.00  0.00     0.020 A 
ATOM     81  C   UNL A   1      44.497  23.302  27.058  1.00  0.00     0.020 A 
ATOM     82  C   UNL A   1      43.943  22.962  25.826  1.00  0.00     0.054 A 
BRANCH  82  83
ATOM     83  S   UNL A   1      44.546  21.498  24.925  1.00  0.00     0.124 S 
ATOM     84  O   UNL A   1      44.613  21.984  23.551  1.00  0.00    -0.237 OA
ATOM     85  O   UNL A   1      45.831  21.236  25.566  1.00  0.00    -0.237 OA
ATOM     86  O   UNL A   1      43.516  20.492  25.176  1.00  0.00    -0.744 OA
ENDBRANCH  82  83
ENDBRANCH  54  77
BRANCH  66  87
ATOM     87  C   UNL A   1      44.907  31.304  28.685  1.00  0.00    -0.014 A 
ATOM     88  C   UNL A   1      43.989  31.703  27.694  1.00  0.00     0.010 A 
ATOM     89  C   UNL A   1      46.178  31.904  28.704  1.00  0.00     0.010 A 
ATOM     90  C   UNL A   1      44.341  32.682  26.748  1.00  0.00     0.020 A 
ATOM     91  C   UNL A   1      46.527  32.888  27.780  1.00  0.00     0.020 A 
ATOM     92  C   UNL A   1      45.608  33.273  26.804  1.00  0.00     0.054 A 
BRANCH  92  93
ATOM     93  S   UNL A   1      46.040  34.597  25.638  1.00  0.00     0.124 S 
ATOM     94  O   UNL A   1      45.209  34.282  24.480  1.00  0.00    -0.237 OA
ATOM     95  O   UNL A   1      45.670  35.807  26.370  1.00  0.00    -0.237 OA
ATOM     96  O   UNL A   1      47.478  34.425  25.433  1.00  0.00    -0.744 OA
ENDBRANCH  92  93
ENDBRANCH  66  87
ENDBRANCH  40  41
ENDBRANCH  32  35
ENDBRANCH  30  31
ENDBRANCH  29  30
ENDBRANCH   1  29
TORSDOF 19
ENDMDL
MODEL 2
REMARK VINA RESULT:     -12.3      1.742      2.919
REMARK SMILES COc1ccc(-c2ncn(CC(=O)NCCCCNC(=O)c3ccc(-c4c5nc(c(-c6ccc(S(=O)(=O)[O-])cc6)c6ccc([nH]6)c(-c6ccc(S(=O)(=O)[O-])cc6)c6nc(c(-c7ccc(S(=O)(=O)[O-])cc7)c7ccc4[nH]7)C=C6)C=C5)cc3)c2-c2ccc(OC)cc2)cc1
REMARK SMILES IDX 16 1 15 2 14 3 12 4 13 5 11 7 10 8 7 9 8 10 82 11 9 12 6 13
REMARK SMILES IDX 3 14 4 15 92 16 5 17 91 18 2 19 1 20 83 21 84 22 90 23 85 24
REMARK SMILES IDX 89 25 86 26 87 27 88 28 17 29 18 30 19 31 20 32 21 34 22 35
REMARK SMILES IDX 23 36 81 37 24 38 80 39 25 40 26 41 27 42 74 43 28 44 79 45
REMARK SMILES IDX 73 46 75 47 29 48 78 49 72 50 71 51 30 53 60 54 41 55 59 56
REMARK SMILES IDX 42 57 45 58 58 59 76 60 43 61 44 62 57 64 77 65 46 66 31 67
REMARK SMILES IDX 32 68 40 69 33 70 39 71 34 72 35 73 36 74 37 75 38 76 61 77
REMARK SMILES IDX 62 78 70 79 63 80 69 81 64 82 65 83 66 84 67 85 68 86 47 87
REMARK SMILES IDX 48 88 56 89 49 90 55 91 50 92 51 93 52 94 53 95 54 96
REMARK H PARENT 14 6 19 33 75 52 45 63
REMARK Flexibility Score: inf
ROOT
ATOM      1  C   UNL A   1      32.401  29.333  24.669  1.00  0.00     0.023 C 
ENDROOT
BRANCH   1   2
ATOM      2  C   UNL A   1      31.560  28.823  23.492  1.00  0.00     0.116 C 
BRANCH   2   3
ATOM      3  N   UNL A   1      30.411  28.037  23.899  1.00  0.00    -0.355 N 
ATOM      4  C   UNL A   1      29.958  26.838  23.430  1.00  0.00     0.239 C 
ATOM      5  O   UNL A   1      29.013  26.317  24.030  1.00  0.00    -0.273 OA
ATOM      6  H   UNL A   1      29.876  28.430  24.626  1.00  0.00     0.163 HD
BRANCH   4   7
ATOM      7  C   UNL A   1      30.611  26.131  22.259  1.00  0.00     0.223 C 
BRANCH   7   8
ATOM      8  N   UNL A   1      32.006  25.777  22.465  1.00  0.00    -0.321 N 
ATOM      9  C   UNL A   1      33.904  24.935  23.121  1.00  0.00     0.096 A 
ATOM     10  N   UNL A   1      34.196  25.790  22.087  1.00  0.00    -0.236 NA
ATOM     11  C   UNL A   1      32.550  24.961  23.436  1.00  0.00     0.076 A 
ATOM     12  C   UNL A   1      33.041  26.302  21.735  1.00  0.00     0.201 A 
BRANCH   9  13
ATOM     13  C   UNL A   1      34.916  24.169  23.819  1.00  0.00     0.003 A 
ATOM     14  C   UNL A   1      36.791  22.640  25.239  1.00  0.00     0.118 A 
ATOM     15  C   UNL A   1      36.432  22.282  23.939  1.00  0.00     0.047 A 
ATOM     16  C   UNL A   1      36.243  23.788  25.813  1.00  0.00     0.047 A 
ATOM     17  C   UNL A   1      35.494  23.036  23.233  1.00  0.00     0.014 A 
ATOM     18  C   UNL A   1      35.314  24.554  25.101  1.00  0.00     0.014 A 
BRANCH  14  19
ATOM     19  O   UNL A   1      37.718  21.828  25.834  1.00  0.00    -0.497 OA
ATOM     20  C   UNL A   1      38.063  20.657  25.105  1.00  0.00     0.278 C 
ENDBRANCH  14  19
ENDBRANCH   9  13
BRANCH  11  21
ATOM     21  C   UNL A   1      31.835  24.385  24.571  1.00  0.00     0.001 A 
ATOM     22  C   UNL A   1      31.321  23.089  24.545  1.00  0.00     0.014 A 
ATOM     23  C   UNL A   1      31.691  25.146  25.737  1.00  0.00     0.014 A 
ATOM     24  C   UNL A   1      30.617  22.589  25.644  1.00  0.00     0.047 A 
ATOM     25  C   UNL A   1      31.013  24.635  26.848  1.00  0.00     0.047 A 
ATOM     26  C   UNL A   1      30.463  23.355  26.801  1.00  0.00     0.118 A 
BRANCH  26  27
ATOM     27  O   UNL A   1      29.761  22.747  27.804  1.00  0.00    -0.497 OA
ATOM     28  C   UNL A   1      28.482  22.232  27.464  1.00  0.00     0.278 C 
ENDBRANCH  26  27
ENDBRANCH  11  21
ENDBRANCH   7   8
ENDBRANCH   4   7
ENDBRANCH   2   3
ENDBRANCH   1   2
BRANCH   1  29
ATOM     29  C   UNL A   1      33.373  28.336  25.311  1.00  0.00     0.023 C 
BRANCH  29  30
ATOM     30  C   UNL A   1      34.178  28.886  26.478  1.00  0.00     0.116 C 
BRANCH  30  31
ATOM     31  N   UNL A   1      33.743  30.219  26.906  1.00  0.00    -0.352 N 
ATOM     32  C   UNL A   1      34.372  31.079  27.797  1.00  0.00     0.251 C 
ATOM     33  H   UNL A   1      32.900  30.544  26.516  1.00  0.00     0.163 HD
ATOM     34  O   UNL A   1      33.757  31.963  28.366  1.00  0.00    -0.269 OA
BRANCH  32  35
ATOM     35  C   UNL A   1      35.823  30.913  28.011  1.00  0.00     0.039 A 
ATOM     36  C   UNL A   1      36.642  31.927  28.519  1.00  0.00     0.014 A 
ATOM     37  C   UNL A   1      36.348  29.663  27.706  1.00  0.00     0.014 A 
ATOM     38  C   UNL A   1      37.983  31.639  28.781  1.00  0.00     0.010 A 
ATOM     39  C   UNL A   1      37.586  29.322  28.161  1.00  0.00     0.010 A 
ATOM     40  C   UNL A   1      38.438  30.326  28.603  1.00  0.00    -0.014 A 
BRANCH  40  41
ATOM     41  C   UNL A   1      39.790  29.896  28.928  1.00  0.00     0.031 A 
ATOM     42  C   UNL A   1      40.073  29.836  30.389  1.00  0.00     0.074 A 
ATOM     43  C   UNL A   1      40.547  29.266  27.999  1.00  0.00     0.049 A 
ATOM     44  N   UNL A   1      40.879  30.572  31.079  1.00  0.00    -0.248 NA
ATOM     45  C   UNL A   1      39.223  28.958  31.217  1.00  0.00     0.031 C 
ATOM     46  C   UNL A   1      40.174  28.913  26.618  1.00  0.00     0.029 A 
ATOM     47  N   UNL A   1      41.752  28.656  28.132  1.00  0.00    -0.354 N 
ATOM     48  C   UNL A   1      40.818  30.077  32.381  1.00  0.00     0.074 A 
ATOM     49  C   UNL A   1      39.618  29.285  32.447  1.00  0.00     0.031 C 
ATOM     50  C   UNL A   1      41.001  27.950  26.154  1.00  0.00     0.029 A 
ATOM     51  C   UNL A   1      42.059  27.741  27.125  1.00  0.00     0.049 A 
ATOM     52  H   UNL A   1      42.362  28.844  28.880  1.00  0.00     0.167 HD
ATOM     53  C   UNL A   1      41.903  30.094  33.207  1.00  0.00     0.031 A 
ATOM     54  C   UNL A   1      43.082  26.846  27.121  1.00  0.00     0.031 A 
ATOM     55  C   UNL A   1      42.957  30.914  32.664  1.00  0.00     0.049 A 
ATOM     56  C   UNL A   1      44.039  27.294  28.165  1.00  0.00     0.074 A 
ATOM     57  C   UNL A   1      43.075  32.239  32.304  1.00  0.00     0.029 A 
ATOM     58  N   UNL A   1      43.976  30.247  32.023  1.00  0.00    -0.354 N 
ATOM     59  N   UNL A   1      44.696  28.420  28.106  1.00  0.00    -0.248 NA
ATOM     60  C   UNL A   1      43.890  26.727  29.498  1.00  0.00     0.031 C 
ATOM     61  C   UNL A   1      43.849  32.222  31.107  1.00  0.00     0.029 A 
ATOM     62  C   UNL A   1      44.237  30.904  30.851  1.00  0.00     0.049 A 
ATOM     63  H   UNL A   1      44.438  29.441  32.350  1.00  0.00     0.167 HD
ATOM     64  C   UNL A   1      44.668  28.917  29.402  1.00  0.00     0.074 A 
ATOM     65  C   UNL A   1      44.233  27.791  30.229  1.00  0.00     0.031 C 
ATOM     66  C   UNL A   1      44.715  30.261  29.644  1.00  0.00     0.031 A 
BRANCH  53  67
ATOM     67  C   UNL A   1      42.192  29.045  34.261  1.00  0.00    -0.014 A 
ATOM     68  C   UNL A   1      42.762  27.821  33.852  1.00  0.00     0.010 A 
ATOM     69  C   UNL A   1      41.682  29.097  35.574  1.00  0.00     0.010 A 
ATOM     70  C   UNL A   1      42.744  26.692  34.681  1.00  0.00     0.020 A 
ATOM     71  C   UNL A   1      41.699  27.990  36.427  1.00  0.00     0.020 A 
ATOM     72  C   UNL A   1      42.198  26.783  35.960  1.00  0.00     0.054 A 
BRANCH  72  73
ATOM     73  S   UNL A   1      42.084  25.298  36.987  1.00  0.00     0.124 S 
ATOM     74  O   UNL A   1      41.006  25.651  37.904  1.00  0.00    -0.237 OA
ATOM     75  O   UNL A   1      41.769  24.267  36.002  1.00  0.00    -0.237 OA
ATOM     76  O   UNL A   1      43.412  25.196  37.586  1.00  0.00    -0.744 OA
ENDBRANCH  72  73
ENDBRANCH  53  67
BRANCH  54  77
ATOM     77  C   UNL A   1      43.130  25.479  26.532  1.00  0.00    -0.014 A 
ATOM     78  C   UNL A   1      43.468  25.277  25.179  1.00  0.00     0.010 A 
ATOM     79  C   UNL A   1      43.125  24.347  27.373  1.00  0.00     0.010 A 
ATOM     80  C   UNL A   1      43.841  24.006  24.700  1.00  0.00     0.020 A 
ATOM     81  C   UNL A   1      43.494  23.077  26.903  1.00  0.00     0.020 A 
ATOM     82  C   UNL A   1      43.871  22.915  25.573  1.00  0.00     0.054 A 
BRANCH  82  83
ATOM     83  S   UNL A   1      44.518  21.314  24.993  1.00  0.00     0.124 S 
ATOM     84  O   UNL A   1      44.631  21.527  23.553  1.00  0.00    -0.237 OA
ATOM     85  O   UNL A   1      45.781  21.201  25.715  1.00  0.00    -0.237 OA
ATOM     86  O   UNL A   1      43.488  20.360  25.398  1.00  0.00    -0.744 OA
ENDBRANCH  82  83
ENDBRANCH  54  77
BRANCH  66  87
ATOM     87  C   UNL A   1      45.095  31.193  28.518  1.00  0.00    -0.014 A 
ATOM     88  C   UNL A   1      44.188  31.705  27.569  1.00  0.00     0.010 A 
ATOM     89  C   UNL A   1      46.393  31.729  28.563  1.00  0.00     0.010 A 
ATOM     90  C   UNL A   1      44.578  32.731  26.691  1.00  0.00     0.020 A 
ATOM     91  C   UNL A   1      46.781  32.759  27.707  1.00  0.00     0.020 A 
ATOM     92  C   UNL A   1      45.872  33.255  26.772  1.00  0.00     0.054 A 
BRANCH  92  93
ATOM     93  S   UNL A   1      46.355  34.637  25.698  1.00  0.00     0.124 S 
ATOM     94  O   UNL A   1      45.480  34.462  24.543  1.00  0.00    -0.237 OA
ATOM     95  O   UNL A   1      46.077  35.808  26.528  1.00  0.00    -0.237 OA
ATOM     96  O   UNL A   1      47.775  34.398  25.439  1.00  0.00    -0.744 OA
ENDBRANCH  92  93
ENDBRANCH  66  87
ENDBRANCH  40  41
ENDBRANCH  32  35
ENDBRANCH  30  31
ENDBRANCH  29  30
ENDBRANCH   1  29
TORSDOF 19
ENDMDL
MODEL 3
REMARK VINA RESULT:     -12.2      1.057      2.839
REMARK SMILES COc1ccc(-c2ncn(CC(=O)NCCCCNC(=O)c3ccc(-c4c5nc(c(-c6ccc(S(=O)(=O)[O-])cc6)c6ccc([nH]6)c(-c6ccc(S(=O)(=O)[O-])cc6)c6nc(c(-c7ccc(S(=O)(=O)[O-])cc7)c7ccc4[nH]7)C=C6)C=C5)cc3)c2-c2ccc(OC)cc2)cc1
REMARK SMILES IDX 16 1 15 2 14 3 12 4 13 5 11 7 10 8 7 9 8 10 82 11 9 12 6 13
REMARK SMILES IDX 3 14 4 15 92 16 5 17 91 18 2 19 1 20 83 21 84 22 90 23 85 24
REMARK SMILES IDX 89 25 86 26 87 27 88 28 17 29 18 30 19 31 20 32 21 34 22 35
REMARK SMILES IDX 23 36 81 37 24 38 80 39 25 40 26 41 27 42 74 43 28 44 79 45
REMARK SMILES IDX 73 46 75 47 29 48 78 49 72 50 71 51 30 53 60 54 41 55 59 56
REMARK SMILES IDX 42 57 45 58 58 59 76 60 43 61 44 62 57 64 77 65 46 66 31 67
REMARK SMILES IDX 32 68 40 69 33 70 39 71 34 72 35 73 36 74 37 75 38 76 61 77
REMARK SMILES IDX 62 78 70 79 63 80 69 81 64 82 65 83 66 84 67 85 68 86 47 87
REMARK SMILES IDX 48 88 56 89 49 90 55 91 50 92 51 93 52 94 53 95 54 96
REMARK H PARENT 14 6 19 33 75 52 45 63
REMARK Flexibility Score: inf
ROOT
ATOM      1  C   UNL A   1      31.710  27.585  27.027  1.00  0.00     0.023 C 
ENDROOT
BRANCH   1   2
ATOM      2  C   UNL A   1      30.705  26.766  26.209  1.00  0.00     0.116 C 
BRANCH   2   3
ATOM      3  N   UNL A   1      30.848  26.940  24.776  1.00  0.00    -0.355 N 
ATOM      4  C   UNL A   1      31.257  26.055  23.821  1.00  0.00     0.239 C 
ATOM      5  O   UNL A   1      31.180  26.418  22.644  1.00  0.00    -0.273 OA
ATOM      6  H   UNL A   1      30.614  27.836  24.440  1.00  0.00     0.163 HD
BRANCH   4   7
ATOM      7  C   UNL A   1      31.733  24.658  24.167  1.00  0.00     0.223 C 
BRANCH   7   8
ATOM      8  N   UNL A   1      33.142  24.567  24.516  1.00  0.00    -0.321 N 
ATOM      9  C   UNL A   1      35.180  23.938  24.951  1.00  0.00     0.096 A 
ATOM     10  N   UNL A   1      35.165  25.306  25.060  1.00  0.00    -0.236 NA
ATOM     11  C   UNL A   1      33.912  23.434  24.687  1.00  0.00     0.076 A 
ATOM     12  C   UNL A   1      33.923  25.651  24.823  1.00  0.00     0.201 A 
BRANCH   9  13
ATOM     13  C   UNL A   1      36.375  23.144  25.159  1.00  0.00     0.003 A 
ATOM     14  C   UNL A   1      38.648  21.582  25.671  1.00  0.00     0.118 A 
ATOM     15  C   UNL A   1      37.645  21.107  24.825  1.00  0.00     0.047 A 
ATOM     16  C   UNL A   1      38.534  22.858  26.226  1.00  0.00     0.047 A 
ATOM     17  C   UNL A   1      36.509  21.878  24.575  1.00  0.00     0.014 A 
ATOM     18  C   UNL A   1      37.403  23.638  25.964  1.00  0.00     0.014 A 
BRANCH  14  19
ATOM     19  O   UNL A   1      39.713  20.741  25.843  1.00  0.00    -0.497 OA
ATOM     20  C   UNL A   1      40.458  20.936  27.039  1.00  0.00     0.278 C 
ENDBRANCH  14  19
ENDBRANCH   9  13
BRANCH  11  21
ATOM     21  C   UNL A   1      33.423  22.058  24.694  1.00  0.00     0.001 A 
ATOM     22  C   UNL A   1      33.402  21.284  25.853  1.00  0.00     0.014 A 
ATOM     23  C   UNL A   1      32.930  21.510  23.505  1.00  0.00     0.014 A 
ATOM     24  C   UNL A   1      32.953  19.961  25.807  1.00  0.00     0.047 A 
ATOM     25  C   UNL A   1      32.453  20.196  23.465  1.00  0.00     0.047 A 
ATOM     26  C   UNL A   1      32.474  19.411  24.617  1.00  0.00     0.118 A 
BRANCH  26  27
ATOM     27  O   UNL A   1      32.059  18.112  24.709  1.00  0.00    -0.497 OA
ATOM     28  C   UNL A   1      32.646  17.328  25.738  1.00  0.00     0.278 C 
ENDBRANCH  26  27
ENDBRANCH  11  21
ENDBRANCH   7   8
ENDBRANCH   4   7
ENDBRANCH   2   3
ENDBRANCH   1   2
BRANCH   1  29
ATOM     29  C   UNL A   1      32.472  28.690  26.286  1.00  0.00     0.023 C 
BRANCH  29  30
ATOM     30  C   UNL A   1      33.744  29.163  26.973  1.00  0.00     0.116 C 
BRANCH  30  31
ATOM     31  N   UNL A   1      33.871  30.623  27.019  1.00  0.00    -0.352 N 
ATOM     32  C   UNL A   1      34.806  31.379  27.715  1.00  0.00     0.251 C 
ATOM     33  H   UNL A   1      33.213  31.130  26.491  1.00  0.00     0.163 HD
ATOM     34  O   UNL A   1      34.595  32.546  27.993  1.00  0.00    -0.269 OA
BRANCH  32  35
ATOM     35  C   UNL A   1      36.082  30.735  28.082  1.00  0.00     0.039 A 
ATOM     36  C   UNL A   1      36.416  29.431  27.699  1.00  0.00     0.014 A 
ATOM     37  C   UNL A   1      36.970  31.509  28.817  1.00  0.00     0.014 A 
ATOM     38  C   UNL A   1      37.689  28.947  28.009  1.00  0.00     0.010 A 
ATOM     39  C   UNL A   1      38.272  31.122  28.925  1.00  0.00     0.010 A 
ATOM     40  C   UNL A   1      38.610  29.810  28.617  1.00  0.00    -0.014 A 
BRANCH  40  41
ATOM     41  C   UNL A   1      39.988  29.439  28.904  1.00  0.00     0.031 A 
ATOM     42  C   UNL A   1      40.285  29.281  30.355  1.00  0.00     0.074 A 
ATOM     43  C   UNL A   1      40.774  28.932  27.925  1.00  0.00     0.049 A 
ATOM     44  N   UNL A   1      41.051  30.009  31.098  1.00  0.00    -0.248 NA
ATOM     45  C   UNL A   1      39.496  28.291  31.112  1.00  0.00     0.031 C 
ATOM     46  C   UNL A   1      40.412  28.667  26.522  1.00  0.00     0.029 A 
ATOM     47  N   UNL A   1      42.015  28.388  28.006  1.00  0.00    -0.354 N 
ATOM     48  C   UNL A   1      41.030  29.409  32.357  1.00  0.00     0.074 A 
ATOM     49  C   UNL A   1      39.880  28.543  32.364  1.00  0.00     0.031 C 
ATOM     50  C   UNL A   1      41.292  27.795  25.980  1.00  0.00     0.029 A 
ATOM     51  C   UNL A   1      42.369  27.575  26.929  1.00  0.00     0.049 A 
ATOM     52  H   UNL A   1      42.618  28.553  28.765  1.00  0.00     0.167 HD
ATOM     53  C   UNL A   1      42.117  29.428  33.179  1.00  0.00     0.031 A 
ATOM     54  C   UNL A   1      43.444  26.747  26.851  1.00  0.00     0.031 A 
ATOM     55  C   UNL A   1      43.116  30.350  32.699  1.00  0.00     0.049 A 
ATOM     56  C   UNL A   1      44.380  27.169  27.924  1.00  0.00     0.074 A 
ATOM     57  C   UNL A   1      43.151  31.705  32.445  1.00  0.00     0.029 A 
ATOM     58  N   UNL A   1      44.169  29.800  32.005  1.00  0.00    -0.354 N 
ATOM     59  N   UNL A   1      44.968  28.334  27.952  1.00  0.00    -0.248 NA
ATOM     60  C   UNL A   1      44.276  26.491  29.208  1.00  0.00     0.031 C 
ATOM     61  C   UNL A   1      43.915  31.829  31.248  1.00  0.00     0.029 A 
ATOM     62  C   UNL A   1      44.380  30.562  30.887  1.00  0.00     0.049 A 
ATOM     63  H   UNL A   1      44.681  29.000  32.265  1.00  0.00     0.167 HD
ATOM     64  C   UNL A   1      44.919  28.725  29.284  1.00  0.00     0.074 A 
ATOM     65  C   UNL A   1      44.559  27.513  30.021  1.00  0.00     0.031 C 
ATOM     66  C   UNL A   1      44.887  30.046  29.632  1.00  0.00     0.031 A 
BRANCH  53  67
ATOM     67  C   UNL A   1      42.478  28.318  34.145  1.00  0.00    -0.014 A 
ATOM     68  C   UNL A   1      42.635  28.639  35.510  1.00  0.00     0.010 A 
ATOM     69  C   UNL A   1      42.933  27.047  33.739  1.00  0.00     0.010 A 
ATOM     70  C   UNL A   1      43.288  27.772  36.395  1.00  0.00     0.020 A 
ATOM     71  C   UNL A   1      43.544  26.155  34.622  1.00  0.00     0.020 A 
ATOM     72  C   UNL A   1      43.751  26.539  35.939  1.00  0.00     0.054 A 
BRANCH  72  73
ATOM     73  S   UNL A   1      44.683  25.468  37.060  1.00  0.00     0.124 S 
ATOM     74  O   UNL A   1      44.369  24.143  36.538  1.00  0.00    -0.237 OA
ATOM     75  O   UNL A   1      46.054  25.925  36.852  1.00  0.00    -0.237 OA
ATOM     76  O   UNL A   1      44.120  25.777  38.372  1.00  0.00    -0.744 OA
ENDBRANCH  72  73
ENDBRANCH  53  67
BRANCH  54  77
ATOM     77  C   UNL A   1      43.570  25.437  26.155  1.00  0.00    -0.014 A 
ATOM     78  C   UNL A   1      44.628  25.183  25.259  1.00  0.00     0.010 A 
ATOM     79  C   UNL A   1      42.812  24.330  26.592  1.00  0.00     0.010 A 
ATOM     80  C   UNL A   1      44.950  23.870  24.861  1.00  0.00     0.020 A 
ATOM     81  C   UNL A   1      43.126  23.020  26.199  1.00  0.00     0.020 A 
ATOM     82  C   UNL A   1      44.207  22.793  25.351  1.00  0.00     0.054 A 
BRANCH  82  83
ATOM     83  S   UNL A   1      44.731  21.090  24.973  1.00  0.00     0.124 S 
ATOM     84  O   UNL A   1      43.819  20.295  25.789  1.00  0.00    -0.237 OA
ATOM     85  O   UNL A   1      44.525  21.006  23.531  1.00  0.00    -0.237 OA
ATOM     86  O   UNL A   1      46.129  21.058  25.399  1.00  0.00    -0.744 OA
ENDBRANCH  82  83
ENDBRANCH  54  77
BRANCH  66  87
ATOM     87  C   UNL A   1      45.201  31.085  28.581  1.00  0.00    -0.014 A 
ATOM     88  C   UNL A   1      44.263  31.595  27.662  1.00  0.00     0.010 A 
ATOM     89  C   UNL A   1      46.454  31.714  28.682  1.00  0.00     0.010 A 
ATOM     90  C   UNL A   1      44.578  32.711  26.867  1.00  0.00     0.020 A 
ATOM     91  C   UNL A   1      46.766  32.832  27.908  1.00  0.00     0.020 A 
ATOM     92  C   UNL A   1      45.828  33.325  27.002  1.00  0.00     0.054 A 
BRANCH  92  93
ATOM     93  S   UNL A   1      46.210  34.816  26.038  1.00  0.00     0.124 S 
ATOM     94  O   UNL A   1      45.062  34.917  25.141  1.00  0.00    -0.237 OA
ATOM     95  O   UNL A   1      46.302  35.853  27.064  1.00  0.00    -0.237 OA
ATOM     96  O   UNL A   1      47.478  34.492  25.384  1.00  0.00    -0.744 OA
ENDBRANCH  92  93
ENDBRANCH  66  87
ENDBRANCH  40  41
ENDBRANCH  32  35
ENDBRANCH  30  31
ENDBRANCH  29  30
ENDBRANCH   1  29
TORSDOF 19
ENDMDL
