MODEL 1
REMARK VINA RESULT:     -10.2      0.000      0.000
REMARK SMILES COCCCC(=O)N[C@H]1CC[C@@H](C(=O)NCCCCNC(=O)c2ccc(-c3c4nc(c(-c5ccc(S(=O)(=O)[O-])cc5)c5ccc([nH]5)c(-c5ccc(S(=O)(=O)[O-])cc5)c5nc(c(-c6ccc(S(=O)(=O)[O-])cc6)c6ccc3[nH]6)C=C5)C=C4)cc2)CC1
REMARK SMILES IDX 16 1 15 2 13 3 14 4 12 6 9 7 10 8 84 9 11 10 83 11 8 12 6 13
REMARK SMILES IDX 7 14 5 16 4 17 3 18 2 19 1 20 17 21 18 22 19 23 20 24 21 25
REMARK SMILES IDX 22 27 23 28 24 29 82 30 25 31 81 32 26 33 27 34 28 35 75 36
REMARK SMILES IDX 29 37 80 38 74 39 76 40 30 41 79 42 73 43 72 44 31 46 61 47
REMARK SMILES IDX 42 48 60 49 43 50 46 51 59 52 77 53 44 54 45 55 58 57 78 58
REMARK SMILES IDX 47 59 32 60 33 61 41 62 34 63 40 64 35 65 36 66 37 67 38 68
REMARK SMILES IDX 39 69 62 70 63 71 71 72 64 73 70 74 65 75 66 76 67 77 68 78
REMARK SMILES IDX 69 79 48 80 49 81 57 82 50 83 56 84 51 85 52 86 53 87 54 88
REMARK SMILES IDX 55 89
REMARK H PARENT 15 5 8 15 20 26 76 45 46 56
REMARK Flexibility Score: inf
ROOT
ATOM      1  C   UNL A   1      32.499  28.296  23.542  1.00  0.00     0.116 C 
ENDROOT
BRANCH   1   2
ATOM      2  N   UNL A   1      33.364  27.281  22.994  1.00  0.00    -0.356 N 
ATOM      3  C   UNL A   1      33.231  25.931  22.948  1.00  0.00     0.223 C 
ATOM      4  O   UNL A   1      33.952  25.341  22.134  1.00  0.00    -0.275 OA
ATOM      5  H   UNL A   1      34.190  27.626  22.585  1.00  0.00     0.163 HD
BRANCH   3   6
ATOM      6  C   UNL A   1      32.258  25.103  23.812  1.00  0.00     0.078 C 
ATOM      7  C   UNL A   1      33.287  22.547  25.129  1.00  0.00     0.082 C 
ATOM      8  C   UNL A   1      33.533  23.951  25.684  1.00  0.00     0.026 C 
ATOM      9  C   UNL A   1      32.468  22.496  23.811  1.00  0.00     0.026 C 
ATOM     10  C   UNL A   1      32.557  25.041  25.300  1.00  0.00     0.015 C 
ATOM     11  C   UNL A   1      31.791  23.758  23.276  1.00  0.00     0.015 C 
BRANCH   7  12
ATOM     12  N   UNL A   1      34.546  21.803  24.876  1.00  0.00    -0.353 N 
ATOM     13  C   UNL A   1      34.946  20.510  24.939  1.00  0.00     0.220 C 
ATOM     14  O   UNL A   1      36.163  20.320  24.940  1.00  0.00    -0.275 OA
ATOM     15  H   UNL A   1      35.274  22.401  24.591  1.00  0.00     0.163 HD
BRANCH  13  16
ATOM     16  C   UNL A   1      33.981  19.355  25.004  1.00  0.00     0.102 C 
BRANCH  16  17
ATOM     17  C   UNL A   1      34.489  18.064  24.355  1.00  0.00     0.038 C 
BRANCH  17  18
ATOM     18  C   UNL A   1      33.385  17.090  23.922  1.00  0.00     0.160 C 
BRANCH  18  19
ATOM     19  O   UNL A   1      33.182  17.121  22.511  1.00  0.00    -0.385 OA
ATOM     20  C   UNL A   1      32.321  18.166  22.075  1.00  0.00     0.194 C 
ENDBRANCH  18  19
ENDBRANCH  17  18
ENDBRANCH  16  17
ENDBRANCH  13  16
ENDBRANCH   7  12
ENDBRANCH   3   6
ENDBRANCH   1   2
BRANCH   1  21
ATOM     21  C   UNL A   1      33.086  29.104  24.690  1.00  0.00     0.023 C 
BRANCH  21  22
ATOM     22  C   UNL A   1      32.507  28.763  26.057  1.00  0.00     0.023 C 
BRANCH  22  23
ATOM     23  C   UNL A   1      33.446  28.953  27.248  1.00  0.00     0.116 C 
BRANCH  23  24
ATOM     24  N   UNL A   1      33.536  30.315  27.759  1.00  0.00    -0.352 N 
ATOM     25  C   UNL A   1      34.607  30.945  28.363  1.00  0.00     0.251 C 
ATOM     26  H   UNL A   1      32.722  30.860  27.662  1.00  0.00     0.163 HD
ATOM     27  O   UNL A   1      34.515  32.071  28.827  1.00  0.00    -0.269 OA
BRANCH  25  28
ATOM     28  C   UNL A   1      35.880  30.208  28.485  1.00  0.00     0.039 A 
ATOM     29  C   UNL A   1      36.772  30.228  27.412  1.00  0.00     0.014 A 
ATOM     30  C   UNL A   1      36.223  29.593  29.690  1.00  0.00     0.014 A 
ATOM     31  C   UNL A   1      38.065  29.737  27.595  1.00  0.00     0.010 A 
ATOM     32  C   UNL A   1      37.539  29.205  29.901  1.00  0.00     0.010 A 
ATOM     33  C   UNL A   1      38.477  29.288  28.861  1.00  0.00    -0.014 A 
BRANCH  33  34
ATOM     34  C   UNL A   1      39.892  28.931  29.126  1.00  0.00     0.031 A 
ATOM     35  C   UNL A   1      40.822  29.949  29.726  1.00  0.00     0.074 A 
ATOM     36  C   UNL A   1      40.355  27.722  28.750  1.00  0.00     0.049 A 
ATOM     37  N   UNL A   1      42.105  29.851  29.964  1.00  0.00    -0.248 NA
ATOM     38  C   UNL A   1      40.246  31.259  30.070  1.00  0.00     0.031 C 
ATOM     39  C   UNL A   1      39.566  26.673  28.095  1.00  0.00     0.029 A 
ATOM     40  N   UNL A   1      41.606  27.169  28.860  1.00  0.00    -0.354 N 
ATOM     41  C   UNL A   1      42.490  31.092  30.459  1.00  0.00     0.074 A 
ATOM     42  C   UNL A   1      41.321  31.941  30.433  1.00  0.00     0.031 C 
ATOM     43  C   UNL A   1      40.339  25.592  27.902  1.00  0.00     0.029 A 
ATOM     44  C   UNL A   1      41.686  25.883  28.377  1.00  0.00     0.049 A 
ATOM     45  H   UNL A   1      42.374  27.647  29.247  1.00  0.00     0.167 HD
ATOM     46  C   UNL A   1      43.702  31.481  30.918  1.00  0.00     0.031 A 
ATOM     47  C   UNL A   1      42.730  25.031  28.327  1.00  0.00     0.031 A 
ATOM     48  C   UNL A   1      44.852  30.622  30.971  1.00  0.00     0.049 A 
ATOM     49  C   UNL A   1      44.058  25.475  28.871  1.00  0.00     0.074 A 
ATOM     50  C   UNL A   1      46.110  30.896  31.478  1.00  0.00     0.029 A 
ATOM     51  N   UNL A   1      44.884  29.316  30.505  1.00  0.00    -0.354 N 
ATOM     52  N   UNL A   1      44.386  26.632  29.398  1.00  0.00    -0.248 NA
ATOM     53  C   UNL A   1      45.154  24.498  28.827  1.00  0.00     0.031 C 
ATOM     54  C   UNL A   1      46.913  29.767  31.286  1.00  0.00     0.029 A 
ATOM     55  C   UNL A   1      46.142  28.774  30.701  1.00  0.00     0.049 A 
ATOM     56  H   UNL A   1      44.124  28.843  30.095  1.00  0.00     0.167 HD
ATOM     57  C   UNL A   1      45.719  26.512  29.770  1.00  0.00     0.074 A 
ATOM     58  C   UNL A   1      46.133  25.167  29.422  1.00  0.00     0.031 C 
ATOM     59  C   UNL A   1      46.529  27.432  30.349  1.00  0.00     0.031 A 
BRANCH  46  60
ATOM     60  C   UNL A   1      43.832  32.898  31.407  1.00  0.00    -0.014 A 
ATOM     61  C   UNL A   1      44.063  33.956  30.509  1.00  0.00     0.010 A 
ATOM     62  C   UNL A   1      43.706  33.180  32.778  1.00  0.00     0.010 A 
ATOM     63  C   UNL A   1      44.215  35.263  30.977  1.00  0.00     0.020 A 
ATOM     64  C   UNL A   1      43.829  34.491  33.250  1.00  0.00     0.020 A 
ATOM     65  C   UNL A   1      44.102  35.521  32.347  1.00  0.00     0.054 A 
BRANCH  65  66
ATOM     66  S   UNL A   1      44.291  37.229  32.928  1.00  0.00     0.124 S 
ATOM     67  O   UNL A   1      43.019  37.458  33.607  1.00  0.00    -0.237 OA
ATOM     68  O   UNL A   1      45.462  37.145  33.799  1.00  0.00    -0.237 OA
ATOM     69  O   UNL A   1      44.488  37.993  31.698  1.00  0.00    -0.744 OA
ENDBRANCH  65  66
ENDBRANCH  46  60
BRANCH  47  70
ATOM     70  C   UNL A   1      42.549  23.663  27.766  1.00  0.00    -0.014 A 
ATOM     71  C   UNL A   1      42.775  23.421  26.400  1.00  0.00     0.010 A 
ATOM     72  C   UNL A   1      42.167  22.594  28.596  1.00  0.00     0.010 A 
ATOM     73  C   UNL A   1      42.605  22.138  25.869  1.00  0.00     0.020 A 
ATOM     74  C   UNL A   1      42.020  21.305  28.075  1.00  0.00     0.020 A 
ATOM     75  C   UNL A   1      42.228  21.088  26.711  1.00  0.00     0.054 A 
BRANCH  75  76
ATOM     76  S   UNL A   1      42.061  19.422  26.012  1.00  0.00     0.124 S 
ATOM     77  O   UNL A   1      42.921  19.498  24.836  1.00  0.00    -0.237 OA
ATOM     78  O   UNL A   1      42.546  18.571  27.097  1.00  0.00    -0.237 OA
ATOM     79  O   UNL A   1      40.630  19.308  25.737  1.00  0.00    -0.744 OA
ENDBRANCH  75  76
ENDBRANCH  47  70
BRANCH  59  80
ATOM     80  C   UNL A   1      47.936  27.006  30.672  1.00  0.00    -0.014 A 
ATOM     81  C   UNL A   1      49.008  27.341  29.828  1.00  0.00     0.010 A 
ATOM     82  C   UNL A   1      48.191  26.315  31.871  1.00  0.00     0.010 A 
ATOM     83  C   UNL A   1      50.311  26.967  30.164  1.00  0.00     0.020 A 
ATOM     84  C   UNL A   1      49.495  25.962  32.221  1.00  0.00     0.020 A 
ATOM     85  C   UNL A   1      50.547  26.278  31.358  1.00  0.00     0.054 A 
BRANCH  85  86
ATOM     86  S   UNL A   1      52.253  25.848  31.797  1.00  0.00     0.124 S 
ATOM     87  O   UNL A   1      52.108  24.469  32.257  1.00  0.00    -0.237 OA
ATOM     88  O   UNL A   1      52.963  26.017  30.532  1.00  0.00    -0.237 OA
ATOM     89  O   UNL A   1      52.598  26.818  32.834  1.00  0.00    -0.744 OA
ENDBRANCH  85  86
ENDBRANCH  59  80
ENDBRANCH  33  34
ENDBRANCH  25  28
ENDBRANCH  23  24
ENDBRANCH  22  23
ENDBRANCH  21  22
ENDBRANCH   1  21
TORSDOF 19
ENDMDL
MODEL 2
REMARK VINA RESULT:     -10.0      1.426      2.037
REMARK SMILES COCCCC(=O)N[C@H]1CC[C@@H](C(=O)NCCCCNC(=O)c2ccc(-c3c4nc(c(-c5ccc(S(=O)(=O)[O-])cc5)c5ccc([nH]5)c(-c5ccc(S(=O)(=O)[O-])cc5)c5nc(c(-c6ccc(S(=O)(=O)[O-])cc6)c6ccc3[nH]6)C=C5)C=C4)cc2)CC1
REMARK SMILES IDX 16 1 15 2 13 3 14 4 12 6 9 7 10 8 84 9 11 10 83 11 8 12 6 13
REMARK SMILES IDX 7 14 5 16 4 17 3 18 2 19 1 20 17 21 18 22 19 23 20 24 21 25
REMARK SMILES IDX 22 27 23 28 24 29 82 30 25 31 81 32 26 33 27 34 28 35 75 36
REMARK SMILES IDX 29 37 80 38 74 39 76 40 30 41 79 42 73 43 72 44 31 46 61 47
REMARK SMILES IDX 42 48 60 49 43 50 46 51 59 52 77 53 44 54 45 55 58 57 78 58
REMARK SMILES IDX 47 59 32 60 33 61 41 62 34 63 40 64 35 65 36 66 37 67 38 68
REMARK SMILES IDX 39 69 62 70 63 71 71 72 64 73 70 74 65 75 66 76 67 77 68 78
REMARK SMILES IDX 69 79 48 80 49 81 57 82 50 83 56 84 51 85 52 86 53 87 54 88
REMARK SMILES IDX 55 89
REMARK H PARENT 15 5 8 15 20 26 76 45 46 56
REMARK Flexibility Score: inf
ROOT
ATOM      1  C   UNL A   1      33.109  28.268  23.144  1.00  0.00     0.116 C 
ENDROOT
BRANCH   1   2
ATOM      2  N   UNL A   1      33.530  27.003  22.596  1.00  0.00    -0.356 N 
ATOM      3  C   UNL A   1      32.831  25.867  22.343  1.00  0.00     0.223 C 
ATOM      4  O   UNL A   1      33.364  25.060  21.572  1.00  0.00    -0.275 OA
ATOM      5  H   UNL A   1      34.487  26.955  22.367  1.00  0.00     0.163 HD
BRANCH   3   6
ATOM      6  C   UNL A   1      31.445  25.527  22.928  1.00  0.00     0.078 C 
ATOM      7  C   UNL A   1      31.295  24.352  25.743  1.00  0.00     0.082 C 
ATOM      8  C   UNL A   1      31.471  25.843  25.449  1.00  0.00     0.026 C 
ATOM      9  C   UNL A   1      31.204  23.442  24.488  1.00  0.00     0.026 C 
ATOM     10  C   UNL A   1      30.986  26.360  24.112  1.00  0.00     0.015 C 
ATOM     11  C   UNL A   1      31.078  24.060  23.095  1.00  0.00     0.015 C 
BRANCH   7  12
ATOM     12  N   UNL A   1      32.383  23.803  26.589  1.00  0.00    -0.353 N 
ATOM     13  C   UNL A   1      33.738  23.790  26.550  1.00  0.00     0.220 C 
ATOM     14  O   UNL A   1      34.291  22.969  27.284  1.00  0.00    -0.275 OA
ATOM     15  H   UNL A   1      32.032  23.330  27.377  1.00  0.00     0.163 HD
BRANCH  13  16
ATOM     16  C   UNL A   1      34.543  24.711  25.671  1.00  0.00     0.102 C 
BRANCH  16  17
ATOM     17  C   UNL A   1      35.561  24.003  24.772  1.00  0.00     0.038 C 
BRANCH  17  18
ATOM     18  C   UNL A   1      35.009  22.789  24.014  1.00  0.00     0.160 C 
BRANCH  18  19
ATOM     19  O   UNL A   1      35.791  21.621  24.253  1.00  0.00    -0.385 OA
ATOM     20  C   UNL A   1      37.077  21.890  24.796  1.00  0.00     0.194 C 
ENDBRANCH  18  19
ENDBRANCH  17  18
ENDBRANCH  16  17
ENDBRANCH  13  16
ENDBRANCH   7  12
ENDBRANCH   3   6
ENDBRANCH   1   2
BRANCH   1  21
ATOM     21  C   UNL A   1      33.829  28.702  24.413  1.00  0.00     0.023 C 
BRANCH  21  22
ATOM     22  C   UNL A   1      32.903  29.125  25.545  1.00  0.00     0.023 C 
BRANCH  22  23
ATOM     23  C   UNL A   1      33.505  29.091  26.950  1.00  0.00     0.116 C 
BRANCH  23  24
ATOM     24  N   UNL A   1      33.523  30.369  27.650  1.00  0.00    -0.352 N 
ATOM     25  C   UNL A   1      34.536  30.929  28.406  1.00  0.00     0.251 C 
ATOM     26  H   UNL A   1      32.703  30.908  27.575  1.00  0.00     0.163 HD
ATOM     27  O   UNL A   1      34.383  31.977  29.014  1.00  0.00    -0.269 OA
BRANCH  25  28
ATOM     28  C   UNL A   1      35.819  30.206  28.509  1.00  0.00     0.039 A 
ATOM     29  C   UNL A   1      36.697  30.238  27.425  1.00  0.00     0.014 A 
ATOM     30  C   UNL A   1      36.185  29.593  29.708  1.00  0.00     0.014 A 
ATOM     31  C   UNL A   1      37.997  29.762  27.590  1.00  0.00     0.010 A 
ATOM     32  C   UNL A   1      37.508  29.219  29.901  1.00  0.00     0.010 A 
ATOM     33  C   UNL A   1      38.431  29.315  28.849  1.00  0.00    -0.014 A 
BRANCH  33  34
ATOM     34  C   UNL A   1      39.854  28.974  29.095  1.00  0.00     0.031 A 
ATOM     35  C   UNL A   1      40.783  30.004  29.674  1.00  0.00     0.074 A 
ATOM     36  C   UNL A   1      40.322  27.766  28.721  1.00  0.00     0.049 A 
ATOM     37  N   UNL A   1      42.070  29.921  29.892  1.00  0.00    -0.248 NA
ATOM     38  C   UNL A   1      40.199  31.312  30.016  1.00  0.00     0.031 C 
ATOM     39  C   UNL A   1      39.533  26.705  28.087  1.00  0.00     0.029 A 
ATOM     40  N   UNL A   1      41.579  27.225  28.816  1.00  0.00    -0.354 N 
ATOM     41  C   UNL A   1      42.450  31.169  30.372  1.00  0.00     0.074 A 
ATOM     42  C   UNL A   1      41.273  32.007  30.358  1.00  0.00     0.031 C 
ATOM     43  C   UNL A   1      40.314  25.630  27.890  1.00  0.00     0.029 A 
ATOM     44  C   UNL A   1      41.665  25.936  28.342  1.00  0.00     0.049 A 
ATOM     45  H   UNL A   1      42.349  27.714  29.188  1.00  0.00     0.167 HD
ATOM     46  C   UNL A   1      43.666  31.573  30.809  1.00  0.00     0.031 A 
ATOM     47  C   UNL A   1      42.716  25.094  28.282  1.00  0.00     0.031 A 
ATOM     48  C   UNL A   1      44.825  30.726  30.851  1.00  0.00     0.049 A 
ATOM     49  C   UNL A   1      44.048  25.556  28.803  1.00  0.00     0.074 A 
ATOM     50  C   UNL A   1      46.088  31.016  31.337  1.00  0.00     0.029 A 
ATOM     51  N   UNL A   1      44.861  29.416  30.394  1.00  0.00    -0.354 N 
ATOM     52  N   UNL A   1      44.372  26.719  29.315  1.00  0.00    -0.248 NA
ATOM     53  C   UNL A   1      45.152  24.588  28.749  1.00  0.00     0.031 C 
ATOM     54  C   UNL A   1      46.898  29.893  31.140  1.00  0.00     0.029 A 
ATOM     55  C   UNL A   1      46.128  28.888  30.575  1.00  0.00     0.049 A 
ATOM     56  H   UNL A   1      44.100  28.933  29.999  1.00  0.00     0.167 HD
ATOM     57  C   UNL A   1      45.713  26.615  29.668  1.00  0.00     0.074 A 
ATOM     58  C   UNL A   1      46.133  25.271  29.324  1.00  0.00     0.031 C 
ATOM     59  C   UNL A   1      46.523  27.547  30.227  1.00  0.00     0.031 A 
BRANCH  46  60
ATOM     60  C   UNL A   1      43.789  32.995  31.285  1.00  0.00    -0.014 A 
ATOM     61  C   UNL A   1      43.549  33.334  32.629  1.00  0.00     0.010 A 
ATOM     62  C   UNL A   1      44.166  34.005  30.382  1.00  0.00     0.010 A 
ATOM     63  C   UNL A   1      43.635  34.662  33.051  1.00  0.00     0.020 A 
ATOM     64  C   UNL A   1      44.280  35.333  30.805  1.00  0.00     0.020 A 
ATOM     65  C   UNL A   1      43.994  35.654  32.134  1.00  0.00     0.054 A 
BRANCH  65  66
ATOM     66  S   UNL A   1      44.110  37.370  32.711  1.00  0.00     0.124 S 
ATOM     67  O   UNL A   1      43.941  38.118  31.469  1.00  0.00    -0.237 OA
ATOM     68  O   UNL A   1      43.001  37.467  33.658  1.00  0.00    -0.237 OA
ATOM     69  O   UNL A   1      45.442  37.445  33.309  1.00  0.00    -0.744 OA
ENDBRANCH  65  66
ENDBRANCH  46  60
BRANCH  47  70
ATOM     70  C   UNL A   1      42.540  23.721  27.735  1.00  0.00    -0.014 A 
ATOM     71  C   UNL A   1      42.342  22.632  28.601  1.00  0.00     0.010 A 
ATOM     72  C   UNL A   1      42.554  23.496  26.346  1.00  0.00     0.010 A 
ATOM     73  C   UNL A   1      42.178  21.340  28.091  1.00  0.00     0.020 A 
ATOM     74  C   UNL A   1      42.366  22.210  25.831  1.00  0.00     0.020 A 
ATOM     75  C   UNL A   1      42.192  21.137  26.708  1.00  0.00     0.054 A 
BRANCH  75  76
ATOM     76  S   UNL A   1      41.928  19.461  26.066  1.00  0.00     0.124 S 
ATOM     77  O   UNL A   1      42.390  18.634  27.175  1.00  0.00    -0.237 OA
ATOM     78  O   UNL A   1      40.488  19.438  25.816  1.00  0.00    -0.237 OA
ATOM     79  O   UNL A   1      42.759  19.421  24.865  1.00  0.00    -0.744 OA
ENDBRANCH  75  76
ENDBRANCH  47  70
BRANCH  59  80
ATOM     80  C   UNL A   1      47.938  27.137  30.532  1.00  0.00    -0.014 A 
ATOM     81  C   UNL A   1      48.964  27.316  29.589  1.00  0.00     0.010 A 
ATOM     82  C   UNL A   1      48.251  26.624  31.804  1.00  0.00     0.010 A 
ATOM     83  C   UNL A   1      50.278  26.962  29.904  1.00  0.00     0.020 A 
ATOM     84  C   UNL A   1      49.567  26.292  32.130  1.00  0.00     0.020 A 
ATOM     85  C   UNL A   1      50.571  26.451  31.173  1.00  0.00     0.054 A 
BRANCH  85  86
ATOM     86  S   UNL A   1      52.292  26.045  31.576  1.00  0.00     0.124 S 
ATOM     87  O   UNL A   1      52.597  27.022  32.619  1.00  0.00    -0.237 OA
ATOM     88  O   UNL A   1      52.200  24.658  32.023  1.00  0.00    -0.237 OA
ATOM     89  O   UNL A   1      52.998  26.242  30.312  1.00  0.00    -0.744 OA
ENDBRANCH  85  86
ENDBRANCH  59  80
ENDBRANCH  33  34
ENDBRANCH  25  28
ENDBRANCH  23  24
ENDBRANCH  22  23
ENDBRANCH  21  22
ENDBRANCH   1  21
TORSDOF 19
ENDMDL
MODEL 3
REMARK VINA RESULT:      -9.5      4.915     10.210
REMARK SMILES COCCCC(=O)N[C@H]1CC[C@@H](C(=O)NCCCCNC(=O)c2ccc(-c3c4nc(c(-c5ccc(S(=O)(=O)[O-])cc5)c5ccc([nH]5)c(-c5ccc(S(=O)(=O)[O-])cc5)c5nc(c(-c6ccc(S(=O)(=O)[O-])cc6)c6ccc3[nH]6)C=C5)C=C4)cc2)CC1
REMARK SMILES IDX 16 1 15 2 13 3 14 4 12 6 9 7 10 8 84 9 11 10 83 11 8 12 6 13
REMARK SMILES IDX 7 14 5 16 4 17 3 18 2 19 1 20 17 21 18 22 19 23 20 24 21 25
REMARK SMILES IDX 22 27 23 28 24 29 82 30 25 31 81 32 26 33 27 34 28 35 75 36
REMARK SMILES IDX 29 37 80 38 74 39 76 40 30 41 79 42 73 43 72 44 31 46 61 47
REMARK SMILES IDX 42 48 60 49 43 50 46 51 59 52 77 53 44 54 45 55 58 57 78 58
REMARK SMILES IDX 47 59 32 60 33 61 41 62 34 63 40 64 35 65 36 66 37 67 38 68
REMARK SMILES IDX 39 69 62 70 63 71 71 72 64 73 70 74 65 75 66 76 67 77 68 78
REMARK SMILES IDX 69 79 48 80 49 81 57 82 50 83 56 84 51 85 52 86 53 87 54 88
REMARK SMILES IDX 55 89
REMARK H PARENT 15 5 8 15 20 26 76 45 46 56
REMARK Flexibility Score: inf
ROOT
ATOM      1  C   UNL A   1      31.609  29.816  25.391  1.00  0.00     0.116 C 
ENDROOT
BRANCH   1   2
ATOM      2  N   UNL A   1      32.660  29.753  24.406  1.00  0.00    -0.356 N 
ATOM      3  C   UNL A   1      33.383  28.702  23.945  1.00  0.00     0.223 C 
ATOM      4  O   UNL A   1      33.978  28.878  22.875  1.00  0.00    -0.275 OA
ATOM      5  H   UNL A   1      32.891  30.620  24.000  1.00  0.00     0.163 HD
BRANCH   3   6
ATOM      6  C   UNL A   1      33.502  27.330  24.641  1.00  0.00     0.078 C 
ATOM      7  C   UNL A   1      31.080  25.470  24.627  1.00  0.00     0.082 C 
ATOM      8  C   UNL A   1      32.042  25.628  23.448  1.00  0.00     0.026 C 
ATOM      9  C   UNL A   1      31.412  26.345  25.866  1.00  0.00     0.026 C 
ATOM     10  C   UNL A   1      33.446  26.107  23.743  1.00  0.00     0.015 C 
ATOM     11  C   UNL A   1      32.732  27.114  25.935  1.00  0.00     0.015 C 
BRANCH   7  12
ATOM     12  N   UNL A   1      29.673  25.766  24.262  1.00  0.00    -0.353 N 
ATOM     13  C   UNL A   1      28.999  26.825  23.751  1.00  0.00     0.220 C 
ATOM     14  O   UNL A   1      27.773  26.791  23.866  1.00  0.00    -0.275 OA
ATOM     15  H   UNL A   1      29.080  25.000  24.433  1.00  0.00     0.163 HD
BRANCH  13  16
ATOM     16  C   UNL A   1      29.683  27.987  23.079  1.00  0.00     0.102 C 
BRANCH  16  17
ATOM     17  C   UNL A   1      28.925  29.315  23.178  1.00  0.00     0.038 C 
BRANCH  17  18
ATOM     18  C   UNL A   1      27.939  29.574  22.033  1.00  0.00     0.160 C 
BRANCH  18  19
ATOM     19  O   UNL A   1      28.067  30.898  21.519  1.00  0.00    -0.385 OA
ATOM     20  C   UNL A   1      28.829  31.766  22.349  1.00  0.00     0.194 C 
ENDBRANCH  18  19
ENDBRANCH  17  18
ENDBRANCH  16  17
ENDBRANCH  13  16
ENDBRANCH   7  12
ENDBRANCH   3   6
ENDBRANCH   1   2
BRANCH   1  21
ATOM     21  C   UNL A   1      31.786  30.878  26.467  1.00  0.00     0.023 C 
BRANCH  21  22
ATOM     22  C   UNL A   1      33.013  30.681  27.347  1.00  0.00     0.023 C 
BRANCH  22  23
ATOM     23  C   UNL A   1      33.938  31.890  27.486  1.00  0.00     0.116 C 
BRANCH  23  24
ATOM     24  N   UNL A   1      33.265  33.171  27.665  1.00  0.00    -0.352 N 
ATOM     25  C   UNL A   1      33.493  34.143  28.620  1.00  0.00     0.251 C 
ATOM     26  H   UNL A   1      32.551  33.371  27.018  1.00  0.00     0.163 HD
ATOM     27  O   UNL A   1      32.790  35.139  28.708  1.00  0.00    -0.269 OA
BRANCH  25  28
ATOM     28  C   UNL A   1      34.593  33.940  29.583  1.00  0.00     0.039 A 
ATOM     29  C   UNL A   1      34.335  33.233  30.758  1.00  0.00     0.014 A 
ATOM     30  C   UNL A   1      35.887  34.359  29.270  1.00  0.00     0.014 A 
ATOM     31  C   UNL A   1      35.404  32.835  31.560  1.00  0.00     0.010 A 
ATOM     32  C   UNL A   1      36.955  33.871  30.011  1.00  0.00     0.010 A 
ATOM     33  C   UNL A   1      36.724  33.091  31.155  1.00  0.00    -0.014 A 
BRANCH  33  34
ATOM     34  C   UNL A   1      37.879  32.524  31.894  1.00  0.00     0.031 A 
ATOM     35  C   UNL A   1      38.637  31.359  31.322  1.00  0.00     0.074 A 
ATOM     36  C   UNL A   1      38.188  33.007  33.115  1.00  0.00     0.049 A 
ATOM     37  N   UNL A   1      39.624  30.681  31.850  1.00  0.00    -0.248 NA
ATOM     38  C   UNL A   1      38.208  30.867  30.003  1.00  0.00     0.031 C 
ATOM     39  C   UNL A   1      37.483  34.091  33.807  1.00  0.00     0.029 A 
ATOM     40  N   UNL A   1      39.175  32.645  33.996  1.00  0.00    -0.354 N 
ATOM     41  C   UNL A   1      39.913  29.671  30.940  1.00  0.00     0.074 A 
ATOM     42  C   UNL A   1      38.963  29.789  29.857  1.00  0.00     0.031 C 
ATOM     43  C   UNL A   1      38.087  34.333  34.982  1.00  0.00     0.029 A 
ATOM     44  C   UNL A   1      39.191  33.396  35.149  1.00  0.00     0.049 A 
ATOM     45  H   UNL A   1      39.813  31.916  33.821  1.00  0.00     0.167 HD
ATOM     46  C   UNL A   1      40.898  28.745  30.989  1.00  0.00     0.031 A 
ATOM     47  C   UNL A   1      40.008  33.339  36.220  1.00  0.00     0.031 A 
ATOM     48  C   UNL A   1      41.859  28.652  32.052  1.00  0.00     0.049 A 
ATOM     49  C   UNL A   1      41.114  32.321  36.236  1.00  0.00     0.074 A 
ATOM     50  C   UNL A   1      42.938  27.793  32.167  1.00  0.00     0.029 A 
ATOM     51  N   UNL A   1      41.863  29.454  33.184  1.00  0.00    -0.354 N 
ATOM     52  N   UNL A   1      41.414  31.418  35.334  1.00  0.00    -0.248 NA
ATOM     53  C   UNL A   1      42.000  32.324  37.409  1.00  0.00     0.031 C 
ATOM     54  C   UNL A   1      43.572  28.051  33.387  1.00  0.00     0.029 A 
ATOM     55  C   UNL A   1      42.916  29.102  34.009  1.00  0.00     0.049 A 
ATOM     56  H   UNL A   1      41.211  30.168  33.374  1.00  0.00     0.167 HD
ATOM     57  C   UNL A   1      42.538  30.760  35.819  1.00  0.00     0.074 A 
ATOM     58  C   UNL A   1      42.872  31.379  37.085  1.00  0.00     0.031 C 
ATOM     59  C   UNL A   1      43.232  29.735  35.265  1.00  0.00     0.031 A 
BRANCH  46  60
ATOM     60  C   UNL A   1      40.982  27.766  29.848  1.00  0.00    -0.014 A 
ATOM     61  C   UNL A   1      42.121  27.708  29.025  1.00  0.00     0.010 A 
ATOM     62  C   UNL A   1      39.916  26.882  29.605  1.00  0.00     0.010 A 
ATOM     63  C   UNL A   1      42.173  26.819  27.949  1.00  0.00     0.020 A 
ATOM     64  C   UNL A   1      39.975  25.971  28.546  1.00  0.00     0.020 A 
ATOM     65  C   UNL A   1      41.096  25.959  27.714  1.00  0.00     0.054 A 
BRANCH  65  66
ATOM     66  S   UNL A   1      41.195  24.805  26.318  1.00  0.00     0.124 S 
ATOM     67  O   UNL A   1      42.430  24.083  26.611  1.00  0.00    -0.237 OA
ATOM     68  O   UNL A   1      39.966  24.027  26.456  1.00  0.00    -0.237 OA
ATOM     69  O   UNL A   1      41.246  25.679  25.149  1.00  0.00    -0.744 OA
ENDBRANCH  65  66
ENDBRANCH  46  60
BRANCH  47  70
ATOM     70  C   UNL A   1      39.827  34.294  37.347  1.00  0.00    -0.014 A 
ATOM     71  C   UNL A   1      39.095  33.916  38.487  1.00  0.00     0.010 A 
ATOM     72  C   UNL A   1      40.397  35.579  37.296  1.00  0.00     0.010 A 
ATOM     73  C   UNL A   1      38.921  34.810  39.547  1.00  0.00     0.020 A 
ATOM     74  C   UNL A   1      40.246  36.468  38.365  1.00  0.00     0.020 A 
ATOM     75  C   UNL A   1      39.498  36.082  39.479  1.00  0.00     0.054 A 
BRANCH  75  76
ATOM     76  S   UNL A   1      39.302  37.209  40.888  1.00  0.00     0.124 S 
ATOM     77  O   UNL A   1      38.656  36.352  41.876  1.00  0.00    -0.237 OA
ATOM     78  O   UNL A   1      40.682  37.590  41.185  1.00  0.00    -0.237 OA
ATOM     79  O   UNL A   1      38.472  38.285  40.351  1.00  0.00    -0.744 OA
ENDBRANCH  75  76
ENDBRANCH  47  70
BRANCH  59  80
ATOM     80  C   UNL A   1      44.441  29.240  36.009  1.00  0.00    -0.014 A 
ATOM     81  C   UNL A   1      45.705  29.823  35.812  1.00  0.00     0.010 A 
ATOM     82  C   UNL A   1      44.295  28.217  36.964  1.00  0.00     0.010 A 
ATOM     83  C   UNL A   1      46.808  29.373  36.540  1.00  0.00     0.020 A 
ATOM     84  C   UNL A   1      45.392  27.781  37.710  1.00  0.00     0.020 A 
ATOM     85  C   UNL A   1      46.646  28.353  37.484  1.00  0.00     0.054 A 
BRANCH  85  86
ATOM     86  S   UNL A   1      48.083  27.820  38.452  1.00  0.00     0.124 S 
ATOM     87  O   UNL A   1      49.021  28.917  38.229  1.00  0.00    -0.237 OA
ATOM     88  O   UNL A   1      47.542  27.720  39.804  1.00  0.00    -0.237 OA
ATOM     89  O   UNL A   1      48.457  26.546  37.841  1.00  0.00    -0.744 OA
ENDBRANCH  85  86
ENDBRANCH  59  80
ENDBRANCH  33  34
ENDBRANCH  25  28
ENDBRANCH  23  24
ENDBRANCH  22  23
ENDBRANCH  21  22
ENDBRANCH   1  21
TORSDOF 19
ENDMDL
