MODEL 1
REMARK VINA RESULT:     -11.7      0.000      0.000
REMARK SMILES O=C(NCCCCNC(=O)c1ccccc1/N=C/c1coc2ccccc2c1=O)c1ccc(-c2c3nc(c(-c4ccc(S(=O)(=O)[O-])cc4)c4ccc([nH]4)c(-c4ccc(S(=O)(=O)[O-])cc4)c4nc(c(-c5ccc(S(=O)(=O)[O-])cc5)c5ccc2[nH]5)C=C4)C=C3)cc1
REMARK SMILES IDX 5 1 4 2 3 3 1 4 2 5 30 7 31 8 89 9 32 10 88 11 33 12 34 13
REMARK SMILES IDX 35 14 82 15 36 16 87 17 81 18 83 19 37 20 86 21 80 22 79 23
REMARK SMILES IDX 38 25 68 26 49 27 67 28 50 29 53 30 66 31 84 32 51 33 52 34
REMARK SMILES IDX 65 36 85 37 54 38 39 39 40 40 48 41 41 42 47 43 42 44 43 45
REMARK SMILES IDX 44 46 45 47 46 48 69 49 70 50 78 51 71 52 77 53 72 54 73 55
REMARK SMILES IDX 74 56 75 57 76 58 55 59 56 60 64 61 57 62 63 63 58 64 59 65
REMARK SMILES IDX 60 66 61 67 62 68 6 69 7 70 8 71 9 72 10 74 11 75 12 76
REMARK SMILES IDX 16 77 13 78 15 79 14 80 17 81 18 82 19 83 20 84 28 85 21 86
REMARK SMILES IDX 27 87 29 88 22 89 26 90 23 91 25 92 24 93
REMARK H PARENT 3 6 83 24 53 35 8 73
REMARK Flexibility Score: inf
ROOT
ATOM      1  C   UNL A   1      32.918  28.018  25.859  1.00  0.00     0.023 C 
ENDROOT
BRANCH   1   2
ATOM      2  C   UNL A   1      33.357  28.422  27.266  1.00  0.00     0.116 C 
BRANCH   2   3
ATOM      3  N   UNL A   1      33.334  29.858  27.478  1.00  0.00    -0.352 N 
ATOM      4  O   UNL A   1      33.979  31.854  28.314  1.00  0.00    -0.269 OA
ATOM      5  C   UNL A   1      34.268  30.691  28.045  1.00  0.00     0.251 C 
ATOM      6  H   UNL A   1      32.517  30.307  27.165  1.00  0.00     0.163 HD
BRANCH   5   7
ATOM      7  C   UNL A   1      35.638  30.203  28.330  1.00  0.00     0.039 A 
ATOM      8  C   UNL A   1      35.985  29.723  29.599  1.00  0.00     0.014 A 
ATOM      9  C   UNL A   1      36.569  30.149  27.288  1.00  0.00     0.014 A 
ATOM     10  C   UNL A   1      37.291  29.298  29.853  1.00  0.00     0.010 A 
ATOM     11  C   UNL A   1      37.864  29.688  27.534  1.00  0.00     0.010 A 
ATOM     12  C   UNL A   1      38.246  29.293  28.827  1.00  0.00    -0.014 A 
BRANCH  12  13
ATOM     13  C   UNL A   1      39.650  28.909  29.109  1.00  0.00     0.031 A 
ATOM     14  C   UNL A   1      40.583  29.896  29.752  1.00  0.00     0.074 A 
ATOM     15  C   UNL A   1      40.097  27.682  28.782  1.00  0.00     0.049 A 
ATOM     16  N   UNL A   1      41.853  29.765  30.039  1.00  0.00    -0.248 NA
ATOM     17  C   UNL A   1      40.013  31.203  30.113  1.00  0.00     0.031 C 
ATOM     18  C   UNL A   1      39.299  26.631  28.152  1.00  0.00     0.029 A 
ATOM     19  N   UNL A   1      41.341  27.119  28.929  1.00  0.00    -0.354 N 
ATOM     20  C   UNL A   1      42.242  30.978  30.593  1.00  0.00     0.074 A 
ATOM     21  C   UNL A   1      41.075  31.836  30.593  1.00  0.00     0.031 C 
ATOM     22  C   UNL A   1      40.072  25.547  27.970  1.00  0.00     0.029 A 
ATOM     23  C   UNL A   1      41.425  25.838  28.441  1.00  0.00     0.049 A 
ATOM     24  H   UNL A   1      42.100  27.589  29.344  1.00  0.00     0.167 HD
ATOM     25  C   UNL A   1      43.458  31.348  31.060  1.00  0.00     0.031 A 
ATOM     26  C   UNL A   1      42.474  24.997  28.365  1.00  0.00     0.031 A 
ATOM     27  C   UNL A   1      44.619  30.503  31.074  1.00  0.00     0.049 A 
ATOM     28  C   UNL A   1      43.815  25.426  28.883  1.00  0.00     0.074 A 
ATOM     29  C   UNL A   1      45.884  30.784  31.561  1.00  0.00     0.029 A 
ATOM     30  N   UNL A   1      44.659  29.211  30.575  1.00  0.00    -0.354 N 
ATOM     31  N   UNL A   1      44.157  26.568  29.429  1.00  0.00    -0.248 NA
ATOM     32  C   UNL A   1      44.914  24.455  28.772  1.00  0.00     0.031 C 
ATOM     33  C   UNL A   1      46.696  29.665  31.335  1.00  0.00     0.029 A 
ATOM     34  C   UNL A   1      45.930  28.684  30.727  1.00  0.00     0.049 A 
ATOM     35  H   UNL A   1      43.895  28.737  30.172  1.00  0.00     0.167 HD
ATOM     36  C   UNL A   1      45.508  26.453  29.734  1.00  0.00     0.074 A 
ATOM     37  C   UNL A   1      45.921  25.126  29.320  1.00  0.00     0.031 C 
ATOM     38  C   UNL A   1      46.329  27.365  30.308  1.00  0.00     0.031 A 
BRANCH  25  39
ATOM     39  C   UNL A   1      43.583  32.755  31.569  1.00  0.00    -0.014 A 
ATOM     40  C   UNL A   1      43.895  33.813  30.698  1.00  0.00     0.010 A 
ATOM     41  C   UNL A   1      43.410  33.016  32.940  1.00  0.00     0.010 A 
ATOM     42  C   UNL A   1      44.083  35.104  31.197  1.00  0.00     0.020 A 
ATOM     43  C   UNL A   1      43.584  34.309  33.440  1.00  0.00     0.020 A 
ATOM     44  C   UNL A   1      43.944  35.339  32.568  1.00  0.00     0.054 A 
BRANCH  44  45
ATOM     45  S   UNL A   1      44.219  37.014  33.211  1.00  0.00     0.124 S 
ATOM     46  O   UNL A   1      45.354  36.806  34.107  1.00  0.00    -0.237 OA
ATOM     47  O   UNL A   1      44.506  37.788  32.006  1.00  0.00    -0.237 OA
ATOM     48  O   UNL A   1      42.956  37.338  33.868  1.00  0.00    -0.744 OA
ENDBRANCH  44  45
ENDBRANCH  25  39
BRANCH  26  49
ATOM     49  C   UNL A   1      42.275  23.657  27.758  1.00  0.00    -0.014 A 
ATOM     50  C   UNL A   1      42.581  23.436  26.405  1.00  0.00     0.010 A 
ATOM     51  C   UNL A   1      41.856  22.577  28.558  1.00  0.00     0.010 A 
ATOM     52  C   UNL A   1      42.488  22.151  25.863  1.00  0.00     0.020 A 
ATOM     53  C   UNL A   1      41.775  21.289  28.021  1.00  0.00     0.020 A 
ATOM     54  C   UNL A   1      42.091  21.084  26.676  1.00  0.00     0.054 A 
BRANCH  54  55
ATOM     55  S   UNL A   1      42.088  19.402  25.993  1.00  0.00     0.124 S 
ATOM     56  O   UNL A   1      42.596  18.619  27.114  1.00  0.00    -0.237 OA
ATOM     57  O   UNL A   1      40.681  19.191  25.660  1.00  0.00    -0.237 OA
ATOM     58  O   UNL A   1      42.980  19.507  24.841  1.00  0.00    -0.744 OA
ENDBRANCH  54  55
ENDBRANCH  26  49
BRANCH  38  59
ATOM     59  C   UNL A   1      47.758  26.966  30.533  1.00  0.00    -0.014 A 
ATOM     60  C   UNL A   1      48.742  27.260  29.573  1.00  0.00     0.010 A 
ATOM     61  C   UNL A   1      48.134  26.363  31.745  1.00  0.00     0.010 A 
ATOM     62  C   UNL A   1      50.082  26.950  29.821  1.00  0.00     0.020 A 
ATOM     63  C   UNL A   1      49.474  26.061  32.000  1.00  0.00     0.020 A 
ATOM     64  C   UNL A   1      50.440  26.349  31.032  1.00  0.00     0.054 A 
BRANCH  64  65
ATOM     65  S   UNL A   1      52.192  26.015  31.370  1.00  0.00     0.124 S 
ATOM     66  O   UNL A   1      52.522  27.069  32.325  1.00  0.00    -0.237 OA
ATOM     67  O   UNL A   1      52.169  24.659  31.914  1.00  0.00    -0.237 OA
ATOM     68  O   UNL A   1      52.822  26.140  30.057  1.00  0.00    -0.744 OA
ENDBRANCH  64  65
ENDBRANCH  38  59
ENDBRANCH  12  13
ENDBRANCH   5   7
ENDBRANCH   2   3
ENDBRANCH   1   2
BRANCH   1  69
ATOM     69  C   UNL A   1      34.022  27.585  24.884  1.00  0.00     0.023 C 
BRANCH  69  70
ATOM     70  C   UNL A   1      33.892  28.067  23.440  1.00  0.00     0.116 C 
BRANCH  70  71
ATOM     71  N   UNL A   1      33.779  26.995  22.468  1.00  0.00    -0.352 N 
ATOM     72  C   UNL A   1      32.649  26.346  22.044  1.00  0.00     0.253 C 
ATOM     73  H   UNL A   1      34.623  26.697  22.061  1.00  0.00     0.163 HD
ATOM     74  O   UNL A   1      32.711  25.537  21.121  1.00  0.00    -0.269 OA
BRANCH  72  75
ATOM     75  C   UNL A   1      31.355  26.549  22.712  1.00  0.00     0.065 A 
ATOM     76  C   UNL A   1      30.608  27.663  22.290  1.00  0.00     0.016 A 
ATOM     77  C   UNL A   1      30.887  25.745  23.754  1.00  0.00     0.076 A 
ATOM     78  C   UNL A   1      29.381  27.963  22.885  1.00  0.00     0.001 A 
ATOM     79  C   UNL A   1      29.658  26.079  24.350  1.00  0.00     0.029 A 
ATOM     80  C   UNL A   1      28.907  27.173  23.925  1.00  0.00     0.002 A 
BRANCH  77  81
ATOM     81  N   UNL A   1      31.388  24.518  24.165  1.00  0.00    -0.255 NA
ATOM     82  C   UNL A   1      30.927  23.752  25.096  1.00  0.00     0.127 C 
BRANCH  82  83
ATOM     83  C   UNL A   1      31.691  22.491  25.258  1.00  0.00     0.076 A 
ATOM     84  C   UNL A   1      32.025  21.974  24.061  1.00  0.00     0.209 A 
ATOM     85  C   UNL A   1      32.789  22.494  26.263  1.00  0.00     0.201 A 
ATOM     86  O   UNL A   1      33.321  21.593  23.723  1.00  0.00    -0.463 OA
ATOM     87  C   UNL A   1      34.103  22.772  25.671  1.00  0.00     0.065 A 
ATOM     88  O   UNL A   1      32.602  22.454  27.470  1.00  0.00    -0.288 OA
ATOM     89  C   UNL A   1      34.297  22.336  24.360  1.00  0.00     0.137 A 
ATOM     90  C   UNL A   1      35.010  23.620  26.303  1.00  0.00     0.016 A 
ATOM     91  C   UNL A   1      35.425  22.742  23.660  1.00  0.00     0.048 A 
ATOM     92  C   UNL A   1      36.121  24.059  25.587  1.00  0.00     0.001 A 
ATOM     93  C   UNL A   1      36.327  23.622  24.272  1.00  0.00     0.004 A 
ENDBRANCH  82  83
ENDBRANCH  77  81
ENDBRANCH  72  75
ENDBRANCH  70  71
ENDBRANCH  69  70
ENDBRANCH   1  69
TORSDOF 16
ENDMDL
MODEL 2
REMARK VINA RESULT:     -11.7      0.987      3.446
REMARK SMILES O=C(NCCCCNC(=O)c1ccccc1/N=C/c1coc2ccccc2c1=O)c1ccc(-c2c3nc(c(-c4ccc(S(=O)(=O)[O-])cc4)c4ccc([nH]4)c(-c4ccc(S(=O)(=O)[O-])cc4)c4nc(c(-c5ccc(S(=O)(=O)[O-])cc5)c5ccc2[nH]5)C=C4)C=C3)cc1
REMARK SMILES IDX 5 1 4 2 3 3 1 4 2 5 30 7 31 8 89 9 32 10 88 11 33 12 34 13
REMARK SMILES IDX 35 14 82 15 36 16 87 17 81 18 83 19 37 20 86 21 80 22 79 23
REMARK SMILES IDX 38 25 68 26 49 27 67 28 50 29 53 30 66 31 84 32 51 33 52 34
REMARK SMILES IDX 65 36 85 37 54 38 39 39 40 40 48 41 41 42 47 43 42 44 43 45
REMARK SMILES IDX 44 46 45 47 46 48 69 49 70 50 78 51 71 52 77 53 72 54 73 55
REMARK SMILES IDX 74 56 75 57 76 58 55 59 56 60 64 61 57 62 63 63 58 64 59 65
REMARK SMILES IDX 60 66 61 67 62 68 6 69 7 70 8 71 9 72 10 74 11 75 12 76
REMARK SMILES IDX 16 77 13 78 15 79 14 80 17 81 18 82 19 83 20 84 28 85 21 86
REMARK SMILES IDX 27 87 29 88 22 89 26 90 23 91 25 92 24 93
REMARK H PARENT 3 6 83 24 53 35 8 73
REMARK Flexibility Score: inf
ROOT
ATOM      1  C   UNL A   1      33.375  27.463  26.286  1.00  0.00     0.023 C 
ENDROOT
BRANCH   1   2
ATOM      2  C   UNL A   1      33.126  28.231  27.584  1.00  0.00     0.116 C 
BRANCH   2   3
ATOM      3  N   UNL A   1      33.176  29.671  27.412  1.00  0.00    -0.352 N 
ATOM      4  O   UNL A   1      33.942  31.779  27.675  1.00  0.00    -0.269 OA
ATOM      5  C   UNL A   1      34.168  30.572  27.714  1.00  0.00     0.251 C 
ATOM      6  H   UNL A   1      32.368  30.066  27.013  1.00  0.00     0.163 HD
BRANCH   5   7
ATOM      7  C   UNL A   1      35.524  30.103  28.082  1.00  0.00     0.039 A 
ATOM      8  C   UNL A   1      35.811  29.664  29.380  1.00  0.00     0.014 A 
ATOM      9  C   UNL A   1      36.506  30.024  27.089  1.00  0.00     0.014 A 
ATOM     10  C   UNL A   1      37.104  29.256  29.712  1.00  0.00     0.010 A 
ATOM     11  C   UNL A   1      37.790  29.580  27.413  1.00  0.00     0.010 A 
ATOM     12  C   UNL A   1      38.109  29.227  28.734  1.00  0.00    -0.014 A 
BRANCH  12  13
ATOM     13  C   UNL A   1      39.500  28.861  29.097  1.00  0.00     0.031 A 
ATOM     14  C   UNL A   1      40.374  29.853  29.811  1.00  0.00     0.074 A 
ATOM     15  C   UNL A   1      39.987  27.647  28.781  1.00  0.00     0.049 A 
ATOM     16  N   UNL A   1      41.626  29.739  30.175  1.00  0.00    -0.248 NA
ATOM     17  C   UNL A   1      39.761  31.145  30.155  1.00  0.00     0.031 C 
ATOM     18  C   UNL A   1      39.248  26.593  28.089  1.00  0.00     0.029 A 
ATOM     19  N   UNL A   1      41.229  27.103  28.997  1.00  0.00    -0.354 N 
ATOM     20  C   UNL A   1      41.959  30.949  30.769  1.00  0.00     0.074 A 
ATOM     21  C   UNL A   1      40.780  31.788  30.709  1.00  0.00     0.031 C 
ATOM     22  C   UNL A   1      40.050  25.525  27.939  1.00  0.00     0.029 A 
ATOM     23  C   UNL A   1      41.366  25.831  28.497  1.00  0.00     0.049 A 
ATOM     24  H   UNL A   1      41.953  27.578  29.465  1.00  0.00     0.167 HD
ATOM     25  C   UNL A   1      43.137  31.332  31.315  1.00  0.00     0.031 A 
ATOM     26  C   UNL A   1      42.431  25.008  28.474  1.00  0.00     0.031 A 
ATOM     27  C   UNL A   1      44.310  30.506  31.390  1.00  0.00     0.049 A 
ATOM     28  C   UNL A   1      43.731  25.451  29.080  1.00  0.00     0.074 A 
ATOM     29  C   UNL A   1      45.537  30.800  31.958  1.00  0.00     0.029 A 
ATOM     30  N   UNL A   1      44.403  29.223  30.876  1.00  0.00    -0.354 N 
ATOM     31  N   UNL A   1      44.018  26.590  29.662  1.00  0.00    -0.248 NA
ATOM     32  C   UNL A   1      44.851  24.500  29.024  1.00  0.00     0.031 C 
ATOM     33  C   UNL A   1      46.381  29.698  31.767  1.00  0.00     0.029 A 
ATOM     34  C   UNL A   1      45.671  28.714  31.098  1.00  0.00     0.049 A 
ATOM     35  H   UNL A   1      43.674  28.743  30.419  1.00  0.00     0.167 HD
ATOM     36  C   UNL A   1      45.349  26.492  30.049  1.00  0.00     0.074 A 
ATOM     37  C   UNL A   1      45.810  25.179  29.642  1.00  0.00     0.031 C 
ATOM     38  C   UNL A   1      46.118  27.409  30.686  1.00  0.00     0.031 A 
BRANCH  25  39
ATOM     39  C   UNL A   1      43.207  32.732  31.852  1.00  0.00    -0.014 A 
ATOM     40  C   UNL A   1      43.666  33.791  31.049  1.00  0.00     0.010 A 
ATOM     41  C   UNL A   1      42.830  32.988  33.182  1.00  0.00     0.010 A 
ATOM     42  C   UNL A   1      43.798  35.075  31.584  1.00  0.00     0.020 A 
ATOM     43  C   UNL A   1      42.947  34.273  33.716  1.00  0.00     0.020 A 
ATOM     44  C   UNL A   1      43.454  35.303  32.919  1.00  0.00     0.054 A 
BRANCH  44  45
ATOM     45  S   UNL A   1      43.655  36.968  33.614  1.00  0.00     0.124 S 
ATOM     46  O   UNL A   1      42.457  37.092  34.439  1.00  0.00    -0.237 OA
ATOM     47  O   UNL A   1      44.914  36.870  34.347  1.00  0.00    -0.237 OA
ATOM     48  O   UNL A   1      43.691  37.827  32.433  1.00  0.00    -0.744 OA
ENDBRANCH  44  45
ENDBRANCH  25  39
BRANCH  26  49
ATOM     49  C   UNL A   1      42.294  23.674  27.837  1.00  0.00    -0.014 A 
ATOM     50  C   UNL A   1      42.631  23.493  26.485  1.00  0.00     0.010 A 
ATOM     51  C   UNL A   1      41.902  22.563  28.607  1.00  0.00     0.010 A 
ATOM     52  C   UNL A   1      42.595  22.217  25.916  1.00  0.00     0.020 A 
ATOM     53  C   UNL A   1      41.878  21.285  28.043  1.00  0.00     0.020 A 
ATOM     54  C   UNL A   1      42.226  21.120  26.700  1.00  0.00     0.054 A 
BRANCH  54  55
ATOM     55  S   UNL A   1      42.297  19.453  25.983  1.00  0.00     0.124 S 
ATOM     56  O   UNL A   1      43.216  19.643  24.867  1.00  0.00    -0.237 OA
ATOM     57  O   UNL A   1      42.803  18.646  27.091  1.00  0.00    -0.237 OA
ATOM     58  O   UNL A   1      40.908  19.187  25.618  1.00  0.00    -0.744 OA
ENDBRANCH  54  55
ENDBRANCH  26  49
BRANCH  38  59
ATOM     59  C   UNL A   1      47.537  27.030  30.993  1.00  0.00    -0.014 A 
ATOM     60  C   UNL A   1      47.858  26.366  32.189  1.00  0.00     0.010 A 
ATOM     61  C   UNL A   1      48.547  27.272  30.045  1.00  0.00     0.010 A 
ATOM     62  C   UNL A   1      49.170  25.953  32.435  1.00  0.00     0.020 A 
ATOM     63  C   UNL A   1      49.857  26.851  30.284  1.00  0.00     0.020 A 
ATOM     64  C   UNL A   1      50.163  26.201  31.482  1.00  0.00     0.054 A 
BRANCH  64  65
ATOM     65  S   UNL A   1      51.848  25.598  31.784  1.00  0.00     0.124 S 
ATOM     66  O   UNL A   1      52.243  26.377  32.953  1.00  0.00    -0.237 OA
ATOM     67  O   UNL A   1      51.650  24.170  32.018  1.00  0.00    -0.237 OA
ATOM     68  O   UNL A   1      52.554  25.926  30.547  1.00  0.00    -0.744 OA
ENDBRANCH  64  65
ENDBRANCH  38  59
ENDBRANCH  12  13
ENDBRANCH   5   7
ENDBRANCH   2   3
ENDBRANCH   1   2
BRANCH   1  69
ATOM     69  C   UNL A   1      32.479  26.246  26.016  1.00  0.00     0.023 C 
BRANCH  69  70
ATOM     70  C   UNL A   1      33.128  24.870  26.154  1.00  0.00     0.116 C 
BRANCH  70  71
ATOM     71  N   UNL A   1      32.316  23.780  25.647  1.00  0.00    -0.352 N 
ATOM     72  C   UNL A   1      32.726  22.624  25.036  1.00  0.00     0.253 C 
ATOM     73  H   UNL A   1      31.343  23.886  25.755  1.00  0.00     0.163 HD
ATOM     74  O   UNL A   1      31.912  21.742  24.771  1.00  0.00    -0.269 OA
BRANCH  72  75
ATOM     75  C   UNL A   1      34.126  22.431  24.630  1.00  0.00     0.065 A 
ATOM     76  C   UNL A   1      34.816  21.383  25.265  1.00  0.00     0.016 A 
ATOM     77  C   UNL A   1      34.789  23.257  23.720  1.00  0.00     0.076 A 
ATOM     78  C   UNL A   1      36.159  21.137  24.974  1.00  0.00     0.001 A 
ATOM     79  C   UNL A   1      36.147  23.001  23.458  1.00  0.00     0.029 A 
ATOM     80  C   UNL A   1      36.830  21.954  24.073  1.00  0.00     0.002 A 
BRANCH  77  81
ATOM     81  N   UNL A   1      34.228  24.200  22.871  1.00  0.00    -0.255 NA
ATOM     82  C   UNL A   1      34.170  25.478  23.045  1.00  0.00     0.127 C 
BRANCH  82  83
ATOM     83  C   UNL A   1      33.522  26.200  21.922  1.00  0.00     0.076 A 
ATOM     84  C   UNL A   1      32.367  25.605  21.571  1.00  0.00     0.209 A 
ATOM     85  C   UNL A   1      33.452  27.683  22.028  1.00  0.00     0.201 A 
ATOM     86  O   UNL A   1      31.160  26.286  21.445  1.00  0.00    -0.463 OA
ATOM     87  C   UNL A   1      32.174  28.155  22.573  1.00  0.00     0.065 A 
ATOM     88  O   UNL A   1      34.412  28.420  21.856  1.00  0.00    -0.288 OA
ATOM     89  C   UNL A   1      31.052  27.377  22.286  1.00  0.00     0.137 A 
ATOM     90  C   UNL A   1      32.130  29.188  23.507  1.00  0.00     0.016 A 
ATOM     91  C   UNL A   1      29.852  27.635  22.935  1.00  0.00     0.048 A 
ATOM     92  C   UNL A   1      30.936  29.422  24.186  1.00  0.00     0.001 A 
ATOM     93  C   UNL A   1      29.803  28.648  23.901  1.00  0.00     0.004 A 
ENDBRANCH  82  83
ENDBRANCH  77  81
ENDBRANCH  72  75
ENDBRANCH  70  71
ENDBRANCH  69  70
ENDBRANCH   1  69
TORSDOF 16
ENDMDL
MODEL 3
REMARK VINA RESULT:     -11.3      2.922      8.702
REMARK SMILES O=C(NCCCCNC(=O)c1ccccc1/N=C/c1coc2ccccc2c1=O)c1ccc(-c2c3nc(c(-c4ccc(S(=O)(=O)[O-])cc4)c4ccc([nH]4)c(-c4ccc(S(=O)(=O)[O-])cc4)c4nc(c(-c5ccc(S(=O)(=O)[O-])cc5)c5ccc2[nH]5)C=C4)C=C3)cc1
REMARK SMILES IDX 5 1 4 2 3 3 1 4 2 5 30 7 31 8 89 9 32 10 88 11 33 12 34 13
REMARK SMILES IDX 35 14 82 15 36 16 87 17 81 18 83 19 37 20 86 21 80 22 79 23
REMARK SMILES IDX 38 25 68 26 49 27 67 28 50 29 53 30 66 31 84 32 51 33 52 34
REMARK SMILES IDX 65 36 85 37 54 38 39 39 40 40 48 41 41 42 47 43 42 44 43 45
REMARK SMILES IDX 44 46 45 47 46 48 69 49 70 50 78 51 71 52 77 53 72 54 73 55
REMARK SMILES IDX 74 56 75 57 76 58 55 59 56 60 64 61 57 62 63 63 58 64 59 65
REMARK SMILES IDX 60 66 61 67 62 68 6 69 7 70 8 71 9 72 10 74 11 75 12 76
REMARK SMILES IDX 16 77 13 78 15 79 14 80 17 81 18 82 19 83 20 84 28 85 21 86
REMARK SMILES IDX 27 87 29 88 22 89 26 90 23 91 25 92 24 93
REMARK H PARENT 3 6 83 24 53 35 8 73
REMARK Flexibility Score: inf
ROOT
ATOM      1  C   UNL A   1      34.167  28.893  27.246  1.00  0.00     0.023 C 
ENDROOT
BRANCH   1   2
ATOM      2  C   UNL A   1      35.427  29.602  27.743  1.00  0.00     0.116 C 
BRANCH   2   3
ATOM      3  N   UNL A   1      35.437  29.804  29.180  1.00  0.00    -0.352 N 
ATOM      4  O   UNL A   1      36.208  29.683  31.300  1.00  0.00    -0.269 OA
ATOM      5  C   UNL A   1      36.450  29.653  30.096  1.00  0.00     0.251 C 
ATOM      6  H   UNL A   1      34.578  30.097  29.561  1.00  0.00     0.163 HD
BRANCH   5   7
ATOM      7  C   UNL A   1      37.849  29.465  29.646  1.00  0.00     0.039 A 
ATOM      8  C   UNL A   1      38.208  29.640  28.304  1.00  0.00     0.014 A 
ATOM      9  C   UNL A   1      38.835  29.188  30.599  1.00  0.00     0.014 A 
ATOM     10  C   UNL A   1      39.527  29.426  27.898  1.00  0.00     0.010 A 
ATOM     11  C   UNL A   1      40.162  29.012  30.197  1.00  0.00     0.010 A 
ATOM     12  C   UNL A   1      40.511  29.094  28.840  1.00  0.00    -0.014 A 
BRANCH  12  13
ATOM     13  C   UNL A   1      41.898  28.798  28.404  1.00  0.00     0.031 A 
ATOM     14  C   UNL A   1      42.266  27.408  27.965  1.00  0.00     0.074 A 
ATOM     15  C   UNL A   1      42.832  29.766  28.409  1.00  0.00     0.049 A 
ATOM     16  N   UNL A   1      43.430  26.942  27.591  1.00  0.00    -0.248 NA
ATOM     17  C   UNL A   1      41.183  26.412  27.952  1.00  0.00     0.031 C 
ATOM     18  C   UNL A   1      42.611  31.154  28.812  1.00  0.00     0.029 A 
ATOM     19  N   UNL A   1      44.162  29.722  28.070  1.00  0.00    -0.354 N 
ATOM     20  C   UNL A   1      43.228  25.595  27.321  1.00  0.00     0.074 A 
ATOM     21  C   UNL A   1      41.830  25.316  27.582  1.00  0.00     0.031 C 
ATOM     22  C   UNL A   1      43.764  31.832  28.695  1.00  0.00     0.029 A 
ATOM     23  C   UNL A   1      44.812  30.920  28.237  1.00  0.00     0.049 A 
ATOM     24  H   UNL A   1      44.608  28.909  27.740  1.00  0.00     0.167 HD
ATOM     25  C   UNL A   1      44.120  24.670  26.893  1.00  0.00     0.031 A 
ATOM     26  C   UNL A   1      46.106  31.248  28.060  1.00  0.00     0.031 A 
ATOM     27  C   UNL A   1      45.505  24.937  26.621  1.00  0.00     0.049 A 
ATOM     28  C   UNL A   1      47.082  30.209  27.590  1.00  0.00     0.074 A 
ATOM     29  C   UNL A   1      46.474  24.068  26.150  1.00  0.00     0.029 A 
ATOM     30  N   UNL A   1      46.120  26.166  26.798  1.00  0.00    -0.354 N 
ATOM     31  N   UNL A   1      46.866  28.946  27.312  1.00  0.00    -0.248 NA
ATOM     32  C   UNL A   1      48.477  30.638  27.413  1.00  0.00     0.031 C 
ATOM     33  C   UNL A   1      47.684  24.769  26.064  1.00  0.00     0.029 A 
ATOM     34  C   UNL A   1      47.460  26.078  26.462  1.00  0.00     0.049 A 
ATOM     35  H   UNL A   1      45.670  26.982  27.117  1.00  0.00     0.167 HD
ATOM     36  C   UNL A   1      48.094  28.429  26.920  1.00  0.00     0.074 A 
ATOM     37  C   UNL A   1      49.050  29.518  26.989  1.00  0.00     0.031 C 
ATOM     38  C   UNL A   1      48.400  27.166  26.537  1.00  0.00     0.031 A 
BRANCH  25  39
ATOM     39  C   UNL A   1      43.609  23.269  26.724  1.00  0.00    -0.014 A 
ATOM     40  C   UNL A   1      43.273  22.484  27.841  1.00  0.00     0.010 A 
ATOM     41  C   UNL A   1      43.485  22.724  25.434  1.00  0.00     0.010 A 
ATOM     42  C   UNL A   1      42.871  21.157  27.672  1.00  0.00     0.020 A 
ATOM     43  C   UNL A   1      43.070  21.402  25.262  1.00  0.00     0.020 A 
ATOM     44  C   UNL A   1      42.790  20.619  26.385  1.00  0.00     0.054 A 
BRANCH  44  45
ATOM     45  S   UNL A   1      42.294  18.885  26.178  1.00  0.00     0.124 S 
ATOM     46  O   UNL A   1      43.267  18.413  25.196  1.00  0.00    -0.237 OA
ATOM     47  O   UNL A   1      42.445  18.336  27.523  1.00  0.00    -0.237 OA
ATOM     48  O   UNL A   1      40.918  18.980  25.699  1.00  0.00    -0.744 OA
ENDBRANCH  44  45
ENDBRANCH  25  39
BRANCH  26  49
ATOM     49  C   UNL A   1      46.539  32.640  28.342  1.00  0.00    -0.014 A 
ATOM     50  C   UNL A   1      46.517  33.611  27.328  1.00  0.00     0.010 A 
ATOM     51  C   UNL A   1      46.897  33.014  29.650  1.00  0.00     0.010 A 
ATOM     52  C   UNL A   1      46.830  34.941  27.620  1.00  0.00     0.020 A 
ATOM     53  C   UNL A   1      47.197  34.346  29.948  1.00  0.00     0.020 A 
ATOM     54  C   UNL A   1      47.162  35.302  28.930  1.00  0.00     0.054 A 
BRANCH  54  55
ATOM     55  S   UNL A   1      47.451  37.051  29.322  1.00  0.00     0.124 S 
ATOM     56  O   UNL A   1      48.877  37.191  29.050  1.00  0.00    -0.237 OA
ATOM     57  O   UNL A   1      46.558  37.743  28.395  1.00  0.00    -0.237 OA
ATOM     58  O   UNL A   1      47.065  37.146  30.728  1.00  0.00    -0.744 OA
ENDBRANCH  54  55
ENDBRANCH  26  49
BRANCH  38  59
ATOM     59  C   UNL A   1      49.823  26.883  26.152  1.00  0.00    -0.014 A 
ATOM     60  C   UNL A   1      50.727  26.357  27.091  1.00  0.00     0.010 A 
ATOM     61  C   UNL A   1      50.240  27.074  24.824  1.00  0.00     0.010 A 
ATOM     62  C   UNL A   1      52.030  26.030  26.707  1.00  0.00     0.020 A 
ATOM     63  C   UNL A   1      51.539  26.738  24.434  1.00  0.00     0.020 A 
ATOM     64  C   UNL A   1      52.429  26.225  25.381  1.00  0.00     0.054 A 
BRANCH  64  65
ATOM     65  S   UNL A   1      54.103  25.732  24.879  1.00  0.00     0.124 S 
ATOM     66  O   UNL A   1      54.026  24.276  24.962  1.00  0.00    -0.237 OA
ATOM     67  O   UNL A   1      54.216  26.279  23.530  1.00  0.00    -0.237 OA
ATOM     68  O   UNL A   1      54.960  26.370  25.876  1.00  0.00    -0.744 OA
ENDBRANCH  64  65
ENDBRANCH  38  59
ENDBRANCH  12  13
ENDBRANCH   5   7
ENDBRANCH   2   3
ENDBRANCH   1   2
BRANCH   1  69
ATOM     69  C   UNL A   1      32.874  29.720  27.211  1.00  0.00     0.023 C 
BRANCH  69  70
ATOM     70  C   UNL A   1      32.356  30.127  25.832  1.00  0.00     0.116 C 
BRANCH  70  71
ATOM     71  N   UNL A   1      33.150  29.620  24.729  1.00  0.00    -0.352 N 
ATOM     72  C   UNL A   1      32.726  28.946  23.614  1.00  0.00     0.253 C 
ATOM     73  H   UNL A   1      34.119  29.781  24.790  1.00  0.00     0.163 HD
ATOM     74  O   UNL A   1      33.517  28.688  22.709  1.00  0.00    -0.269 OA
BRANCH  72  75
ATOM     75  C   UNL A   1      31.342  28.464  23.494  1.00  0.00     0.065 A 
ATOM     76  C   UNL A   1      30.472  29.261  22.729  1.00  0.00     0.016 A 
ATOM     77  C   UNL A   1      30.862  27.320  24.138  1.00  0.00     0.076 A 
ATOM     78  C   UNL A   1      29.129  28.908  22.581  1.00  0.00     0.001 A 
ATOM     79  C   UNL A   1      29.501  26.996  23.988  1.00  0.00     0.029 A 
ATOM     80  C   UNL A   1      28.640  27.776  23.219  1.00  0.00     0.002 A 
BRANCH  77  81
ATOM     81  N   UNL A   1      31.604  26.329  24.763  1.00  0.00    -0.255 NA
ATOM     82  C   UNL A   1      31.874  26.225  26.021  1.00  0.00     0.127 C 
BRANCH  82  83
ATOM     83  C   UNL A   1      32.672  25.020  26.358  1.00  0.00     0.076 A 
ATOM     84  C   UNL A   1      31.872  23.977  26.642  1.00  0.00     0.209 A 
ATOM     85  C   UNL A   1      33.817  24.700  25.460  1.00  0.00     0.201 A 
ATOM     86  O   UNL A   1      32.003  22.724  26.051  1.00  0.00    -0.463 OA
ATOM     87  C   UNL A   1      33.471  23.720  24.424  1.00  0.00     0.065 A 
ATOM     88  O   UNL A   1      34.872  25.316  25.464  1.00  0.00    -0.288 OA
ATOM     89  C   UNL A   1      32.507  22.772  24.765  1.00  0.00     0.137 A 
ATOM     90  C   UNL A   1      33.915  23.876  23.112  1.00  0.00     0.016 A 
ATOM     91  C   UNL A   1      31.974  21.948  23.782  1.00  0.00     0.048 A 
ATOM     92  C   UNL A   1      33.351  23.077  22.120  1.00  0.00     0.001 A 
ATOM     93  C   UNL A   1      32.385  22.118  22.454  1.00  0.00     0.004 A 
ENDBRANCH  82  83
ENDBRANCH  77  81
ENDBRANCH  72  75
ENDBRANCH  70  71
ENDBRANCH  69  70
ENDBRANCH   1  69
TORSDOF 16
ENDMDL
