MODEL 1
REMARK VINA RESULT:     -10.7      0.000      0.000
REMARK SMILES C[C@@H](C(=O)NCCCCNC(=O)c1ccc(-c2c3nc(c(-c4ccc(S(=O)(=O)[O-])cc4)c4ccc([nH]4)c(-c4ccc(S(=O)(=O)[O-])cc4)c4nc(c(-c5ccc(S(=O)(=O)[O-])cc5)c5ccc2[nH]5)C=C4)C=C3)cc1)[NH+]1CCN(C(=O)c2ccc(C[NH3+])o2)CC1
REMARK SMILES IDX 7 1 6 2 5 3 3 4 4 5 2 7 1 8 73 9 74 10 87 11 75 13 86 14
REMARK SMILES IDX 76 15 77 16 78 17 79 18 80 19 85 20 81 21 82 22 83 23 84 24
REMARK SMILES IDX 8 28 9 29 10 30 11 31 12 33 13 34 14 35 72 36 15 37 71 38
REMARK SMILES IDX 16 39 17 40 18 41 65 42 19 43 70 44 64 45 66 46 20 47 69 48
REMARK SMILES IDX 63 49 62 50 21 52 51 53 32 54 50 55 33 56 36 57 49 58 67 59
REMARK SMILES IDX 34 60 35 61 48 63 68 64 37 65 22 66 23 67 31 68 24 69 30 70
REMARK SMILES IDX 25 71 26 72 27 73 28 74 29 75 52 76 53 77 61 78 54 79 60 80
REMARK SMILES IDX 55 81 56 82 57 83 58 84 59 85 38 86 39 87 47 88 40 89 46 90
REMARK SMILES IDX 41 91 42 92 43 93 44 94 45 95
REMARK H PARENT 5 6 73 12 84 25 84 26 84 27 10 32 66 51 36 62
REMARK Flexibility Score: inf
ROOT
ATOM      1  C   UNL A   1      38.905  23.257  26.465  1.00  0.00     0.023 C 
ENDROOT
BRANCH   1   2
ATOM      2  C   UNL A   1      37.561  23.804  25.978  1.00  0.00     0.116 C 
BRANCH   2   3
ATOM      3  N   UNL A   1      37.428  23.650  24.542  1.00  0.00    -0.351 N 
ATOM      4  C   UNL A   1      36.413  23.082  23.816  1.00  0.00     0.278 C 
ATOM      5  O   UNL A   1      36.604  22.929  22.607  1.00  0.00    -0.268 OA
ATOM      6  H   UNL A   1      38.175  24.008  24.010  1.00  0.00     0.163 HD
BRANCH   4   7
ATOM      7  C   UNL A   1      35.088  22.692  24.531  1.00  0.00     0.271 C 
ATOM      8  C   UNL A   1      35.113  21.220  24.944  1.00  0.00     0.086 C 
BRANCH   7   9
ATOM      9  N   UNL A   1      33.947  23.125  23.687  1.00  0.00    -0.322 N 
ATOM     10  C   UNL A   1      32.606  22.652  24.064  1.00  0.00     0.284 C 
ATOM     11  C   UNL A   1      33.923  24.563  23.411  1.00  0.00     0.284 C 
ATOM     12  H   UNL A   1      34.163  22.625  22.824  1.00  0.00     0.348 HD
ATOM     13  C   UNL A   1      31.884  23.475  25.157  1.00  0.00     0.181 C 
ATOM     14  C   UNL A   1      33.388  25.379  24.592  1.00  0.00     0.181 C 
ATOM     15  N   UNL A   1      32.059  24.924  25.019  1.00  0.00    -0.325 N 
ATOM     16  C   UNL A   1      31.157  25.757  25.691  1.00  0.00     0.289 C 
ATOM     17  O   UNL A   1      30.370  25.299  26.519  1.00  0.00    -0.265 OA
BRANCH  16  18
ATOM     18  C   UNL A   1      31.166  27.162  25.330  1.00  0.00     0.192 A 
ATOM     19  C   UNL A   1      31.673  28.276  25.977  1.00  0.00     0.057 A 
ATOM     20  O   UNL A   1      30.633  27.540  24.127  1.00  0.00    -0.450 OA
ATOM     21  C   UNL A   1      31.414  29.387  25.145  1.00  0.00     0.052 A 
ATOM     22  C   UNL A   1      30.774  28.894  24.027  1.00  0.00     0.159 A 
BRANCH  22  23
ATOM     23  C   UNL A   1      30.249  29.530  22.792  1.00  0.00     0.335 C 
BRANCH  23  24
ATOM     24  N   UNL A   1      31.293  29.630  21.775  1.00  0.00    -0.351 N 
ATOM     25  H   UNL A   1      31.161  28.897  21.078  1.00  0.00     0.344 HD
ATOM     26  H   UNL A   1      32.208  29.522  22.213  1.00  0.00     0.344 HD
ATOM     27  H   UNL A   1      31.240  30.543  21.321  1.00  0.00     0.344 HD
ENDBRANCH  23  24
ENDBRANCH  22  23
ENDBRANCH  16  18
ENDBRANCH   7   9
ENDBRANCH   4   7
ENDBRANCH   2   3
ENDBRANCH   1   2
BRANCH   1  28
ATOM     28  C   UNL A   1      39.185  21.810  26.068  1.00  0.00     0.023 C 
BRANCH  28  29
ATOM     29  C   UNL A   1      40.181  21.085  26.960  1.00  0.00     0.116 C 
BRANCH  29  30
ATOM     30  N   UNL A   1      40.901  20.022  26.272  1.00  0.00    -0.352 N 
ATOM     31  C   UNL A   1      42.183  20.063  25.772  1.00  0.00     0.251 C 
ATOM     32  H   UNL A   1      40.414  19.175  26.151  1.00  0.00     0.163 HD
ATOM     33  O   UNL A   1      42.637  19.128  25.124  1.00  0.00    -0.269 OA
BRANCH  31  34
ATOM     34  C   UNL A   1      42.979  21.284  26.000  1.00  0.00     0.039 A 
ATOM     35  C   UNL A   1      43.023  22.263  25.007  1.00  0.00     0.014 A 
ATOM     36  C   UNL A   1      43.579  21.495  27.243  1.00  0.00     0.014 A 
ATOM     37  C   UNL A   1      43.603  23.501  25.292  1.00  0.00     0.010 A 
ATOM     38  C   UNL A   1      44.093  22.748  27.546  1.00  0.00     0.010 A 
ATOM     39  C   UNL A   1      44.101  23.766  26.577  1.00  0.00    -0.014 A 
BRANCH  39  40
ATOM     40  C   UNL A   1      44.629  25.097  26.958  1.00  0.00     0.031 A 
ATOM     41  C   UNL A   1      43.692  26.134  27.507  1.00  0.00     0.074 A 
ATOM     42  C   UNL A   1      45.908  25.416  26.682  1.00  0.00     0.049 A 
ATOM     43  N   UNL A   1      43.901  27.406  27.721  1.00  0.00    -0.248 NA
ATOM     44  C   UNL A   1      42.324  25.685  27.814  1.00  0.00     0.031 C 
ATOM     45  C   UNL A   1      46.904  24.512  26.100  1.00  0.00     0.029 A 
ATOM     46  N   UNL A   1      46.581  26.605  26.825  1.00  0.00    -0.354 N 
ATOM     47  C   UNL A   1      42.680  27.921  28.138  1.00  0.00     0.074 A 
ATOM     48  C   UNL A   1      41.731  26.828  28.120  1.00  0.00     0.031 C 
ATOM     49  C   UNL A   1      48.057  25.179  25.935  1.00  0.00     0.029 A 
ATOM     50  C   UNL A   1      47.873  26.564  26.359  1.00  0.00     0.049 A 
ATOM     51  H   UNL A   1      46.176  27.408  27.222  1.00  0.00     0.167 HD
ATOM     52  C   UNL A   1      42.377  29.188  28.507  1.00  0.00     0.031 A 
ATOM     53  C   UNL A   1      48.801  27.535  26.263  1.00  0.00     0.031 A 
ATOM     54  C   UNL A   1      43.330  30.262  28.551  1.00  0.00     0.049 A 
ATOM     55  C   UNL A   1      48.464  28.923  26.730  1.00  0.00     0.074 A 
ATOM     56  C   UNL A   1      43.144  31.563  28.984  1.00  0.00     0.029 A 
ATOM     57  N   UNL A   1      44.653  30.159  28.146  1.00  0.00    -0.354 N 
ATOM     58  N   UNL A   1      47.321  29.380  27.184  1.00  0.00    -0.248 NA
ATOM     59  C   UNL A   1      49.539  29.923  26.680  1.00  0.00     0.031 C 
ATOM     60  C   UNL A   1      44.349  32.254  28.813  1.00  0.00     0.029 A 
ATOM     61  C   UNL A   1      45.294  31.374  28.309  1.00  0.00     0.049 A 
ATOM     62  H   UNL A   1      45.074  29.341  27.794  1.00  0.00     0.167 HD
ATOM     63  C   UNL A   1      47.545  30.716  27.496  1.00  0.00     0.074 A 
ATOM     64  C   UNL A   1      48.934  30.992  27.183  1.00  0.00     0.031 C 
ATOM     65  C   UNL A   1      46.679  31.628  27.999  1.00  0.00     0.031 A 
BRANCH  52  66
ATOM     66  C   UNL A   1      40.944  29.468  28.867  1.00  0.00    -0.014 A 
ATOM     67  C   UNL A   1      40.555  29.671  30.204  1.00  0.00     0.010 A 
ATOM     68  C   UNL A   1      39.967  29.501  27.857  1.00  0.00     0.010 A 
ATOM     69  C   UNL A   1      39.205  29.828  30.531  1.00  0.00     0.020 A 
ATOM     70  C   UNL A   1      38.620  29.687  28.176  1.00  0.00     0.020 A 
ATOM     71  C   UNL A   1      38.244  29.819  29.516  1.00  0.00     0.054 A 
BRANCH  71  72
ATOM     72  S   UNL A   1      36.495  29.988  29.962  1.00  0.00     0.124 S 
ATOM     73  O   UNL A   1      36.443  29.276  31.237  1.00  0.00    -0.237 OA
ATOM     74  O   UNL A   1      36.320  31.436  30.046  1.00  0.00    -0.237 OA
ATOM     75  O   UNL A   1      35.793  29.343  28.856  1.00  0.00    -0.744 OA
ENDBRANCH  71  72
ENDBRANCH  52  66
BRANCH  53  76
ATOM     76  C   UNL A   1      50.143  27.207  25.713  1.00  0.00    -0.014 A 
ATOM     77  C   UNL A   1      50.410  27.386  24.345  1.00  0.00     0.010 A 
ATOM     78  C   UNL A   1      51.179  26.790  26.568  1.00  0.00     0.010 A 
ATOM     79  C   UNL A   1      51.695  27.161  23.842  1.00  0.00     0.020 A 
ATOM     80  C   UNL A   1      52.469  26.583  26.070  1.00  0.00     0.020 A 
ATOM     81  C   UNL A   1      52.718  26.769  24.709  1.00  0.00     0.054 A 
BRANCH  81  82
ATOM     82  S   UNL A   1      54.402  26.587  24.053  1.00  0.00     0.124 S 
ATOM     83  O   UNL A   1      54.919  25.479  24.847  1.00  0.00    -0.237 OA
ATOM     84  O   UNL A   1      54.162  26.298  22.641  1.00  0.00    -0.237 OA
ATOM     85  O   UNL A   1      55.011  27.889  24.317  1.00  0.00    -0.744 OA
ENDBRANCH  81  82
ENDBRANCH  53  76
BRANCH  65  86
ATOM     86  C   UNL A   1      47.204  33.008  28.277  1.00  0.00    -0.014 A 
ATOM     87  C   UNL A   1      47.145  34.018  27.301  1.00  0.00     0.010 A 
ATOM     88  C   UNL A   1      47.679  33.319  29.564  1.00  0.00     0.010 A 
ATOM     89  C   UNL A   1      47.560  35.316  27.606  1.00  0.00     0.020 A 
ATOM     90  C   UNL A   1      48.076  34.621  29.878  1.00  0.00     0.020 A 
ATOM     91  C   UNL A   1      48.020  35.611  28.894  1.00  0.00     0.054 A 
BRANCH  91  92
ATOM     92  S   UNL A   1      48.479  37.321  29.292  1.00  0.00     0.124 S 
ATOM     93  O   UNL A   1      49.901  37.338  28.964  1.00  0.00    -0.237 OA
ATOM     94  O   UNL A   1      47.619  38.101  28.404  1.00  0.00    -0.237 OA
ATOM     95  O   UNL A   1      48.165  37.440  30.714  1.00  0.00    -0.744 OA
ENDBRANCH  91  92
ENDBRANCH  65  86
ENDBRANCH  39  40
ENDBRANCH  31  34
ENDBRANCH  29  30
ENDBRANCH  28  29
ENDBRANCH   1  28
TORSDOF 18
ENDMDL
MODEL 2
REMARK VINA RESULT:     -10.5      6.872     11.825
REMARK SMILES C[C@@H](C(=O)NCCCCNC(=O)c1ccc(-c2c3nc(c(-c4ccc(S(=O)(=O)[O-])cc4)c4ccc([nH]4)c(-c4ccc(S(=O)(=O)[O-])cc4)c4nc(c(-c5ccc(S(=O)(=O)[O-])cc5)c5ccc2[nH]5)C=C4)C=C3)cc1)[NH+]1CCN(C(=O)c2ccc(C[NH3+])o2)CC1
REMARK SMILES IDX 7 1 6 2 5 3 3 4 4 5 2 7 1 8 73 9 74 10 87 11 75 13 86 14
REMARK SMILES IDX 76 15 77 16 78 17 79 18 80 19 85 20 81 21 82 22 83 23 84 24
REMARK SMILES IDX 8 28 9 29 10 30 11 31 12 33 13 34 14 35 72 36 15 37 71 38
REMARK SMILES IDX 16 39 17 40 18 41 65 42 19 43 70 44 64 45 66 46 20 47 69 48
REMARK SMILES IDX 63 49 62 50 21 52 51 53 32 54 50 55 33 56 36 57 49 58 67 59
REMARK SMILES IDX 34 60 35 61 48 63 68 64 37 65 22 66 23 67 31 68 24 69 30 70
REMARK SMILES IDX 25 71 26 72 27 73 28 74 29 75 52 76 53 77 61 78 54 79 60 80
REMARK SMILES IDX 55 81 56 82 57 83 58 84 59 85 38 86 39 87 47 88 40 89 46 90
REMARK SMILES IDX 41 91 42 92 43 93 44 94 45 95
REMARK H PARENT 5 6 73 12 84 25 84 26 84 27 10 32 66 51 36 62
REMARK Flexibility Score: inf
ROOT
ATOM      1  C   UNL A   1      33.620  29.737  27.309  1.00  0.00     0.023 C 
ENDROOT
BRANCH   1   2
ATOM      2  C   UNL A   1      32.733  28.538  26.962  1.00  0.00     0.116 C 
BRANCH   2   3
ATOM      3  N   UNL A   1      33.448  27.584  26.137  1.00  0.00    -0.351 N 
ATOM      4  C   UNL A   1      32.980  26.478  25.476  1.00  0.00     0.278 C 
ATOM      5  O   UNL A   1      33.818  25.730  24.965  1.00  0.00    -0.268 OA
ATOM      6  H   UNL A   1      34.412  27.756  26.034  1.00  0.00     0.163 HD
BRANCH   4   7
ATOM      7  C   UNL A   1      31.445  26.238  25.381  1.00  0.00     0.271 C 
ATOM      8  C   UNL A   1      31.046  24.991  26.168  1.00  0.00     0.086 C 
BRANCH   7   9
ATOM      9  N   UNL A   1      31.046  26.277  23.952  1.00  0.00    -0.322 N 
ATOM     10  C   UNL A   1      29.730  25.723  23.600  1.00  0.00     0.284 C 
ATOM     11  C   UNL A   1      31.239  27.582  23.315  1.00  0.00     0.284 C 
ATOM     12  H   UNL A   1      31.717  25.614  23.561  1.00  0.00     0.348 HD
ATOM     13  C   UNL A   1      28.527  26.679  23.782  1.00  0.00     0.181 C 
ATOM     14  C   UNL A   1      30.134  28.580  23.674  1.00  0.00     0.181 C 
ATOM     15  N   UNL A   1      28.798  28.057  23.363  1.00  0.00    -0.325 N 
ATOM     16  C   UNL A   1      27.701  28.892  23.115  1.00  0.00     0.289 C 
ATOM     17  O   UNL A   1      26.561  28.545  23.424  1.00  0.00    -0.265 OA
BRANCH  16  18
ATOM     18  C   UNL A   1      27.969  30.148  22.442  1.00  0.00     0.192 A 
ATOM     19  C   UNL A   1      28.059  30.473  21.100  1.00  0.00     0.057 A 
ATOM     20  O   UNL A   1      28.136  31.280  23.195  1.00  0.00    -0.450 OA
ATOM     21  C   UNL A   1      28.320  31.860  21.030  1.00  0.00     0.052 A 
ATOM     22  C   UNL A   1      28.362  32.312  22.332  1.00  0.00     0.159 A 
BRANCH  22  23
ATOM     23  C   UNL A   1      28.584  33.650  22.936  1.00  0.00     0.335 C 
BRANCH  23  24
ATOM     24  N   UNL A   1      29.908  33.732  23.548  1.00  0.00    -0.351 N 
ATOM     25  H   UNL A   1      29.822  34.083  24.501  1.00  0.00     0.344 HD
ATOM     26  H   UNL A   1      30.497  34.364  23.004  1.00  0.00     0.344 HD
ATOM     27  H   UNL A   1      30.333  32.804  23.565  1.00  0.00     0.344 HD
ENDBRANCH  23  24
ENDBRANCH  22  23
ENDBRANCH  16  18
ENDBRANCH   7   9
ENDBRANCH   4   7
ENDBRANCH   2   3
ENDBRANCH   1   2
BRANCH   1  28
ATOM     28  C   UNL A   1      32.895  31.080  27.323  1.00  0.00     0.023 C 
BRANCH  28  29
ATOM     29  C   UNL A   1      33.809  32.295  27.368  1.00  0.00     0.116 C 
BRANCH  29  30
ATOM     30  N   UNL A   1      33.100  33.536  27.654  1.00  0.00    -0.352 N 
ATOM     31  C   UNL A   1      33.350  34.433  28.668  1.00  0.00     0.251 C 
ATOM     32  H   UNL A   1      32.354  33.759  27.051  1.00  0.00     0.163 HD
ATOM     33  O   UNL A   1      32.613  35.392  28.858  1.00  0.00    -0.269 OA
BRANCH  31  34
ATOM     34  C   UNL A   1      34.508  34.180  29.547  1.00  0.00     0.039 A 
ATOM     35  C   UNL A   1      34.310  33.512  30.757  1.00  0.00     0.014 A 
ATOM     36  C   UNL A   1      35.793  34.506  29.109  1.00  0.00     0.014 A 
ATOM     37  C   UNL A   1      35.418  33.093  31.495  1.00  0.00     0.010 A 
ATOM     38  C   UNL A   1      36.892  34.027  29.809  1.00  0.00     0.010 A 
ATOM     39  C   UNL A   1      36.715  33.308  31.003  1.00  0.00    -0.014 A 
BRANCH  39  40
ATOM     40  C   UNL A   1      37.917  32.790  31.698  1.00  0.00     0.031 A 
ATOM     41  C   UNL A   1      38.606  31.566  31.167  1.00  0.00     0.074 A 
ATOM     42  C   UNL A   1      38.300  33.329  32.872  1.00  0.00     0.049 A 
ATOM     43  N   UNL A   1      39.544  30.841  31.717  1.00  0.00    -0.248 NA
ATOM     44  C   UNL A   1      38.146  31.069  29.860  1.00  0.00     0.031 C 
ATOM     45  C   UNL A   1      37.678  34.487  33.518  1.00  0.00     0.029 A 
ATOM     46  N   UNL A   1      39.288  32.949  33.746  1.00  0.00    -0.354 N 
ATOM     47  C   UNL A   1      39.751  29.775  30.851  1.00  0.00     0.074 A 
ATOM     48  C   UNL A   1      38.821  29.936  29.753  1.00  0.00     0.031 C 
ATOM     49  C   UNL A   1      38.298  34.722  34.686  1.00  0.00     0.029 A 
ATOM     50  C   UNL A   1      39.330  33.710  34.890  1.00  0.00     0.049 A 
ATOM     51  H   UNL A   1      39.906  32.204  33.571  1.00  0.00     0.167 HD
ATOM     52  C   UNL A   1      40.637  28.757  30.957  1.00  0.00     0.031 A 
ATOM     53  C   UNL A   1      40.098  33.595  35.991  1.00  0.00     0.031 A 
ATOM     54  C   UNL A   1      41.576  28.619  32.035  1.00  0.00     0.049 A 
ATOM     55  C   UNL A   1      41.115  32.492  36.066  1.00  0.00     0.074 A 
ATOM     56  C   UNL A   1      42.569  27.668  32.197  1.00  0.00     0.029 A 
ATOM     57  N   UNL A   1      41.642  29.459  33.137  1.00  0.00    -0.354 N 
ATOM     58  N   UNL A   1      41.343  31.528  35.206  1.00  0.00    -0.248 NA
ATOM     59  C   UNL A   1      41.983  32.464  37.251  1.00  0.00     0.031 C 
ATOM     60  C   UNL A   1      43.214  27.917  33.414  1.00  0.00     0.029 A 
ATOM     61  C   UNL A   1      42.648  29.045  33.989  1.00  0.00     0.049 A 
ATOM     62  H   UNL A   1      41.056  30.236  33.290  1.00  0.00     0.167 HD
ATOM     63  C   UNL A   1      42.396  30.790  35.736  1.00  0.00     0.074 A 
ATOM     64  C   UNL A   1      42.763  31.423  36.988  1.00  0.00     0.031 C 
ATOM     65  C   UNL A   1      43.004  29.691  35.228  1.00  0.00     0.031 A 
BRANCH  52  66
ATOM     66  C   UNL A   1      40.600  27.707  29.881  1.00  0.00    -0.014 A 
ATOM     67  C   UNL A   1      39.500  26.841  29.746  1.00  0.00     0.010 A 
ATOM     68  C   UNL A   1      41.695  27.566  29.010  1.00  0.00     0.010 A 
ATOM     69  C   UNL A   1      39.527  25.805  28.808  1.00  0.00     0.020 A 
ATOM     70  C   UNL A   1      41.713  26.550  28.051  1.00  0.00     0.020 A 
ATOM     71  C   UNL A   1      40.641  25.657  27.977  1.00  0.00     0.054 A 
BRANCH  71  72
ATOM     72  S   UNL A   1      40.674  24.286  26.791  1.00  0.00     0.124 S 
ATOM     73  O   UNL A   1      41.808  24.651  25.945  1.00  0.00    -0.237 OA
ATOM     74  O   UNL A   1      40.881  23.120  27.646  1.00  0.00    -0.237 OA
ATOM     75  O   UNL A   1      39.365  24.356  26.147  1.00  0.00    -0.744 OA
ENDBRANCH  71  72
ENDBRANCH  52  66
BRANCH  53  76
ATOM     76  C   UNL A   1      39.933  34.574  37.098  1.00  0.00    -0.014 A 
ATOM     77  C   UNL A   1      39.115  34.267  38.198  1.00  0.00     0.010 A 
ATOM     78  C   UNL A   1      40.654  35.781  37.093  1.00  0.00     0.010 A 
ATOM     79  C   UNL A   1      39.026  35.148  39.280  1.00  0.00     0.020 A 
ATOM     80  C   UNL A   1      40.583  36.655  38.182  1.00  0.00     0.020 A 
ATOM     81  C   UNL A   1      39.768  36.333  39.269  1.00  0.00     0.054 A 
BRANCH  81  82
ATOM     82  S   UNL A   1      39.722  37.410  40.730  1.00  0.00     0.124 S 
ATOM     83  O   UNL A   1      38.535  38.218  40.474  1.00  0.00    -0.237 OA
ATOM     84  O   UNL A   1      39.611  36.450  41.827  1.00  0.00    -0.237 OA
ATOM     85  O   UNL A   1      40.995  38.123  40.666  1.00  0.00    -0.744 OA
ENDBRANCH  81  82
ENDBRANCH  53  76
BRANCH  65  86
ATOM     86  C   UNL A   1      44.154  29.111  36.002  1.00  0.00    -0.014 A 
ATOM     87  C   UNL A   1      45.455  29.624  35.863  1.00  0.00     0.010 A 
ATOM     88  C   UNL A   1      43.908  28.100  36.949  1.00  0.00     0.010 A 
ATOM     89  C   UNL A   1      46.494  29.129  36.654  1.00  0.00     0.020 A 
ATOM     90  C   UNL A   1      44.942  27.616  37.755  1.00  0.00     0.020 A 
ATOM     91  C   UNL A   1      46.230  28.130  37.598  1.00  0.00     0.054 A 
BRANCH  91  92
ATOM     92  S   UNL A   1      47.579  27.557  38.670  1.00  0.00     0.124 S 
ATOM     93  O   UNL A   1      48.398  28.758  38.793  1.00  0.00    -0.237 OA
ATOM     94  O   UNL A   1      46.875  27.148  39.883  1.00  0.00    -0.237 OA
ATOM     95  O   UNL A   1      48.182  26.464  37.909  1.00  0.00    -0.744 OA
ENDBRANCH  91  92
ENDBRANCH  65  86
ENDBRANCH  39  40
ENDBRANCH  31  34
ENDBRANCH  29  30
ENDBRANCH  28  29
ENDBRANCH   1  28
TORSDOF 18
ENDMDL
MODEL 3
REMARK VINA RESULT:     -10.5      1.094      8.193
REMARK SMILES C[C@@H](C(=O)NCCCCNC(=O)c1ccc(-c2c3nc(c(-c4ccc(S(=O)(=O)[O-])cc4)c4ccc([nH]4)c(-c4ccc(S(=O)(=O)[O-])cc4)c4nc(c(-c5ccc(S(=O)(=O)[O-])cc5)c5ccc2[nH]5)C=C4)C=C3)cc1)[NH+]1CCN(C(=O)c2ccc(C[NH3+])o2)CC1
REMARK SMILES IDX 7 1 6 2 5 3 3 4 4 5 2 7 1 8 73 9 74 10 87 11 75 13 86 14
REMARK SMILES IDX 76 15 77 16 78 17 79 18 80 19 85 20 81 21 82 22 83 23 84 24
REMARK SMILES IDX 8 28 9 29 10 30 11 31 12 33 13 34 14 35 72 36 15 37 71 38
REMARK SMILES IDX 16 39 17 40 18 41 65 42 19 43 70 44 64 45 66 46 20 47 69 48
REMARK SMILES IDX 63 49 62 50 21 52 51 53 32 54 50 55 33 56 36 57 49 58 67 59
REMARK SMILES IDX 34 60 35 61 48 63 68 64 37 65 22 66 23 67 31 68 24 69 30 70
REMARK SMILES IDX 25 71 26 72 27 73 28 74 29 75 52 76 53 77 61 78 54 79 60 80
REMARK SMILES IDX 55 81 56 82 57 83 58 84 59 85 38 86 39 87 47 88 40 89 46 90
REMARK SMILES IDX 41 91 42 92 43 93 44 94 45 95
REMARK H PARENT 5 6 73 12 84 25 84 26 84 27 10 32 66 51 36 62
REMARK Flexibility Score: inf
ROOT
ATOM      1  C   UNL A   1      39.120  23.211  26.515  1.00  0.00     0.023 C 
ENDROOT
BRANCH   1   2
ATOM      2  C   UNL A   1      37.752  23.718  26.051  1.00  0.00     0.116 C 
BRANCH   2   3
ATOM      3  N   UNL A   1      37.603  23.575  24.616  1.00  0.00    -0.351 N 
ATOM      4  C   UNL A   1      36.718  22.811  23.902  1.00  0.00     0.278 C 
ATOM      5  O   UNL A   1      36.893  22.736  22.683  1.00  0.00    -0.268 OA
ATOM      6  H   UNL A   1      38.230  24.107  24.074  1.00  0.00     0.163 HD
BRANCH   4   7
ATOM      7  C   UNL A   1      35.542  22.111  24.643  1.00  0.00     0.271 C 
ATOM      8  C   UNL A   1      35.836  20.623  24.833  1.00  0.00     0.086 C 
BRANCH   7   9
ATOM      9  N   UNL A   1      34.274  22.454  23.953  1.00  0.00    -0.322 N 
ATOM     10  C   UNL A   1      33.030  21.897  24.504  1.00  0.00     0.284 C 
ATOM     11  C   UNL A   1      34.115  23.884  23.676  1.00  0.00     0.284 C 
ATOM     12  H   UNL A   1      34.409  21.958  23.072  1.00  0.00     0.348 HD
ATOM     13  C   UNL A   1      32.401  22.683  25.679  1.00  0.00     0.181 C 
ATOM     14  C   UNL A   1      33.683  24.678  24.913  1.00  0.00     0.181 C 
ATOM     15  N   UNL A   1      32.456  24.139  25.513  1.00  0.00    -0.325 N 
ATOM     16  C   UNL A   1      31.593  24.918  26.293  1.00  0.00     0.289 C 
ATOM     17  O   UNL A   1      30.954  24.419  27.219  1.00  0.00    -0.265 OA
BRANCH  16  18
ATOM     18  C   UNL A   1      31.459  26.316  25.928  1.00  0.00     0.192 A 
ATOM     19  C   UNL A   1      30.786  26.935  24.888  1.00  0.00     0.057 A 
ATOM     20  O   UNL A   1      32.035  27.267  26.726  1.00  0.00    -0.450 OA
ATOM     21  C   UNL A   1      30.985  28.325  25.042  1.00  0.00     0.052 A 
ATOM     22  C   UNL A   1      31.755  28.484  26.175  1.00  0.00     0.159 A 
BRANCH  22  23
ATOM     23  C   UNL A   1      32.298  29.674  26.877  1.00  0.00     0.335 C 
BRANCH  23  24
ATOM     24  N   UNL A   1      33.349  29.291  27.816  1.00  0.00    -0.351 N 
ATOM     25  H   UNL A   1      33.366  29.948  28.595  1.00  0.00     0.344 HD
ATOM     26  H   UNL A   1      34.252  29.302  27.341  1.00  0.00     0.344 HD
ATOM     27  H   UNL A   1      33.163  28.351  28.169  1.00  0.00     0.344 HD
ENDBRANCH  23  24
ENDBRANCH  22  23
ENDBRANCH  16  18
ENDBRANCH   7   9
ENDBRANCH   4   7
ENDBRANCH   2   3
ENDBRANCH   1   2
BRANCH   1  28
ATOM     28  C   UNL A   1      39.426  21.765  26.131  1.00  0.00     0.023 C 
BRANCH  28  29
ATOM     29  C   UNL A   1      40.395  21.052  27.061  1.00  0.00     0.116 C 
BRANCH  29  30
ATOM     30  N   UNL A   1      41.200  20.041  26.385  1.00  0.00    -0.352 N 
ATOM     31  C   UNL A   1      42.437  20.203  25.804  1.00  0.00     0.251 C 
ATOM     32  H   UNL A   1      40.813  19.138  26.340  1.00  0.00     0.163 HD
ATOM     33  O   UNL A   1      42.963  19.291  25.179  1.00  0.00    -0.269 OA
BRANCH  31  34
ATOM     34  C   UNL A   1      43.090  21.521  25.917  1.00  0.00     0.039 A 
ATOM     35  C   UNL A   1      43.004  22.417  24.851  1.00  0.00     0.014 A 
ATOM     36  C   UNL A   1      43.684  21.896  27.125  1.00  0.00     0.014 A 
ATOM     37  C   UNL A   1      43.442  23.731  25.025  1.00  0.00     0.010 A 
ATOM     38  C   UNL A   1      44.054  23.220  27.317  1.00  0.00     0.010 A 
ATOM     39  C   UNL A   1      43.927  24.152  26.273  1.00  0.00    -0.014 A 
BRANCH  39  40
ATOM     40  C   UNL A   1      44.306  25.561  26.537  1.00  0.00     0.031 A 
ATOM     41  C   UNL A   1      45.729  25.993  26.333  1.00  0.00     0.074 A 
ATOM     42  C   UNL A   1      43.412  26.405  27.087  1.00  0.00     0.049 A 
ATOM     43  N   UNL A   1      46.311  27.110  26.680  1.00  0.00    -0.248 NA
ATOM     44  C   UNL A   1      46.625  25.018  25.691  1.00  0.00     0.031 C 
ATOM     45  C   UNL A   1      42.013  26.087  27.383  1.00  0.00     0.029 A 
ATOM     46  N   UNL A   1      43.561  27.697  27.527  1.00  0.00    -0.354 N 
ATOM     47  C   UNL A   1      47.650  26.955  26.346  1.00  0.00     0.074 A 
ATOM     48  C   UNL A   1      47.797  25.624  25.794  1.00  0.00     0.031 C 
ATOM     49  C   UNL A   1      41.433  27.154  27.956  1.00  0.00     0.029 A 
ATOM     50  C   UNL A   1      42.426  28.214  28.105  1.00  0.00     0.049 A 
ATOM     51  H   UNL A   1      44.399  28.204  27.437  1.00  0.00     0.167 HD
ATOM     52  C   UNL A   1      48.666  27.840  26.482  1.00  0.00     0.031 A 
ATOM     53  C   UNL A   1      42.212  29.399  28.709  1.00  0.00     0.031 A 
ATOM     54  C   UNL A   1      48.508  29.169  27.005  1.00  0.00     0.049 A 
ATOM     55  C   UNL A   1      43.337  30.391  28.801  1.00  0.00     0.074 A 
ATOM     56  C   UNL A   1      49.456  30.171  27.112  1.00  0.00     0.029 A 
ATOM     57  N   UNL A   1      47.322  29.684  27.506  1.00  0.00    -0.354 N 
ATOM     58  N   UNL A   1      44.584  30.253  28.421  1.00  0.00    -0.248 NA
ATOM     59  C   UNL A   1      43.026  31.699  29.393  1.00  0.00     0.031 C 
ATOM     60  C   UNL A   1      48.849  31.282  27.708  1.00  0.00     0.029 A 
ATOM     61  C   UNL A   1      47.514  30.984  27.935  1.00  0.00     0.049 A 
ATOM     62  H   UNL A   1      46.468  29.194  27.552  1.00  0.00     0.167 HD
ATOM     63  C   UNL A   1      45.204  31.464  28.708  1.00  0.00     0.074 A 
ATOM     64  C   UNL A   1      44.192  32.324  29.288  1.00  0.00     0.031 C 
ATOM     65  C   UNL A   1      46.493  31.829  28.504  1.00  0.00     0.031 A 
BRANCH  52  66
ATOM     66  C   UNL A   1      50.037  27.372  26.078  1.00  0.00    -0.014 A 
ATOM     67  C   UNL A   1      50.490  27.505  24.753  1.00  0.00     0.010 A 
ATOM     68  C   UNL A   1      50.872  26.763  27.030  1.00  0.00     0.010 A 
ATOM     69  C   UNL A   1      51.725  26.973  24.372  1.00  0.00     0.020 A 
ATOM     70  C   UNL A   1      52.120  26.255  26.660  1.00  0.00     0.020 A 
ATOM     71  C   UNL A   1      52.525  26.337  25.325  1.00  0.00     0.054 A 
BRANCH  71  72
ATOM     72  S   UNL A   1      54.107  25.621  24.804  1.00  0.00     0.124 S 
ATOM     73  O   UNL A   1      54.248  26.160  23.454  1.00  0.00    -0.237 OA
ATOM     74  O   UNL A   1      55.044  26.151  25.791  1.00  0.00    -0.237 OA
ATOM     75  O   UNL A   1      53.876  24.181  24.882  1.00  0.00    -0.744 OA
ENDBRANCH  71  72
ENDBRANCH  52  66
BRANCH  53  76
ATOM     76  C   UNL A   1      40.863  29.704  29.254  1.00  0.00    -0.014 A 
ATOM     77  C   UNL A   1      39.805  30.026  28.388  1.00  0.00     0.010 A 
ATOM     78  C   UNL A   1      40.614  29.596  30.635  1.00  0.00     0.010 A 
ATOM     79  C   UNL A   1      38.516  30.227  28.892  1.00  0.00     0.020 A 
ATOM     80  C   UNL A   1      39.322  29.778  31.139  1.00  0.00     0.020 A 
ATOM     81  C   UNL A   1      38.282  30.093  30.263  1.00  0.00     0.054 A 
BRANCH  81  82
ATOM     82  S   UNL A   1      36.582  30.253  30.881  1.00  0.00     0.124 S 
ATOM     83  O   UNL A   1      35.796  29.922  29.699  1.00  0.00    -0.237 OA
ATOM     84  O   UNL A   1      36.545  29.271  31.963  1.00  0.00    -0.237 OA
ATOM     85  O   UNL A   1      36.509  31.646  31.317  1.00  0.00    -0.744 OA
ENDBRANCH  81  82
ENDBRANCH  53  76
BRANCH  65  86
ATOM     86  C   UNL A   1      46.888  33.229  28.880  1.00  0.00    -0.014 A 
ATOM     87  C   UNL A   1      46.804  34.280  27.950  1.00  0.00     0.010 A 
ATOM     88  C   UNL A   1      47.258  33.509  30.208  1.00  0.00     0.010 A 
ATOM     89  C   UNL A   1      47.094  35.589  28.342  1.00  0.00     0.020 A 
ATOM     90  C   UNL A   1      47.530  34.820  30.606  1.00  0.00     0.020 A 
ATOM     91  C   UNL A   1      47.452  35.852  29.669  1.00  0.00     0.054 A 
BRANCH  91  92
ATOM     92  S   UNL A   1      47.746  37.570  30.175  1.00  0.00     0.124 S 
ATOM     93  O   UNL A   1      47.448  38.302  28.948  1.00  0.00    -0.237 OA
ATOM     94  O   UNL A   1      46.791  37.753  31.266  1.00  0.00    -0.237 OA
ATOM     95  O   UNL A   1      49.151  37.574  30.579  1.00  0.00    -0.744 OA
ENDBRANCH  91  92
ENDBRANCH  65  86
ENDBRANCH  39  40
ENDBRANCH  31  34
ENDBRANCH  29  30
ENDBRANCH  28  29
ENDBRANCH   1  28
TORSDOF 18
ENDMDL
