MODEL 1
REMARK VINA RESULT:     -11.3      0.000      0.000
REMARK SMILES CC[C@@H](C(=O)NCCCCNC(=O)c1ccc(-c2c3nc(c(-c4ccc(S(=O)(=O)[O-])cc4)c4ccc([nH]4)c(-c4ccc(S(=O)(=O)[O-])cc4)c4nc(c(-c5ccc(S(=O)(=O)[O-])cc5)c5ccc2[nH]5)C=C4)C=C3)cc1)N1CCN(Cc2cccc(C)c2)C(=O)C1=O
REMARK SMILES IDX 8 1 7 2 6 3 4 4 5 5 3 7 2 8 1 9 74 10 75 11 88 12 76 13
REMARK SMILES IDX 86 14 89 15 77 16 87 17 78 18 79 19 80 20 85 21 81 22 83 23
REMARK SMILES IDX 82 24 84 25 9 26 10 27 11 28 12 29 13 31 14 32 15 33 73 34
REMARK SMILES IDX 16 35 72 36 17 37 18 38 19 39 66 40 20 41 71 42 65 43 67 44
REMARK SMILES IDX 21 45 70 46 64 47 63 48 22 50 52 51 33 52 51 53 34 54 37 55
REMARK SMILES IDX 50 56 68 57 35 58 36 59 49 61 69 62 38 63 23 64 24 65 32 66
REMARK SMILES IDX 25 67 31 68 26 69 27 70 28 71 29 72 30 73 53 74 54 75 62 76
REMARK SMILES IDX 55 77 61 78 56 79 57 80 58 81 59 82 60 83 39 84 40 85 48 86
REMARK SMILES IDX 41 87 47 88 42 89 43 90 44 91 45 92 46 93
REMARK H PARENT 6 6 11 30 67 49 37 60
REMARK Flexibility Score: inf
ROOT
ATOM      1  C   UNL A   1      31.759  29.379  25.366  1.00  0.00     0.023 C 
ENDROOT
BRANCH   1   2
ATOM      2  C   UNL A   1      31.102  29.056  24.021  1.00  0.00     0.116 C 
BRANCH   2   3
ATOM      3  N   UNL A   1      30.104  28.020  24.193  1.00  0.00    -0.354 N 
ATOM      4  C   UNL A   1      30.175  26.690  23.912  1.00  0.00     0.242 C 
ATOM      5  O   UNL A   1      29.099  26.097  23.762  1.00  0.00    -0.273 OA
ATOM      6  H   UNL A   1      29.246  28.324  24.569  1.00  0.00     0.163 HD
BRANCH   4   7
ATOM      7  C   UNL A   1      31.538  25.937  23.826  1.00  0.00     0.174 C 
BRANCH   7   8
ATOM      8  C   UNL A   1      31.857  25.724  22.324  1.00  0.00     0.032 C 
ATOM      9  C   UNL A   1      33.232  26.199  21.888  1.00  0.00     0.006 C 
ENDBRANCH   7   8
BRANCH   7  10
ATOM     10  N   UNL A   1      31.476  24.624  24.548  1.00  0.00    -0.321 N 
ATOM     11  C   UNL A   1      31.363  23.355  23.847  1.00  0.00     0.142 C 
ATOM     12  C   UNL A   1      31.553  24.523  25.942  1.00  0.00     0.312 C 
ATOM     13  C   UNL A   1      32.626  22.567  24.135  1.00  0.00     0.142 C 
ATOM     14  C   UNL A   1      32.154  23.173  26.502  1.00  0.00     0.312 C 
ATOM     15  O   UNL A   1      31.263  25.433  26.710  1.00  0.00    -0.263 OA
ATOM     16  N   UNL A   1      32.710  22.283  25.567  1.00  0.00    -0.328 N 
ATOM     17  O   UNL A   1      32.163  22.969  27.711  1.00  0.00    -0.263 OA
BRANCH  16  18
ATOM     18  C   UNL A   1      33.488  21.134  26.016  1.00  0.00     0.155 C 
BRANCH  18  19
ATOM     19  C   UNL A   1      34.967  21.280  25.735  1.00  0.00    -0.028 A 
ATOM     20  C   UNL A   1      35.665  20.272  25.060  1.00  0.00     0.005 A 
ATOM     21  C   UNL A   1      35.661  22.439  26.115  1.00  0.00     0.009 A 
ATOM     22  C   UNL A   1      37.022  20.426  24.769  1.00  0.00     0.001 A 
ATOM     23  C   UNL A   1      37.000  22.636  25.758  1.00  0.00    -0.051 A 
ATOM     24  C   UNL A   1      37.683  21.608  25.105  1.00  0.00     0.003 A 
ATOM     25  C   UNL A   1      37.690  23.929  26.079  1.00  0.00     0.044 C 
ENDBRANCH  18  19
ENDBRANCH  16  18
ENDBRANCH   7  10
ENDBRANCH   4   7
ENDBRANCH   2   3
ENDBRANCH   1   2
BRANCH   1  26
ATOM     26  C   UNL A   1      32.990  28.541  25.704  1.00  0.00     0.023 C 
BRANCH  26  27
ATOM     27  C   UNL A   1      33.488  28.685  27.134  1.00  0.00     0.116 C 
BRANCH  27  28
ATOM     28  N   UNL A   1      33.492  30.067  27.597  1.00  0.00    -0.352 N 
ATOM     29  C   UNL A   1      34.481  30.762  28.251  1.00  0.00     0.251 C 
ATOM     30  H   UNL A   1      32.669  30.574  27.413  1.00  0.00     0.163 HD
ATOM     31  O   UNL A   1      34.255  31.886  28.689  1.00  0.00    -0.269 OA
BRANCH  29  32
ATOM     32  C   UNL A   1      35.800  30.130  28.454  1.00  0.00     0.039 A 
ATOM     33  C   UNL A   1      36.727  30.143  27.409  1.00  0.00     0.014 A 
ATOM     34  C   UNL A   1      36.138  29.579  29.693  1.00  0.00     0.014 A 
ATOM     35  C   UNL A   1      38.026  29.689  27.639  1.00  0.00     0.010 A 
ATOM     36  C   UNL A   1      37.455  29.210  29.943  1.00  0.00     0.010 A 
ATOM     37  C   UNL A   1      38.415  29.271  28.922  1.00  0.00    -0.014 A 
BRANCH  37  38
ATOM     38  C   UNL A   1      39.824  28.922  29.230  1.00  0.00     0.031 A 
ATOM     39  C   UNL A   1      40.740  29.946  29.843  1.00  0.00     0.074 A 
ATOM     40  C   UNL A   1      40.302  27.712  28.874  1.00  0.00     0.049 A 
ATOM     41  N   UNL A   1      42.018  29.856  30.105  1.00  0.00    -0.248 NA
ATOM     42  C   UNL A   1      40.149  31.252  30.178  1.00  0.00     0.031 C 
ATOM     43  C   UNL A   1      39.528  26.651  28.222  1.00  0.00     0.029 A 
ATOM     44  N   UNL A   1      41.558  27.172  29.001  1.00  0.00    -0.354 N 
ATOM     45  C   UNL A   1      42.387  31.095  30.615  1.00  0.00     0.074 A 
ATOM     46  C   UNL A   1      41.211  31.936  30.578  1.00  0.00     0.031 C 
ATOM     47  C   UNL A   1      40.317  25.581  28.034  1.00  0.00     0.029 A 
ATOM     48  C   UNL A   1      41.661  25.892  28.508  1.00  0.00     0.049 A 
ATOM     49  H   UNL A   1      42.314  27.656  29.405  1.00  0.00     0.167 HD
ATOM     50  C   UNL A   1      43.592  31.491  31.090  1.00  0.00     0.031 A 
ATOM     51  C   UNL A   1      42.720  25.062  28.440  1.00  0.00     0.031 A 
ATOM     52  C   UNL A   1      44.755  30.646  31.141  1.00  0.00     0.049 A 
ATOM     53  C   UNL A   1      44.047  25.526  28.973  1.00  0.00     0.074 A 
ATOM     54  C   UNL A   1      46.003  30.931  31.666  1.00  0.00     0.029 A 
ATOM     55  N   UNL A   1      44.814  29.352  30.645  1.00  0.00    -0.354 N 
ATOM     56  N   UNL A   1      44.358  26.677  29.518  1.00  0.00    -0.248 NA
ATOM     57  C   UNL A   1      45.164  24.576  28.887  1.00  0.00     0.031 C 
ATOM     58  C   UNL A   1      46.831  29.827  31.443  1.00  0.00     0.029 A 
ATOM     59  C   UNL A   1      46.086  28.835  30.828  1.00  0.00     0.049 A 
ATOM     60  H   UNL A   1      44.063  28.872  30.227  1.00  0.00     0.167 HD
ATOM     61  C   UNL A   1      45.703  26.584  29.856  1.00  0.00     0.074 A 
ATOM     62  C   UNL A   1      46.140  25.257  29.473  1.00  0.00     0.031 C 
ATOM     63  C   UNL A   1      46.505  27.514  30.430  1.00  0.00     0.031 A 
BRANCH  50  64
ATOM     64  C   UNL A   1      43.708  32.905  31.594  1.00  0.00    -0.014 A 
ATOM     65  C   UNL A   1      44.010  33.965  30.719  1.00  0.00     0.010 A 
ATOM     66  C   UNL A   1      43.480  33.186  32.953  1.00  0.00     0.010 A 
ATOM     67  C   UNL A   1      44.127  35.271  31.201  1.00  0.00     0.020 A 
ATOM     68  C   UNL A   1      43.567  34.495  33.435  1.00  0.00     0.020 A 
ATOM     69  C   UNL A   1      43.909  35.527  32.558  1.00  0.00     0.054 A 
BRANCH  69  70
ATOM     70  S   UNL A   1      44.048  37.234  33.153  1.00  0.00     0.124 S 
ATOM     71  O   UNL A   1      44.100  37.984  31.900  1.00  0.00    -0.237 OA
ATOM     72  O   UNL A   1      42.827  37.403  33.936  1.00  0.00    -0.237 OA
ATOM     73  O   UNL A   1      45.287  37.232  33.928  1.00  0.00    -0.744 OA
ENDBRANCH  69  70
ENDBRANCH  50  64
BRANCH  51  74
ATOM     74  C   UNL A   1      42.563  23.703  27.853  1.00  0.00    -0.014 A 
ATOM     75  C   UNL A   1      42.815  23.484  26.487  1.00  0.00     0.010 A 
ATOM     76  C   UNL A   1      42.178  22.618  28.660  1.00  0.00     0.010 A 
ATOM     77  C   UNL A   1      42.671  22.207  25.936  1.00  0.00     0.020 A 
ATOM     78  C   UNL A   1      42.059  21.334  28.119  1.00  0.00     0.020 A 
ATOM     79  C   UNL A   1      42.297  21.140  26.756  1.00  0.00     0.054 A 
BRANCH  79  80
ATOM     80  S   UNL A   1      42.171  19.480  26.033  1.00  0.00     0.124 S 
ATOM     81  O   UNL A   1      43.054  19.586  24.876  1.00  0.00    -0.237 OA
ATOM     82  O   UNL A   1      42.649  18.626  27.118  1.00  0.00    -0.237 OA
ATOM     83  O   UNL A   1      40.749  19.348  25.727  1.00  0.00    -0.744 OA
ENDBRANCH  79  80
ENDBRANCH  51  74
BRANCH  63  84
ATOM     84  C   UNL A   1      47.935  27.126  30.690  1.00  0.00    -0.014 A 
ATOM     85  C   UNL A   1      48.921  27.290  29.701  1.00  0.00     0.010 A 
ATOM     86  C   UNL A   1      48.306  26.640  31.957  1.00  0.00     0.010 A 
ATOM     87  C   UNL A   1      50.249  26.948  29.967  1.00  0.00     0.020 A 
ATOM     88  C   UNL A   1      49.637  26.322  32.235  1.00  0.00     0.020 A 
ATOM     89  C   UNL A   1      50.598  26.465  31.232  1.00  0.00     0.054 A 
BRANCH  89  90
ATOM     90  S   UNL A   1      52.337  26.071  31.566  1.00  0.00     0.124 S 
ATOM     91  O   UNL A   1      52.278  24.636  31.830  1.00  0.00    -0.237 OA
ATOM     92  O   UNL A   1      52.998  26.454  30.320  1.00  0.00    -0.237 OA
ATOM     93  O   UNL A   1      52.666  26.905  32.720  1.00  0.00    -0.744 OA
ENDBRANCH  89  90
ENDBRANCH  63  84
ENDBRANCH  37  38
ENDBRANCH  29  32
ENDBRANCH  27  28
ENDBRANCH  26  27
ENDBRANCH   1  26
TORSDOF 18
ENDMDL
MODEL 2
REMARK VINA RESULT:     -10.8      0.425      8.063
REMARK SMILES CC[C@@H](C(=O)NCCCCNC(=O)c1ccc(-c2c3nc(c(-c4ccc(S(=O)(=O)[O-])cc4)c4ccc([nH]4)c(-c4ccc(S(=O)(=O)[O-])cc4)c4nc(c(-c5ccc(S(=O)(=O)[O-])cc5)c5ccc2[nH]5)C=C4)C=C3)cc1)N1CCN(Cc2cccc(C)c2)C(=O)C1=O
REMARK SMILES IDX 8 1 7 2 6 3 4 4 5 5 3 7 2 8 1 9 74 10 75 11 88 12 76 13
REMARK SMILES IDX 86 14 89 15 77 16 87 17 78 18 79 19 80 20 85 21 81 22 83 23
REMARK SMILES IDX 82 24 84 25 9 26 10 27 11 28 12 29 13 31 14 32 15 33 73 34
REMARK SMILES IDX 16 35 72 36 17 37 18 38 19 39 66 40 20 41 71 42 65 43 67 44
REMARK SMILES IDX 21 45 70 46 64 47 63 48 22 50 52 51 33 52 51 53 34 54 37 55
REMARK SMILES IDX 50 56 68 57 35 58 36 59 49 61 69 62 38 63 23 64 24 65 32 66
REMARK SMILES IDX 25 67 31 68 26 69 27 70 28 71 29 72 30 73 53 74 54 75 62 76
REMARK SMILES IDX 55 77 61 78 56 79 57 80 58 81 59 82 60 83 39 84 40 85 48 86
REMARK SMILES IDX 41 87 47 88 42 89 43 90 44 91 45 92 46 93
REMARK H PARENT 6 6 11 30 67 49 37 60
REMARK Flexibility Score: inf
ROOT
ATOM      1  C   UNL A   1      31.934  29.276  25.470  1.00  0.00     0.023 C 
ENDROOT
BRANCH   1   2
ATOM      2  C   UNL A   1      31.240  29.038  24.127  1.00  0.00     0.116 C 
BRANCH   2   3
ATOM      3  N   UNL A   1      30.195  28.046  24.278  1.00  0.00    -0.354 N 
ATOM      4  C   UNL A   1      30.184  26.733  23.915  1.00  0.00     0.242 C 
ATOM      5  O   UNL A   1      29.073  26.206  23.776  1.00  0.00    -0.273 OA
ATOM      6  H   UNL A   1      29.369  28.368  24.707  1.00  0.00     0.163 HD
BRANCH   4   7
ATOM      7  C   UNL A   1      31.502  25.918  23.729  1.00  0.00     0.174 C 
BRANCH   7   8
ATOM      8  C   UNL A   1      31.679  25.666  22.210  1.00  0.00     0.032 C 
ATOM      9  C   UNL A   1      33.065  25.971  21.668  1.00  0.00     0.006 C 
ENDBRANCH   7   8
BRANCH   7  10
ATOM     10  N   UNL A   1      31.446  24.622  24.481  1.00  0.00    -0.321 N 
ATOM     11  C   UNL A   1      31.379  23.335  23.807  1.00  0.00     0.142 C 
ATOM     12  C   UNL A   1      31.486  24.556  25.878  1.00  0.00     0.312 C 
ATOM     13  C   UNL A   1      32.650  22.581  24.149  1.00  0.00     0.142 C 
ATOM     14  C   UNL A   1      32.099  23.233  26.487  1.00  0.00     0.312 C 
ATOM     15  O   UNL A   1      31.156  25.477  26.615  1.00  0.00    -0.263 OA
ATOM     16  N   UNL A   1      32.699  22.333  25.589  1.00  0.00    -0.328 N 
ATOM     17  O   UNL A   1      32.078  23.058  27.700  1.00  0.00    -0.263 OA
BRANCH  16  18
ATOM     18  C   UNL A   1      33.487  21.211  26.088  1.00  0.00     0.155 C 
BRANCH  18  19
ATOM     19  C   UNL A   1      34.961  21.346  25.776  1.00  0.00    -0.028 A 
ATOM     20  C   UNL A   1      35.622  20.365  25.028  1.00  0.00     0.005 A 
ATOM     21  C   UNL A   1      35.688  22.469  26.202  1.00  0.00     0.009 A 
ATOM     22  C   UNL A   1      36.974  20.510  24.709  1.00  0.00     0.001 A 
ATOM     23  C   UNL A   1      37.021  22.660  25.822  1.00  0.00    -0.051 A 
ATOM     24  C   UNL A   1      37.667  21.659  25.094  1.00  0.00     0.003 A 
ATOM     25  C   UNL A   1      37.744  23.921  26.197  1.00  0.00     0.044 C 
ENDBRANCH  18  19
ENDBRANCH  16  18
ENDBRANCH   7  10
ENDBRANCH   4   7
ENDBRANCH   2   3
ENDBRANCH   1   2
BRANCH   1  26
ATOM     26  C   UNL A   1      33.129  28.367  25.753  1.00  0.00     0.023 C 
BRANCH  26  27
ATOM     27  C   UNL A   1      33.731  28.516  27.141  1.00  0.00     0.116 C 
BRANCH  27  28
ATOM     28  N   UNL A   1      33.656  29.879  27.648  1.00  0.00    -0.352 N 
ATOM     29  C   UNL A   1      34.611  30.616  28.307  1.00  0.00     0.251 C 
ATOM     30  H   UNL A   1      32.799  30.338  27.497  1.00  0.00     0.163 HD
ATOM     31  O   UNL A   1      34.323  31.708  28.786  1.00  0.00    -0.269 OA
BRANCH  29  32
ATOM     32  C   UNL A   1      35.973  30.064  28.465  1.00  0.00     0.039 A 
ATOM     33  C   UNL A   1      36.858  30.124  27.386  1.00  0.00     0.014 A 
ATOM     34  C   UNL A   1      36.387  29.544  29.693  1.00  0.00     0.014 A 
ATOM     35  C   UNL A   1      38.189  29.749  27.571  1.00  0.00     0.010 A 
ATOM     36  C   UNL A   1      37.732  29.256  29.898  1.00  0.00     0.010 A 
ATOM     37  C   UNL A   1      38.649  29.365  28.842  1.00  0.00    -0.014 A 
BRANCH  37  38
ATOM     38  C   UNL A   1      40.087  29.102  29.099  1.00  0.00     0.031 A 
ATOM     39  C   UNL A   1      40.686  27.767  28.748  1.00  0.00     0.074 A 
ATOM     40  C   UNL A   1      40.830  30.034  29.730  1.00  0.00     0.049 A 
ATOM     41  N   UNL A   1      41.895  27.323  28.973  1.00  0.00    -0.248 NA
ATOM     42  C   UNL A   1      39.802  26.794  28.086  1.00  0.00     0.031 C 
ATOM     43  C   UNL A   1      40.349  31.347  30.171  1.00  0.00     0.029 A 
ATOM     44  N   UNL A   1      42.146  30.017  30.120  1.00  0.00    -0.354 N 
ATOM     45  C   UNL A   1      41.912  26.017  28.500  1.00  0.00     0.074 A 
ATOM     46  C   UNL A   1      40.578  25.722  28.023  1.00  0.00     0.031 C 
ATOM     47  C   UNL A   1      41.363  32.018  30.742  1.00  0.00     0.029 A 
ATOM     48  C   UNL A   1      42.550  31.171  30.750  1.00  0.00     0.049 A 
ATOM     49  H   UNL A   1      42.744  29.251  29.963  1.00  0.00     0.167 HD
ATOM     50  C   UNL A   1      42.949  25.147  28.448  1.00  0.00     0.031 A 
ATOM     51  C   UNL A   1      43.741  31.508  31.283  1.00  0.00     0.031 A 
ATOM     52  C   UNL A   1      44.277  25.450  28.909  1.00  0.00     0.049 A 
ATOM     53  C   UNL A   1      44.876  30.524  31.214  1.00  0.00     0.074 A 
ATOM     54  C   UNL A   1      45.412  24.662  28.838  1.00  0.00     0.029 A 
ATOM     55  N   UNL A   1      44.649  26.634  29.528  1.00  0.00    -0.354 N 
ATOM     56  N   UNL A   1      44.891  29.319  30.696  1.00  0.00    -0.248 NA
ATOM     57  C   UNL A   1      46.156  30.949  31.795  1.00  0.00     0.031 C 
ATOM     58  C   UNL A   1      46.459  25.350  29.460  1.00  0.00     0.029 A 
ATOM     59  C   UNL A   1      45.990  26.588  29.869  1.00  0.00     0.049 A 
ATOM     60  H   UNL A   1      44.048  27.395  29.698  1.00  0.00     0.167 HD
ATOM     61  C   UNL A   1      46.186  28.847  30.875  1.00  0.00     0.074 A 
ATOM     62  C   UNL A   1      46.930  29.904  31.528  1.00  0.00     0.031 C 
ATOM     63  C   UNL A   1      46.711  27.646  30.530  1.00  0.00     0.031 A 
BRANCH  50  64
ATOM     64  C   UNL A   1      42.681  23.782  27.871  1.00  0.00    -0.014 A 
ATOM     65  C   UNL A   1      42.415  22.681  28.706  1.00  0.00     0.010 A 
ATOM     66  C   UNL A   1      42.663  23.602  26.477  1.00  0.00     0.010 A 
ATOM     67  C   UNL A   1      42.180  21.417  28.158  1.00  0.00     0.020 A 
ATOM     68  C   UNL A   1      42.400  22.346  25.923  1.00  0.00     0.020 A 
ATOM     69  C   UNL A   1      42.179  21.257  26.769  1.00  0.00     0.054 A 
BRANCH  69  70
ATOM     70  S   UNL A   1      41.853  19.610  26.085  1.00  0.00     0.124 S 
ATOM     71  O   UNL A   1      42.749  19.582  24.931  1.00  0.00    -0.237 OA
ATOM     72  O   UNL A   1      42.221  18.725  27.187  1.00  0.00    -0.237 OA
ATOM     73  O   UNL A   1      40.428  19.643  25.765  1.00  0.00    -0.744 OA
ENDBRANCH  69  70
ENDBRANCH  50  64
BRANCH  51  74
ATOM     74  C   UNL A   1      43.921  32.843  31.916  1.00  0.00    -0.014 A 
ATOM     75  C   UNL A   1      44.287  33.956  31.139  1.00  0.00     0.010 A 
ATOM     76  C   UNL A   1      43.711  33.011  33.297  1.00  0.00     0.010 A 
ATOM     77  C   UNL A   1      44.452  35.211  31.733  1.00  0.00     0.020 A 
ATOM     78  C   UNL A   1      43.850  34.269  33.890  1.00  0.00     0.020 A 
ATOM     79  C   UNL A   1      44.230  35.360  33.105  1.00  0.00     0.054 A 
BRANCH  79  80
ATOM     80  S   UNL A   1      44.395  37.008  33.845  1.00  0.00     0.124 S 
ATOM     81  O   UNL A   1      43.160  37.657  33.420  1.00  0.00    -0.237 OA
ATOM     82  O   UNL A   1      44.493  36.705  35.271  1.00  0.00    -0.237 OA
ATOM     83  O   UNL A   1      45.620  37.532  33.243  1.00  0.00    -0.744 OA
ENDBRANCH  79  80
ENDBRANCH  51  74
BRANCH  63  84
ATOM     84  C   UNL A   1      48.164  27.414  30.843  1.00  0.00    -0.014 A 
ATOM     85  C   UNL A   1      48.559  26.817  32.053  1.00  0.00     0.010 A 
ATOM     86  C   UNL A   1      49.144  27.751  29.891  1.00  0.00     0.010 A 
ATOM     87  C   UNL A   1      49.910  26.586  32.318  1.00  0.00     0.020 A 
ATOM     88  C   UNL A   1      50.495  27.496  30.141  1.00  0.00     0.020 A 
ATOM     89  C   UNL A   1      50.870  26.927  31.360  1.00  0.00     0.054 A 
BRANCH  89  90
ATOM     90  S   UNL A   1      52.615  26.575  31.709  1.00  0.00     0.124 S 
ATOM     91  O   UNL A   1      53.072  26.020  30.438  1.00  0.00    -0.237 OA
ATOM     92  O   UNL A   1      53.147  27.892  32.048  1.00  0.00    -0.237 OA
ATOM     93  O   UNL A   1      52.561  25.627  32.819  1.00  0.00    -0.744 OA
ENDBRANCH  89  90
ENDBRANCH  63  84
ENDBRANCH  37  38
ENDBRANCH  29  32
ENDBRANCH  27  28
ENDBRANCH  26  27
ENDBRANCH   1  26
TORSDOF 18
ENDMDL
MODEL 3
REMARK VINA RESULT:      -9.9      2.923      8.673
REMARK SMILES CC[C@@H](C(=O)NCCCCNC(=O)c1ccc(-c2c3nc(c(-c4ccc(S(=O)(=O)[O-])cc4)c4ccc([nH]4)c(-c4ccc(S(=O)(=O)[O-])cc4)c4nc(c(-c5ccc(S(=O)(=O)[O-])cc5)c5ccc2[nH]5)C=C4)C=C3)cc1)N1CCN(Cc2cccc(C)c2)C(=O)C1=O
REMARK SMILES IDX 8 1 7 2 6 3 4 4 5 5 3 7 2 8 1 9 74 10 75 11 88 12 76 13
REMARK SMILES IDX 86 14 89 15 77 16 87 17 78 18 79 19 80 20 85 21 81 22 83 23
REMARK SMILES IDX 82 24 84 25 9 26 10 27 11 28 12 29 13 31 14 32 15 33 73 34
REMARK SMILES IDX 16 35 72 36 17 37 18 38 19 39 66 40 20 41 71 42 65 43 67 44
REMARK SMILES IDX 21 45 70 46 64 47 63 48 22 50 52 51 33 52 51 53 34 54 37 55
REMARK SMILES IDX 50 56 68 57 35 58 36 59 49 61 69 62 38 63 23 64 24 65 32 66
REMARK SMILES IDX 25 67 31 68 26 69 27 70 28 71 29 72 30 73 53 74 54 75 62 76
REMARK SMILES IDX 55 77 61 78 56 79 57 80 58 81 59 82 60 83 39 84 40 85 48 86
REMARK SMILES IDX 41 87 47 88 42 89 43 90 44 91 45 92 46 93
REMARK H PARENT 6 6 11 30 67 49 37 60
REMARK Flexibility Score: inf
ROOT
ATOM      1  C   UNL A   1      33.677  30.617  26.709  1.00  0.00     0.023 C 
ENDROOT
BRANCH   1   2
ATOM      2  C   UNL A   1      32.594  29.656  27.209  1.00  0.00     0.116 C 
BRANCH   2   3
ATOM      3  N   UNL A   1      31.516  29.578  26.243  1.00  0.00    -0.354 N 
ATOM      4  C   UNL A   1      31.484  28.970  25.025  1.00  0.00     0.242 C 
ATOM      5  O   UNL A   1      30.625  29.371  24.230  1.00  0.00    -0.273 OA
ATOM      6  H   UNL A   1      30.683  30.032  26.507  1.00  0.00     0.163 HD
BRANCH   4   7
ATOM      7  C   UNL A   1      32.447  27.798  24.663  1.00  0.00     0.174 C 
BRANCH   7   8
ATOM      8  C   UNL A   1      32.878  27.992  23.186  1.00  0.00     0.032 C 
ATOM      9  C   UNL A   1      34.090  28.884  22.986  1.00  0.00     0.006 C 
ENDBRANCH   7   8
BRANCH   7  10
ATOM     10  N   UNL A   1      31.776  26.470  24.851  1.00  0.00    -0.321 N 
ATOM     11  C   UNL A   1      31.399  25.624  23.731  1.00  0.00     0.142 C 
ATOM     12  C   UNL A   1      31.492  25.938  26.114  1.00  0.00     0.312 C 
ATOM     13  C   UNL A   1      32.214  24.349  23.834  1.00  0.00     0.142 C 
ATOM     14  C   UNL A   1      31.450  24.361  26.203  1.00  0.00     0.312 C 
ATOM     15  O   UNL A   1      31.365  26.615  27.127  1.00  0.00    -0.263 OA
ATOM     16  N   UNL A   1      31.866  23.644  25.068  1.00  0.00    -0.328 N 
ATOM     17  O   UNL A   1      31.112  23.821  27.251  1.00  0.00    -0.263 OA
BRANCH  16  18
ATOM     18  C   UNL A   1      32.079  22.203  25.143  1.00  0.00     0.155 C 
BRANCH  18  19
ATOM     19  C   UNL A   1      33.540  21.831  25.257  1.00  0.00    -0.028 A 
ATOM     20  C   UNL A   1      33.972  20.540  24.931  1.00  0.00     0.005 A 
ATOM     21  C   UNL A   1      34.495  22.778  25.659  1.00  0.00     0.009 A 
ATOM     22  C   UNL A   1      35.327  20.210  25.001  1.00  0.00     0.001 A 
ATOM     23  C   UNL A   1      35.862  22.479  25.657  1.00  0.00    -0.051 A 
ATOM     24  C   UNL A   1      36.269  21.178  25.350  1.00  0.00     0.003 A 
ATOM     25  C   UNL A   1      36.872  23.539  25.985  1.00  0.00     0.044 C 
ENDBRANCH  18  19
ENDBRANCH  16  18
ENDBRANCH   7  10
ENDBRANCH   4   7
ENDBRANCH   2   3
ENDBRANCH   1   2
BRANCH   1  26
ATOM     26  C   UNL A   1      34.756  30.966  27.732  1.00  0.00     0.023 C 
BRANCH  26  27
ATOM     27  C   UNL A   1      35.356  29.773  28.460  1.00  0.00     0.116 C 
BRANCH  27  28
ATOM     28  N   UNL A   1      35.526  30.005  29.888  1.00  0.00    -0.352 N 
ATOM     29  C   UNL A   1      36.613  29.746  30.688  1.00  0.00     0.251 C 
ATOM     30  H   UNL A   1      34.751  30.406  30.344  1.00  0.00     0.163 HD
ATOM     31  O   UNL A   1      36.526  29.881  31.905  1.00  0.00    -0.269 OA
BRANCH  29  32
ATOM     32  C   UNL A   1      37.869  29.269  30.075  1.00  0.00     0.039 A 
ATOM     33  C   UNL A   1      38.140  29.595  28.744  1.00  0.00     0.014 A 
ATOM     34  C   UNL A   1      38.798  28.552  30.832  1.00  0.00     0.014 A 
ATOM     35  C   UNL A   1      39.388  29.284  28.203  1.00  0.00     0.010 A 
ATOM     36  C   UNL A   1      40.070  28.323  30.319  1.00  0.00     0.010 A 
ATOM     37  C   UNL A   1      40.382  28.695  29.003  1.00  0.00    -0.014 A 
BRANCH  37  38
ATOM     38  C   UNL A   1      41.761  28.487  28.497  1.00  0.00     0.031 A 
ATOM     39  C   UNL A   1      42.200  27.124  28.035  1.00  0.00     0.074 A 
ATOM     40  C   UNL A   1      42.645  29.505  28.537  1.00  0.00     0.049 A 
ATOM     41  N   UNL A   1      43.382  26.729  27.642  1.00  0.00    -0.248 NA
ATOM     42  C   UNL A   1      41.184  26.058  28.046  1.00  0.00     0.031 C 
ATOM     43  C   UNL A   1      42.356  30.861  29.015  1.00  0.00     0.029 A 
ATOM     44  N   UNL A   1      43.969  29.558  28.180  1.00  0.00    -0.354 N 
ATOM     45  C   UNL A   1      43.259  25.370  27.378  1.00  0.00     0.074 A 
ATOM     46  C   UNL A   1      41.900  24.997  27.705  1.00  0.00     0.031 C 
ATOM     47  C   UNL A   1      43.460  31.616  28.894  1.00  0.00     0.029 A 
ATOM     48  C   UNL A   1      44.545  30.791  28.373  1.00  0.00     0.049 A 
ATOM     49  H   UNL A   1      44.460  28.784  27.820  1.00  0.00     0.167 HD
ATOM     50  C   UNL A   1      44.187  24.513  26.888  1.00  0.00     0.031 A 
ATOM     51  C   UNL A   1      45.808  31.212  28.162  1.00  0.00     0.031 A 
ATOM     52  C   UNL A   1      45.532  24.892  26.548  1.00  0.00     0.049 A 
ATOM     53  C   UNL A   1      46.820  30.242  27.619  1.00  0.00     0.074 A 
ATOM     54  C   UNL A   1      46.527  24.115  25.982  1.00  0.00     0.029 A 
ATOM     55  N   UNL A   1      46.072  26.154  26.746  1.00  0.00    -0.354 N 
ATOM     56  N   UNL A   1      46.663  28.977  27.308  1.00  0.00    -0.248 NA
ATOM     57  C   UNL A   1      48.176  30.756  27.394  1.00  0.00     0.031 C 
ATOM     58  C   UNL A   1      47.684  24.894  25.883  1.00  0.00     0.029 A 
ATOM     59  C   UNL A   1      47.395  26.171  26.337  1.00  0.00     0.049 A 
ATOM     60  H   UNL A   1      45.586  26.925  27.119  1.00  0.00     0.167 HD
ATOM     61  C   UNL A   1      47.897  28.549  26.834  1.00  0.00     0.074 A 
ATOM     62  C   UNL A   1      48.783  29.695  26.879  1.00  0.00     0.031 C 
ATOM     63  C   UNL A   1      48.265  27.318  26.401  1.00  0.00     0.031 A 
BRANCH  50  64
ATOM     64  C   UNL A   1      43.772  23.079  26.692  1.00  0.00    -0.014 A 
ATOM     65  C   UNL A   1      44.171  22.358  25.552  1.00  0.00     0.010 A 
ATOM     66  C   UNL A   1      43.001  22.432  27.674  1.00  0.00     0.010 A 
ATOM     67  C   UNL A   1      43.770  21.031  25.376  1.00  0.00     0.020 A 
ATOM     68  C   UNL A   1      42.621  21.096  27.516  1.00  0.00     0.020 A 
ATOM     69  C   UNL A   1      42.993  20.410  26.358  1.00  0.00     0.054 A 
BRANCH  69  70
ATOM     70  S   UNL A   1      42.502  18.682  26.113  1.00  0.00     0.124 S 
ATOM     71  O   UNL A   1      42.751  18.110  27.435  1.00  0.00    -0.237 OA
ATOM     72  O   UNL A   1      41.097  18.797  25.734  1.00  0.00    -0.237 OA
ATOM     73  O   UNL A   1      43.394  18.214  25.055  1.00  0.00    -0.744 OA
ENDBRANCH  69  70
ENDBRANCH  50  64
BRANCH  51  74
ATOM     74  C   UNL A   1      46.180  32.623  28.455  1.00  0.00    -0.014 A 
ATOM     75  C   UNL A   1      46.583  33.000  29.748  1.00  0.00     0.010 A 
ATOM     76  C   UNL A   1      46.151  33.594  27.438  1.00  0.00     0.010 A 
ATOM     77  C   UNL A   1      46.936  34.324  30.023  1.00  0.00     0.020 A 
ATOM     78  C   UNL A   1      46.528  34.914  27.702  1.00  0.00     0.020 A 
ATOM     79  C   UNL A   1      46.909  35.272  28.997  1.00  0.00     0.054 A 
BRANCH  79  80
ATOM     80  S   UNL A   1      47.426  36.973  29.362  1.00  0.00     0.124 S 
ATOM     81  O   UNL A   1      48.443  37.206  28.342  1.00  0.00    -0.237 OA
ATOM     82  O   UNL A   1      46.183  37.723  29.200  1.00  0.00    -0.237 OA
ATOM     83  O   UNL A   1      47.920  36.892  30.735  1.00  0.00    -0.744 OA
ENDBRANCH  79  80
ENDBRANCH  51  74
BRANCH  63  84
ATOM     84  C   UNL A   1      49.683  27.149  25.931  1.00  0.00    -0.014 A 
ATOM     85  C   UNL A   1      50.033  27.368  24.587  1.00  0.00     0.010 A 
ATOM     86  C   UNL A   1      50.690  26.816  26.857  1.00  0.00     0.010 A 
ATOM     87  C   UNL A   1      51.359  27.231  24.172  1.00  0.00     0.020 A 
ATOM     88  C   UNL A   1      52.021  26.704  26.450  1.00  0.00     0.020 A 
ATOM     89  C   UNL A   1      52.345  26.899  25.106  1.00  0.00     0.054 A 
BRANCH  89  90
ATOM     90  S   UNL A   1      54.067  26.772  24.550  1.00  0.00     0.124 S 
ATOM     91  O   UNL A   1      54.720  26.184  25.717  1.00  0.00    -0.237 OA
ATOM     92  O   UNL A   1      53.963  25.900  23.383  1.00  0.00    -0.237 OA
ATOM     93  O   UNL A   1      54.439  28.153  24.257  1.00  0.00    -0.744 OA
ENDBRANCH  89  90
ENDBRANCH  63  84
ENDBRANCH  37  38
ENDBRANCH  29  32
ENDBRANCH  27  28
ENDBRANCH  26  27
ENDBRANCH   1  26
TORSDOF 18
ENDMDL
