MODEL 1
REMARK VINA RESULT:     -11.3      0.000      0.000
REMARK SMILES O=C(NCCCCNC(=O)C1CCN(C(=O)COc2ccc(Cl)cc2Cl)CC1)c1ccc(-c2c3nc(c(-c4ccc(S(=O)(=O)[O-])cc4)c4ccc([nH]4)c(-c4ccc(S(=O)(=O)[O-])cc4)c4nc(c(-c5ccc(S(=O)(=O)[O-])cc5)c5ccc2[nH]5)C=C4)C=C3)cc1
REMARK SMILES IDX 5 1 4 2 3 3 1 4 2 5 29 7 30 8 88 9 31 10 87 11 32 12 33 13
REMARK SMILES IDX 34 14 81 15 35 16 86 17 80 18 82 19 36 20 85 21 79 22 78 23
REMARK SMILES IDX 37 25 67 26 48 27 66 28 49 29 52 30 65 31 83 32 50 33 51 34
REMARK SMILES IDX 64 36 84 37 53 38 38 39 39 40 47 41 40 42 46 43 41 44 42 45
REMARK SMILES IDX 43 46 44 47 45 48 68 49 69 50 77 51 70 52 76 53 71 54 72 55
REMARK SMILES IDX 73 56 74 57 75 58 54 59 55 60 63 61 56 62 62 63 57 64 58 65
REMARK SMILES IDX 59 66 60 67 61 68 6 69 7 70 8 71 9 72 10 74 11 75 12 76
REMARK SMILES IDX 28 77 13 78 27 79 14 80 15 81 16 82 17 83 18 84 19 85 20 86
REMARK SMILES IDX 25 87 21 88 24 89 26 90 22 91 23 92
REMARK H PARENT 3 6 82 24 52 35 8 73
REMARK Flexibility Score: inf
ROOT
ATOM      1  C   UNL A   1      41.044  22.009  27.588  1.00  0.00     0.023 C 
ENDROOT
BRANCH   1   2
ATOM      2  C   UNL A   1      42.084  23.035  27.202  1.00  0.00     0.116 C 
BRANCH   2   3
ATOM      3  N   UNL A   1      41.745  23.835  26.032  1.00  0.00    -0.352 N 
ATOM      4  O   UNL A   1      41.127  25.750  24.975  1.00  0.00    -0.269 OA
ATOM      5  C   UNL A   1      41.444  25.184  26.008  1.00  0.00     0.251 C 
ATOM      6  H   UNL A   1      41.729  23.365  25.166  1.00  0.00     0.163 HD
BRANCH   5   7
ATOM      7  C   UNL A   1      41.472  25.904  27.300  1.00  0.00     0.039 A 
ATOM      8  C   UNL A   1      40.388  25.776  28.168  1.00  0.00     0.014 A 
ATOM      9  C   UNL A   1      42.485  26.833  27.548  1.00  0.00     0.014 A 
ATOM     10  C   UNL A   1      40.213  26.716  29.169  1.00  0.00     0.010 A 
ATOM     11  C   UNL A   1      42.369  27.693  28.643  1.00  0.00     0.010 A 
ATOM     12  C   UNL A   1      41.214  27.666  29.439  1.00  0.00    -0.014 A 
BRANCH  12  13
ATOM     13  C   UNL A   1      41.053  28.540  30.628  1.00  0.00     0.031 A 
ATOM     14  C   UNL A   1      41.985  28.466  31.806  1.00  0.00     0.074 A 
ATOM     15  C   UNL A   1      40.057  29.447  30.595  1.00  0.00     0.049 A 
ATOM     16  N   UNL A   1      41.959  29.171  32.909  1.00  0.00    -0.248 NA
ATOM     17  C   UNL A   1      43.076  27.480  31.754  1.00  0.00     0.031 C 
ATOM     18  C   UNL A   1      39.089  29.597  29.500  1.00  0.00     0.029 A 
ATOM     19  N   UNL A   1      39.708  30.436  31.476  1.00  0.00    -0.354 N 
ATOM     20  C   UNL A   1      42.997  28.689  33.699  1.00  0.00     0.074 A 
ATOM     21  C   UNL A   1      43.640  27.633  32.947  1.00  0.00     0.031 C 
ATOM     22  C   UNL A   1      38.313  30.660  29.737  1.00  0.00     0.029 A 
ATOM     23  C   UNL A   1      38.656  31.207  31.040  1.00  0.00     0.049 A 
ATOM     24  H   UNL A   1      40.165  30.580  32.335  1.00  0.00     0.167 HD
ATOM     25  C   UNL A   1      43.366  29.090  34.939  1.00  0.00     0.031 A 
ATOM     26  C   UNL A   1      38.011  32.225  31.634  1.00  0.00     0.031 A 
ATOM     27  C   UNL A   1      42.726  30.160  35.664  1.00  0.00     0.049 A 
ATOM     28  C   UNL A   1      38.444  32.644  33.004  1.00  0.00     0.074 A 
ATOM     29  C   UNL A   1      43.046  30.663  36.914  1.00  0.00     0.029 A 
ATOM     30  N   UNL A   1      41.641  30.892  35.206  1.00  0.00    -0.354 N 
ATOM     31  N   UNL A   1      39.430  32.174  33.730  1.00  0.00    -0.248 NA
ATOM     32  C   UNL A   1      37.672  33.715  33.641  1.00  0.00     0.031 C 
ATOM     33  C   UNL A   1      42.126  31.671  37.229  1.00  0.00     0.029 A 
ATOM     34  C   UNL A   1      41.264  31.826  36.156  1.00  0.00     0.049 A 
ATOM     35  H   UNL A   1      41.204  30.767  34.333  1.00  0.00     0.167 HD
ATOM     36  C   UNL A   1      39.393  32.889  34.917  1.00  0.00     0.074 A 
ATOM     37  C   UNL A   1      38.310  33.846  34.796  1.00  0.00     0.031 C 
ATOM     38  C   UNL A   1      40.174  32.757  36.016  1.00  0.00     0.031 A 
BRANCH  25  39
ATOM     39  C   UNL A   1      44.492  28.358  35.622  1.00  0.00    -0.014 A 
ATOM     40  C   UNL A   1      45.820  28.811  35.535  1.00  0.00     0.010 A 
ATOM     41  C   UNL A   1      44.199  27.255  36.446  1.00  0.00     0.010 A 
ATOM     42  C   UNL A   1      46.835  28.165  36.250  1.00  0.00     0.020 A 
ATOM     43  C   UNL A   1      45.208  26.618  37.176  1.00  0.00     0.020 A 
ATOM     44  C   UNL A   1      46.522  27.072  37.066  1.00  0.00     0.054 A 
BRANCH  44  45
ATOM     45  S   UNL A   1      47.849  26.289  38.027  1.00  0.00     0.124 S 
ATOM     46  O   UNL A   1      47.630  26.854  39.356  1.00  0.00    -0.237 OA
ATOM     47  O   UNL A   1      47.548  24.867  37.892  1.00  0.00    -0.237 OA
ATOM     48  O   UNL A   1      49.069  26.730  37.357  1.00  0.00    -0.744 OA
ENDBRANCH  44  45
ENDBRANCH  25  39
BRANCH  26  49
ATOM     49  C   UNL A   1      36.855  32.861  30.950  1.00  0.00    -0.014 A 
ATOM     50  C   UNL A   1      35.539  32.569  31.340  1.00  0.00     0.010 A 
ATOM     51  C   UNL A   1      37.077  33.802  29.927  1.00  0.00     0.010 A 
ATOM     52  C   UNL A   1      34.462  33.199  30.710  1.00  0.00     0.020 A 
ATOM     53  C   UNL A   1      36.006  34.457  29.318  1.00  0.00     0.020 A 
ATOM     54  C   UNL A   1      34.703  34.140  29.703  1.00  0.00     0.054 A 
BRANCH  54  55
ATOM     55  S   UNL A   1      33.299  34.992  28.935  1.00  0.00     0.124 S 
ATOM     56  O   UNL A   1      33.957  36.105  28.258  1.00  0.00    -0.237 OA
ATOM     57  O   UNL A   1      32.737  33.963  28.064  1.00  0.00    -0.237 OA
ATOM     58  O   UNL A   1      32.460  35.355  30.074  1.00  0.00    -0.744 OA
ENDBRANCH  54  55
ENDBRANCH  26  49
BRANCH  38  59
ATOM     59  C   UNL A   1      39.880  33.680  37.162  1.00  0.00    -0.014 A 
ATOM     60  C   UNL A   1      40.592  34.882  37.319  1.00  0.00     0.010 A 
ATOM     61  C   UNL A   1      38.872  33.347  38.083  1.00  0.00     0.010 A 
ATOM     62  C   UNL A   1      40.326  35.721  38.403  1.00  0.00     0.020 A 
ATOM     63  C   UNL A   1      38.588  34.194  39.156  1.00  0.00     0.020 A 
ATOM     64  C   UNL A   1      39.329  35.367  39.318  1.00  0.00     0.054 A 
BRANCH  64  65
ATOM     65  S   UNL A   1      38.983  36.482  40.706  1.00  0.00     0.124 S 
ATOM     66  O   UNL A   1      38.287  37.581  40.044  1.00  0.00    -0.237 OA
ATOM     67  O   UNL A   1      38.160  35.655  41.586  1.00  0.00    -0.237 OA
ATOM     68  O   UNL A   1      40.309  36.805  41.227  1.00  0.00    -0.744 OA
ENDBRANCH  64  65
ENDBRANCH  38  59
ENDBRANCH  12  13
ENDBRANCH   5   7
ENDBRANCH   2   3
ENDBRANCH   1   2
BRANCH   1  69
ATOM     69  C   UNL A   1      39.977  21.762  26.541  1.00  0.00     0.023 C 
BRANCH  69  70
ATOM     70  C   UNL A   1      38.817  22.767  26.507  1.00  0.00     0.116 C 
BRANCH  70  71
ATOM     71  N   UNL A   1      38.099  22.712  25.244  1.00  0.00    -0.356 N 
ATOM     72  C   UNL A   1      36.963  22.128  24.793  1.00  0.00     0.223 C 
ATOM     73  H   UNL A   1      38.553  23.228  24.538  1.00  0.00     0.163 HD
ATOM     74  O   UNL A   1      36.777  22.236  23.572  1.00  0.00    -0.275 OA
BRANCH  72  75
ATOM     75  C   UNL A   1      35.868  21.456  25.647  1.00  0.00     0.082 C 
ATOM     76  C   UNL A   1      34.767  20.638  24.994  1.00  0.00     0.035 C 
ATOM     77  C   UNL A   1      35.158  22.522  26.523  1.00  0.00     0.035 C 
ATOM     78  C   UNL A   1      33.927  21.525  24.110  1.00  0.00     0.120 C 
ATOM     79  C   UNL A   1      34.184  23.392  25.716  1.00  0.00     0.120 C 
ATOM     80  N   UNL A   1      33.318  22.620  24.825  1.00  0.00    -0.340 N 
ATOM     81  C   UNL A   1      32.287  23.258  24.138  1.00  0.00     0.260 C 
ATOM     82  O   UNL A   1      32.214  23.255  22.908  1.00  0.00    -0.271 OA
BRANCH  81  83
ATOM     83  C   UNL A   1      31.141  23.806  24.986  1.00  0.00     0.329 C 
BRANCH  83  84
ATOM     84  O   UNL A   1      31.198  25.160  25.405  1.00  0.00    -0.482 OA
BRANCH  84  85
ATOM     85  C   UNL A   1      30.815  26.171  24.561  1.00  0.00     0.138 A 
ATOM     86  C   UNL A   1      29.536  26.347  24.025  1.00  0.00     0.049 A 
ATOM     87  C   UNL A   1      31.789  27.144  24.277  1.00  0.00     0.084 A 
ATOM     88  C   UNL A   1      29.206  27.508  23.318  1.00  0.00     0.024 A 
ATOM     89  C   UNL A   1      31.476  28.284  23.530  1.00  0.00     0.045 A 
ATOM     90  Cl  UNL A   1      33.422  26.965  24.823  1.00  0.00    -0.080 Cl
ATOM     91  C   UNL A   1      30.177  28.474  23.078  1.00  0.00     0.042 A 
ATOM     92  Cl  UNL A   1      29.766  29.903  22.215  1.00  0.00    -0.084 Cl
ENDBRANCH  84  85
ENDBRANCH  83  84
ENDBRANCH  81  83
ENDBRANCH  72  75
ENDBRANCH  70  71
ENDBRANCH  69  70
ENDBRANCH   1  69
TORSDOF 17
ENDMDL
MODEL 2
REMARK VINA RESULT:     -11.2      5.976     10.531
REMARK SMILES O=C(NCCCCNC(=O)C1CCN(C(=O)COc2ccc(Cl)cc2Cl)CC1)c1ccc(-c2c3nc(c(-c4ccc(S(=O)(=O)[O-])cc4)c4ccc([nH]4)c(-c4ccc(S(=O)(=O)[O-])cc4)c4nc(c(-c5ccc(S(=O)(=O)[O-])cc5)c5ccc2[nH]5)C=C4)C=C3)cc1
REMARK SMILES IDX 5 1 4 2 3 3 1 4 2 5 29 7 30 8 88 9 31 10 87 11 32 12 33 13
REMARK SMILES IDX 34 14 81 15 35 16 86 17 80 18 82 19 36 20 85 21 79 22 78 23
REMARK SMILES IDX 37 25 67 26 48 27 66 28 49 29 52 30 65 31 83 32 50 33 51 34
REMARK SMILES IDX 64 36 84 37 53 38 38 39 39 40 47 41 40 42 46 43 41 44 42 45
REMARK SMILES IDX 43 46 44 47 45 48 68 49 69 50 77 51 70 52 76 53 71 54 72 55
REMARK SMILES IDX 73 56 74 57 75 58 54 59 55 60 63 61 56 62 62 63 57 64 58 65
REMARK SMILES IDX 59 66 60 67 61 68 6 69 7 70 8 71 9 72 10 74 11 75 12 76
REMARK SMILES IDX 28 77 13 78 27 79 14 80 15 81 16 82 17 83 18 84 19 85 20 86
REMARK SMILES IDX 25 87 21 88 24 89 26 90 22 91 23 92
REMARK H PARENT 3 6 82 24 52 35 8 73
REMARK Flexibility Score: inf
ROOT
ATOM      1  C   UNL A   1      39.473  21.455  26.132  1.00  0.00     0.023 C 
ENDROOT
BRANCH   1   2
ATOM      2  C   UNL A   1      40.238  20.531  27.051  1.00  0.00     0.116 C 
BRANCH   2   3
ATOM      3  N   UNL A   1      41.021  19.507  26.371  1.00  0.00    -0.352 N 
ATOM      4  O   UNL A   1      42.858  18.725  25.285  1.00  0.00    -0.269 OA
ATOM      5  C   UNL A   1      42.308  19.636  25.882  1.00  0.00     0.251 C 
ATOM      6  H   UNL A   1      40.589  18.631  26.246  1.00  0.00     0.163 HD
BRANCH   5   7
ATOM      7  C   UNL A   1      42.973  20.944  26.069  1.00  0.00     0.039 A 
ATOM      8  C   UNL A   1      43.320  21.346  27.359  1.00  0.00     0.014 A 
ATOM      9  C   UNL A   1      43.075  21.824  24.989  1.00  0.00     0.014 A 
ATOM     10  C   UNL A   1      43.573  22.686  27.600  1.00  0.00     0.010 A 
ATOM     11  C   UNL A   1      43.462  23.146  25.222  1.00  0.00     0.010 A 
ATOM     12  C   UNL A   1      43.678  23.596  26.533  1.00  0.00    -0.014 A 
BRANCH  12  13
ATOM     13  C   UNL A   1      44.116  24.983  26.830  1.00  0.00     0.031 A 
ATOM     14  C   UNL A   1      43.203  25.988  27.476  1.00  0.00     0.074 A 
ATOM     15  C   UNL A   1      45.393  25.302  26.539  1.00  0.00     0.049 A 
ATOM     16  N   UNL A   1      43.457  27.233  27.791  1.00  0.00    -0.248 NA
ATOM     17  C   UNL A   1      41.835  25.557  27.805  1.00  0.00     0.031 C 
ATOM     18  C   UNL A   1      46.362  24.399  25.902  1.00  0.00     0.029 A 
ATOM     19  N   UNL A   1      46.112  26.444  26.767  1.00  0.00    -0.354 N 
ATOM     20  C   UNL A   1      42.275  27.747  28.314  1.00  0.00     0.074 A 
ATOM     21  C   UNL A   1      41.301  26.678  28.279  1.00  0.00     0.031 C 
ATOM     22  C   UNL A   1      47.560  24.992  25.864  1.00  0.00     0.029 A 
ATOM     23  C   UNL A   1      47.427  26.347  26.378  1.00  0.00     0.049 A 
ATOM     24  H   UNL A   1      45.726  27.254  27.170  1.00  0.00     0.167 HD
ATOM     25  C   UNL A   1      42.032  29.000  28.769  1.00  0.00     0.031 A 
ATOM     26  C   UNL A   1      48.417  27.256  26.398  1.00  0.00     0.031 A 
ATOM     27  C   UNL A   1      43.022  30.047  28.816  1.00  0.00     0.049 A 
ATOM     28  C   UNL A   1      48.115  28.630  26.908  1.00  0.00     0.074 A 
ATOM     29  C   UNL A   1      42.884  31.341  29.288  1.00  0.00     0.029 A 
ATOM     30  N   UNL A   1      44.332  29.922  28.378  1.00  0.00    -0.354 N 
ATOM     31  N   UNL A   1      46.990  29.092  27.399  1.00  0.00    -0.248 NA
ATOM     32  C   UNL A   1      49.205  29.608  26.853  1.00  0.00     0.031 C 
ATOM     33  C   UNL A   1      44.098  32.010  29.096  1.00  0.00     0.029 A 
ATOM     34  C   UNL A   1      45.006  31.120  28.548  1.00  0.00     0.049 A 
ATOM     35  H   UNL A   1      44.726  29.101  28.003  1.00  0.00     0.167 HD
ATOM     36  C   UNL A   1      47.235  30.422  27.706  1.00  0.00     0.074 A 
ATOM     37  C   UNL A   1      48.624  30.677  27.378  1.00  0.00     0.031 C 
ATOM     38  C   UNL A   1      46.384  31.352  28.201  1.00  0.00     0.031 A 
BRANCH  25  39
ATOM     39  C   UNL A   1      40.636  29.336  29.227  1.00  0.00    -0.014 A 
ATOM     40  C   UNL A   1      40.324  29.467  30.590  1.00  0.00     0.010 A 
ATOM     41  C   UNL A   1      39.646  29.623  28.268  1.00  0.00     0.010 A 
ATOM     42  C   UNL A   1      39.042  29.866  30.987  1.00  0.00     0.020 A 
ATOM     43  C   UNL A   1      38.369  30.039  28.659  1.00  0.00     0.020 A 
ATOM     44  C   UNL A   1      38.073  30.150  30.018  1.00  0.00     0.054 A 
BRANCH  44  45
ATOM     45  S   UNL A   1      36.436  30.721  30.558  1.00  0.00     0.124 S 
ATOM     46  O   UNL A   1      36.008  29.626  31.425  1.00  0.00    -0.237 OA
ATOM     47  O   UNL A   1      36.741  31.976  31.238  1.00  0.00    -0.237 OA
ATOM     48  O   UNL A   1      35.687  30.857  29.312  1.00  0.00    -0.744 OA
ENDBRANCH  44  45
ENDBRANCH  25  39
BRANCH  26  49
ATOM     49  C   UNL A   1      49.755  26.896  25.862  1.00  0.00    -0.014 A 
ATOM     50  C   UNL A   1      50.122  27.244  24.553  1.00  0.00     0.010 A 
ATOM     51  C   UNL A   1      50.688  26.238  26.686  1.00  0.00     0.010 A 
ATOM     52  C   UNL A   1      51.395  26.928  24.071  1.00  0.00     0.020 A 
ATOM     53  C   UNL A   1      51.971  25.950  26.220  1.00  0.00     0.020 A 
ATOM     54  C   UNL A   1      52.313  26.284  24.909  1.00  0.00     0.054 A 
BRANCH  54  55
ATOM     55  S   UNL A   1      53.980  25.933  24.291  1.00  0.00     0.124 S 
ATOM     56  O   UNL A   1      54.770  26.968  24.951  1.00  0.00    -0.237 OA
ATOM     57  O   UNL A   1      54.212  24.567  24.753  1.00  0.00    -0.237 OA
ATOM     58  O   UNL A   1      53.840  26.075  22.843  1.00  0.00    -0.744 OA
ENDBRANCH  54  55
ENDBRANCH  26  49
BRANCH  38  59
ATOM     59  C   UNL A   1      46.946  32.726  28.419  1.00  0.00    -0.014 A 
ATOM     60  C   UNL A   1      46.860  33.707  27.416  1.00  0.00     0.010 A 
ATOM     61  C   UNL A   1      47.555  33.042  29.646  1.00  0.00     0.010 A 
ATOM     62  C   UNL A   1      47.408  34.973  27.621  1.00  0.00     0.020 A 
ATOM     63  C   UNL A   1      48.084  34.316  29.865  1.00  0.00     0.020 A 
ATOM     64  C   UNL A   1      48.022  35.268  28.843  1.00  0.00     0.054 A 
BRANCH  64  65
ATOM     65  S   UNL A   1      48.708  36.927  29.100  1.00  0.00     0.124 S 
ATOM     66  O   UNL A   1      49.876  36.646  29.929  1.00  0.00    -0.237 OA
ATOM     67  O   UNL A   1      48.995  37.372  27.739  1.00  0.00    -0.237 OA
ATOM     68  O   UNL A   1      47.626  37.646  29.770  1.00  0.00    -0.744 OA
ENDBRANCH  64  65
ENDBRANCH  38  59
ENDBRANCH  12  13
ENDBRANCH   5   7
ENDBRANCH   2   3
ENDBRANCH   1   2
BRANCH   1  69
ATOM     69  C   UNL A   1      39.669  22.931  26.409  1.00  0.00     0.023 C 
BRANCH  69  70
ATOM     70  C   UNL A   1      38.410  23.806  26.339  1.00  0.00     0.116 C 
BRANCH  70  71
ATOM     71  N   UNL A   1      37.741  23.679  25.053  1.00  0.00    -0.356 N 
ATOM     72  C   UNL A   1      36.715  22.949  24.557  1.00  0.00     0.223 C 
ATOM     73  H   UNL A   1      38.135  24.273  24.373  1.00  0.00     0.163 HD
ATOM     74  O   UNL A   1      36.548  23.059  23.334  1.00  0.00    -0.275 OA
BRANCH  72  75
ATOM     75  C   UNL A   1      35.707  22.105  25.364  1.00  0.00     0.082 C 
ATOM     76  C   UNL A   1      34.616  21.315  24.659  1.00  0.00     0.035 C 
ATOM     77  C   UNL A   1      34.989  23.002  26.407  1.00  0.00     0.035 C 
ATOM     78  C   UNL A   1      33.683  22.258  23.943  1.00  0.00     0.120 C 
ATOM     79  C   UNL A   1      33.927  23.909  25.771  1.00  0.00     0.120 C 
ATOM     80  N   UNL A   1      33.056  23.210  24.827  1.00  0.00    -0.340 N 
ATOM     81  C   UNL A   1      31.956  23.869  24.281  1.00  0.00     0.260 C 
ATOM     82  O   UNL A   1      31.816  24.023  23.066  1.00  0.00    -0.271 OA
BRANCH  81  83
ATOM     83  C   UNL A   1      30.831  24.230  25.248  1.00  0.00     0.329 C 
BRANCH  83  84
ATOM     84  O   UNL A   1      30.745  25.566  25.717  1.00  0.00    -0.482 OA
BRANCH  84  85
ATOM     85  C   UNL A   1      30.447  26.592  24.857  1.00  0.00     0.138 A 
ATOM     86  C   UNL A   1      29.385  26.614  23.948  1.00  0.00     0.049 A 
ATOM     87  C   UNL A   1      31.248  27.742  24.962  1.00  0.00     0.084 A 
ATOM     88  C   UNL A   1      29.065  27.780  23.243  1.00  0.00     0.024 A 
ATOM     89  C   UNL A   1      30.960  28.895  24.224  1.00  0.00     0.045 A 
ATOM     90  Cl  UNL A   1      32.638  27.776  25.994  1.00  0.00    -0.080 Cl
ATOM     91  C   UNL A   1      29.851  28.916  23.388  1.00  0.00     0.042 A 
ATOM     92  Cl  UNL A   1      29.450  30.350  22.527  1.00  0.00    -0.084 Cl
ENDBRANCH  84  85
ENDBRANCH  83  84
ENDBRANCH  81  83
ENDBRANCH  72  75
ENDBRANCH  70  71
ENDBRANCH  69  70
ENDBRANCH   1  69
TORSDOF 17
ENDMDL
MODEL 3
REMARK VINA RESULT:     -11.1      3.418      9.006
REMARK SMILES O=C(NCCCCNC(=O)C1CCN(C(=O)COc2ccc(Cl)cc2Cl)CC1)c1ccc(-c2c3nc(c(-c4ccc(S(=O)(=O)[O-])cc4)c4ccc([nH]4)c(-c4ccc(S(=O)(=O)[O-])cc4)c4nc(c(-c5ccc(S(=O)(=O)[O-])cc5)c5ccc2[nH]5)C=C4)C=C3)cc1
REMARK SMILES IDX 5 1 4 2 3 3 1 4 2 5 29 7 30 8 88 9 31 10 87 11 32 12 33 13
REMARK SMILES IDX 34 14 81 15 35 16 86 17 80 18 82 19 36 20 85 21 79 22 78 23
REMARK SMILES IDX 37 25 67 26 48 27 66 28 49 29 52 30 65 31 83 32 50 33 51 34
REMARK SMILES IDX 64 36 84 37 53 38 38 39 39 40 47 41 40 42 46 43 41 44 42 45
REMARK SMILES IDX 43 46 44 47 45 48 68 49 69 50 77 51 70 52 76 53 71 54 72 55
REMARK SMILES IDX 73 56 74 57 75 58 54 59 55 60 63 61 56 62 62 63 57 64 58 65
REMARK SMILES IDX 59 66 60 67 61 68 6 69 7 70 8 71 9 72 10 74 11 75 12 76
REMARK SMILES IDX 28 77 13 78 27 79 14 80 15 81 16 82 17 83 18 84 19 85 20 86
REMARK SMILES IDX 25 87 21 88 24 89 26 90 22 91 23 92
REMARK H PARENT 3 6 82 24 52 35 8 73
REMARK Flexibility Score: inf
ROOT
ATOM      1  C   UNL A   1      35.641  23.104  24.909  1.00  0.00     0.023 C 
ENDROOT
BRANCH   1   2
ATOM      2  C   UNL A   1      37.008  23.701  25.153  1.00  0.00     0.116 C 
BRANCH   2   3
ATOM      3  N   UNL A   1      38.070  22.725  25.361  1.00  0.00    -0.352 N 
ATOM      4  O   UNL A   1      40.073  22.027  26.175  1.00  0.00    -0.269 OA
ATOM      5  C   UNL A   1      39.222  22.898  26.103  1.00  0.00     0.251 C 
ATOM      6  H   UNL A   1      37.954  21.848  24.926  1.00  0.00     0.163 HD
BRANCH   5   7
ATOM      7  C   UNL A   1      39.406  24.206  26.768  1.00  0.00     0.039 A 
ATOM      8  C   UNL A   1      40.205  25.170  26.152  1.00  0.00     0.014 A 
ATOM      9  C   UNL A   1      38.934  24.389  28.069  1.00  0.00     0.014 A 
ATOM     10  C   UNL A   1      40.701  26.217  26.910  1.00  0.00     0.010 A 
ATOM     11  C   UNL A   1      39.331  25.522  28.786  1.00  0.00     0.010 A 
ATOM     12  C   UNL A   1      40.247  26.424  28.225  1.00  0.00    -0.014 A 
BRANCH  12  13
ATOM     13  C   UNL A   1      40.679  27.654  28.934  1.00  0.00     0.031 A 
ATOM     14  C   UNL A   1      39.749  28.813  29.164  1.00  0.00     0.074 A 
ATOM     15  C   UNL A   1      41.939  27.679  29.412  1.00  0.00     0.049 A 
ATOM     16  N   UNL A   1      39.996  29.948  29.768  1.00  0.00    -0.248 NA
ATOM     17  C   UNL A   1      38.374  28.699  28.651  1.00  0.00     0.031 C 
ATOM     18  C   UNL A   1      42.928  26.607  29.236  1.00  0.00     0.029 A 
ATOM     19  N   UNL A   1      42.598  28.610  30.170  1.00  0.00    -0.354 N 
ATOM     20  C   UNL A   1      38.830  30.698  29.673  1.00  0.00     0.074 A 
ATOM     21  C   UNL A   1      37.868  29.889  28.956  1.00  0.00     0.031 C 
ATOM     22  C   UNL A   1      44.032  26.905  29.930  1.00  0.00     0.029 A 
ATOM     23  C   UNL A   1      43.872  28.227  30.516  1.00  0.00     0.049 A 
ATOM     24  H   UNL A   1      42.199  29.468  30.440  1.00  0.00     0.167 HD
ATOM     25  C   UNL A   1      38.595  31.950  30.135  1.00  0.00     0.031 A 
ATOM     26  C   UNL A   1      44.827  28.877  31.203  1.00  0.00     0.031 A 
ATOM     27  C   UNL A   1      39.559  32.733  30.867  1.00  0.00     0.049 A 
ATOM     28  C   UNL A   1      44.535  30.258  31.701  1.00  0.00     0.074 A 
ATOM     29  C   UNL A   1      39.407  34.000  31.406  1.00  0.00     0.029 A 
ATOM     30  N   UNL A   1      40.851  32.326  31.166  1.00  0.00    -0.354 N 
ATOM     31  N   UNL A   1      43.423  30.946  31.599  1.00  0.00    -0.248 NA
ATOM     32  C   UNL A   1      45.625  30.955  32.389  1.00  0.00     0.031 C 
ATOM     33  C   UNL A   1      40.622  34.375  31.992  1.00  0.00     0.029 A 
ATOM     34  C   UNL A   1      41.514  33.324  31.860  1.00  0.00     0.049 A 
ATOM     35  H   UNL A   1      41.239  31.455  30.921  1.00  0.00     0.167 HD
ATOM     36  C   UNL A   1      43.683  32.165  32.206  1.00  0.00     0.074 A 
ATOM     37  C   UNL A   1      45.044  32.105  32.702  1.00  0.00     0.031 C 
ATOM     38  C   UNL A   1      42.873  33.244  32.330  1.00  0.00     0.031 A 
BRANCH  25  39
ATOM     39  C   UNL A   1      37.258  32.580  29.844  1.00  0.00    -0.014 A 
ATOM     40  C   UNL A   1      36.227  32.589  30.799  1.00  0.00     0.010 A 
ATOM     41  C   UNL A   1      37.068  33.263  28.627  1.00  0.00     0.010 A 
ATOM     42  C   UNL A   1      35.026  33.258  30.537  1.00  0.00     0.020 A 
ATOM     43  C   UNL A   1      35.875  33.947  28.369  1.00  0.00     0.020 A 
ATOM     44  C   UNL A   1      34.858  33.933  29.323  1.00  0.00     0.054 A 
BRANCH  44  45
ATOM     45  S   UNL A   1      33.312  34.840  29.033  1.00  0.00     0.124 S 
ATOM     46  O   UNL A   1      32.731  34.879  30.373  1.00  0.00    -0.237 OA
ATOM     47  O   UNL A   1      33.783  36.122  28.516  1.00  0.00    -0.237 OA
ATOM     48  O   UNL A   1      32.597  34.009  28.069  1.00  0.00    -0.744 OA
ENDBRANCH  44  45
ENDBRANCH  25  39
BRANCH  26  49
ATOM     49  C   UNL A   1      46.156  28.241  31.395  1.00  0.00    -0.014 A 
ATOM     50  C   UNL A   1      46.410  27.431  32.513  1.00  0.00     0.010 A 
ATOM     51  C   UNL A   1      47.163  28.412  30.426  1.00  0.00     0.010 A 
ATOM     52  C   UNL A   1      47.655  26.812  32.666  1.00  0.00     0.020 A 
ATOM     53  C   UNL A   1      48.395  27.771  30.558  1.00  0.00     0.020 A 
ATOM     54  C   UNL A   1      48.639  26.985  31.686  1.00  0.00     0.054 A 
BRANCH  54  55
ATOM     55  S   UNL A   1      50.227  26.130  31.867  1.00  0.00     0.124 S 
ATOM     56  O   UNL A   1      51.164  27.125  31.358  1.00  0.00    -0.237 OA
ATOM     57  O   UNL A   1      50.292  25.875  33.305  1.00  0.00    -0.237 OA
ATOM     58  O   UNL A   1      50.064  24.936  31.041  1.00  0.00    -0.744 OA
ENDBRANCH  54  55
ENDBRANCH  26  49
BRANCH  38  59
ATOM     59  C   UNL A   1      43.448  34.436  33.036  1.00  0.00    -0.014 A 
ATOM     60  C   UNL A   1      44.072  35.469  32.314  1.00  0.00     0.010 A 
ATOM     61  C   UNL A   1      43.352  34.531  34.436  1.00  0.00     0.010 A 
ATOM     62  C   UNL A   1      44.624  36.561  32.984  1.00  0.00     0.020 A 
ATOM     63  C   UNL A   1      43.883  35.633  35.107  1.00  0.00     0.020 A 
ATOM     64  C   UNL A   1      44.531  36.633  34.378  1.00  0.00     0.054 A 
BRANCH  64  65
ATOM     65  S   UNL A   1      45.236  38.072  35.228  1.00  0.00     0.124 S 
ATOM     66  O   UNL A   1      46.359  37.478  35.946  1.00  0.00    -0.237 OA
ATOM     67  O   UNL A   1      45.592  38.958  34.123  1.00  0.00    -0.237 OA
ATOM     68  O   UNL A   1      44.138  38.546  36.069  1.00  0.00    -0.744 OA
ENDBRANCH  64  65
ENDBRANCH  38  59
ENDBRANCH  12  13
ENDBRANCH   5   7
ENDBRANCH   2   3
ENDBRANCH   1   2
BRANCH   1  69
ATOM     69  C   UNL A   1      35.615  21.592  24.817  1.00  0.00     0.023 C 
BRANCH  69  70
ATOM     70  C   UNL A   1      34.397  20.896  25.441  1.00  0.00     0.116 C 
BRANCH  70  71
ATOM     71  N   UNL A   1      33.884  21.639  26.581  1.00  0.00    -0.356 N 
ATOM     72  C   UNL A   1      32.743  22.308  26.874  1.00  0.00     0.223 C 
ATOM     73  H   UNL A   1      34.527  21.663  27.327  1.00  0.00     0.163 HD
ATOM     74  O   UNL A   1      32.769  22.925  27.949  1.00  0.00    -0.275 OA
BRANCH  72  75
ATOM     75  C   UNL A   1      31.426  22.284  26.071  1.00  0.00     0.082 C 
ATOM     76  C   UNL A   1      31.435  22.041  24.571  1.00  0.00     0.035 C 
ATOM     77  C   UNL A   1      30.653  23.611  26.293  1.00  0.00     0.035 C 
ATOM     78  C   UNL A   1      32.166  23.162  23.876  1.00  0.00     0.120 C 
ATOM     79  C   UNL A   1      31.264  24.784  25.513  1.00  0.00     0.120 C 
ATOM     80  N   UNL A   1      31.581  24.456  24.124  1.00  0.00    -0.340 N 
ATOM     81  C   UNL A   1      32.006  25.460  23.256  1.00  0.00     0.260 C 
ATOM     82  O   UNL A   1      33.093  25.415  22.678  1.00  0.00    -0.271 OA
BRANCH  81  83
ATOM     83  C   UNL A   1      30.979  26.533  22.902  1.00  0.00     0.329 C 
BRANCH  83  84
ATOM     84  O   UNL A   1      31.341  27.895  23.067  1.00  0.00    -0.482 OA
BRANCH  84  85
ATOM     85  C   UNL A   1      31.979  28.317  24.205  1.00  0.00     0.138 A 
ATOM     86  C   UNL A   1      31.407  28.400  25.479  1.00  0.00     0.049 A 
ATOM     87  C   UNL A   1      33.345  28.622  24.075  1.00  0.00     0.084 A 
ATOM     88  C   UNL A   1      32.194  28.674  26.604  1.00  0.00     0.024 A 
ATOM     89  C   UNL A   1      34.125  28.942  25.190  1.00  0.00     0.045 A 
ATOM     90  Cl  UNL A   1      34.116  28.632  22.525  1.00  0.00    -0.080 Cl
ATOM     91  C   UNL A   1      33.550  28.939  26.454  1.00  0.00     0.042 A 
ATOM     92  Cl  UNL A   1      34.514  29.267  27.839  1.00  0.00    -0.084 Cl
ENDBRANCH  84  85
ENDBRANCH  83  84
ENDBRANCH  81  83
ENDBRANCH  72  75
ENDBRANCH  70  71
ENDBRANCH  69  70
ENDBRANCH   1  69
TORSDOF 17
ENDMDL
