MODEL 1
REMARK VINA RESULT:     -13.4      0.000      0.000
REMARK SMILES O=C(CCNc1cc(N2CCC3(CC2)OCCO3)c2noc3c2c1C(=O)c1ccccc1-3)NCCCCNC(=O)c1ccc(-c2c3nc(c(-c4ccc(S(=O)(=O)[O-])cc4)c4ccc([nH]4)c(-c4ccc(S(=O)(=O)[O-])cc4)c4nc(c(-c5ccc(S(=O)(=O)[O-])cc5)c5ccc2[nH]5)C=C4)C=C3)cc1
REMARK SMILES IDX 35 1 34 2 33 3 1 4 2 5 3 7 4 8 5 9 6 11 7 12 24 13 8 14
REMARK SMILES IDX 23 15 25 16 19 17 22 18 26 19 27 20 20 21 21 22 32 23 28 24
REMARK SMILES IDX 31 25 29 26 30 27 9 28 10 29 14 30 11 31 13 32 12 33 15 34
REMARK SMILES IDX 18 35 16 36 17 37 36 38 37 39 38 40 39 41 40 43 41 44 42 45
REMARK SMILES IDX 100 46 43 47 99 48 44 49 45 50 46 51 93 52 47 53 98 54 92 55
REMARK SMILES IDX 94 56 48 57 97 58 91 59 90 60 49 62 79 63 60 64 78 65 61 66
REMARK SMILES IDX 64 67 77 68 95 69 62 70 63 71 76 73 96 74 65 75 50 76 51 77
REMARK SMILES IDX 59 78 52 79 58 80 53 81 54 82 55 83 56 84 57 85 80 86 81 87
REMARK SMILES IDX 89 88 82 89 88 90 83 91 84 92 85 93 86 94 87 95 66 96 67 97
REMARK SMILES IDX 75 98 68 99 74 100 69 101 70 102 71 103 72 104 73 105
REMARK H PARENT 33 6 5 10 38 42 94 61 64 72
REMARK Flexibility Score: inf
ROOT
ATOM      1  C   UNL A   1      42.119  20.395  26.830  1.00  0.00     0.023 C 
ENDROOT
BRANCH   1   2
ATOM      2  C   UNL A   1      42.042  21.482  25.756  1.00  0.00     0.116 C 
BRANCH   2   3
ATOM      3  N   UNL A   1      41.188  22.586  26.143  1.00  0.00    -0.356 N 
ATOM      4  O   UNL A   1      39.195  21.444  26.042  1.00  0.00    -0.275 OA
ATOM      5  C   UNL A   1      39.821  22.477  26.252  1.00  0.00     0.221 C 
ATOM      6  H   UNL A   1      41.606  23.456  26.337  1.00  0.00     0.163 HD
BRANCH   5   7
ATOM      7  C   UNL A   1      39.143  23.765  26.658  1.00  0.00     0.121 C 
BRANCH   7   8
ATOM      8  C   UNL A   1      37.633  23.687  26.480  1.00  0.00     0.123 C 
BRANCH   8   9
ATOM      9  N   UNL A   1      37.277  23.326  25.103  1.00  0.00    -0.384 N 
ATOM     10  H   UNL A   1      37.983  23.125  24.448  1.00  0.00     0.160 HD
BRANCH   9  11
ATOM     11  C   UNL A   1      35.926  23.265  24.723  1.00  0.00     0.048 A 
ATOM     12  C   UNL A   1      35.288  24.555  24.533  1.00  0.00     0.054 A 
ATOM     13  C   UNL A   1      35.166  22.077  24.641  1.00  0.00     0.059 A 
ATOM     14  C   UNL A   1      33.912  24.798  24.205  1.00  0.00     0.069 A 
ATOM     15  C   UNL A   1      33.854  22.362  24.314  1.00  0.00     0.065 A 
ATOM     16  C   UNL A   1      35.527  20.646  24.863  1.00  0.00     0.196 C 
ATOM     17  C   UNL A   1      33.189  23.592  24.102  1.00  0.00     0.138 A 
ATOM     18  C   UNL A   1      32.955  21.377  24.094  1.00  0.00     0.176 A 
ATOM     19  O   UNL A   1      36.609  20.311  25.329  1.00  0.00    -0.288 OA
ATOM     20  C   UNL A   1      34.503  19.588  24.520  1.00  0.00     0.034 A 
ATOM     21  N   UNL A   1      31.895  23.321  23.810  1.00  0.00    -0.077 NA
ATOM     22  O   UNL A   1      31.762  21.930  23.788  1.00  0.00    -0.355 OA
ATOM     23  C   UNL A   1      33.197  19.967  24.134  1.00  0.00     0.032 A 
ATOM     24  C   UNL A   1      34.846  18.238  24.576  1.00  0.00     0.013 A 
ATOM     25  C   UNL A   1      32.249  19.002  23.800  1.00  0.00     0.013 A 
ATOM     26  C   UNL A   1      33.892  17.274  24.240  1.00  0.00     0.001 A 
ATOM     27  C   UNL A   1      32.604  17.654  23.853  1.00  0.00     0.001 A 
BRANCH  14  28
ATOM     28  N   UNL A   1      33.390  26.037  23.955  1.00  0.00    -0.369 N 
ATOM     29  C   UNL A   1      33.133  26.491  22.607  1.00  0.00     0.122 C 
ATOM     30  C   UNL A   1      32.691  26.756  24.988  1.00  0.00     0.122 C 
ATOM     31  C   UNL A   1      31.640  26.272  22.274  1.00  0.00     0.087 C 
ATOM     32  C   UNL A   1      31.219  26.591  24.731  1.00  0.00     0.087 C 
ATOM     33  C   UNL A   1      30.723  27.041  23.269  1.00  0.00     0.171 C 
ATOM     34  O   UNL A   1      31.014  28.840  22.617  1.00  0.00    -0.347 OA
ATOM     35  O   UNL A   1      28.784  26.832  23.465  1.00  0.00    -0.347 OA
ATOM     36  C   UNL A   1      29.374  29.890  22.654  1.00  0.00     0.192 C 
ATOM     37  C   UNL A   1      27.870  28.574  23.144  1.00  0.00     0.192 C 
ENDBRANCH  14  28
ENDBRANCH   9  11
ENDBRANCH   8   9
ENDBRANCH   7   8
ENDBRANCH   5   7
ENDBRANCH   2   3
ENDBRANCH   1   2
BRANCH   1  38
ATOM     38  C   UNL A   1      42.693  19.052  26.363  1.00  0.00     0.023 C 
BRANCH  38  39
ATOM     39  C   UNL A   1      43.462  19.104  25.045  1.00  0.00     0.116 C 
BRANCH  39  40
ATOM     40  N   UNL A   1      44.868  18.733  25.168  1.00  0.00    -0.352 N 
ATOM     41  C   UNL A   1      45.973  19.551  25.268  1.00  0.00     0.251 C 
ATOM     42  H   UNL A   1      45.052  17.767  25.181  1.00  0.00     0.163 HD
ATOM     43  O   UNL A   1      47.105  19.085  25.329  1.00  0.00    -0.269 OA
BRANCH  41  44
ATOM     44  C   UNL A   1      45.767  21.004  25.205  1.00  0.00     0.039 A 
ATOM     45  C   UNL A   1      46.090  21.748  24.079  1.00  0.00     0.014 A 
ATOM     46  C   UNL A   1      45.362  21.651  26.355  1.00  0.00     0.014 A 
ATOM     47  C   UNL A   1      46.290  23.128  24.207  1.00  0.00     0.010 A 
ATOM     48  C   UNL A   1      45.595  23.018  26.466  1.00  0.00     0.010 A 
ATOM     49  C   UNL A   1      46.286  23.749  25.467  1.00  0.00    -0.014 A 
BRANCH  49  50
ATOM     50  C   UNL A   1      47.047  25.337  25.766  1.00  0.00     0.031 A 
ATOM     51  C   UNL A   1      45.458  25.886  26.180  1.00  0.00     0.074 A 
ATOM     52  C   UNL A   1      48.762  25.876  26.344  1.00  0.00     0.049 A 
ATOM     53  N   UNL A   1      45.098  25.746  27.431  1.00  0.00    -0.248 NA
ATOM     54  C   UNL A   1      44.390  26.463  25.367  1.00  0.00     0.031 C 
ATOM     55  C   UNL A   1      49.983  25.150  27.257  1.00  0.00     0.029 A 
ATOM     56  N   UNL A   1      49.581  27.126  26.206  1.00  0.00    -0.354 N 
ATOM     57  C   UNL A   1      43.906  26.355  27.640  1.00  0.00     0.074 A 
ATOM     58  C   UNL A   1      43.448  26.716  26.311  1.00  0.00     0.031 C 
ATOM     59  C   UNL A   1      50.797  26.084  27.782  1.00  0.00     0.029 A 
ATOM     60  C   UNL A   1      50.532  27.364  27.181  1.00  0.00     0.049 A 
ATOM     61  H   UNL A   1      49.448  27.748  25.455  1.00  0.00     0.167 HD
ATOM     62  C   UNL A   1      43.513  26.584  28.922  1.00  0.00     0.031 A 
ATOM     63  C   UNL A   1      50.802  28.603  27.677  1.00  0.00     0.031 A 
ATOM     64  C   UNL A   1      44.473  26.235  29.969  1.00  0.00     0.049 A 
ATOM     65  C   UNL A   1      49.843  28.697  28.863  1.00  0.00     0.074 A 
ATOM     66  C   UNL A   1      44.472  25.436  31.092  1.00  0.00     0.029 A 
ATOM     67  N   UNL A   1      45.733  26.802  29.910  1.00  0.00    -0.354 N 
ATOM     68  N   UNL A   1      49.832  27.861  29.878  1.00  0.00    -0.248 NA
ATOM     69  C   UNL A   1      48.629  29.534  28.826  1.00  0.00     0.031 C 
ATOM     70  C   UNL A   1      45.772  25.518  31.681  1.00  0.00     0.029 A 
ATOM     71  C   UNL A   1      46.560  26.385  30.934  1.00  0.00     0.049 A 
ATOM     72  H   UNL A   1      46.012  27.437  29.211  1.00  0.00     0.167 HD
ATOM     73  C   UNL A   1      48.510  27.801  30.316  1.00  0.00     0.074 A 
ATOM     74  C   UNL A   1      47.844  28.929  29.719  1.00  0.00     0.031 C 
ATOM     75  C   UNL A   1      47.979  26.731  30.971  1.00  0.00     0.031 A 
BRANCH  62  76
ATOM     76  C   UNL A   1      42.300  27.360  29.272  1.00  0.00    -0.014 A 
ATOM     77  C   UNL A   1      40.999  26.908  29.012  1.00  0.00     0.010 A 
ATOM     78  C   UNL A   1      42.477  28.564  29.981  1.00  0.00     0.010 A 
ATOM     79  C   UNL A   1      39.896  27.669  29.427  1.00  0.00     0.020 A 
ATOM     80  C   UNL A   1      41.385  29.326  30.393  1.00  0.00     0.020 A 
ATOM     81  C   UNL A   1      40.099  28.879  30.103  1.00  0.00     0.054 A 
BRANCH  81  82
ATOM     82  S   UNL A   1      38.661  29.875  30.583  1.00  0.00     0.124 S 
ATOM     83  O   UNL A   1      37.586  28.885  30.563  1.00  0.00    -0.237 OA
ATOM     84  O   UNL A   1      39.042  30.363  31.905  1.00  0.00    -0.237 OA
ATOM     85  O   UNL A   1      38.581  30.897  29.541  1.00  0.00    -0.744 OA
ENDBRANCH  81  82
ENDBRANCH  62  76
BRANCH  63  86
ATOM     86  C   UNL A   1      51.011  29.591  26.557  1.00  0.00    -0.014 A 
ATOM     87  C   UNL A   1      51.758  29.398  25.393  1.00  0.00     0.010 A 
ATOM     88  C   UNL A   1      50.506  30.902  26.783  1.00  0.00     0.010 A 
ATOM     89  C   UNL A   1      52.192  30.495  24.630  1.00  0.00     0.020 A 
ATOM     90  C   UNL A   1      50.921  32.000  26.025  1.00  0.00     0.020 A 
ATOM     91  C   UNL A   1      51.818  31.792  24.988  1.00  0.00     0.054 A 
BRANCH  91  92
ATOM     92  S   UNL A   1      52.573  33.194  24.124  1.00  0.00     0.124 S 
ATOM     93  O   UNL A   1      52.831  32.625  22.803  1.00  0.00    -0.237 OA
ATOM     94  O   UNL A   1      51.517  34.201  24.182  1.00  0.00    -0.237 OA
ATOM     95  O   UNL A   1      53.760  33.492  24.921  1.00  0.00    -0.744 OA
ENDBRANCH  91  92
ENDBRANCH  63  86
BRANCH  75  96
ATOM     96  C   UNL A   1      48.960  25.892  31.754  1.00  0.00    -0.014 A 
ATOM     97  C   UNL A   1      49.963  25.122  31.141  1.00  0.00     0.010 A 
ATOM     98  C   UNL A   1      48.771  25.757  33.145  1.00  0.00     0.010 A 
ATOM     99  C   UNL A   1      50.705  24.195  31.889  1.00  0.00     0.020 A 
ATOM    100  C   UNL A   1      49.515  24.850  33.897  1.00  0.00     0.020 A 
ATOM    101  C   UNL A   1      50.453  24.046  33.257  1.00  0.00     0.054 A 
BRANCH 101 102
ATOM    102  S   UNL A   1      51.298  22.730  34.178  1.00  0.00     0.124 S 
ATOM    103  O   UNL A   1      50.681  22.831  35.497  1.00  0.00    -0.237 OA
ATOM    104  O   UNL A   1      50.955  21.534  33.412  1.00  0.00    -0.237 OA
ATOM    105  O   UNL A   1      52.708  23.114  34.126  1.00  0.00    -0.744 OA
ENDBRANCH 101 102
ENDBRANCH  75  96
ENDBRANCH  49  50
ENDBRANCH  41  44
ENDBRANCH  39  40
ENDBRANCH  38  39
ENDBRANCH   1  38
TORSDOF 18
ENDMDL
MODEL 2
REMARK VINA RESULT:     -13.0      7.448     10.748
REMARK SMILES O=C(CCNc1cc(N2CCC3(CC2)OCCO3)c2noc3c2c1C(=O)c1ccccc1-3)NCCCCNC(=O)c1ccc(-c2c3nc(c(-c4ccc(S(=O)(=O)[O-])cc4)c4ccc([nH]4)c(-c4ccc(S(=O)(=O)[O-])cc4)c4nc(c(-c5ccc(S(=O)(=O)[O-])cc5)c5ccc2[nH]5)C=C4)C=C3)cc1
REMARK SMILES IDX 35 1 34 2 33 3 1 4 2 5 3 7 4 8 5 9 6 11 7 12 24 13 8 14
REMARK SMILES IDX 23 15 25 16 19 17 22 18 26 19 27 20 20 21 21 22 32 23 28 24
REMARK SMILES IDX 31 25 29 26 30 27 9 28 10 29 14 30 11 31 13 32 12 33 15 34
REMARK SMILES IDX 18 35 16 36 17 37 36 38 37 39 38 40 39 41 40 43 41 44 42 45
REMARK SMILES IDX 100 46 43 47 99 48 44 49 45 50 46 51 93 52 47 53 98 54 92 55
REMARK SMILES IDX 94 56 48 57 97 58 91 59 90 60 49 62 79 63 60 64 78 65 61 66
REMARK SMILES IDX 64 67 77 68 95 69 62 70 63 71 76 73 96 74 65 75 50 76 51 77
REMARK SMILES IDX 59 78 52 79 58 80 53 81 54 82 55 83 56 84 57 85 80 86 81 87
REMARK SMILES IDX 89 88 82 89 88 90 83 91 84 92 85 93 86 94 87 95 66 96 67 97
REMARK SMILES IDX 75 98 68 99 74 100 69 101 70 102 71 103 72 104 73 105
REMARK H PARENT 33 6 5 10 38 42 94 61 64 72
REMARK Flexibility Score: inf
ROOT
ATOM      1  C   UNL A   1      36.281  30.665  31.624  1.00  0.00     0.023 C 
ENDROOT
BRANCH   1   2
ATOM      2  C   UNL A   1      36.456  31.310  30.247  1.00  0.00     0.116 C 
BRANCH   2   3
ATOM      3  N   UNL A   1      35.682  30.646  29.220  1.00  0.00    -0.356 N 
ATOM      4  O   UNL A   1      37.458  29.748  28.068  1.00  0.00    -0.275 OA
ATOM      5  C   UNL A   1      36.251  29.915  28.202  1.00  0.00     0.221 C 
ATOM      6  H   UNL A   1      34.701  30.720  29.252  1.00  0.00     0.163 HD
BRANCH   5   7
ATOM      7  C   UNL A   1      35.241  29.327  27.244  1.00  0.00     0.121 C 
BRANCH   7   8
ATOM      8  C   UNL A   1      33.952  30.136  27.215  1.00  0.00     0.123 C 
BRANCH   8   9
ATOM      9  N   UNL A   1      32.788  29.295  27.518  1.00  0.00    -0.384 N 
ATOM     10  H   UNL A   1      32.394  29.306  28.419  1.00  0.00     0.160 HD
BRANCH   9  11
ATOM     11  C   UNL A   1      32.238  28.476  26.518  1.00  0.00     0.048 A 
ATOM     12  C   UNL A   1      32.693  27.097  26.541  1.00  0.00     0.054 A 
ATOM     13  C   UNL A   1      31.406  28.933  25.473  1.00  0.00     0.059 A 
ATOM     14  C   UNL A   1      32.349  26.060  25.612  1.00  0.00     0.069 A 
ATOM     15  C   UNL A   1      31.095  27.897  24.612  1.00  0.00     0.065 A 
ATOM     16  C   UNL A   1      30.858  30.284  25.152  1.00  0.00     0.196 C 
ATOM     17  C   UNL A   1      31.494  26.540  24.598  1.00  0.00     0.138 A 
ATOM     18  C   UNL A   1      30.238  28.073  23.581  1.00  0.00     0.176 A 
ATOM     19  O   UNL A   1      31.222  31.292  25.745  1.00  0.00    -0.288 OA
ATOM     20  C   UNL A   1      29.842  30.399  24.039  1.00  0.00     0.034 A 
ATOM     21  N   UNL A   1      30.910  25.945  23.532  1.00  0.00    -0.077 NA
ATOM     22  O   UNL A   1      30.109  26.907  22.911  1.00  0.00    -0.355 OA
ATOM     23  C   UNL A   1      29.535  29.273  23.242  1.00  0.00     0.032 A 
ATOM     24  C   UNL A   1      29.199  31.613  23.800  1.00  0.00     0.013 A 
ATOM     25  C   UNL A   1      28.588  29.361  22.224  1.00  0.00     0.013 A 
ATOM     26  C   UNL A   1      28.251  31.698  22.778  1.00  0.00     0.001 A 
ATOM     27  C   UNL A   1      27.947  30.579  21.997  1.00  0.00     0.001 A 
BRANCH  14  28
ATOM     28  N   UNL A   1      32.743  24.756  25.737  1.00  0.00    -0.369 N 
ATOM     29  C   UNL A   1      31.885  23.760  26.339  1.00  0.00     0.122 C 
ATOM     30  C   UNL A   1      33.807  24.234  24.919  1.00  0.00     0.122 C 
ATOM     31  C   UNL A   1      31.155  22.979  25.224  1.00  0.00     0.087 C 
ATOM     32  C   UNL A   1      33.173  23.453  23.803  1.00  0.00     0.087 C 
ATOM     33  C   UNL A   1      32.167  22.286  24.266  1.00  0.00     0.171 C 
ATOM     34  O   UNL A   1      32.755  20.857  25.432  1.00  0.00    -0.347 OA
ATOM     35  O   UNL A   1      31.756  21.455  22.539  1.00  0.00    -0.347 OA
ATOM     36  C   UNL A   1      33.009  19.193  24.454  1.00  0.00     0.192 C 
ATOM     37  C   UNL A   1      32.294  19.537  22.556  1.00  0.00     0.192 C 
ENDBRANCH  14  28
ENDBRANCH   9  11
ENDBRANCH   8   9
ENDBRANCH   7   8
ENDBRANCH   5   7
ENDBRANCH   2   3
ENDBRANCH   1   2
BRANCH   1  38
ATOM     38  C   UNL A   1      36.799  29.228  31.747  1.00  0.00     0.023 C 
BRANCH  38  39
ATOM     39  C   UNL A   1      38.312  29.075  31.605  1.00  0.00     0.116 C 
BRANCH  39  40
ATOM     40  N   UNL A   1      38.715  28.167  30.537  1.00  0.00    -0.352 N 
ATOM     41  C   UNL A   1      39.932  28.068  29.897  1.00  0.00     0.251 C 
ATOM     42  H   UNL A   1      38.022  27.539  30.230  1.00  0.00     0.163 HD
ATOM     43  O   UNL A   1      40.107  27.269  28.983  1.00  0.00    -0.269 OA
BRANCH  41  44
ATOM     44  C   UNL A   1      40.992  29.012  30.277  1.00  0.00     0.039 A 
ATOM     45  C   UNL A   1      41.493  29.078  31.570  1.00  0.00     0.014 A 
ATOM     46  C   UNL A   1      41.398  29.941  29.342  1.00  0.00     0.014 A 
ATOM     47  C   UNL A   1      42.154  30.239  31.987  1.00  0.00     0.010 A 
ATOM     48  C   UNL A   1      42.032  31.097  29.785  1.00  0.00     0.010 A 
ATOM     49  C   UNL A   1      42.216  31.376  31.163  1.00  0.00    -0.014 A 
BRANCH  49  50
ATOM     50  C   UNL A   1      42.542  33.013  31.796  1.00  0.00     0.031 A 
ATOM     51  C   UNL A   1      40.890  33.362  31.410  1.00  0.00     0.074 A 
ATOM     52  C   UNL A   1      43.701  33.695  33.122  1.00  0.00     0.049 A 
ATOM     53  N   UNL A   1      40.005  33.104  32.338  1.00  0.00    -0.248 NA
ATOM     54  C   UNL A   1      40.268  33.873  30.190  1.00  0.00     0.031 C 
ATOM     55  C   UNL A   1      44.429  33.046  34.501  1.00  0.00     0.029 A 
ATOM     56  N   UNL A   1      44.325  35.032  33.397  1.00  0.00    -0.354 N 
ATOM     57  C   UNL A   1      38.789  33.568  31.960  1.00  0.00     0.074 A 
ATOM     58  C   UNL A   1      38.970  33.963  30.576  1.00  0.00     0.031 C 
ATOM     59  C   UNL A   1      44.776  34.027  35.355  1.00  0.00     0.029 A 
ATOM     60  C   UNL A   1      44.668  35.307  34.707  1.00  0.00     0.049 A 
ATOM     61  H   UNL A   1      44.485  35.683  32.676  1.00  0.00     0.167 HD
ATOM     62  C   UNL A   1      37.814  33.670  32.903  1.00  0.00     0.031 A 
ATOM     63  C   UNL A   1      44.516  36.534  35.279  1.00  0.00     0.031 A 
ATOM     64  C   UNL A   1      38.204  33.360  34.278  1.00  0.00     0.049 A 
ATOM     65  C   UNL A   1      43.109  36.448  35.868  1.00  0.00     0.074 A 
ATOM     66  C   UNL A   1      37.775  32.495  35.262  1.00  0.00     0.029 A 
ATOM     67  N   UNL A   1      39.262  34.061  34.828  1.00  0.00    -0.354 N 
ATOM     68  N   UNL A   1      42.726  35.553  36.751  1.00  0.00    -0.248 NA
ATOM     69  C   UNL A   1      41.962  37.151  35.264  1.00  0.00     0.031 C 
ATOM     70  C   UNL A   1      38.623  32.678  36.398  1.00  0.00     0.029 A 
ATOM     71  C   UNL A   1      39.555  33.670  36.119  1.00  0.00     0.049 A 
ATOM     72  H   UNL A   1      39.756  34.766  34.349  1.00  0.00     0.167 HD
ATOM     73  C   UNL A   1      41.373  35.324  36.509  1.00  0.00     0.074 A 
ATOM     74  C   UNL A   1      40.931  36.410  35.674  1.00  0.00     0.031 C 
ATOM     75  C   UNL A   1      40.734  34.162  36.828  1.00  0.00     0.031 A 
BRANCH  62  76
ATOM     76  C   UNL A   1      36.493  34.289  32.640  1.00  0.00    -0.014 A 
ATOM     77  C   UNL A   1      35.823  34.172  31.415  1.00  0.00     0.010 A 
ATOM     78  C   UNL A   1      35.853  34.943  33.710  1.00  0.00     0.010 A 
ATOM     79  C   UNL A   1      34.547  34.732  31.257  1.00  0.00     0.020 A 
ATOM     80  C   UNL A   1      34.587  35.504  33.559  1.00  0.00     0.020 A 
ATOM     81  C   UNL A   1      33.944  35.406  32.327  1.00  0.00     0.054 A 
BRANCH  81  82
ATOM     82  S   UNL A   1      32.317  36.170  32.087  1.00  0.00     0.124 S 
ATOM     83  O   UNL A   1      31.414  35.096  32.496  1.00  0.00    -0.237 OA
ATOM     84  O   UNL A   1      32.374  37.321  32.984  1.00  0.00    -0.237 OA
ATOM     85  O   UNL A   1      32.290  36.492  30.662  1.00  0.00    -0.744 OA
ENDBRANCH  81  82
ENDBRANCH  62  76
BRANCH  63  86
ATOM     86  C   UNL A   1      45.103  37.607  34.399  1.00  0.00    -0.014 A 
ATOM     87  C   UNL A   1      46.427  37.713  33.967  1.00  0.00     0.010 A 
ATOM     88  C   UNL A   1      44.242  38.700  34.094  1.00  0.00     0.010 A 
ATOM     89  C   UNL A   1      46.929  38.934  33.488  1.00  0.00     0.020 A 
ATOM     90  C   UNL A   1      44.728  39.916  33.608  1.00  0.00     0.020 A 
ATOM     91  C   UNL A   1      46.088  40.042  33.369  1.00  0.00     0.054 A 
BRANCH  91  92
ATOM     92  S   UNL A   1      46.810  41.654  32.965  1.00  0.00     0.124 S 
ATOM     93  O   UNL A   1      47.614  41.333  31.788  1.00  0.00    -0.237 OA
ATOM     94  O   UNL A   1      45.626  42.472  32.717  1.00  0.00    -0.237 OA
ATOM     95  O   UNL A   1      47.566  42.004  34.165  1.00  0.00    -0.744 OA
ENDBRANCH  91  92
ENDBRANCH  63  86
BRANCH  75  96
ATOM     96  C   UNL A   1      41.327  33.385  37.977  1.00  0.00    -0.014 A 
ATOM     97  C   UNL A   1      40.955  33.599  39.315  1.00  0.00     0.010 A 
ATOM     98  C   UNL A   1      42.405  32.515  37.716  1.00  0.00     0.010 A 
ATOM     99  C   UNL A   1      41.685  33.013  40.360  1.00  0.00     0.020 A 
ATOM    100  C   UNL A   1      43.126  31.916  38.748  1.00  0.00     0.020 A 
ATOM    101  C   UNL A   1      42.785  32.199  40.068  1.00  0.00     0.054 A 
BRANCH 101 102
ATOM    102  S   UNL A   1      43.821  31.585  41.424  1.00  0.00     0.124 S 
ATOM    103  O   UNL A   1      42.956  30.587  42.045  1.00  0.00    -0.237 OA
ATOM    104  O   UNL A   1      44.988  31.056  40.720  1.00  0.00    -0.237 OA
ATOM    105  O   UNL A   1      44.076  32.772  42.237  1.00  0.00    -0.744 OA
ENDBRANCH 101 102
ENDBRANCH  75  96
ENDBRANCH  49  50
ENDBRANCH  41  44
ENDBRANCH  39  40
ENDBRANCH  38  39
ENDBRANCH   1  38
TORSDOF 18
ENDMDL
MODEL 3
REMARK VINA RESULT:     -13.0      6.953     12.536
REMARK SMILES O=C(CCNc1cc(N2CCC3(CC2)OCCO3)c2noc3c2c1C(=O)c1ccccc1-3)NCCCCNC(=O)c1ccc(-c2c3nc(c(-c4ccc(S(=O)(=O)[O-])cc4)c4ccc([nH]4)c(-c4ccc(S(=O)(=O)[O-])cc4)c4nc(c(-c5ccc(S(=O)(=O)[O-])cc5)c5ccc2[nH]5)C=C4)C=C3)cc1
REMARK SMILES IDX 35 1 34 2 33 3 1 4 2 5 3 7 4 8 5 9 6 11 7 12 24 13 8 14
REMARK SMILES IDX 23 15 25 16 19 17 22 18 26 19 27 20 20 21 21 22 32 23 28 24
REMARK SMILES IDX 31 25 29 26 30 27 9 28 10 29 14 30 11 31 13 32 12 33 15 34
REMARK SMILES IDX 18 35 16 36 17 37 36 38 37 39 38 40 39 41 40 43 41 44 42 45
REMARK SMILES IDX 100 46 43 47 99 48 44 49 45 50 46 51 93 52 47 53 98 54 92 55
REMARK SMILES IDX 94 56 48 57 97 58 91 59 90 60 49 62 79 63 60 64 78 65 61 66
REMARK SMILES IDX 64 67 77 68 95 69 62 70 63 71 76 73 96 74 65 75 50 76 51 77
REMARK SMILES IDX 59 78 52 79 58 80 53 81 54 82 55 83 56 84 57 85 80 86 81 87
REMARK SMILES IDX 89 88 82 89 88 90 83 91 84 92 85 93 86 94 87 95 66 96 67 97
REMARK SMILES IDX 75 98 68 99 74 100 69 101 70 102 71 103 72 104 73 105
REMARK H PARENT 33 6 5 10 38 42 94 61 64 72
REMARK Flexibility Score: inf
ROOT
ATOM      1  C   UNL A   1      36.232  33.772  29.494  1.00  0.00     0.023 C 
ENDROOT
BRANCH   1   2
ATOM      2  C   UNL A   1      36.126  33.295  28.044  1.00  0.00     0.116 C 
BRANCH   2   3
ATOM      3  N   UNL A   1      35.005  32.403  27.832  1.00  0.00    -0.356 N 
ATOM      4  O   UNL A   1      36.224  30.460  27.662  1.00  0.00    -0.275 OA
ATOM      5  C   UNL A   1      35.146  31.046  27.654  1.00  0.00     0.221 C 
ATOM      6  H   UNL A   1      34.098  32.786  27.816  1.00  0.00     0.163 HD
BRANCH   5   7
ATOM      7  C   UNL A   1      33.836  30.325  27.439  1.00  0.00     0.121 C 
BRANCH   7   8
ATOM      8  C   UNL A   1      34.008  28.813  27.502  1.00  0.00     0.123 C 
BRANCH   8   9
ATOM      9  N   UNL A   1      34.198  28.243  26.163  1.00  0.00    -0.384 N 
ATOM     10  H   UNL A   1      34.987  28.491  25.630  1.00  0.00     0.160 HD
BRANCH   9  11
ATOM     11  C   UNL A   1      33.253  27.342  25.645  1.00  0.00     0.048 A 
ATOM     12  C   UNL A   1      33.612  25.941  25.776  1.00  0.00     0.054 A 
ATOM     13  C   UNL A   1      32.093  27.716  24.931  1.00  0.00     0.059 A 
ATOM     14  C   UNL A   1      32.873  24.813  25.288  1.00  0.00     0.069 A 
ATOM     15  C   UNL A   1      31.413  26.596  24.491  1.00  0.00     0.065 A 
ATOM     16  C   UNL A   1      31.529  29.051  24.574  1.00  0.00     0.196 C 
ATOM     17  C   UNL A   1      31.707  25.218  24.606  1.00  0.00     0.138 A 
ATOM     18  C   UNL A   1      30.224  26.700  23.858  1.00  0.00     0.176 A 
ATOM     19  O   UNL A   1      32.149  30.091  24.759  1.00  0.00    -0.288 OA
ATOM     20  C   UNL A   1      30.157  29.102  23.941  1.00  0.00     0.034 A 
ATOM     21  N   UNL A   1      30.715  24.528  23.995  1.00  0.00    -0.077 NA
ATOM     22  O   UNL A   1      29.780  25.464  23.547  1.00  0.00    -0.355 OA
ATOM     23  C   UNL A   1      29.502  27.904  23.575  1.00  0.00     0.032 A 
ATOM     24  C   UNL A   1      29.532  30.329  23.722  1.00  0.00     0.013 A 
ATOM     25  C   UNL A   1      28.231  27.937  23.006  1.00  0.00     0.013 A 
ATOM     26  C   UNL A   1      28.258  30.358  23.151  1.00  0.00     0.001 A 
ATOM     27  C   UNL A   1      27.612  29.169  22.797  1.00  0.00     0.001 A 
BRANCH  14  28
ATOM     28  N   UNL A   1      33.221  23.510  25.518  1.00  0.00    -0.369 N 
ATOM     29  C   UNL A   1      32.343  22.607  26.228  1.00  0.00     0.122 C 
ATOM     30  C   UNL A   1      34.241  22.876  24.724  1.00  0.00     0.122 C 
ATOM     31  C   UNL A   1      31.553  21.761  25.206  1.00  0.00     0.087 C 
ATOM     32  C   UNL A   1      33.545  22.026  23.698  1.00  0.00     0.087 C 
ATOM     33  C   UNL A   1      32.510  20.946  24.288  1.00  0.00     0.171 C 
ATOM     34  O   UNL A   1      33.076  19.602  25.562  1.00  0.00    -0.347 OA
ATOM     35  O   UNL A   1      32.018  19.984  22.653  1.00  0.00    -0.347 OA
ATOM     36  C   UNL A   1      33.239  17.849  24.730  1.00  0.00     0.192 C 
ATOM     37  C   UNL A   1      32.483  18.054  22.826  1.00  0.00     0.192 C 
ENDBRANCH  14  28
ENDBRANCH   9  11
ENDBRANCH   8   9
ENDBRANCH   7   8
ENDBRANCH   5   7
ENDBRANCH   2   3
ENDBRANCH   1   2
BRANCH   1  38
ATOM     38  C   UNL A   1      36.799  32.746  30.482  1.00  0.00     0.023 C 
BRANCH  38  39
ATOM     39  C   UNL A   1      35.751  31.989  31.295  1.00  0.00     0.116 C 
BRANCH  39  40
ATOM     40  N   UNL A   1      34.516  32.736  31.505  1.00  0.00    -0.352 N 
ATOM     41  C   UNL A   1      34.259  33.752  32.402  1.00  0.00     0.251 C 
ATOM     42  H   UNL A   1      33.761  32.479  30.928  1.00  0.00     0.163 HD
ATOM     43  O   UNL A   1      33.148  34.262  32.484  1.00  0.00    -0.269 OA
BRANCH  41  44
ATOM     44  C   UNL A   1      35.332  34.147  33.325  1.00  0.00     0.039 A 
ATOM     45  C   UNL A   1      36.366  34.988  32.938  1.00  0.00     0.014 A 
ATOM     46  C   UNL A   1      35.369  33.551  34.568  1.00  0.00     0.014 A 
ATOM     47  C   UNL A   1      37.558  34.986  33.672  1.00  0.00     0.010 A 
ATOM     48  C   UNL A   1      36.572  33.543  35.267  1.00  0.00     0.010 A 
ATOM     49  C   UNL A   1      37.767  34.068  34.715  1.00  0.00    -0.014 A 
BRANCH  49  50
ATOM     50  C   UNL A   1      39.394  33.642  35.317  1.00  0.00     0.031 A 
ATOM     51  C   UNL A   1      39.420  32.456  34.056  1.00  0.00     0.074 A 
ATOM     52  C   UNL A   1      40.772  34.618  36.163  1.00  0.00     0.049 A 
ATOM     53  N   UNL A   1      39.876  32.847  32.894  1.00  0.00    -0.248 NA
ATOM     54  C   UNL A   1      38.979  31.062  34.027  1.00  0.00     0.031 C 
ATOM     55  C   UNL A   1      41.216  36.247  36.195  1.00  0.00     0.029 A 
ATOM     56  N   UNL A   1      41.928  34.264  37.051  1.00  0.00    -0.354 N 
ATOM     57  C   UNL A   1      39.983  31.786  32.058  1.00  0.00     0.074 A 
ATOM     58  C   UNL A   1      39.331  30.702  32.767  1.00  0.00     0.031 C 
ATOM     59  C   UNL A   1      42.509  36.374  36.547  1.00  0.00     0.029 A 
ATOM     60  C   UNL A   1      43.013  35.121  37.042  1.00  0.00     0.049 A 
ATOM     61  H   UNL A   1      41.914  33.458  37.617  1.00  0.00     0.167 HD
ATOM     62  C   UNL A   1      40.717  31.930  30.921  1.00  0.00     0.031 A 
ATOM     63  C   UNL A   1      44.304  34.695  37.106  1.00  0.00     0.031 A 
ATOM     64  C   UNL A   1      41.415  33.205  30.754  1.00  0.00     0.049 A 
ATOM     65  C   UNL A   1      44.668  34.529  35.631  1.00  0.00     0.074 A 
ATOM     66  C   UNL A   1      41.454  34.198  29.799  1.00  0.00     0.029 A 
ATOM     67  N   UNL A   1      42.282  33.608  31.753  1.00  0.00    -0.354 N 
ATOM     68  N   UNL A   1      44.616  35.493  34.739  1.00  0.00    -0.248 NA
ATOM     69  C   UNL A   1      44.796  33.202  35.000  1.00  0.00     0.031 C 
ATOM     70  C   UNL A   1      42.342  35.214  30.269  1.00  0.00     0.029 A 
ATOM     71  C   UNL A   1      42.865  34.833  31.500  1.00  0.00     0.049 A 
ATOM     72  H   UNL A   1      42.465  33.076  32.562  1.00  0.00     0.167 HD
ATOM     73  C   UNL A   1      44.310  34.883  33.525  1.00  0.00     0.074 A 
ATOM     74  C   UNL A   1      44.549  33.476  33.718  1.00  0.00     0.031 C 
ATOM     75  C   UNL A   1      43.685  35.520  32.494  1.00  0.00     0.031 A 
BRANCH  62  76
ATOM     76  C   UNL A   1      41.018  30.807  30.003  1.00  0.00    -0.014 A 
ATOM     77  C   UNL A   1      42.321  30.440  29.641  1.00  0.00     0.010 A 
ATOM     78  C   UNL A   1      39.937  30.023  29.554  1.00  0.00     0.010 A 
ATOM     79  C   UNL A   1      42.533  29.327  28.815  1.00  0.00     0.020 A 
ATOM     80  C   UNL A   1      40.141  28.917  28.731  1.00  0.00     0.020 A 
ATOM     81  C   UNL A   1      41.440  28.581  28.356  1.00  0.00     0.054 A 
BRANCH  81  82
ATOM     82  S   UNL A   1      41.731  27.178  27.245  1.00  0.00     0.124 S 
ATOM     83  O   UNL A   1      43.186  27.189  27.115  1.00  0.00    -0.237 OA
ATOM     84  O   UNL A   1      41.175  26.058  27.999  1.00  0.00    -0.237 OA
ATOM     85  O   UNL A   1      40.998  27.535  26.031  1.00  0.00    -0.744 OA
ENDBRANCH  81  82
ENDBRANCH  62  76
BRANCH  63  86
ATOM     86  C   UNL A   1      44.485  33.712  38.235  1.00  0.00    -0.014 A 
ATOM     87  C   UNL A   1      44.500  32.318  38.144  1.00  0.00     0.010 A 
ATOM     88  C   UNL A   1      44.501  34.267  39.545  1.00  0.00     0.010 A 
ATOM     89  C   UNL A   1      44.287  31.524  39.282  1.00  0.00     0.020 A 
ATOM     90  C   UNL A   1      44.300  33.486  40.686  1.00  0.00     0.020 A 
ATOM     91  C   UNL A   1      44.130  32.118  40.535  1.00  0.00     0.054 A 
BRANCH  91  92
ATOM     92  S   UNL A   1      43.635  31.087  41.941  1.00  0.00     0.124 S 
ATOM     93  O   UNL A   1      44.270  29.814  41.613  1.00  0.00    -0.237 OA
ATOM     94  O   UNL A   1      44.210  31.808  43.073  1.00  0.00    -0.237 OA
ATOM     95  O   UNL A   1      42.175  31.096  41.877  1.00  0.00    -0.744 OA
ENDBRANCH  91  92
ENDBRANCH  63  86
BRANCH  75  96
ATOM     96  C   UNL A   1      43.882  37.015  32.437  1.00  0.00    -0.014 A 
ATOM     97  C   UNL A   1      43.361  37.891  33.404  1.00  0.00     0.010 A 
ATOM     98  C   UNL A   1      44.485  37.571  31.289  1.00  0.00     0.010 A 
ATOM     99  C   UNL A   1      43.382  39.278  33.193  1.00  0.00     0.020 A 
ATOM    100  C   UNL A   1      44.523  38.948  31.080  1.00  0.00     0.020 A 
ATOM    101  C   UNL A   1      43.937  39.794  32.017  1.00  0.00     0.054 A 
BRANCH 101 102
ATOM    102  S   UNL A   1      43.808  41.571  31.679  1.00  0.00     0.124 S 
ATOM    103  O   UNL A   1      43.970  41.622  30.229  1.00  0.00    -0.237 OA
ATOM    104  O   UNL A   1      42.472  41.895  32.175  1.00  0.00    -0.237 OA
ATOM    105  O   UNL A   1      44.909  42.156  32.443  1.00  0.00    -0.744 OA
ENDBRANCH 101 102
ENDBRANCH  75  96
ENDBRANCH  49  50
ENDBRANCH  41  44
ENDBRANCH  39  40
ENDBRANCH  38  39
ENDBRANCH   1  38
TORSDOF 18
ENDMDL
