MODEL 1
REMARK VINA RESULT:     -12.7      0.000      0.000
REMARK SMILES Cc1ccc2[nH]c3c(=O)n(CC(=O)NCCCCNC(=O)c4ccc(-c5c6nc(c(-c7ccc(S(=O)(=O)[O-])cc7)c7ccc([nH]7)c(-c7ccc(S(=O)(=O)[O-])cc7)c7nc(c(-c8ccc(S(=O)(=O)[O-])cc8)c8ccc5[nH]8)C=C7)C=C6)cc4)cnc3c2c1
REMARK SMILES IDX 17 1 16 2 15 3 14 4 12 5 13 6 11 8 10 9 1 10 2 11 3 12 86 13
REMARK SMILES IDX 4 14 85 15 5 16 84 17 6 18 7 19 83 20 8 22 82 23 9 24 18 25
REMARK SMILES IDX 19 26 20 27 21 29 22 30 23 31 81 32 24 33 80 34 25 35 26 36
REMARK SMILES IDX 27 37 74 38 28 39 79 40 73 41 75 42 29 43 78 44 72 45 71 46
REMARK SMILES IDX 30 48 60 49 41 50 59 51 42 52 45 53 58 54 76 55 43 56 44 57
REMARK SMILES IDX 57 59 77 60 46 61 31 62 32 63 40 64 33 65 39 66 34 67 35 68
REMARK SMILES IDX 36 69 37 70 38 71 61 72 62 73 70 74 63 75 69 76 64 77 65 78
REMARK SMILES IDX 66 79 67 80 68 81 47 82 48 83 56 84 49 85 55 86 50 87 51 88
REMARK SMILES IDX 52 89 53 90 54 91
REMARK H PARENT 14 7 6 21 19 28 75 47 45 58
REMARK Flexibility Score: inf
ROOT
ATOM      1  C   UNL A   1      38.448  22.294  25.870  1.00  0.00     0.023 C 
ENDROOT
BRANCH   1   2
ATOM      2  C   UNL A   1      37.955  20.938  25.343  1.00  0.00     0.023 C 
BRANCH   2   3
ATOM      3  C   UNL A   1      36.625  20.991  24.601  1.00  0.00     0.116 C 
BRANCH   3   4
ATOM      4  N   UNL A   1      35.524  20.476  25.387  1.00  0.00    -0.355 N 
ATOM      5  C   UNL A   1      34.181  20.637  25.216  1.00  0.00     0.240 C 
ATOM      6  O   UNL A   1      33.437  19.840  25.794  1.00  0.00    -0.273 OA
ATOM      7  H   UNL A   1      35.785  19.928  26.163  1.00  0.00     0.163 HD
BRANCH   5   8
ATOM      8  C   UNL A   1      33.620  21.634  24.197  1.00  0.00     0.226 C 
BRANCH   8   9
ATOM      9  N   UNL A   1      33.526  22.997  24.696  1.00  0.00    -0.288 N 
ATOM     10  C   UNL A   1      34.022  30.389  27.122  1.00  0.00     0.044 C 
ATOM     11  C   UNL A   1      33.280  29.094  26.970  1.00  0.00    -0.050 A 
ATOM     12  C   UNL A   1      31.975  28.966  27.459  1.00  0.00     0.005 A 
ATOM     13  C   UNL A   1      33.885  28.012  26.306  1.00  0.00     0.016 A 
ATOM     14  C   UNL A   1      31.256  27.774  27.328  1.00  0.00     0.027 A 
ATOM     15  C   UNL A   1      33.180  26.803  26.156  1.00  0.00     0.026 A 
ATOM     16  C   UNL A   1      31.883  26.710  26.675  1.00  0.00     0.048 A 
ATOM     17  C   UNL A   1      33.453  25.547  25.573  1.00  0.00     0.103 A 
ATOM     18  N   UNL A   1      31.422  25.432  26.424  1.00  0.00    -0.349 N 
ATOM     19  C   UNL A   1      32.372  24.729  25.740  1.00  0.00     0.132 A 
ATOM     20  N   UNL A   1      34.608  25.140  24.901  1.00  0.00    -0.236 NA
ATOM     21  H   UNL A   1      30.543  25.082  26.695  1.00  0.00     0.167 HD
ATOM     22  C   UNL A   1      32.326  23.391  25.269  1.00  0.00     0.278 A 
ATOM     23  C   UNL A   1      34.559  23.905  24.509  1.00  0.00     0.203 A 
ATOM     24  O   UNL A   1      31.326  22.674  25.347  1.00  0.00    -0.267 OA
ENDBRANCH   8   9
ENDBRANCH   5   8
ENDBRANCH   3   4
ENDBRANCH   2   3
ENDBRANCH   1   2
BRANCH   1  25
ATOM     25  C   UNL A   1      39.788  22.248  26.609  1.00  0.00     0.116 C 
BRANCH  25  26
ATOM     26  N   UNL A   1      40.944  22.337  25.739  1.00  0.00    -0.352 N 
ATOM     27  C   UNL A   1      41.988  23.211  25.620  1.00  0.00     0.251 C 
ATOM     28  H   UNL A   1      40.988  21.600  25.087  1.00  0.00     0.163 HD
ATOM     29  O   UNL A   1      42.907  22.854  24.876  1.00  0.00    -0.269 OA
BRANCH  27  30
ATOM     30  C   UNL A   1      42.046  24.559  26.242  1.00  0.00     0.039 A 
ATOM     31  C   UNL A   1      42.817  24.905  27.351  1.00  0.00     0.014 A 
ATOM     32  C   UNL A   1      41.167  25.519  25.705  1.00  0.00     0.014 A 
ATOM     33  C   UNL A   1      42.614  26.117  27.994  1.00  0.00     0.010 A 
ATOM     34  C   UNL A   1      40.973  26.742  26.332  1.00  0.00     0.010 A 
ATOM     35  C   UNL A   1      41.651  27.005  27.515  1.00  0.00    -0.014 A 
BRANCH  35  36
ATOM     36  C   UNL A   1      41.444  28.236  28.265  1.00  0.00     0.031 A 
ATOM     37  C   UNL A   1      42.558  29.218  28.160  1.00  0.00     0.074 A 
ATOM     38  C   UNL A   1      40.312  28.495  28.947  1.00  0.00     0.049 A 
ATOM     39  N   UNL A   1      43.328  29.657  29.100  1.00  0.00    -0.248 NA
ATOM     40  C   UNL A   1      42.948  29.657  26.811  1.00  0.00     0.031 C 
ATOM     41  C   UNL A   1      39.049  27.750  28.919  1.00  0.00     0.029 A 
ATOM     42  N   UNL A   1      40.016  29.565  29.734  1.00  0.00    -0.354 N 
ATOM     43  C   UNL A   1      44.189  30.569  28.497  1.00  0.00     0.074 A 
ATOM     44  C   UNL A   1      44.010  30.417  27.075  1.00  0.00     0.031 C 
ATOM     45  C   UNL A   1      38.066  28.521  29.437  1.00  0.00     0.029 A 
ATOM     46  C   UNL A   1      38.658  29.735  29.973  1.00  0.00     0.049 A 
ATOM     47  H   UNL A   1      40.704  30.165  30.103  1.00  0.00     0.167 HD
ATOM     48  C   UNL A   1      44.852  31.523  29.209  1.00  0.00     0.031 A 
ATOM     49  C   UNL A   1      38.059  30.833  30.501  1.00  0.00     0.031 A 
ATOM     50  C   UNL A   1      44.872  31.224  30.613  1.00  0.00     0.049 A 
ATOM     51  C   UNL A   1      39.103  31.589  31.236  1.00  0.00     0.074 A 
ATOM     52  C   UNL A   1      45.427  30.221  31.381  1.00  0.00     0.029 A 
ATOM     53  N   UNL A   1      43.926  31.834  31.400  1.00  0.00    -0.354 N 
ATOM     54  N   UNL A   1      39.705  31.140  32.302  1.00  0.00    -0.248 NA
ATOM     55  C   UNL A   1      39.793  32.657  30.530  1.00  0.00     0.031 C 
ATOM     56  C   UNL A   1      44.473  29.976  32.406  1.00  0.00     0.029 A 
ATOM     57  C   UNL A   1      43.423  30.888  32.254  1.00  0.00     0.049 A 
ATOM     58  H   UNL A   1      43.657  32.780  31.357  1.00  0.00     0.167 HD
ATOM     59  C   UNL A   1      41.023  31.552  32.165  1.00  0.00     0.074 A 
ATOM     60  C   UNL A   1      40.995  32.558  31.105  1.00  0.00     0.031 C 
ATOM     61  C   UNL A   1      42.051  30.852  32.728  1.00  0.00     0.031 A 
BRANCH  48  62
ATOM     62  C   UNL A   1      45.185  32.891  28.670  1.00  0.00    -0.014 A 
ATOM     63  C   UNL A   1      44.206  33.869  28.404  1.00  0.00     0.010 A 
ATOM     64  C   UNL A   1      46.530  33.318  28.658  1.00  0.00     0.010 A 
ATOM     65  C   UNL A   1      44.537  35.196  28.127  1.00  0.00     0.020 A 
ATOM     66  C   UNL A   1      46.872  34.658  28.425  1.00  0.00     0.020 A 
ATOM     67  C   UNL A   1      45.869  35.587  28.154  1.00  0.00     0.054 A 
BRANCH  67  68
ATOM     68  S   UNL A   1      46.244  37.338  27.898  1.00  0.00     0.124 S 
ATOM     69  O   UNL A   1      45.681  37.573  26.571  1.00  0.00    -0.237 OA
ATOM     70  O   UNL A   1      45.535  37.973  29.005  1.00  0.00    -0.237 OA
ATOM     71  O   UNL A   1      47.702  37.392  27.978  1.00  0.00    -0.744 OA
ENDBRANCH  67  68
ENDBRANCH  48  62
BRANCH  49  72
ATOM     72  C   UNL A   1      36.818  31.481  29.995  1.00  0.00    -0.014 A 
ATOM     73  C   UNL A   1      36.844  32.169  28.764  1.00  0.00     0.010 A 
ATOM     74  C   UNL A   1      35.708  31.686  30.836  1.00  0.00     0.010 A 
ATOM     75  C   UNL A   1      35.839  33.078  28.413  1.00  0.00     0.020 A 
ATOM     76  C   UNL A   1      34.695  32.598  30.490  1.00  0.00     0.020 A 
ATOM     77  C   UNL A   1      34.786  33.313  29.295  1.00  0.00     0.054 A 
BRANCH  77  78
ATOM     78  S   UNL A   1      33.599  34.623  28.877  1.00  0.00     0.124 S 
ATOM     79  O   UNL A   1      32.998  34.916  30.176  1.00  0.00    -0.237 OA
ATOM     80  O   UNL A   1      34.461  35.671  28.336  1.00  0.00    -0.237 OA
ATOM     81  O   UNL A   1      32.710  33.990  27.905  1.00  0.00    -0.744 OA
ENDBRANCH  77  78
ENDBRANCH  49  72
BRANCH  61  82
ATOM     82  C   UNL A   1      41.747  29.773  33.746  1.00  0.00    -0.014 A 
ATOM     83  C   UNL A   1      42.028  30.073  35.092  1.00  0.00     0.010 A 
ATOM     84  C   UNL A   1      41.437  28.441  33.408  1.00  0.00     0.010 A 
ATOM     85  C   UNL A   1      42.061  29.071  36.063  1.00  0.00     0.020 A 
ATOM     86  C   UNL A   1      41.442  27.432  34.387  1.00  0.00     0.020 A 
ATOM     87  C   UNL A   1      41.786  27.751  35.702  1.00  0.00     0.054 A 
BRANCH  87  88
ATOM     88  S   UNL A   1      41.935  26.474  36.983  1.00  0.00     0.124 S 
ATOM     89  O   UNL A   1      42.188  25.270  36.194  1.00  0.00    -0.237 OA
ATOM     90  O   UNL A   1      43.066  26.944  37.780  1.00  0.00    -0.237 OA
ATOM     91  O   UNL A   1      40.644  26.504  37.668  1.00  0.00    -0.744 OA
ENDBRANCH  87  88
ENDBRANCH  61  82
ENDBRANCH  35  36
ENDBRANCH  27  30
ENDBRANCH  25  26
ENDBRANCH   1  25
TORSDOF 15
ENDMDL
MODEL 2
REMARK VINA RESULT:     -12.3      1.567      1.685
REMARK SMILES Cc1ccc2[nH]c3c(=O)n(CC(=O)NCCCCNC(=O)c4ccc(-c5c6nc(c(-c7ccc(S(=O)(=O)[O-])cc7)c7ccc([nH]7)c(-c7ccc(S(=O)(=O)[O-])cc7)c7nc(c(-c8ccc(S(=O)(=O)[O-])cc8)c8ccc5[nH]8)C=C7)C=C6)cc4)cnc3c2c1
REMARK SMILES IDX 17 1 16 2 15 3 14 4 12 5 13 6 11 8 10 9 1 10 2 11 3 12 86 13
REMARK SMILES IDX 4 14 85 15 5 16 84 17 6 18 7 19 83 20 8 22 82 23 9 24 18 25
REMARK SMILES IDX 19 26 20 27 21 29 22 30 23 31 81 32 24 33 80 34 25 35 26 36
REMARK SMILES IDX 27 37 74 38 28 39 79 40 73 41 75 42 29 43 78 44 72 45 71 46
REMARK SMILES IDX 30 48 60 49 41 50 59 51 42 52 45 53 58 54 76 55 43 56 44 57
REMARK SMILES IDX 57 59 77 60 46 61 31 62 32 63 40 64 33 65 39 66 34 67 35 68
REMARK SMILES IDX 36 69 37 70 38 71 61 72 62 73 70 74 63 75 69 76 64 77 65 78
REMARK SMILES IDX 66 79 67 80 68 81 47 82 48 83 56 84 49 85 55 86 50 87 51 88
REMARK SMILES IDX 52 89 53 90 54 91
REMARK H PARENT 14 7 6 21 19 28 75 47 45 58
REMARK Flexibility Score: inf
ROOT
ATOM      1  C   UNL A   1      39.097  22.931  26.438  1.00  0.00     0.023 C 
ENDROOT
BRANCH   1   2
ATOM      2  C   UNL A   1      37.876  22.281  25.772  1.00  0.00     0.023 C 
BRANCH   2   3
ATOM      3  C   UNL A   1      36.662  23.194  25.643  1.00  0.00     0.116 C 
BRANCH   3   4
ATOM      4  N   UNL A   1      35.621  22.878  26.598  1.00  0.00    -0.355 N 
ATOM      5  C   UNL A   1      34.378  22.359  26.391  1.00  0.00     0.240 C 
ATOM      6  O   UNL A   1      33.802  21.861  27.363  1.00  0.00    -0.273 OA
ATOM      7  H   UNL A   1      35.844  23.069  27.538  1.00  0.00     0.163 HD
BRANCH   5   8
ATOM      8  C   UNL A   1      33.797  22.214  24.980  1.00  0.00     0.226 C 
BRANCH   8   9
ATOM      9  N   UNL A   1      33.033  23.370  24.537  1.00  0.00    -0.288 N 
ATOM     10  C   UNL A   1      29.839  29.954  21.849  1.00  0.00     0.044 C 
ATOM     11  C   UNL A   1      29.756  28.644  22.575  1.00  0.00    -0.050 A 
ATOM     12  C   UNL A   1      28.540  28.215  23.120  1.00  0.00     0.005 A 
ATOM     13  C   UNL A   1      30.895  27.828  22.683  1.00  0.00     0.016 A 
ATOM     14  C   UNL A   1      28.429  26.998  23.798  1.00  0.00     0.027 A 
ATOM     15  C   UNL A   1      30.808  26.594  23.356  1.00  0.00     0.026 A 
ATOM     16  C   UNL A   1      29.577  26.209  23.903  1.00  0.00     0.048 A 
ATOM     17  C   UNL A   1      31.706  25.548  23.656  1.00  0.00     0.103 A 
ATOM     18  N   UNL A   1      29.758  24.988  24.524  1.00  0.00    -0.349 N 
ATOM     19  C   UNL A   1      31.051  24.579  24.361  1.00  0.00     0.132 A 
ATOM     20  N   UNL A   1      33.054  25.442  23.307  1.00  0.00    -0.236 NA
ATOM     21  H   UNL A   1      29.062  24.489  25.008  1.00  0.00     0.167 HD
ATOM     22  C   UNL A   1      31.674  23.390  24.819  1.00  0.00     0.278 A 
ATOM     23  C   UNL A   1      33.615  24.366  23.765  1.00  0.00     0.203 A 
ATOM     24  O   UNL A   1      31.070  22.477  25.386  1.00  0.00    -0.267 OA
ENDBRANCH   8   9
ENDBRANCH   5   8
ENDBRANCH   3   4
ENDBRANCH   2   3
ENDBRANCH   1   2
BRANCH   1  25
ATOM     25  C   UNL A   1      40.298  22.001  26.627  1.00  0.00     0.116 C 
BRANCH  25  26
ATOM     26  N   UNL A   1      41.363  22.210  25.666  1.00  0.00    -0.352 N 
ATOM     27  C   UNL A   1      42.330  23.161  25.500  1.00  0.00     0.251 C 
ATOM     28  H   UNL A   1      41.397  21.507  24.977  1.00  0.00     0.163 HD
ATOM     29  O   UNL A   1      43.200  22.904  24.662  1.00  0.00    -0.269 OA
BRANCH  27  30
ATOM     30  C   UNL A   1      42.353  24.481  26.180  1.00  0.00     0.039 A 
ATOM     31  C   UNL A   1      42.978  24.754  27.397  1.00  0.00     0.014 A 
ATOM     32  C   UNL A   1      41.590  25.497  25.572  1.00  0.00     0.014 A 
ATOM     33  C   UNL A   1      42.733  25.949  28.058  1.00  0.00     0.010 A 
ATOM     34  C   UNL A   1      41.358  26.703  26.218  1.00  0.00     0.010 A 
ATOM     35  C   UNL A   1      41.878  26.894  27.492  1.00  0.00    -0.014 A 
BRANCH  35  36
ATOM     36  C   UNL A   1      41.617  28.103  28.259  1.00  0.00     0.031 A 
ATOM     37  C   UNL A   1      42.700  29.122  28.195  1.00  0.00     0.074 A 
ATOM     38  C   UNL A   1      40.463  28.314  28.921  1.00  0.00     0.049 A 
ATOM     39  N   UNL A   1      43.436  29.568  29.158  1.00  0.00    -0.248 NA
ATOM     40  C   UNL A   1      43.103  29.597  26.861  1.00  0.00     0.031 C 
ATOM     41  C   UNL A   1      39.225  27.530  28.853  1.00  0.00     0.029 A 
ATOM     42  N   UNL A   1      40.116  29.360  29.720  1.00  0.00    -0.354 N 
ATOM     43  C   UNL A   1      44.280  30.518  28.589  1.00  0.00     0.074 A 
ATOM     44  C   UNL A   1      44.135  30.386  27.162  1.00  0.00     0.031 C 
ATOM     45  C   UNL A   1      38.208  28.260  29.364  1.00  0.00     0.029 A 
ATOM     46  C   UNL A   1      38.749  29.482  29.934  1.00  0.00     0.049 A 
ATOM     47  H   UNL A   1      40.777  29.975  30.114  1.00  0.00     0.167 HD
ATOM     48  C   UNL A   1      44.897  31.479  29.332  1.00  0.00     0.031 A 
ATOM     49  C   UNL A   1      38.105  30.551  30.468  1.00  0.00     0.031 A 
ATOM     50  C   UNL A   1      44.898  31.155  30.730  1.00  0.00     0.049 A 
ATOM     51  C   UNL A   1      39.109  31.326  31.238  1.00  0.00     0.074 A 
ATOM     52  C   UNL A   1      45.469  30.157  31.492  1.00  0.00     0.029 A 
ATOM     53  N   UNL A   1      43.917  31.720  31.508  1.00  0.00    -0.354 N 
ATOM     54  N   UNL A   1      39.703  30.877  32.308  1.00  0.00    -0.248 NA
ATOM     55  C   UNL A   1      39.778  32.428  30.566  1.00  0.00     0.031 C 
ATOM     56  C   UNL A   1      44.502  29.863  32.493  1.00  0.00     0.029 A 
ATOM     57  C   UNL A   1      43.427  30.743  32.334  1.00  0.00     0.049 A 
ATOM     58  H   UNL A   1      43.619  32.659  31.476  1.00  0.00     0.167 HD
ATOM     59  C   UNL A   1      41.009  31.333  32.206  1.00  0.00     0.074 A 
ATOM     60  C   UNL A   1      40.970  32.357  31.163  1.00  0.00     0.031 C 
ATOM     61  C   UNL A   1      42.047  30.656  32.778  1.00  0.00     0.031 A 
BRANCH  48  62
ATOM     62  C   UNL A   1      45.197  32.867  28.824  1.00  0.00    -0.014 A 
ATOM     63  C   UNL A   1      44.366  33.545  27.910  1.00  0.00     0.010 A 
ATOM     64  C   UNL A   1      46.201  33.629  29.458  1.00  0.00     0.010 A 
ATOM     65  C   UNL A   1      44.525  34.901  27.625  1.00  0.00     0.020 A 
ATOM     66  C   UNL A   1      46.342  35.004  29.212  1.00  0.00     0.020 A 
ATOM     67  C   UNL A   1      45.505  35.628  28.290  1.00  0.00     0.054 A 
BRANCH  67  68
ATOM     68  S   UNL A   1      45.604  37.405  27.971  1.00  0.00     0.124 S 
ATOM     69  O   UNL A   1      44.327  37.663  27.312  1.00  0.00    -0.237 OA
ATOM     70  O   UNL A   1      45.741  37.955  29.317  1.00  0.00    -0.237 OA
ATOM     71  O   UNL A   1      46.785  37.536  27.122  1.00  0.00    -0.744 OA
ENDBRANCH  67  68
ENDBRANCH  48  62
BRANCH  49  72
ATOM     72  C   UNL A   1      36.854  31.168  29.947  1.00  0.00    -0.014 A 
ATOM     73  C   UNL A   1      36.818  31.660  28.625  1.00  0.00     0.010 A 
ATOM     74  C   UNL A   1      35.812  31.546  30.815  1.00  0.00     0.010 A 
ATOM     75  C   UNL A   1      35.823  32.549  28.203  1.00  0.00     0.020 A 
ATOM     76  C   UNL A   1      34.808  32.439  30.396  1.00  0.00     0.020 A 
ATOM     77  C   UNL A   1      34.841  32.960  29.102  1.00  0.00     0.054 A 
BRANCH  77  78
ATOM     78  S   UNL A   1      33.673  34.242  28.563  1.00  0.00     0.124 S 
ATOM     79  O   UNL A   1      33.063  34.650  29.826  1.00  0.00    -0.237 OA
ATOM     80  O   UNL A   1      34.552  35.231  27.944  1.00  0.00    -0.237 OA
ATOM     81  O   UNL A   1      32.786  33.538  27.639  1.00  0.00    -0.744 OA
ENDBRANCH  77  78
ENDBRANCH  49  72
BRANCH  61  82
ATOM     82  C   UNL A   1      41.757  29.549  33.771  1.00  0.00    -0.014 A 
ATOM     83  C   UNL A   1      41.958  29.848  35.132  1.00  0.00     0.010 A 
ATOM     84  C   UNL A   1      41.538  28.206  33.406  1.00  0.00     0.010 A 
ATOM     85  C   UNL A   1      42.002  28.837  36.093  1.00  0.00     0.020 A 
ATOM     86  C   UNL A   1      41.553  27.187  34.374  1.00  0.00     0.020 A 
ATOM     87  C   UNL A   1      41.819  27.509  35.707  1.00  0.00     0.054 A 
BRANCH  87  88
ATOM     88  S   UNL A   1      41.979  26.226  36.981  1.00  0.00     0.124 S 
ATOM     89  O   UNL A   1      42.381  25.060  36.198  1.00  0.00    -0.237 OA
ATOM     90  O   UNL A   1      43.011  26.770  37.861  1.00  0.00    -0.237 OA
ATOM     91  O   UNL A   1      40.646  26.144  37.574  1.00  0.00    -0.744 OA
ENDBRANCH  87  88
ENDBRANCH  61  82
ENDBRANCH  35  36
ENDBRANCH  27  30
ENDBRANCH  25  26
ENDBRANCH   1  25
TORSDOF 15
ENDMDL
MODEL 3
REMARK VINA RESULT:     -12.1      2.844      9.505
REMARK SMILES Cc1ccc2[nH]c3c(=O)n(CC(=O)NCCCCNC(=O)c4ccc(-c5c6nc(c(-c7ccc(S(=O)(=O)[O-])cc7)c7ccc([nH]7)c(-c7ccc(S(=O)(=O)[O-])cc7)c7nc(c(-c8ccc(S(=O)(=O)[O-])cc8)c8ccc5[nH]8)C=C7)C=C6)cc4)cnc3c2c1
REMARK SMILES IDX 17 1 16 2 15 3 14 4 12 5 13 6 11 8 10 9 1 10 2 11 3 12 86 13
REMARK SMILES IDX 4 14 85 15 5 16 84 17 6 18 7 19 83 20 8 22 82 23 9 24 18 25
REMARK SMILES IDX 19 26 20 27 21 29 22 30 23 31 81 32 24 33 80 34 25 35 26 36
REMARK SMILES IDX 27 37 74 38 28 39 79 40 73 41 75 42 29 43 78 44 72 45 71 46
REMARK SMILES IDX 30 48 60 49 41 50 59 51 42 52 45 53 58 54 76 55 43 56 44 57
REMARK SMILES IDX 57 59 77 60 46 61 31 62 32 63 40 64 33 65 39 66 34 67 35 68
REMARK SMILES IDX 36 69 37 70 38 71 61 72 62 73 70 74 63 75 69 76 64 77 65 78
REMARK SMILES IDX 66 79 67 80 68 81 47 82 48 83 56 84 49 85 55 86 50 87 51 88
REMARK SMILES IDX 52 89 53 90 54 91
REMARK H PARENT 14 7 6 21 19 28 75 47 45 58
REMARK Flexibility Score: inf
ROOT
ATOM      1  C   UNL A   1      34.707  30.165  27.464  1.00  0.00     0.023 C 
ENDROOT
BRANCH   1   2
ATOM      2  C   UNL A   1      33.345  29.484  27.266  1.00  0.00     0.023 C 
BRANCH   2   3
ATOM      3  C   UNL A   1      32.505  30.063  26.132  1.00  0.00     0.116 C 
BRANCH   3   4
ATOM      4  N   UNL A   1      33.074  29.805  24.826  1.00  0.00    -0.355 N 
ATOM      5  C   UNL A   1      32.742  28.857  23.904  1.00  0.00     0.240 C 
ATOM      6  O   UNL A   1      33.122  29.039  22.743  1.00  0.00    -0.273 OA
ATOM      7  H   UNL A   1      33.811  30.404  24.565  1.00  0.00     0.163 HD
BRANCH   5   8
ATOM      8  C   UNL A   1      31.776  27.718  24.242  1.00  0.00     0.226 C 
BRANCH   8   9
ATOM      9  N   UNL A   1      32.417  26.419  24.367  1.00  0.00    -0.288 N 
ATOM     10  C   UNL A   1      36.749  19.966  24.978  1.00  0.00     0.044 C 
ATOM     11  C   UNL A   1      35.429  20.665  24.838  1.00  0.00    -0.050 A 
ATOM     12  C   UNL A   1      34.243  19.925  24.772  1.00  0.00     0.005 A 
ATOM     13  C   UNL A   1      35.378  22.069  24.805  1.00  0.00     0.016 A 
ATOM     14  C   UNL A   1      32.997  20.546  24.647  1.00  0.00     0.027 A 
ATOM     15  C   UNL A   1      34.134  22.719  24.686  1.00  0.00     0.026 A 
ATOM     16  C   UNL A   1      32.972  21.942  24.604  1.00  0.00     0.048 A 
ATOM     17  C   UNL A   1      33.706  24.062  24.620  1.00  0.00     0.103 A 
ATOM     18  N   UNL A   1      31.901  22.804  24.470  1.00  0.00    -0.349 N 
ATOM     19  C   UNL A   1      32.346  24.095  24.494  1.00  0.00     0.132 A 
ATOM     20  N   UNL A   1      34.483  25.220  24.684  1.00  0.00    -0.236 NA
ATOM     21  H   UNL A   1      30.961  22.530  24.373  1.00  0.00     0.167 HD
ATOM     22  C   UNL A   1      31.600  25.298  24.398  1.00  0.00     0.278 A 
ATOM     23  C   UNL A   1      33.787  26.307  24.560  1.00  0.00     0.203 A 
ATOM     24  O   UNL A   1      30.368  25.336  24.364  1.00  0.00    -0.267 OA
ENDBRANCH   8   9
ENDBRANCH   5   8
ENDBRANCH   3   4
ENDBRANCH   2   3
ENDBRANCH   1   2
BRANCH   1  25
ATOM     25  C   UNL A   1      34.638  31.662  27.777  1.00  0.00     0.116 C 
BRANCH  25  26
ATOM     26  N   UNL A   1      34.331  31.962  29.161  1.00  0.00    -0.352 N 
ATOM     27  C   UNL A   1      35.034  31.906  30.332  1.00  0.00     0.251 C 
ATOM     28  H   UNL A   1      33.406  32.278  29.287  1.00  0.00     0.163 HD
ATOM     29  O   UNL A   1      34.494  32.432  31.310  1.00  0.00    -0.269 OA
BRANCH  27  30
ATOM     30  C   UNL A   1      36.328  31.200  30.516  1.00  0.00     0.039 A 
ATOM     31  C   UNL A   1      37.589  31.792  30.447  1.00  0.00     0.014 A 
ATOM     32  C   UNL A   1      36.247  29.803  30.676  1.00  0.00     0.014 A 
ATOM     33  C   UNL A   1      38.730  31.005  30.392  1.00  0.00     0.010 A 
ATOM     34  C   UNL A   1      37.385  29.011  30.641  1.00  0.00     0.010 A 
ATOM     35  C   UNL A   1      38.618  29.615  30.430  1.00  0.00    -0.014 A 
BRANCH  35  36
ATOM     36  C   UNL A   1      39.846  28.842  30.312  1.00  0.00     0.031 A 
ATOM     37  C   UNL A   1      40.594  28.671  31.588  1.00  0.00     0.074 A 
ATOM     38  C   UNL A   1      40.243  28.272  29.158  1.00  0.00     0.049 A 
ATOM     39  N   UNL A   1      41.776  29.098  31.885  1.00  0.00    -0.248 NA
ATOM     40  C   UNL A   1      39.872  28.065  32.719  1.00  0.00     0.031 C 
ATOM     41  C   UNL A   1      39.485  28.135  27.910  1.00  0.00     0.029 A 
ATOM     42  N   UNL A   1      41.388  27.585  28.895  1.00  0.00    -0.354 N 
ATOM     43  C   UNL A   1      42.027  28.661  33.184  1.00  0.00     0.074 A 
ATOM     44  C   UNL A   1      40.774  28.166  33.694  1.00  0.00     0.031 C 
ATOM     45  C   UNL A   1      40.077  27.202  27.131  1.00  0.00     0.029 A 
ATOM     46  C   UNL A   1      41.328  26.801  27.750  1.00  0.00     0.049 A 
ATOM     47  H   UNL A   1      42.189  27.640  29.466  1.00  0.00     0.167 HD
ATOM     48  C   UNL A   1      43.290  28.559  33.683  1.00  0.00     0.031 A 
ATOM     49  C   UNL A   1      42.208  25.833  27.384  1.00  0.00     0.031 A 
ATOM     50  C   UNL A   1      44.237  29.302  32.901  1.00  0.00     0.049 A 
ATOM     51  C   UNL A   1      43.475  26.097  28.110  1.00  0.00     0.074 A 
ATOM     52  C   UNL A   1      44.423  30.640  32.621  1.00  0.00     0.029 A 
ATOM     53  N   UNL A   1      44.960  28.607  31.962  1.00  0.00    -0.354 N 
ATOM     54  N   UNL A   1      44.217  27.149  27.908  1.00  0.00    -0.248 NA
ATOM     55  C   UNL A   1      43.689  25.413  29.375  1.00  0.00     0.031 C 
ATOM     56  C   UNL A   1      44.855  30.673  31.266  1.00  0.00     0.029 A 
ATOM     57  C   UNL A   1      44.979  29.355  30.814  1.00  0.00     0.049 A 
ATOM     58  H   UNL A   1      45.387  27.729  32.092  1.00  0.00     0.167 HD
ATOM     59  C   UNL A   1      44.673  27.508  29.169  1.00  0.00     0.074 A 
ATOM     60  C   UNL A   1      44.391  26.351  30.016  1.00  0.00     0.031 C 
ATOM     61  C   UNL A   1      44.986  28.802  29.472  1.00  0.00     0.031 A 
BRANCH  48  62
ATOM     62  C   UNL A   1      43.714  27.513  34.683  1.00  0.00    -0.014 A 
ATOM     63  C   UNL A   1      43.539  26.131  34.467  1.00  0.00     0.010 A 
ATOM     64  C   UNL A   1      44.537  27.888  35.765  1.00  0.00     0.010 A 
ATOM     65  C   UNL A   1      44.134  25.170  35.284  1.00  0.00     0.020 A 
ATOM     66  C   UNL A   1      45.177  26.930  36.566  1.00  0.00     0.020 A 
ATOM     67  C   UNL A   1      44.964  25.575  36.322  1.00  0.00     0.054 A 
BRANCH  67  68
ATOM     68  S   UNL A   1      45.802  24.294  37.286  1.00  0.00     0.124 S 
ATOM     69  O   UNL A   1      47.195  24.486  36.891  1.00  0.00    -0.237 OA
ATOM     70  O   UNL A   1      45.478  24.675  38.658  1.00  0.00    -0.237 OA
ATOM     71  O   UNL A   1      45.185  23.055  36.820  1.00  0.00    -0.744 OA
ENDBRANCH  67  68
ENDBRANCH  48  62
BRANCH  49  72
ATOM     72  C   UNL A   1      41.856  24.483  26.865  1.00  0.00    -0.014 A 
ATOM     73  C   UNL A   1      40.888  23.708  27.538  1.00  0.00     0.010 A 
ATOM     74  C   UNL A   1      42.665  23.836  25.912  1.00  0.00     0.010 A 
ATOM     75  C   UNL A   1      40.774  22.330  27.321  1.00  0.00     0.020 A 
ATOM     76  C   UNL A   1      42.555  22.451  25.689  1.00  0.00     0.020 A 
ATOM     77  C   UNL A   1      41.632  21.703  26.421  1.00  0.00     0.054 A 
BRANCH  77  78
ATOM     78  S   UNL A   1      41.564  19.892  26.298  1.00  0.00     0.124 S 
ATOM     79  O   UNL A   1      42.056  19.478  27.610  1.00  0.00    -0.237 OA
ATOM     80  O   UNL A   1      40.145  19.644  26.055  1.00  0.00    -0.237 OA
ATOM     81  O   UNL A   1      42.446  19.586  25.174  1.00  0.00    -0.744 OA
ENDBRANCH  77  78
ENDBRANCH  49  72
BRANCH  61  82
ATOM     82  C   UNL A   1      45.110  29.819  28.356  1.00  0.00    -0.014 A 
ATOM     83  C   UNL A   1      46.366  30.433  28.194  1.00  0.00     0.010 A 
ATOM     84  C   UNL A   1      44.011  30.345  27.649  1.00  0.00     0.010 A 
ATOM     85  C   UNL A   1      46.514  31.574  27.403  1.00  0.00     0.020 A 
ATOM     86  C   UNL A   1      44.160  31.478  26.829  1.00  0.00     0.020 A 
ATOM     87  C   UNL A   1      45.406  32.103  26.739  1.00  0.00     0.054 A 
BRANCH  87  88
ATOM     88  S   UNL A   1      45.633  33.639  25.800  1.00  0.00     0.124 S 
ATOM     89  O   UNL A   1      44.897  33.363  24.569  1.00  0.00    -0.237 OA
ATOM     90  O   UNL A   1      45.030  34.644  26.673  1.00  0.00    -0.237 OA
ATOM     91  O   UNL A   1      47.082  33.750  25.644  1.00  0.00    -0.744 OA
ENDBRANCH  87  88
ENDBRANCH  61  82
ENDBRANCH  35  36
ENDBRANCH  27  30
ENDBRANCH  25  26
ENDBRANCH   1  25
TORSDOF 15
ENDMDL
