MODEL 1
REMARK VINA RESULT:     -12.1      0.000      0.000
REMARK SMILES COc1ccc(/C=C/c2cc(C(=O)NCCCCNC(=O)c3ccc(-c4c5nc(c(-c6ccc(S(=O)(=O)[O-])cc6)c6ccc([nH]6)c(-c6ccc(S(=O)(=O)[O-])cc6)c6nc(c(-c7ccc(S(=O)(=O)[O-])cc7)c7ccc4[nH]7)C=C6)C=C5)cc3)c3ccccc3n2)c(OC)c1
REMARK SMILES IDX 16 1 15 2 14 3 12 4 13 5 11 7 9 8 10 9 88 10 87 11 82 12
REMARK SMILES IDX 86 13 83 14 85 15 84 16 8 17 7 18 6 19 3 20 4 21 92 22 5 23
REMARK SMILES IDX 89 24 2 25 1 26 90 27 91 28 17 29 18 30 19 31 20 32 21 34
REMARK SMILES IDX 22 35 23 36 81 37 24 38 80 39 25 40 26 41 27 42 74 43 28 44
REMARK SMILES IDX 79 45 73 46 75 47 29 48 78 49 72 50 71 51 30 53 60 54 41 55
REMARK SMILES IDX 59 56 42 57 45 58 58 59 76 60 43 61 44 62 57 64 77 65 46 66
REMARK SMILES IDX 31 67 32 68 40 69 33 70 39 71 34 72 35 73 36 74 37 75 38 76
REMARK SMILES IDX 61 77 62 78 70 79 63 80 69 81 64 82 65 83 66 84 67 85 68 86
REMARK SMILES IDX 47 87 48 88 56 89 49 90 55 91 50 92 51 93 52 94 53 95 54 96
REMARK H PARENT 14 6 19 33 75 52 45 63
REMARK Flexibility Score: inf
ROOT
ATOM      1  C   UNL A   1      35.218  29.432  27.315  1.00  0.00     0.023 C 
ENDROOT
BRANCH   1   2
ATOM      2  C   UNL A   1      34.074  28.680  26.629  1.00  0.00     0.116 C 
BRANCH   2   3
ATOM      3  N   UNL A   1      33.075  28.348  27.627  1.00  0.00    -0.352 N 
ATOM      4  C   UNL A   1      31.761  28.022  27.413  1.00  0.00     0.252 C 
ATOM      5  O   UNL A   1      30.897  28.363  28.210  1.00  0.00    -0.269 OA
ATOM      6  H   UNL A   1      33.375  28.360  28.566  1.00  0.00     0.163 HD
BRANCH   4   7
ATOM      7  C   UNL A   1      31.457  27.100  26.306  1.00  0.00     0.051 A 
ATOM      8  C   UNL A   1      31.462  25.004  25.258  1.00  0.00     0.065 A 
ATOM      9  C   UNL A   1      31.810  25.753  26.365  1.00  0.00     0.042 A 
ATOM     10  N   UNL A   1      30.458  25.395  24.445  1.00  0.00    -0.248 NA
ATOM     11  C   UNL A   1      30.413  26.702  24.200  1.00  0.00     0.072 A 
ATOM     12  C   UNL A   1      30.979  27.630  25.084  1.00  0.00     0.013 A 
ATOM     13  C   UNL A   1      29.993  27.103  22.945  1.00  0.00     0.029 A 
ATOM     14  C   UNL A   1      31.171  28.956  24.635  1.00  0.00     0.011 A 
ATOM     15  C   UNL A   1      30.258  28.390  22.482  1.00  0.00     0.002 A 
ATOM     16  C   UNL A   1      30.866  29.313  23.323  1.00  0.00     0.001 A 
BRANCH   8  17
ATOM     17  C   UNL A   1      32.522  24.401  24.394  1.00  0.00     0.029 C 
ATOM     18  C   UNL A   1      32.956  23.189  24.819  1.00  0.00     0.014 C 
BRANCH  18  19
ATOM     19  C   UNL A   1      34.362  22.728  24.959  1.00  0.00     0.017 A 
ATOM     20  C   UNL A   1      37.005  21.805  25.333  1.00  0.00     0.122 A 
ATOM     21  C   UNL A   1      36.674  23.127  25.612  1.00  0.00     0.047 A 
ATOM     22  C   UNL A   1      36.010  20.916  24.937  1.00  0.00     0.093 A 
ATOM     23  C   UNL A   1      35.369  23.589  25.413  1.00  0.00     0.016 A 
ATOM     24  C   UNL A   1      34.688  21.357  24.768  1.00  0.00     0.129 A 
BRANCH  20  25
ATOM     25  O   UNL A   1      38.320  21.466  25.505  1.00  0.00    -0.497 OA
ATOM     26  C   UNL A   1      39.088  22.416  26.242  1.00  0.00     0.278 C 
ENDBRANCH  20  25
BRANCH  24  27
ATOM     27  O   UNL A   1      33.670  20.495  24.423  1.00  0.00    -0.496 OA
ATOM     28  C   UNL A   1      33.270  19.532  25.397  1.00  0.00     0.278 C 
ENDBRANCH  24  27
ENDBRANCH  18  19
ENDBRANCH   8  17
ENDBRANCH   4   7
ENDBRANCH   2   3
ENDBRANCH   1   2
BRANCH   1  29
ATOM     29  C   UNL A   1      34.831  30.836  27.801  1.00  0.00     0.023 C 
BRANCH  29  30
ATOM     30  C   UNL A   1      35.845  31.486  28.735  1.00  0.00     0.116 C 
BRANCH  30  31
ATOM     31  N   UNL A   1      35.674  31.060  30.115  1.00  0.00    -0.352 N 
ATOM     32  C   UNL A   1      36.553  30.370  30.916  1.00  0.00     0.251 C 
ATOM     33  H   UNL A   1      34.814  31.297  30.532  1.00  0.00     0.163 HD
ATOM     34  O   UNL A   1      36.198  29.940  32.001  1.00  0.00    -0.269 OA
BRANCH  32  35
ATOM     35  C   UNL A   1      37.925  30.138  30.422  1.00  0.00     0.039 A 
ATOM     36  C   UNL A   1      38.952  29.950  31.348  1.00  0.00     0.014 A 
ATOM     37  C   UNL A   1      38.177  30.066  29.049  1.00  0.00     0.014 A 
ATOM     38  C   UNL A   1      40.231  29.631  30.892  1.00  0.00     0.010 A 
ATOM     39  C   UNL A   1      39.435  29.678  28.602  1.00  0.00     0.010 A 
ATOM     40  C   UNL A   1      40.474  29.460  29.519  1.00  0.00    -0.014 A 
BRANCH  40  41
ATOM     41  C   UNL A   1      41.815  29.056  29.024  1.00  0.00     0.031 A 
ATOM     42  C   UNL A   1      42.921  30.072  28.945  1.00  0.00     0.074 A 
ATOM     43  C   UNL A   1      42.016  27.792  28.603  1.00  0.00     0.049 A 
ATOM     44  N   UNL A   1      44.141  29.926  28.497  1.00  0.00    -0.248 NA
ATOM     45  C   UNL A   1      42.613  31.436  29.411  1.00  0.00     0.031 C 
ATOM     46  C   UNL A   1      41.007  26.729  28.594  1.00  0.00     0.029 A 
ATOM     47  N   UNL A   1      43.139  27.185  28.096  1.00  0.00    -0.354 N 
ATOM     48  C   UNL A   1      44.740  31.174  28.618  1.00  0.00     0.074 A 
ATOM     49  C   UNL A   1      43.735  32.081  29.127  1.00  0.00     0.031 C 
ATOM     50  C   UNL A   1      41.565  25.597  28.135  1.00  0.00     0.029 A 
ATOM     51  C   UNL A   1      42.954  25.861  27.773  1.00  0.00     0.049 A 
ATOM     52  H   UNL A   1      43.996  27.655  27.974  1.00  0.00     0.167 HD
ATOM     53  C   UNL A   1      46.020  31.528  28.354  1.00  0.00     0.031 A 
ATOM     54  C   UNL A   1      43.805  24.964  27.239  1.00  0.00     0.031 A 
ATOM     55  C   UNL A   1      47.019  30.619  27.859  1.00  0.00     0.049 A 
ATOM     56  C   UNL A   1      45.215  25.393  26.931  1.00  0.00     0.074 A 
ATOM     57  C   UNL A   1      48.355  30.870  27.599  1.00  0.00     0.029 A 
ATOM     58  N   UNL A   1      46.794  29.287  27.550  1.00  0.00    -0.354 N 
ATOM     59  N   UNL A   1      45.779  26.563  27.112  1.00  0.00    -0.248 NA
ATOM     60  C   UNL A   1      46.107  24.376  26.356  1.00  0.00     0.031 C 
ATOM     61  C   UNL A   1      48.924  29.703  27.081  1.00  0.00     0.029 A 
ATOM     62  C   UNL A   1      47.960  28.708  27.082  1.00  0.00     0.049 A 
ATOM     63  H   UNL A   1      45.932  28.821  27.649  1.00  0.00     0.167 HD
ATOM     64  C   UNL A   1      47.102  26.412  26.706  1.00  0.00     0.074 A 
ATOM     65  C   UNL A   1      47.256  25.034  26.288  1.00  0.00     0.031 C 
ATOM     66  C   UNL A   1      48.098  27.331  26.681  1.00  0.00     0.031 A 
BRANCH  53  67
ATOM     67  C   UNL A   1      46.419  32.959  28.606  1.00  0.00    -0.014 A 
ATOM     68  C   UNL A   1      46.276  33.936  27.603  1.00  0.00     0.010 A 
ATOM     69  C   UNL A   1      46.876  33.346  29.878  1.00  0.00     0.010 A 
ATOM     70  C   UNL A   1      46.606  35.269  27.861  1.00  0.00     0.020 A 
ATOM     71  C   UNL A   1      47.179  34.684  30.150  1.00  0.00     0.020 A 
ATOM     72  C   UNL A   1      47.051  35.634  29.135  1.00  0.00     0.054 A 
BRANCH  72  73
ATOM     73  S   UNL A   1      47.418  37.381  29.455  1.00  0.00     0.124 S 
ATOM     74  O   UNL A   1      48.818  37.325  29.872  1.00  0.00    -0.237 OA
ATOM     75  O   UNL A   1      47.175  38.001  28.154  1.00  0.00    -0.237 OA
ATOM     76  O   UNL A   1      46.472  37.750  30.505  1.00  0.00    -0.744 OA
ENDBRANCH  72  73
ENDBRANCH  53  67
BRANCH  54  77
ATOM     77  C   UNL A   1      43.355  23.571  26.956  1.00  0.00    -0.014 A 
ATOM     78  C   UNL A   1      43.192  22.643  28.000  1.00  0.00     0.010 A 
ATOM     79  C   UNL A   1      43.113  23.158  25.633  1.00  0.00     0.010 A 
ATOM     80  C   UNL A   1      42.838  21.318  27.723  1.00  0.00     0.020 A 
ATOM     81  C   UNL A   1      42.725  21.844  25.355  1.00  0.00     0.020 A 
ATOM     82  C   UNL A   1      42.610  20.927  26.401  1.00  0.00     0.054 A 
BRANCH  82  83
ATOM     83  S   UNL A   1      42.143  19.206  26.065  1.00  0.00     0.124 S 
ATOM     84  O   UNL A   1      42.952  18.896  24.891  1.00  0.00    -0.237 OA
ATOM     85  O   UNL A   1      42.531  18.528  27.299  1.00  0.00    -0.237 OA
ATOM     86  O   UNL A   1      40.703  19.283  25.831  1.00  0.00    -0.744 OA
ENDBRANCH  82  83
ENDBRANCH  54  77
BRANCH  66  87
ATOM     87  C   UNL A   1      49.459  26.868  26.231  1.00  0.00    -0.014 A 
ATOM     88  C   UNL A   1      50.310  26.150  27.089  1.00  0.00     0.010 A 
ATOM     89  C   UNL A   1      49.866  27.110  24.906  1.00  0.00     0.010 A 
ATOM     90  C   UNL A   1      51.559  25.711  26.639  1.00  0.00     0.020 A 
ATOM     91  C   UNL A   1      51.099  26.645  24.443  1.00  0.00     0.020 A 
ATOM     92  C   UNL A   1      51.944  25.960  25.318  1.00  0.00     0.054 A 
BRANCH  92  93
ATOM     93  S   UNL A   1      53.549  25.340  24.747  1.00  0.00     0.124 S 
ATOM     94  O   UNL A   1      53.492  23.935  25.144  1.00  0.00    -0.237 OA
ATOM     95  O   UNL A   1      53.495  25.589  23.308  1.00  0.00    -0.237 OA
ATOM     96  O   UNL A   1      54.516  26.155  25.479  1.00  0.00    -0.744 OA
ENDBRANCH  92  93
ENDBRANCH  66  87
ENDBRANCH  40  41
ENDBRANCH  32  35
ENDBRANCH  30  31
ENDBRANCH  29  30
ENDBRANCH   1  29
TORSDOF 18
ENDMDL
MODEL 2
REMARK VINA RESULT:     -11.9      6.004      8.203
REMARK SMILES COc1ccc(/C=C/c2cc(C(=O)NCCCCNC(=O)c3ccc(-c4c5nc(c(-c6ccc(S(=O)(=O)[O-])cc6)c6ccc([nH]6)c(-c6ccc(S(=O)(=O)[O-])cc6)c6nc(c(-c7ccc(S(=O)(=O)[O-])cc7)c7ccc4[nH]7)C=C6)C=C5)cc3)c3ccccc3n2)c(OC)c1
REMARK SMILES IDX 16 1 15 2 14 3 12 4 13 5 11 7 9 8 10 9 88 10 87 11 82 12
REMARK SMILES IDX 86 13 83 14 85 15 84 16 8 17 7 18 6 19 3 20 4 21 92 22 5 23
REMARK SMILES IDX 89 24 2 25 1 26 90 27 91 28 17 29 18 30 19 31 20 32 21 34
REMARK SMILES IDX 22 35 23 36 81 37 24 38 80 39 25 40 26 41 27 42 74 43 28 44
REMARK SMILES IDX 79 45 73 46 75 47 29 48 78 49 72 50 71 51 30 53 60 54 41 55
REMARK SMILES IDX 59 56 42 57 45 58 58 59 76 60 43 61 44 62 57 64 77 65 46 66
REMARK SMILES IDX 31 67 32 68 40 69 33 70 39 71 34 72 35 73 36 74 37 75 38 76
REMARK SMILES IDX 61 77 62 78 70 79 63 80 69 81 64 82 65 83 66 84 67 85 68 86
REMARK SMILES IDX 47 87 48 88 56 89 49 90 55 91 50 92 51 93 52 94 53 95 54 96
REMARK H PARENT 14 6 19 33 75 52 45 63
REMARK Flexibility Score: inf
ROOT
ATOM      1  C   UNL A   1      31.628  30.835  26.837  1.00  0.00     0.023 C 
ENDROOT
BRANCH   1   2
ATOM      2  C   UNL A   1      31.826  30.144  25.485  1.00  0.00     0.116 C 
BRANCH   2   3
ATOM      3  N   UNL A   1      33.101  29.452  25.503  1.00  0.00    -0.352 N 
ATOM      4  C   UNL A   1      33.354  28.185  25.959  1.00  0.00     0.252 C 
ATOM      5  O   UNL A   1      34.415  27.921  26.509  1.00  0.00    -0.269 OA
ATOM      6  H   UNL A   1      33.873  29.950  25.147  1.00  0.00     0.163 HD
BRANCH   4   7
ATOM      7  C   UNL A   1      32.395  27.125  25.602  1.00  0.00     0.051 A 
ATOM      8  C   UNL A   1      30.714  25.566  26.085  1.00  0.00     0.065 A 
ATOM      9  C   UNL A   1      31.565  26.545  26.559  1.00  0.00     0.042 A 
ATOM     10  N   UNL A   1      30.359  25.528  24.783  1.00  0.00    -0.248 NA
ATOM     11  C   UNL A   1      31.341  25.797  23.927  1.00  0.00     0.072 A 
ATOM     12  C   UNL A   1      32.457  26.551  24.310  1.00  0.00     0.013 A 
ATOM     13  C   UNL A   1      31.337  25.124  22.719  1.00  0.00     0.029 A 
ATOM     14  C   UNL A   1      33.593  26.548  23.470  1.00  0.00     0.011 A 
ATOM     15  C   UNL A   1      32.487  25.060  21.935  1.00  0.00     0.002 A 
ATOM     16  C   UNL A   1      33.624  25.758  22.322  1.00  0.00     0.001 A 
BRANCH   8  17
ATOM     17  C   UNL A   1      30.865  24.152  26.543  1.00  0.00     0.029 C 
ATOM     18  C   UNL A   1      32.149  23.715  26.574  1.00  0.00     0.014 C 
BRANCH  18  19
ATOM     19  C   UNL A   1      32.684  22.436  26.040  1.00  0.00     0.017 A 
ATOM     20  C   UNL A   1      33.739  20.063  24.929  1.00  0.00     0.122 A 
ATOM     21  C   UNL A   1      32.384  20.354  24.811  1.00  0.00     0.047 A 
ATOM     22  C   UNL A   1      34.590  20.984  25.534  1.00  0.00     0.093 A 
ATOM     23  C   UNL A   1      31.858  21.521  25.374  1.00  0.00     0.016 A 
ATOM     24  C   UNL A   1      34.082  22.176  26.072  1.00  0.00     0.129 A 
BRANCH  20  25
ATOM     25  O   UNL A   1      34.146  18.870  24.395  1.00  0.00    -0.497 OA
ATOM     26  C   UNL A   1      33.121  18.139  23.724  1.00  0.00     0.278 C 
ENDBRANCH  20  25
BRANCH  24  27
ATOM     27  O   UNL A   1      34.901  23.130  26.636  1.00  0.00    -0.496 OA
ATOM     28  C   UNL A   1      36.065  23.509  25.902  1.00  0.00     0.278 C 
ENDBRANCH  24  27
ENDBRANCH  18  19
ENDBRANCH   8  17
ENDBRANCH   4   7
ENDBRANCH   2   3
ENDBRANCH   1   2
BRANCH   1  29
ATOM     29  C   UNL A   1      31.733  32.366  26.770  1.00  0.00     0.023 C 
BRANCH  29  30
ATOM     30  C   UNL A   1      32.844  32.963  27.626  1.00  0.00     0.116 C 
BRANCH  30  31
ATOM     31  N   UNL A   1      32.634  34.379  27.888  1.00  0.00    -0.352 N 
ATOM     32  C   UNL A   1      33.223  35.170  28.845  1.00  0.00     0.251 C 
ATOM     33  H   UNL A   1      31.985  34.830  27.303  1.00  0.00     0.163 HD
ATOM     34  O   UNL A   1      32.819  36.303  29.047  1.00  0.00    -0.269 OA
BRANCH  32  35
ATOM     35  C   UNL A   1      34.334  34.610  29.641  1.00  0.00     0.039 A 
ATOM     36  C   UNL A   1      34.046  33.984  30.854  1.00  0.00     0.014 A 
ATOM     37  C   UNL A   1      35.645  34.671  29.161  1.00  0.00     0.014 A 
ATOM     38  C   UNL A   1      35.075  33.365  31.563  1.00  0.00     0.010 A 
ATOM     39  C   UNL A   1      36.654  33.991  29.833  1.00  0.00     0.010 A 
ATOM     40  C   UNL A   1      36.379  33.335  31.042  1.00  0.00    -0.014 A 
BRANCH  40  41
ATOM     41  C   UNL A   1      37.471  32.623  31.753  1.00  0.00     0.031 A 
ATOM     42  C   UNL A   1      37.968  33.144  33.075  1.00  0.00     0.074 A 
ATOM     43  C   UNL A   1      38.042  31.543  31.186  1.00  0.00     0.049 A 
ATOM     44  N   UNL A   1      38.941  32.691  33.823  1.00  0.00    -0.248 NA
ATOM     45  C   UNL A   1      37.300  34.340  33.618  1.00  0.00     0.031 C 
ATOM     46  C   UNL A   1      37.672  30.969  29.889  1.00  0.00     0.029 A 
ATOM     47  N   UNL A   1      39.060  30.733  31.625  1.00  0.00    -0.354 N 
ATOM     48  C   UNL A   1      39.008  33.549  34.914  1.00  0.00     0.074 A 
ATOM     49  C   UNL A   1      38.017  34.581  34.705  1.00  0.00     0.031 C 
ATOM     50  C   UNL A   1      38.431  29.885  29.654  1.00  0.00     0.029 A 
ATOM     51  C   UNL A   1      39.371  29.713  30.756  1.00  0.00     0.049 A 
ATOM     52  H   UNL A   1      39.525  30.871  32.483  1.00  0.00     0.167 HD
ATOM     53  C   UNL A   1      39.804  33.469  36.006  1.00  0.00     0.031 A 
ATOM     54  C   UNL A   1      40.312  28.752  30.836  1.00  0.00     0.031 A 
ATOM     55  C   UNL A   1      40.780  32.433  36.214  1.00  0.00     0.049 A 
ATOM     56  C   UNL A   1      41.201  28.703  32.050  1.00  0.00     0.074 A 
ATOM     57  C   UNL A   1      41.607  32.239  37.307  1.00  0.00     0.029 A 
ATOM     58  N   UNL A   1      41.060  31.416  35.314  1.00  0.00    -0.354 N 
ATOM     59  N   UNL A   1      41.204  29.487  33.101  1.00  0.00    -0.248 NA
ATOM     60  C   UNL A   1      42.207  27.633  32.093  1.00  0.00     0.031 C 
ATOM     61  C   UNL A   1      42.426  31.138  37.043  1.00  0.00     0.029 A 
ATOM     62  C   UNL A   1      42.061  30.604  35.817  1.00  0.00     0.049 A 
ATOM     63  H   UNL A   1      40.612  31.289  34.447  1.00  0.00     0.167 HD
ATOM     64  C   UNL A   1      42.188  28.982  33.946  1.00  0.00     0.074 A 
ATOM     65  C   UNL A   1      42.744  27.816  33.291  1.00  0.00     0.031 C 
ATOM     66  C   UNL A   1      42.594  29.441  35.155  1.00  0.00     0.031 A 
BRANCH  53  67
ATOM     67  C   UNL A   1      39.647  34.525  37.069  1.00  0.00    -0.014 A 
ATOM     68  C   UNL A   1      38.961  34.248  38.267  1.00  0.00     0.010 A 
ATOM     69  C   UNL A   1      40.249  35.784  36.901  1.00  0.00     0.010 A 
ATOM     70  C   UNL A   1      38.861  35.220  39.266  1.00  0.00     0.020 A 
ATOM     71  C   UNL A   1      40.177  36.749  37.910  1.00  0.00     0.020 A 
ATOM     72  C   UNL A   1      39.474  36.463  39.082  1.00  0.00     0.054 A 
BRANCH  72  73
ATOM     73  S   UNL A   1      39.373  37.683  40.421  1.00  0.00     0.124 S 
ATOM     74  O   UNL A   1      40.764  38.114  40.541  1.00  0.00    -0.237 OA
ATOM     75  O   UNL A   1      38.453  38.678  39.875  1.00  0.00    -0.237 OA
ATOM     76  O   UNL A   1      38.859  36.917  41.553  1.00  0.00    -0.744 OA
ENDBRANCH  72  73
ENDBRANCH  53  67
BRANCH  54  77
ATOM     77  C   UNL A   1      40.469  27.757  29.737  1.00  0.00    -0.014 A 
ATOM     78  C   UNL A   1      41.594  27.791  28.893  1.00  0.00     0.010 A 
ATOM     79  C   UNL A   1      39.478  26.784  29.511  1.00  0.00     0.010 A 
ATOM     80  C   UNL A   1      41.703  26.901  27.820  1.00  0.00     0.020 A 
ATOM     81  C   UNL A   1      39.600  25.870  28.461  1.00  0.00     0.020 A 
ATOM     82  C   UNL A   1      40.703  25.948  27.609  1.00  0.00     0.054 A 
BRANCH  82  83
ATOM     83  S   UNL A   1      40.870  24.797  26.217  1.00  0.00     0.124 S 
ATOM     84  O   UNL A   1      41.950  23.928  26.669  1.00  0.00    -0.237 OA
ATOM     85  O   UNL A   1      39.546  24.183  26.154  1.00  0.00    -0.237 OA
ATOM     86  O   UNL A   1      41.197  25.670  25.091  1.00  0.00    -0.744 OA
ENDBRANCH  82  83
ENDBRANCH  54  77
BRANCH  66  87
ATOM     87  C   UNL A   1      43.661  28.657  35.874  1.00  0.00    -0.014 A 
ATOM     88  C   UNL A   1      43.339  27.562  36.694  1.00  0.00     0.010 A 
ATOM     89  C   UNL A   1      45.014  28.991  35.676  1.00  0.00     0.010 A 
ATOM     90  C   UNL A   1      44.350  26.836  37.330  1.00  0.00     0.020 A 
ATOM     91  C   UNL A   1      46.028  28.248  36.285  1.00  0.00     0.020 A 
ATOM     92  C   UNL A   1      45.688  27.183  37.120  1.00  0.00     0.054 A 
BRANCH  92  93
ATOM     93  S   UNL A   1      46.981  26.196  37.922  1.00  0.00     0.124 S 
ATOM     94  O   UNL A   1      47.781  25.758  36.781  1.00  0.00    -0.237 OA
ATOM     95  O   UNL A   1      47.623  27.168  38.804  1.00  0.00    -0.237 OA
ATOM     96  O   UNL A   1      46.237  25.139  38.603  1.00  0.00    -0.744 OA
ENDBRANCH  92  93
ENDBRANCH  66  87
ENDBRANCH  40  41
ENDBRANCH  32  35
ENDBRANCH  30  31
ENDBRANCH  29  30
ENDBRANCH   1  29
TORSDOF 18
ENDMDL
MODEL 3
REMARK VINA RESULT:     -11.4      5.734     10.411
REMARK SMILES COc1ccc(/C=C/c2cc(C(=O)NCCCCNC(=O)c3ccc(-c4c5nc(c(-c6ccc(S(=O)(=O)[O-])cc6)c6ccc([nH]6)c(-c6ccc(S(=O)(=O)[O-])cc6)c6nc(c(-c7ccc(S(=O)(=O)[O-])cc7)c7ccc4[nH]7)C=C6)C=C5)cc3)c3ccccc3n2)c(OC)c1
REMARK SMILES IDX 16 1 15 2 14 3 12 4 13 5 11 7 9 8 10 9 88 10 87 11 82 12
REMARK SMILES IDX 86 13 83 14 85 15 84 16 8 17 7 18 6 19 3 20 4 21 92 22 5 23
REMARK SMILES IDX 89 24 2 25 1 26 90 27 91 28 17 29 18 30 19 31 20 32 21 34
REMARK SMILES IDX 22 35 23 36 81 37 24 38 80 39 25 40 26 41 27 42 74 43 28 44
REMARK SMILES IDX 79 45 73 46 75 47 29 48 78 49 72 50 71 51 30 53 60 54 41 55
REMARK SMILES IDX 59 56 42 57 45 58 58 59 76 60 43 61 44 62 57 64 77 65 46 66
REMARK SMILES IDX 31 67 32 68 40 69 33 70 39 71 34 72 35 73 36 74 37 75 38 76
REMARK SMILES IDX 61 77 62 78 70 79 63 80 69 81 64 82 65 83 66 84 67 85 68 86
REMARK SMILES IDX 47 87 48 88 56 89 49 90 55 91 50 92 51 93 52 94 53 95 54 96
REMARK H PARENT 14 6 19 33 75 52 45 63
REMARK Flexibility Score: inf
ROOT
ATOM      1  C   UNL A   1      31.492  30.899  26.716  1.00  0.00     0.023 C 
ENDROOT
BRANCH   1   2
ATOM      2  C   UNL A   1      31.748  30.197  25.380  1.00  0.00     0.116 C 
BRANCH   2   3
ATOM      3  N   UNL A   1      33.022  29.507  25.458  1.00  0.00    -0.352 N 
ATOM      4  C   UNL A   1      33.253  28.236  25.917  1.00  0.00     0.252 C 
ATOM      5  O   UNL A   1      34.286  27.969  26.517  1.00  0.00    -0.269 OA
ATOM      6  H   UNL A   1      33.810  30.009  25.146  1.00  0.00     0.163 HD
BRANCH   4   7
ATOM      7  C   UNL A   1      32.316  27.178  25.502  1.00  0.00     0.051 A 
ATOM      8  C   UNL A   1      30.617  25.611  25.886  1.00  0.00     0.065 A 
ATOM      9  C   UNL A   1      31.441  26.588  26.411  1.00  0.00     0.042 A 
ATOM     10  N   UNL A   1      30.328  25.585  24.568  1.00  0.00    -0.248 NA
ATOM     11  C   UNL A   1      31.350  25.863  23.764  1.00  0.00     0.072 A 
ATOM     12  C   UNL A   1      32.444  26.616  24.210  1.00  0.00     0.013 A 
ATOM     13  C   UNL A   1      31.409  25.201  22.551  1.00  0.00     0.029 A 
ATOM     14  C   UNL A   1      33.621  26.622  23.427  1.00  0.00     0.011 A 
ATOM     15  C   UNL A   1      32.597  25.147  21.826  1.00  0.00     0.002 A 
ATOM     16  C   UNL A   1      33.711  25.844  22.275  1.00  0.00     0.001 A 
BRANCH   8  17
ATOM     17  C   UNL A   1      30.748  24.193  26.338  1.00  0.00     0.029 C 
ATOM     18  C   UNL A   1      32.031  23.766  26.452  1.00  0.00     0.014 C 
BRANCH  18  19
ATOM     19  C   UNL A   1      32.613  22.498  25.943  1.00  0.00     0.017 A 
ATOM     20  C   UNL A   1      33.732  20.137  24.869  1.00  0.00     0.122 A 
ATOM     21  C   UNL A   1      32.352  20.277  24.977  1.00  0.00     0.047 A 
ATOM     22  C   UNL A   1      34.560  21.198  25.225  1.00  0.00     0.093 A 
ATOM     23  C   UNL A   1      31.797  21.438  25.523  1.00  0.00     0.016 A 
ATOM     24  C   UNL A   1      34.016  22.384  25.741  1.00  0.00     0.129 A 
BRANCH  20  25
ATOM     25  O   UNL A   1      34.179  18.940  24.376  1.00  0.00    -0.497 OA
ATOM     26  C   UNL A   1      33.174  18.146  23.747  1.00  0.00     0.278 C 
ENDBRANCH  20  25
BRANCH  24  27
ATOM     27  O   UNL A   1      34.802  23.470  26.059  1.00  0.00    -0.496 OA
ATOM     28  C   UNL A   1      36.043  23.604  25.367  1.00  0.00     0.278 C 
ENDBRANCH  24  27
ENDBRANCH  18  19
ENDBRANCH   8  17
ENDBRANCH   4   7
ENDBRANCH   2   3
ENDBRANCH   1   2
BRANCH   1  29
ATOM     29  C   UNL A   1      31.722  32.417  26.670  1.00  0.00     0.023 C 
BRANCH  29  30
ATOM     30  C   UNL A   1      32.983  32.890  27.386  1.00  0.00     0.116 C 
BRANCH  30  31
ATOM     31  N   UNL A   1      32.879  34.272  27.828  1.00  0.00    -0.352 N 
ATOM     32  C   UNL A   1      33.562  34.903  28.840  1.00  0.00     0.251 C 
ATOM     33  H   UNL A   1      32.235  34.830  27.336  1.00  0.00     0.163 HD
ATOM     34  O   UNL A   1      33.242  36.024  29.199  1.00  0.00    -0.269 OA
BRANCH  32  35
ATOM     35  C   UNL A   1      34.668  34.183  29.502  1.00  0.00     0.039 A 
ATOM     36  C   UNL A   1      35.974  34.403  29.062  1.00  0.00     0.014 A 
ATOM     37  C   UNL A   1      34.410  33.330  30.578  1.00  0.00     0.014 A 
ATOM     38  C   UNL A   1      37.033  33.805  29.743  1.00  0.00     0.010 A 
ATOM     39  C   UNL A   1      35.472  32.795  31.299  1.00  0.00     0.010 A 
ATOM     40  C   UNL A   1      36.793  33.024  30.887  1.00  0.00    -0.014 A 
BRANCH  40  41
ATOM     41  C   UNL A   1      37.915  32.436  31.662  1.00  0.00     0.031 A 
ATOM     42  C   UNL A   1      38.700  31.289  31.088  1.00  0.00     0.074 A 
ATOM     43  C   UNL A   1      38.189  32.904  32.895  1.00  0.00     0.049 A 
ATOM     44  N   UNL A   1      39.680  30.612  31.629  1.00  0.00    -0.248 NA
ATOM     45  C   UNL A   1      38.325  30.827  29.740  1.00  0.00     0.031 C 
ATOM     46  C   UNL A   1      37.470  33.986  33.573  1.00  0.00     0.029 A 
ATOM     47  N   UNL A   1      39.147  32.526  33.803  1.00  0.00    -0.354 N 
ATOM     48  C   UNL A   1      40.030  29.643  30.696  1.00  0.00     0.074 A 
ATOM     49  C   UNL A   1      39.122  29.781  29.579  1.00  0.00     0.031 C 
ATOM     50  C   UNL A   1      38.031  34.203  34.774  1.00  0.00     0.029 A 
ATOM     51  C   UNL A   1      39.116  33.249  34.973  1.00  0.00     0.049 A 
ATOM     52  H   UNL A   1      39.795  31.804  33.633  1.00  0.00     0.167 HD
ATOM     53  C   UNL A   1      41.034  28.737  30.752  1.00  0.00     0.031 A 
ATOM     54  C   UNL A   1      39.873  33.149  36.084  1.00  0.00     0.031 A 
ATOM     55  C   UNL A   1      41.941  28.611  31.861  1.00  0.00     0.049 A 
ATOM     56  C   UNL A   1      40.965  32.113  36.129  1.00  0.00     0.074 A 
ATOM     57  C   UNL A   1      43.018  27.753  31.997  1.00  0.00     0.029 A 
ATOM     58  N   UNL A   1      41.880  29.364  33.023  1.00  0.00    -0.354 N 
ATOM     59  N   UNL A   1      41.320  31.249  35.208  1.00  0.00    -0.248 NA
ATOM     60  C   UNL A   1      41.767  32.048  37.358  1.00  0.00     0.031 C 
ATOM     61  C   UNL A   1      43.574  27.949  33.263  1.00  0.00     0.029 A 
ATOM     62  C   UNL A   1      42.887  28.977  33.889  1.00  0.00     0.049 A 
ATOM     63  H   UNL A   1      41.220  30.072  33.205  1.00  0.00     0.167 HD
ATOM     64  C   UNL A   1      42.409  30.561  35.736  1.00  0.00     0.074 A 
ATOM     65  C   UNL A   1      42.664  31.124  37.046  1.00  0.00     0.031 C 
ATOM     66  C   UNL A   1      43.133  29.556  35.185  1.00  0.00     0.031 A 
BRANCH  53  67
ATOM     67  C   UNL A   1      41.214  27.814  29.575  1.00  0.00    -0.014 A 
ATOM     68  C   UNL A   1      42.355  27.902  28.756  1.00  0.00     0.010 A 
ATOM     69  C   UNL A   1      40.269  26.804  29.325  1.00  0.00     0.010 A 
ATOM     70  C   UNL A   1      42.535  27.011  27.695  1.00  0.00     0.020 A 
ATOM     71  C   UNL A   1      40.460  25.891  28.282  1.00  0.00     0.020 A 
ATOM     72  C   UNL A   1      41.588  26.009  27.468  1.00  0.00     0.054 A 
BRANCH  72  73
ATOM     73  S   UNL A   1      41.878  24.833  26.117  1.00  0.00     0.124 S 
ATOM     74  O   UNL A   1      41.133  25.445  25.019  1.00  0.00    -0.237 OA
ATOM     75  O   UNL A   1      43.333  24.860  25.980  1.00  0.00    -0.237 OA
ATOM     76  O   UNL A   1      41.325  23.579  26.621  1.00  0.00    -0.744 OA
ENDBRANCH  72  73
ENDBRANCH  53  67
BRANCH  54  77
ATOM     77  C   UNL A   1      39.627  34.046  37.248  1.00  0.00    -0.014 A 
ATOM     78  C   UNL A   1      40.202  35.329  37.299  1.00  0.00     0.010 A 
ATOM     79  C   UNL A   1      38.837  33.610  38.327  1.00  0.00     0.010 A 
ATOM     80  C   UNL A   1      40.027  36.140  38.425  1.00  0.00     0.020 A 
ATOM     81  C   UNL A   1      38.631  34.432  39.439  1.00  0.00     0.020 A 
ATOM     82  C   UNL A   1      39.245  35.684  39.490  1.00  0.00     0.054 A 
BRANCH  82  83
ATOM     83  S   UNL A   1      39.024  36.757  40.936  1.00  0.00     0.124 S 
ATOM     84  O   UNL A   1      40.392  36.894  41.424  1.00  0.00    -0.237 OA
ATOM     85  O   UNL A   1      38.436  37.959  40.351  1.00  0.00    -0.237 OA
ATOM     86  O   UNL A   1      38.126  35.989  41.797  1.00  0.00    -0.744 OA
ENDBRANCH  82  83
ENDBRANCH  54  77
BRANCH  66  87
ATOM     87  C   UNL A   1      44.301  29.027  35.976  1.00  0.00    -0.014 A 
ATOM     88  C   UNL A   1      44.122  28.102  37.020  1.00  0.00     0.010 A 
ATOM     89  C   UNL A   1      45.606  29.423  35.627  1.00  0.00     0.010 A 
ATOM     90  C   UNL A   1      45.225  27.609  37.722  1.00  0.00     0.020 A 
ATOM     91  C   UNL A   1      46.713  28.907  36.305  1.00  0.00     0.020 A 
ATOM     92  C   UNL A   1      46.513  28.014  37.358  1.00  0.00     0.054 A 
BRANCH  92  93
ATOM     93  S   UNL A   1      47.929  27.323  38.257  1.00  0.00     0.124 S 
ATOM     94  O   UNL A   1      48.015  28.207  39.416  1.00  0.00    -0.237 OA
ATOM     95  O   UNL A   1      47.493  25.957  38.539  1.00  0.00    -0.237 OA
ATOM     96  O   UNL A   1      49.032  27.435  37.305  1.00  0.00    -0.744 OA
ENDBRANCH  92  93
ENDBRANCH  66  87
ENDBRANCH  40  41
ENDBRANCH  32  35
ENDBRANCH  30  31
ENDBRANCH  29  30
ENDBRANCH   1  29
TORSDOF 18
ENDMDL
